MODEL 1
REMARK VINA RESULT:     -10.7      0.000      0.000
REMARK SMILES COC(=O)c1ccc2c(c1)=N[C@H](c1cn(CCC(=O)OCCOCCOCCOCCOC(=O)c3ccc(-c4c5nc(c(-c6c(F)c(F)c(F)c(F)c6F)c6ccc([nH]6)c(-c6c(F)c(F)c(F)c(F)c6F)c6nc(c(-c7c(F)c(F)c(F)c(F)c7F)c7ccc4[nH]7)C=C6)C=C5)cc3)c3ccccc13)N=2
REMARK SMILES IDX 24 1 23 2 22 3 21 4 20 5 18 6 19 7 17 8 16 9 15 10 13 11
REMARK SMILES IDX 14 12 103 13 98 14 102 15 99 16 101 17 100 18 12 19 5 20
REMARK SMILES IDX 6 21 10 22 7 23 9 24 8 25 11 26 104 27 3 28 4 29 2 30 1 31
REMARK SMILES IDX 25 32 26 33 27 34 28 35 29 36 30 37 31 38 32 39 33 40 34 41
REMARK SMILES IDX 35 42 36 43 97 44 37 45 96 46 38 47 39 48 40 49 90 50 41 51
REMARK SMILES IDX 95 52 89 53 91 54 42 55 94 56 88 57 87 58 43 60 75 61 55 62
REMARK SMILES IDX 74 63 56 64 59 65 73 66 92 67 57 68 58 69 72 71 93 72 60 73
REMARK SMILES IDX 44 74 45 75 53 76 46 77 47 78 51 79 54 80 48 81 49 82 52 83
REMARK SMILES IDX 50 84 76 85 77 86 85 87 78 88 79 89 83 90 86 91 80 92 81 93
REMARK SMILES IDX 84 94 82 95 61 96 62 97 70 98 63 99 64 100 68 101 71 102
REMARK SMILES IDX 65 103 66 104 69 105 67 106
REMARK H PARENT 91 59 59 70
REMARK Flexibility Score: inf
ROOT
ATOM      1  C   UNL A   1      34.227  32.979  28.412  1.00  0.00     0.188 C 
ENDROOT
BRANCH   1   2
ATOM      2  O   UNL A   1      33.796  32.180  27.331  1.00  0.00    -0.376 OA
BRANCH   2   3
ATOM      3  C   UNL A   1      32.628  31.379  27.313  1.00  0.00     0.202 C 
BRANCH   3   4
ATOM      4  C   UNL A   1      32.619  29.853  27.182  1.00  0.00     0.261 C 
BRANCH   4   5
ATOM      5  O   UNL A   1      31.361  29.221  26.872  1.00  0.00    -0.463 OA
BRANCH   5   6
ATOM      6  C   UNL A   1      31.440  27.894  26.601  1.00  0.00     0.307 C 
ATOM      7  O   UNL A   1      31.324  27.019  27.458  1.00  0.00    -0.252 OA
BRANCH   6   8
ATOM      8  C   UNL A   1      31.694  27.494  25.158  1.00  0.00     0.144 C 
BRANCH   8   9
ATOM      9  C   UNL A   1      33.078  27.225  24.561  1.00  0.00     0.134 C 
BRANCH   9  10
ATOM     10  N   UNL A   1      33.483  25.844  24.657  1.00  0.00    -0.346 N 
ATOM     11  C   UNL A   1      34.499  23.970  25.177  1.00  0.00     0.024 A 
ATOM     12  C   UNL A   1      34.228  25.258  25.653  1.00  0.00     0.094 A 
ATOM     13  C   UNL A   1      34.217  24.053  23.759  1.00  0.00     0.007 A 
ATOM     14  C   UNL A   1      33.045  24.798  23.889  1.00  0.00     0.048 A 
ATOM     15  C   UNL A   1      34.251  23.100  22.729  1.00  0.00     0.011 A 
ATOM     16  C   UNL A   1      31.809  24.200  23.667  1.00  0.00     0.027 A 
ATOM     17  C   UNL A   1      33.042  22.479  22.445  1.00  0.00     0.001 A 
ATOM     18  C   UNL A   1      31.872  22.950  23.043  1.00  0.00     0.002 A 
BRANCH  11  19
ATOM     19  C   UNL A   1      34.695  22.728  26.016  1.00  0.00     0.255 C 
ATOM     20  C   UNL A   1      34.073  18.438  24.632  1.00  0.00     0.062 A 
ATOM     21  C   UNL A   1      35.528  18.524  24.541  1.00  0.00     0.018 A 
ATOM     22  C   UNL A   1      33.319  19.497  24.982  1.00  0.00     0.046 A 
ATOM     23  C   UNL A   1      36.221  19.641  24.811  1.00  0.00     0.031 A 
ATOM     24  C   UNL A   1      34.004  20.748  25.355  1.00  0.00     0.087 A 
ATOM     25  C   UNL A   1      35.475  20.825  25.264  1.00  0.00     0.086 A 
ATOM     26  N   UNL A   1      33.498  21.835  25.825  1.00  0.00    -0.252 NA
ATOM     27  N   UNL A   1      35.929  21.964  25.659  1.00  0.00    -0.252 NA
BRANCH  20  28
ATOM     28  C   UNL A   1      33.339  17.164  24.339  1.00  0.00     0.337 C 
ATOM     29  O   UNL A   1      33.292  16.637  23.238  1.00  0.00    -0.246 OA
BRANCH  28  30
ATOM     30  O   UNL A   1      32.707  16.717  25.457  1.00  0.00    -0.465 OA
ATOM     31  C   UNL A   1      32.557  15.295  25.532  1.00  0.00     0.282 C 
ENDBRANCH  28  30
ENDBRANCH  20  28
ENDBRANCH  11  19
ENDBRANCH   9  10
ENDBRANCH   8   9
ENDBRANCH   6   8
ENDBRANCH   5   6
ENDBRANCH   4   5
ENDBRANCH   3   4
ENDBRANCH   2   3
ENDBRANCH   1   2
BRANCH   1  32
ATOM     32  C   UNL A   1      33.467  34.250  28.822  1.00  0.00     0.188 C 
BRANCH  32  33
ATOM     33  O   UNL A   1      34.025  35.340  29.523  1.00  0.00    -0.377 OA
BRANCH  33  34
ATOM     34  C   UNL A   1      33.180  36.022  30.429  1.00  0.00     0.188 C 
BRANCH  34  35
ATOM     35  C   UNL A   1      33.473  35.598  31.862  1.00  0.00     0.188 C 
BRANCH  35  36
ATOM     36  O   UNL A   1      34.845  35.368  32.126  1.00  0.00    -0.376 OA
BRANCH  36  37
ATOM     37  C   UNL A   1      35.294  34.097  32.589  1.00  0.00     0.202 C 
BRANCH  37  38
ATOM     38  C   UNL A   1      34.731  32.725  32.150  1.00  0.00     0.261 C 
BRANCH  38  39
ATOM     39  O   UNL A   1      35.595  31.896  31.367  1.00  0.00    -0.460 OA
BRANCH  39  40
ATOM     40  C   UNL A   1      36.753  32.398  30.856  1.00  0.00     0.338 C 
ATOM     41  O   UNL A   1      36.959  33.490  30.433  1.00  0.00    -0.246 OA
BRANCH  40  42
ATOM     42  C   UNL A   1      37.776  31.377  31.246  1.00  0.00     0.060 A 
ATOM     43  C   UNL A   1      39.103  31.745  31.447  1.00  0.00     0.016 A 
ATOM     44  C   UNL A   1      37.444  30.028  31.062  1.00  0.00     0.016 A 
ATOM     45  C   UNL A   1      40.099  30.779  31.312  1.00  0.00     0.010 A 
ATOM     46  C   UNL A   1      38.456  29.071  30.902  1.00  0.00     0.010 A 
ATOM     47  C   UNL A   1      39.795  29.455  30.962  1.00  0.00    -0.014 A 
BRANCH  47  48
ATOM     48  C   UNL A   1      40.936  28.524  30.834  1.00  0.00     0.031 A 
ATOM     49  C   UNL A   1      41.579  28.164  32.140  1.00  0.00     0.074 A 
ATOM     50  C   UNL A   1      41.361  27.907  29.709  1.00  0.00     0.049 A 
ATOM     51  N   UNL A   1      42.825  28.234  32.489  1.00  0.00    -0.248 NA
ATOM     52  C   UNL A   1      40.673  27.760  33.227  1.00  0.00     0.031 C 
ATOM     53  C   UNL A   1      40.747  27.909  28.381  1.00  0.00     0.029 A 
ATOM     54  N   UNL A   1      42.413  27.038  29.556  1.00  0.00    -0.354 N 
ATOM     55  C   UNL A   1      42.883  27.759  33.800  1.00  0.00     0.074 A 
ATOM     56  C   UNL A   1      41.523  27.587  34.237  1.00  0.00     0.031 C 
ATOM     57  C   UNL A   1      41.290  26.916  27.638  1.00  0.00     0.029 A 
ATOM     58  C   UNL A   1      42.357  26.278  28.393  1.00  0.00     0.049 A 
ATOM     59  H   UNL A   1      43.143  26.960  30.212  1.00  0.00     0.167 HD
ATOM     60  C   UNL A   1      44.045  27.388  34.406  1.00  0.00     0.037 A 
ATOM     61  C   UNL A   1      43.073  25.158  28.108  1.00  0.00     0.037 A 
ATOM     62  C   UNL A   1      45.197  27.959  33.774  1.00  0.00     0.049 A 
ATOM     63  C   UNL A   1      44.255  25.121  29.000  1.00  0.00     0.074 A 
ATOM     64  C   UNL A   1      45.652  29.247  33.565  1.00  0.00     0.029 A 
ATOM     65  N   UNL A   1      45.988  27.163  32.986  1.00  0.00    -0.354 N 
ATOM     66  N   UNL A   1      45.290  25.904  28.888  1.00  0.00    -0.248 NA
ATOM     67  C   UNL A   1      44.115  24.445  30.282  1.00  0.00     0.031 C 
ATOM     68  C   UNL A   1      46.327  29.203  32.311  1.00  0.00     0.029 A 
ATOM     69  C   UNL A   1      46.256  27.888  31.854  1.00  0.00     0.049 A 
ATOM     70  H   UNL A   1      46.301  26.252  33.190  1.00  0.00     0.167 HD
ATOM     71  C   UNL A   1      45.679  26.154  30.193  1.00  0.00     0.074 A 
ATOM     72  C   UNL A   1      44.985  25.156  31.001  1.00  0.00     0.031 C 
ATOM     73  C   UNL A   1      46.305  27.317  30.533  1.00  0.00     0.037 A 
BRANCH  60  74
ATOM     74  C   UNL A   1      44.145  26.278  35.421  1.00  0.00     0.064 A 
ATOM     75  C   UNL A   1      44.708  26.531  36.688  1.00  0.00     0.173 A 
ATOM     76  C   UNL A   1      43.970  24.915  35.094  1.00  0.00     0.173 A 
ATOM     77  F   UNL A   1      44.944  27.789  37.091  1.00  0.00    -0.203 F 
ATOM     78  C   UNL A   1      45.119  25.498  37.534  1.00  0.00     0.198 A 
ATOM     79  C   UNL A   1      44.329  23.887  35.964  1.00  0.00     0.198 A 
ATOM     80  F   UNL A   1      43.547  24.526  33.885  1.00  0.00    -0.203 F 
ATOM     81  F   UNL A   1      45.756  25.786  38.676  1.00  0.00    -0.200 F 
ATOM     82  C   UNL A   1      44.931  24.176  37.170  1.00  0.00     0.200 A 
ATOM     83  F   UNL A   1      44.155  22.613  35.585  1.00  0.00    -0.200 F 
ATOM     84  F   UNL A   1      45.373  23.185  37.954  1.00  0.00    -0.200 F 
ENDBRANCH  60  74
BRANCH  61  85
ATOM     85  C   UNL A   1      42.677  23.977  27.297  1.00  0.00     0.064 A 
ATOM     86  C   UNL A   1      43.507  23.468  26.281  1.00  0.00     0.173 A 
ATOM     87  C   UNL A   1      41.600  23.154  27.683  1.00  0.00     0.173 A 
ATOM     88  F   UNL A   1      44.589  24.154  25.885  1.00  0.00    -0.203 F 
ATOM     89  C   UNL A   1      43.280  22.214  25.701  1.00  0.00     0.198 A 
ATOM     90  C   UNL A   1      41.367  21.910  27.095  1.00  0.00     0.198 A 
ATOM     91  F   UNL A   1      40.806  23.496  28.707  1.00  0.00    -0.203 F 
ATOM     92  F   UNL A   1      44.131  21.738  24.781  1.00  0.00    -0.200 F 
ATOM     93  C   UNL A   1      42.214  21.433  26.114  1.00  0.00     0.200 A 
ATOM     94  F   UNL A   1      40.353  21.150  27.534  1.00  0.00    -0.200 F 
ATOM     95  F   UNL A   1      42.028  20.209  25.601  1.00  0.00    -0.200 F 
ENDBRANCH  61  85
BRANCH  73  96
ATOM     96  C   UNL A   1      46.813  28.204  29.435  1.00  0.00     0.064 A 
ATOM     97  C   UNL A   1      46.009  29.119  28.736  1.00  0.00     0.173 A 
ATOM     98  C   UNL A   1      48.195  28.246  29.201  1.00  0.00     0.173 A 
ATOM     99  F   UNL A   1      44.694  29.214  28.978  1.00  0.00    -0.203 F 
ATOM    100  C   UNL A   1      46.564  30.006  27.816  1.00  0.00     0.198 A 
ATOM    101  C   UNL A   1      48.750  29.165  28.316  1.00  0.00     0.198 A 
ATOM    102  F   UNL A   1      49.018  27.426  29.876  1.00  0.00    -0.203 F 
ATOM    103  F   UNL A   1      45.774  30.851  27.139  1.00  0.00    -0.200 F 
ATOM    104  C   UNL A   1      47.934  30.040  27.619  1.00  0.00     0.200 A 
ATOM    105  F   UNL A   1      50.081  29.224  28.162  1.00  0.00    -0.200 F 
ATOM    106  F   UNL A   1      48.470  30.934  26.775  1.00  0.00    -0.200 F 
ENDBRANCH  73  96
ENDBRANCH  47  48
ENDBRANCH  40  42
ENDBRANCH  39  40
ENDBRANCH  38  39
ENDBRANCH  37  38
ENDBRANCH  36  37
ENDBRANCH  35  36
ENDBRANCH  34  35
ENDBRANCH  33  34
ENDBRANCH  32  33
ENDBRANCH   1  32
TORSDOF 25
ENDMDL
MODEL 2
REMARK VINA RESULT:     -10.5      5.197     10.543
REMARK SMILES COC(=O)c1ccc2c(c1)=N[C@H](c1cn(CCC(=O)OCCOCCOCCOCCOC(=O)c3ccc(-c4c5nc(c(-c6c(F)c(F)c(F)c(F)c6F)c6ccc([nH]6)c(-c6c(F)c(F)c(F)c(F)c6F)c6nc(c(-c7c(F)c(F)c(F)c(F)c7F)c7ccc4[nH]7)C=C6)C=C5)cc3)c3ccccc13)N=2
REMARK SMILES IDX 24 1 23 2 22 3 21 4 20 5 18 6 19 7 17 8 16 9 15 10 13 11
REMARK SMILES IDX 14 12 103 13 98 14 102 15 99 16 101 17 100 18 12 19 5 20
REMARK SMILES IDX 6 21 10 22 7 23 9 24 8 25 11 26 104 27 3 28 4 29 2 30 1 31
REMARK SMILES IDX 25 32 26 33 27 34 28 35 29 36 30 37 31 38 32 39 33 40 34 41
REMARK SMILES IDX 35 42 36 43 97 44 37 45 96 46 38 47 39 48 40 49 90 50 41 51
REMARK SMILES IDX 95 52 89 53 91 54 42 55 94 56 88 57 87 58 43 60 75 61 55 62
REMARK SMILES IDX 74 63 56 64 59 65 73 66 92 67 57 68 58 69 72 71 93 72 60 73
REMARK SMILES IDX 44 74 45 75 53 76 46 77 47 78 51 79 54 80 48 81 49 82 52 83
REMARK SMILES IDX 50 84 76 85 77 86 85 87 78 88 79 89 83 90 86 91 80 92 81 93
REMARK SMILES IDX 84 94 82 95 61 96 62 97 70 98 63 99 64 100 68 101 71 102
REMARK SMILES IDX 65 103 66 104 69 105 67 106
REMARK H PARENT 91 59 59 70
REMARK Flexibility Score: inf
ROOT
ATOM      1  C   UNL A   1      38.666  23.089  26.193  1.00  0.00     0.188 C 
ENDROOT
BRANCH   1   2
ATOM      2  O   UNL A   1      37.330  23.355  25.823  1.00  0.00    -0.376 OA
BRANCH   2   3
ATOM      3  C   UNL A   1      36.273  22.413  25.816  1.00  0.00     0.202 C 
BRANCH   3   4
ATOM      4  C   UNL A   1      35.965  21.455  24.662  1.00  0.00     0.261 C 
BRANCH   4   5
ATOM      5  O   UNL A   1      35.399  20.173  24.996  1.00  0.00    -0.463 OA
BRANCH   5   6
ATOM      6  C   UNL A   1      34.047  20.157  25.107  1.00  0.00     0.307 C 
ATOM      7  O   UNL A   1      33.452  20.282  26.176  1.00  0.00    -0.252 OA
BRANCH   6   8
ATOM      8  C   UNL A   1      33.249  19.965  23.828  1.00  0.00     0.144 C 
BRANCH   8   9
ATOM      9  C   UNL A   1      32.166  20.925  23.329  1.00  0.00     0.134 C 
BRANCH   9  10
ATOM     10  N   UNL A   1      32.508  22.315  23.503  1.00  0.00    -0.346 N 
ATOM     11  C   UNL A   1      33.424  24.303  23.345  1.00  0.00     0.024 A 
ATOM     12  C   UNL A   1      33.193  23.124  22.627  1.00  0.00     0.094 A 
ATOM     13  C   UNL A   1      33.193  23.925  24.725  1.00  0.00     0.007 A 
ATOM     14  C   UNL A   1      32.051  23.164  24.475  1.00  0.00     0.048 A 
ATOM     15  C   UNL A   1      33.221  24.653  25.923  1.00  0.00     0.011 A 
ATOM     16  C   UNL A   1      30.798  23.645  24.843  1.00  0.00     0.027 A 
ATOM     17  C   UNL A   1      31.996  25.145  26.355  1.00  0.00     0.001 A 
ATOM     18  C   UNL A   1      30.828  24.747  25.703  1.00  0.00     0.002 A 
BRANCH  11  19
ATOM     19  C   UNL A   1      33.538  25.695  22.768  1.00  0.00     0.255 C 
ATOM     20  C   UNL A   1      30.349  28.937  22.951  1.00  0.00     0.062 A 
ATOM     21  C   UNL A   1      31.227  29.385  24.028  1.00  0.00     0.018 A 
ATOM     22  C   UNL A   1      30.582  27.796  22.273  1.00  0.00     0.046 A 
ATOM     23  C   UNL A   1      32.326  28.717  24.413  1.00  0.00     0.031 A 
ATOM     24  C   UNL A   1      31.803  27.034  22.589  1.00  0.00     0.087 A 
ATOM     25  C   UNL A   1      32.686  27.495  23.677  1.00  0.00     0.086 A 
ATOM     26  N   UNL A   1      32.278  25.993  21.999  1.00  0.00    -0.252 NA
ATOM     27  N   UNL A   1      33.729  26.751  23.809  1.00  0.00    -0.252 NA
BRANCH  20  28
ATOM     28  C   UNL A   1      29.141  29.722  22.541  1.00  0.00     0.337 C 
ATOM     29  O   UNL A   1      28.690  29.745  21.405  1.00  0.00    -0.246 OA
BRANCH  28  30
ATOM     30  O   UNL A   1      28.658  30.430  23.597  1.00  0.00    -0.465 OA
ATOM     31  C   UNL A   1      27.885  31.583  23.242  1.00  0.00     0.282 C 
ENDBRANCH  28  30
ENDBRANCH  20  28
ENDBRANCH  11  19
ENDBRANCH   9  10
ENDBRANCH   8   9
ENDBRANCH   6   8
ENDBRANCH   5   6
ENDBRANCH   4   5
ENDBRANCH   3   4
ENDBRANCH   2   3
ENDBRANCH   1   2
BRANCH   1  32
ATOM     32  C   UNL A   1      39.318  21.726  25.914  1.00  0.00     0.188 C 
BRANCH  32  33
ATOM     33  O   UNL A   1      40.204  21.054  26.784  1.00  0.00    -0.377 OA
BRANCH  33  34
ATOM     34  C   UNL A   1      41.439  21.685  27.056  1.00  0.00     0.188 C 
BRANCH  34  35
ATOM     35  C   UNL A   1      41.373  22.458  28.367  1.00  0.00     0.188 C 
BRANCH  35  36
ATOM     36  O   UNL A   1      42.519  23.246  28.630  1.00  0.00    -0.376 OA
BRANCH  36  37
ATOM     37  C   UNL A   1      43.781  22.909  28.060  1.00  0.00     0.202 C 
BRANCH  37  38
ATOM     38  C   UNL A   1      45.047  23.797  28.078  1.00  0.00     0.261 C 
BRANCH  38  39
ATOM     39  O   UNL A   1      44.999  24.966  28.900  1.00  0.00    -0.460 OA
BRANCH  39  40
ATOM     40  C   UNL A   1      46.013  25.874  28.866  1.00  0.00     0.338 C 
ATOM     41  O   UNL A   1      47.175  25.675  28.709  1.00  0.00    -0.246 OA
BRANCH  40  42
ATOM     42  C   UNL A   1      45.301  27.185  28.746  1.00  0.00     0.060 A 
ATOM     43  C   UNL A   1      45.515  28.196  29.679  1.00  0.00     0.016 A 
ATOM     44  C   UNL A   1      44.185  27.239  27.901  1.00  0.00     0.016 A 
ATOM     45  C   UNL A   1      44.531  29.166  29.860  1.00  0.00     0.010 A 
ATOM     46  C   UNL A   1      43.191  28.205  28.110  1.00  0.00     0.010 A 
ATOM     47  C   UNL A   1      43.329  29.137  29.137  1.00  0.00    -0.014 A 
BRANCH  47  48
ATOM     48  C   UNL A   1      42.356  30.212  29.424  1.00  0.00     0.031 A 
ATOM     49  C   UNL A   1      42.943  31.591  29.395  1.00  0.00     0.074 A 
ATOM     50  C   UNL A   1      41.021  30.077  29.592  1.00  0.00     0.049 A 
ATOM     51  N   UNL A   1      42.891  32.526  30.291  1.00  0.00    -0.248 NA
ATOM     52  C   UNL A   1      43.782  31.922  28.232  1.00  0.00     0.031 C 
ATOM     53  C   UNL A   1      40.197  28.880  29.421  1.00  0.00     0.029 A 
ATOM     54  N   UNL A   1      40.091  31.052  29.858  1.00  0.00    -0.354 N 
ATOM     55  C   UNL A   1      43.581  33.612  29.753  1.00  0.00     0.074 A 
ATOM     56  C   UNL A   1      44.198  33.149  28.539  1.00  0.00     0.031 C 
ATOM     57  C   UNL A   1      38.894  29.243  29.356  1.00  0.00     0.029 A 
ATOM     58  C   UNL A   1      38.781  30.675  29.585  1.00  0.00     0.049 A 
ATOM     59  H   UNL A   1      40.330  31.939  30.211  1.00  0.00     0.167 HD
ATOM     60  C   UNL A   1      43.487  34.875  30.253  1.00  0.00     0.037 A 
ATOM     61  C   UNL A   1      37.698  31.489  29.469  1.00  0.00     0.037 A 
ATOM     62  C   UNL A   1      43.019  34.894  31.607  1.00  0.00     0.049 A 
ATOM     63  C   UNL A   1      38.010  32.776  30.135  1.00  0.00     0.074 A 
ATOM     64  C   UNL A   1      43.492  34.395  32.805  1.00  0.00     0.029 A 
ATOM     65  N   UNL A   1      41.727  35.279  31.861  1.00  0.00    -0.354 N 
ATOM     66  N   UNL A   1      38.093  32.940  31.423  1.00  0.00    -0.248 NA
ATOM     67  C   UNL A   1      38.616  33.825  29.328  1.00  0.00     0.031 C 
ATOM     68  C   UNL A   1      42.329  34.045  33.549  1.00  0.00     0.029 A 
ATOM     69  C   UNL A   1      41.226  34.376  32.762  1.00  0.00     0.049 A 
ATOM     70  H   UNL A   1      41.252  36.049  31.473  1.00  0.00     0.167 HD
ATOM     71  C   UNL A   1      39.114  33.861  31.592  1.00  0.00     0.074 A 
ATOM     72  C   UNL A   1      39.330  34.442  30.271  1.00  0.00     0.031 C 
ATOM     73  C   UNL A   1      39.879  33.869  32.721  1.00  0.00     0.037 A 
BRANCH  60  74
ATOM     74  C   UNL A   1      43.565  36.121  29.408  1.00  0.00     0.064 A 
ATOM     75  C   UNL A   1      44.458  37.154  29.758  1.00  0.00     0.173 A 
ATOM     76  C   UNL A   1      42.598  36.456  28.435  1.00  0.00     0.173 A 
ATOM     77  F   UNL A   1      45.401  36.955  30.692  1.00  0.00    -0.203 F 
ATOM     78  C   UNL A   1      44.349  38.438  29.219  1.00  0.00     0.198 A 
ATOM     79  C   UNL A   1      42.529  37.723  27.858  1.00  0.00     0.198 A 
ATOM     80  F   UNL A   1      41.623  35.609  28.086  1.00  0.00    -0.203 F 
ATOM     81  F   UNL A   1      45.145  39.418  29.669  1.00  0.00    -0.200 F 
ATOM     82  C   UNL A   1      43.382  38.723  28.271  1.00  0.00     0.200 A 
ATOM     83  F   UNL A   1      41.574  37.983  26.953  1.00  0.00    -0.200 F 
ATOM     84  F   UNL A   1      43.242  39.966  27.794  1.00  0.00    -0.200 F 
ENDBRANCH  60  74
BRANCH  61  85
ATOM     85  C   UNL A   1      36.501  31.336  28.601  1.00  0.00     0.064 A 
ATOM     86  C   UNL A   1      36.175  30.103  28.006  1.00  0.00     0.173 A 
ATOM     87  C   UNL A   1      35.500  32.327  28.556  1.00  0.00     0.173 A 
ATOM     88  F   UNL A   1      37.043  29.081  28.048  1.00  0.00    -0.203 F 
ATOM     89  C   UNL A   1      34.924  29.875  27.419  1.00  0.00     0.198 A 
ATOM     90  C   UNL A   1      34.259  32.103  27.959  1.00  0.00     0.198 A 
ATOM     91  F   UNL A   1      35.668  33.502  29.177  1.00  0.00    -0.203 F 
ATOM     92  F   UNL A   1      34.630  28.666  26.919  1.00  0.00    -0.200 F 
ATOM     93  C   UNL A   1      33.966  30.873  27.401  1.00  0.00     0.200 A 
ATOM     94  F   UNL A   1      33.328  33.067  27.985  1.00  0.00    -0.200 F 
ATOM     95  F   UNL A   1      32.749  30.639  26.890  1.00  0.00    -0.200 F 
ENDBRANCH  61  85
BRANCH  73  96
ATOM     96  C   UNL A   1      39.431  33.051  33.895  1.00  0.00     0.064 A 
ATOM     97  C   UNL A   1      38.530  33.513  34.869  1.00  0.00     0.173 A 
ATOM     98  C   UNL A   1      39.795  31.697  33.941  1.00  0.00     0.173 A 
ATOM     99  F   UNL A   1      38.052  34.764  34.836  1.00  0.00    -0.203 F 
ATOM    100  C   UNL A   1      38.052  32.664  35.865  1.00  0.00     0.198 A 
ATOM    101  C   UNL A   1      39.279  30.842  34.909  1.00  0.00     0.198 A 
ATOM    102  F   UNL A   1      40.616  31.190  33.006  1.00  0.00    -0.203 F 
ATOM    103  F   UNL A   1      37.216  33.133  36.802  1.00  0.00    -0.200 F 
ATOM    104  C   UNL A   1      38.413  31.327  35.875  1.00  0.00     0.200 A 
ATOM    105  F   UNL A   1      39.596  29.540  34.886  1.00  0.00    -0.200 F 
ATOM    106  F   UNL A   1      37.906  30.500  36.800  1.00  0.00    -0.200 F 
ENDBRANCH  73  96
ENDBRANCH  47  48
ENDBRANCH  40  42
ENDBRANCH  39  40
ENDBRANCH  38  39
ENDBRANCH  37  38
ENDBRANCH  36  37
ENDBRANCH  35  36
ENDBRANCH  34  35
ENDBRANCH  33  34
ENDBRANCH  32  33
ENDBRANCH   1  32
TORSDOF 25
ENDMDL
MODEL 3
REMARK VINA RESULT:      -9.9      1.599      2.318
REMARK SMILES COC(=O)c1ccc2c(c1)=N[C@H](c1cn(CCC(=O)OCCOCCOCCOCCOC(=O)c3ccc(-c4c5nc(c(-c6c(F)c(F)c(F)c(F)c6F)c6ccc([nH]6)c(-c6c(F)c(F)c(F)c(F)c6F)c6nc(c(-c7c(F)c(F)c(F)c(F)c7F)c7ccc4[nH]7)C=C6)C=C5)cc3)c3ccccc13)N=2
REMARK SMILES IDX 24 1 23 2 22 3 21 4 20 5 18 6 19 7 17 8 16 9 15 10 13 11
REMARK SMILES IDX 14 12 103 13 98 14 102 15 99 16 101 17 100 18 12 19 5 20
REMARK SMILES IDX 6 21 10 22 7 23 9 24 8 25 11 26 104 27 3 28 4 29 2 30 1 31
REMARK SMILES IDX 25 32 26 33 27 34 28 35 29 36 30 37 31 38 32 39 33 40 34 41
REMARK SMILES IDX 35 42 36 43 97 44 37 45 96 46 38 47 39 48 40 49 90 50 41 51
REMARK SMILES IDX 95 52 89 53 91 54 42 55 94 56 88 57 87 58 43 60 75 61 55 62
REMARK SMILES IDX 74 63 56 64 59 65 73 66 92 67 57 68 58 69 72 71 93 72 60 73
REMARK SMILES IDX 44 74 45 75 53 76 46 77 47 78 51 79 54 80 48 81 49 82 52 83
REMARK SMILES IDX 50 84 76 85 77 86 85 87 78 88 79 89 83 90 86 91 80 92 81 93
REMARK SMILES IDX 84 94 82 95 61 96 62 97 70 98 63 99 64 100 68 101 71 102
REMARK SMILES IDX 65 103 66 104 69 105 67 106
REMARK H PARENT 91 59 59 70
REMARK Flexibility Score: inf
ROOT
ATOM      1  C   UNL A   1      35.799  33.606  30.252  1.00  0.00     0.188 C 
ENDROOT
BRANCH   1   2
ATOM      2  O   UNL A   1      36.012  33.450  28.866  1.00  0.00    -0.376 OA
BRANCH   2   3
ATOM      3  C   UNL A   1      35.054  32.987  27.932  1.00  0.00     0.202 C 
BRANCH   3   4
ATOM      4  C   UNL A   1      34.103  31.810  28.168  1.00  0.00     0.261 C 
BRANCH   4   5
ATOM      5  O   UNL A   1      33.407  31.279  27.023  1.00  0.00    -0.463 OA
BRANCH   5   6
ATOM      6  C   UNL A   1      33.378  29.924  26.951  1.00  0.00     0.307 C 
ATOM      7  O   UNL A   1      34.119  29.194  27.607  1.00  0.00    -0.252 OA
BRANCH   6   8
ATOM      8  C   UNL A   1      32.372  29.302  25.997  1.00  0.00     0.144 C 
BRANCH   8   9
ATOM      9  C   UNL A   1      32.735  28.627  24.672  1.00  0.00     0.134 C 
BRANCH   9  10
ATOM     10  N   UNL A   1      32.974  27.209  24.799  1.00  0.00    -0.346 N 
ATOM     11  C   UNL A   1      33.824  25.242  25.269  1.00  0.00     0.024 A 
ATOM     12  C   UNL A   1      33.813  26.578  25.687  1.00  0.00     0.094 A 
ATOM     13  C   UNL A   1      33.292  25.290  23.923  1.00  0.00     0.007 A 
ATOM     14  C   UNL A   1      32.270  26.196  24.205  1.00  0.00     0.048 A 
ATOM     15  C   UNL A   1      33.011  24.290  22.980  1.00  0.00     0.011 A 
ATOM     16  C   UNL A   1      30.949  25.764  24.255  1.00  0.00     0.027 A 
ATOM     17  C   UNL A   1      31.702  23.828  22.966  1.00  0.00     0.001 A 
ATOM     18  C   UNL A   1      30.734  24.487  23.727  1.00  0.00     0.002 A 
BRANCH  11  19
ATOM     19  C   UNL A   1      34.016  24.030  26.152  1.00  0.00     0.255 C 
ATOM     20  C   UNL A   1      33.594  19.686  24.862  1.00  0.00     0.062 A 
ATOM     21  C   UNL A   1      35.048  19.816  24.840  1.00  0.00     0.018 A 
ATOM     22  C   UNL A   1      32.792  20.731  25.145  1.00  0.00     0.046 A 
ATOM     23  C   UNL A   1      35.693  20.963  25.111  1.00  0.00     0.031 A 
ATOM     24  C   UNL A   1      33.419  22.012  25.515  1.00  0.00     0.087 A 
ATOM     25  C   UNL A   1      34.890  22.134  25.493  1.00  0.00     0.086 A 
ATOM     26  N   UNL A   1      32.858  23.095  25.929  1.00  0.00    -0.252 NA
ATOM     27  N   UNL A   1      35.289  23.297  25.877  1.00  0.00    -0.252 NA
BRANCH  20  28
ATOM     28  C   UNL A   1      32.915  18.383  24.571  1.00  0.00     0.337 C 
ATOM     29  O   UNL A   1      32.010  17.916  25.246  1.00  0.00    -0.246 OA
BRANCH  28  30
ATOM     30  O   UNL A   1      33.482  17.787  23.488  1.00  0.00    -0.465 OA
ATOM     31  C   UNL A   1      33.678  16.374  23.615  1.00  0.00     0.282 C 
ENDBRANCH  28  30
ENDBRANCH  20  28
ENDBRANCH  11  19
ENDBRANCH   9  10
ENDBRANCH   8   9
ENDBRANCH   6   8
ENDBRANCH   5   6
ENDBRANCH   4   5
ENDBRANCH   3   4
ENDBRANCH   2   3
ENDBRANCH   1   2
BRANCH   1  32
ATOM     32  C   UNL A   1      34.461  34.122  30.804  1.00  0.00     0.188 C 
BRANCH  32  33
ATOM     33  O   UNL A   1      34.275  35.355  31.466  1.00  0.00    -0.377 OA
BRANCH  33  34
ATOM     34  C   UNL A   1      33.743  35.308  32.775  1.00  0.00     0.188 C 
BRANCH  34  35
ATOM     35  C   UNL A   1      34.817  34.912  33.780  1.00  0.00     0.188 C 
BRANCH  35  36
ATOM     36  O   UNL A   1      36.096  35.450  33.498  1.00  0.00    -0.376 OA
BRANCH  36  37
ATOM     37  C   UNL A   1      37.248  34.612  33.469  1.00  0.00     0.202 C 
BRANCH  37  38
ATOM     38  C   UNL A   1      37.926  33.965  34.699  1.00  0.00     0.261 C 
BRANCH  38  39
ATOM     39  O   UNL A   1      37.560  32.616  34.999  1.00  0.00    -0.460 OA
BRANCH  39  40
ATOM     40  C   UNL A   1      37.115  31.787  34.015  1.00  0.00     0.338 C 
ATOM     41  O   UNL A   1      36.269  31.994  33.205  1.00  0.00    -0.246 OA
BRANCH  40  42
ATOM     42  C   UNL A   1      38.147  30.704  33.981  1.00  0.00     0.060 A 
ATOM     43  C   UNL A   1      39.453  30.956  34.392  1.00  0.00     0.016 A 
ATOM     44  C   UNL A   1      37.862  29.565  33.217  1.00  0.00     0.016 A 
ATOM     45  C   UNL A   1      40.481  30.149  33.907  1.00  0.00     0.010 A 
ATOM     46  C   UNL A   1      38.907  28.776  32.715  1.00  0.00     0.010 A 
ATOM     47  C   UNL A   1      40.230  29.104  33.005  1.00  0.00    -0.014 A 
BRANCH  47  48
ATOM     48  C   UNL A   1      41.401  28.325  32.550  1.00  0.00     0.031 A 
ATOM     49  C   UNL A   1      42.083  27.554  33.640  1.00  0.00     0.074 A 
ATOM     50  C   UNL A   1      41.826  28.164  31.277  1.00  0.00     0.049 A 
ATOM     51  N   UNL A   1      43.332  27.546  33.985  1.00  0.00    -0.248 NA
ATOM     52  C   UNL A   1      41.214  26.755  34.520  1.00  0.00     0.031 C 
ATOM     53  C   UNL A   1      41.186  28.610  30.039  1.00  0.00     0.029 A 
ATOM     54  N   UNL A   1      42.906  27.449  30.821  1.00  0.00    -0.354 N 
ATOM     55  C   UNL A   1      43.434  26.642  35.042  1.00  0.00     0.074 A 
ATOM     56  C   UNL A   1      42.089  26.272  35.398  1.00  0.00     0.031 C 
ATOM     57  C   UNL A   1      41.751  27.966  28.990  1.00  0.00     0.029 A 
ATOM     58  C   UNL A   1      42.855  27.147  29.465  1.00  0.00     0.049 A 
ATOM     59  H   UNL A   1      43.651  27.174  31.403  1.00  0.00     0.167 HD
ATOM     60  C   UNL A   1      44.619  26.129  35.472  1.00  0.00     0.037 A 
ATOM     61  C   UNL A   1      43.605  26.230  28.797  1.00  0.00     0.037 A 
ATOM     62  C   UNL A   1      45.738  26.933  35.076  1.00  0.00     0.049 A 
ATOM     63  C   UNL A   1      44.805  25.929  29.612  1.00  0.00     0.074 A 
ATOM     64  C   UNL A   1      46.141  28.229  35.333  1.00  0.00     0.029 A 
ATOM     65  N   UNL A   1      46.541  26.499  34.052  1.00  0.00    -0.354 N 
ATOM     66  N   UNL A   1      45.808  26.742  29.778  1.00  0.00    -0.248 NA
ATOM     67  C   UNL A   1      44.715  24.838  30.572  1.00  0.00     0.031 C 
ATOM     68  C   UNL A   1      46.793  28.659  34.141  1.00  0.00     0.029 A 
ATOM     69  C   UNL A   1      46.761  27.588  33.249  1.00  0.00     0.049 A 
ATOM     70  H   UNL A   1      46.890  25.588  33.920  1.00  0.00     0.167 HD
ATOM     71  C   UNL A   1      46.214  26.530  31.086  1.00  0.00     0.074 A 
ATOM     72  C   UNL A   1      45.573  25.284  31.492  1.00  0.00     0.031 C 
ATOM     73  C   UNL A   1      46.804  27.523  31.811  1.00  0.00     0.037 A 
BRANCH  60  74
ATOM     74  C   UNL A   1      44.780  24.737  36.028  1.00  0.00     0.064 A 
ATOM     75  C   UNL A   1      45.370  24.548  37.293  1.00  0.00     0.173 A 
ATOM     76  C   UNL A   1      44.635  23.571  35.243  1.00  0.00     0.173 A 
ATOM     77  F   UNL A   1      45.582  25.591  38.111  1.00  0.00    -0.203 F 
ATOM     78  C   UNL A   1      45.834  23.299  37.713  1.00  0.00     0.198 A 
ATOM     79  C   UNL A   1      45.048  22.316  35.689  1.00  0.00     0.198 A 
ATOM     80  F   UNL A   1      44.190  23.618  33.982  1.00  0.00    -0.203 F 
ATOM     81  F   UNL A   1      46.494  23.189  38.874  1.00  0.00    -0.200 F 
ATOM     82  C   UNL A   1      45.675  22.184  36.909  1.00  0.00     0.200 A 
ATOM     83  F   UNL A   1      44.899  21.252  34.887  1.00  0.00    -0.200 F 
ATOM     84  F   UNL A   1      46.167  20.997  37.286  1.00  0.00    -0.200 F 
ENDBRANCH  60  74
BRANCH  61  85
ATOM     85  C   UNL A   1      43.236  25.396  27.623  1.00  0.00     0.064 A 
ATOM     86  C   UNL A   1      43.994  25.415  26.438  1.00  0.00     0.173 A 
ATOM     87  C   UNL A   1      42.290  24.358  27.734  1.00  0.00     0.173 A 
ATOM     88  F   UNL A   1      44.958  26.332  26.266  1.00  0.00    -0.203 F 
ATOM     89  C   UNL A   1      43.825  24.450  25.438  1.00  0.00     0.198 A 
ATOM     90  C   UNL A   1      42.113  23.404  26.730  1.00  0.00     0.198 A 
ATOM     91  F   UNL A   1      41.584  24.188  28.860  1.00  0.00    -0.203 F 
ATOM     92  F   UNL A   1      44.612  24.466  24.352  1.00  0.00    -0.200 F 
ATOM     93  C   UNL A   1      42.889  23.441  25.588  1.00  0.00     0.200 A 
ATOM     94  F   UNL A   1      41.229  22.412  26.909  1.00  0.00    -0.200 F 
ATOM     95  F   UNL A   1      42.764  22.484  24.658  1.00  0.00    -0.200 F 
ENDBRANCH  61  85
BRANCH  73  96
ATOM     96  C   UNL A   1      47.258  28.760  31.095  1.00  0.00     0.064 A 
ATOM     97  C   UNL A   1      48.533  28.907  30.524  1.00  0.00     0.173 A 
ATOM     98  C   UNL A   1      46.312  29.762  30.833  1.00  0.00     0.173 A 
ATOM     99  F   UNL A   1      49.461  27.947  30.639  1.00  0.00    -0.203 F 
ATOM    100  C   UNL A   1      48.853  30.028  29.761  1.00  0.00     0.198 A 
ATOM    101  C   UNL A   1      46.621  30.856  30.031  1.00  0.00     0.198 A 
ATOM    102  F   UNL A   1      45.063  29.650  31.315  1.00  0.00    -0.203 F 
ATOM    103  F   UNL A   1      50.084  30.162  29.249  1.00  0.00    -0.200 F 
ATOM    104  C   UNL A   1      47.893  30.993  29.502  1.00  0.00     0.200 A 
ATOM    105  F   UNL A   1      45.677  31.763  29.747  1.00  0.00    -0.200 F 
ATOM    106  F   UNL A   1      48.188  32.041  28.719  1.00  0.00    -0.200 F 
ENDBRANCH  73  96
ENDBRANCH  47  48
ENDBRANCH  40  42
ENDBRANCH  39  40
ENDBRANCH  38  39
ENDBRANCH  37  38
ENDBRANCH  36  37
ENDBRANCH  35  36
ENDBRANCH  34  35
ENDBRANCH  33  34
ENDBRANCH  32  33
ENDBRANCH   1  32
TORSDOF 25
ENDMDL
