MODEL 1
REMARK VINA RESULT:      -7.4      0.000      0.000
REMARK SMILES CC[C@@H](C)S(=O)(=O)c1cc(C(=O)OCCOCCOCCOCCOC(=O)c2ccc(-c3c4nc(c(-c5c(F)c(F)c(F)c(F)c5F)c5ccc([nH]5)c(-c5c(F)c(F)c(F)c(F)c5F)c5nc(c(-c6c(F)c(F)c(F)c(F)c6F)c6ccc3[nH]6)C=C5)C=C4)cc2)c(C)cc1C
REMARK SMILES IDX 18 1 17 2 16 3 15 4 14 5 13 6 11 7 12 8 10 9 8 10 9 11 94 12
REMARK SMILES IDX 93 13 95 14 91 15 92 16 5 17 6 18 7 19 3 20 4 21 2 22 1 23
REMARK SMILES IDX 19 24 20 25 21 26 22 27 23 28 24 29 25 30 26 31 27 32 28 33
REMARK SMILES IDX 29 34 90 35 30 36 89 37 31 38 32 39 33 40 83 41 34 42 88 43
REMARK SMILES IDX 82 44 84 45 35 46 87 47 81 48 80 49 36 51 68 52 48 53 67 54
REMARK SMILES IDX 49 55 52 56 66 57 85 58 50 59 51 60 65 62 86 63 53 64 37 65
REMARK SMILES IDX 38 66 46 67 39 68 40 69 44 70 47 71 41 72 42 73 45 74 43 75
REMARK SMILES IDX 69 76 70 77 78 78 71 79 72 80 76 81 79 82 73 83 74 84 77 85
REMARK SMILES IDX 75 86 54 87 55 88 63 89 56 90 57 91 61 92 64 93 58 94 59 95
REMARK SMILES IDX 62 96 60 97
REMARK H PARENT 84 50 52 61
REMARK Flexibility Score: inf
ROOT
ATOM      1  C   UNL A   1      47.556  36.162  26.326  1.00  0.00     0.188 C 
ENDROOT
BRANCH   1   2
ATOM      2  C   UNL A   1      46.500  35.381  25.512  1.00  0.00     0.188 C 
BRANCH   2   3
ATOM      3  O   UNL A   1      46.572  33.979  25.673  1.00  0.00    -0.376 OA
BRANCH   3   4
ATOM      4  C   UNL A   1      45.427  33.228  26.024  1.00  0.00     0.202 C 
BRANCH   4   5
ATOM      5  C   UNL A   1      45.509  31.769  26.503  1.00  0.00     0.261 C 
BRANCH   5   6
ATOM      6  O   UNL A   1      44.390  30.938  26.194  1.00  0.00    -0.460 OA
BRANCH   6   7
ATOM      7  C   UNL A   1      43.817  30.281  27.220  1.00  0.00     0.338 C 
ATOM      8  O   UNL A   1      43.421  30.779  28.261  1.00  0.00    -0.246 OA
BRANCH   7   9
ATOM      9  C   UNL A   1      43.480  28.889  26.815  1.00  0.00     0.064 A 
ATOM     10  C   UNL A   1      44.464  26.719  26.235  1.00  0.00     0.071 A 
ATOM     11  C   UNL A   1      44.588  28.024  26.711  1.00  0.00     0.036 A 
ATOM     12  C   UNL A   1      43.196  26.276  25.815  1.00  0.00    -0.032 A 
ATOM     13  C   UNL A   1      42.078  27.112  26.029  1.00  0.00     0.009 A 
ATOM     14  C   UNL A   1      42.933  24.985  25.085  1.00  0.00     0.046 C 
ATOM     15  C   UNL A   1      42.190  28.406  26.568  1.00  0.00    -0.036 A 
ATOM     16  C   UNL A   1      40.927  29.189  26.786  1.00  0.00     0.045 C 
BRANCH  10  17
ATOM     17  S   UNL A   1      45.887  25.631  26.125  1.00  0.00     0.181 S 
ATOM     18  O   UNL A   1      46.131  25.458  24.706  1.00  0.00    -0.223 OA
ATOM     19  O   UNL A   1      45.558  24.481  26.953  1.00  0.00    -0.223 OA
BRANCH  17  20
ATOM     20  C   UNL A   1      47.369  26.331  26.856  1.00  0.00     0.110 C 
ATOM     21  C   UNL A   1      48.170  27.161  25.853  1.00  0.00     0.025 C 
BRANCH  20  22
ATOM     22  C   UNL A   1      48.170  25.342  27.722  1.00  0.00     0.016 C 
ATOM     23  C   UNL A   1      49.617  25.147  27.289  1.00  0.00     0.005 C 
ENDBRANCH  20  22
ENDBRANCH  17  20
ENDBRANCH  10  17
ENDBRANCH   7   9
ENDBRANCH   6   7
ENDBRANCH   5   6
ENDBRANCH   4   5
ENDBRANCH   3   4
ENDBRANCH   2   3
ENDBRANCH   1   2
BRANCH   1  24
ATOM     24  O   UNL A   1      48.032  37.394  25.807  1.00  0.00    -0.377 OA
BRANCH  24  25
ATOM     25  C   UNL A   1      47.128  38.288  25.162  1.00  0.00     0.188 C 
BRANCH  25  26
ATOM     26  C   UNL A   1      46.723  39.650  25.780  1.00  0.00     0.188 C 
BRANCH  26  27
ATOM     27  O   UNL A   1      45.806  40.409  25.015  1.00  0.00    -0.376 OA
BRANCH  27  28
ATOM     28  C   UNL A   1      44.981  41.340  25.690  1.00  0.00     0.202 C 
BRANCH  28  29
ATOM     29  C   UNL A   1      43.467  41.090  25.654  1.00  0.00     0.261 C 
BRANCH  29  30
ATOM     30  O   UNL A   1      42.888  40.551  26.852  1.00  0.00    -0.460 OA
BRANCH  30  31
ATOM     31  C   UNL A   1      41.899  39.645  26.706  1.00  0.00     0.338 C 
ATOM     32  O   UNL A   1      40.889  39.752  26.029  1.00  0.00    -0.246 OA
BRANCH  31  33
ATOM     33  C   UNL A   1      42.336  38.400  27.369  1.00  0.00     0.060 A 
ATOM     34  C   UNL A   1      42.355  37.205  26.637  1.00  0.00     0.016 A 
ATOM     35  C   UNL A   1      42.736  38.420  28.706  1.00  0.00     0.016 A 
ATOM     36  C   UNL A   1      42.747  36.016  27.254  1.00  0.00     0.010 A 
ATOM     37  C   UNL A   1      43.107  37.226  29.328  1.00  0.00     0.010 A 
ATOM     38  C   UNL A   1      43.080  36.015  28.615  1.00  0.00    -0.014 A 
BRANCH  38  39
ATOM     39  C   UNL A   1      43.206  34.729  29.342  1.00  0.00     0.031 A 
ATOM     40  C   UNL A   1      41.950  34.070  29.840  1.00  0.00     0.074 A 
ATOM     41  C   UNL A   1      44.402  34.153  29.550  1.00  0.00     0.049 A 
ATOM     42  N   UNL A   1      41.803  32.981  30.550  1.00  0.00    -0.248 NA
ATOM     43  C   UNL A   1      40.685  34.737  29.491  1.00  0.00     0.031 C 
ATOM     44  C   UNL A   1      45.683  34.670  29.078  1.00  0.00     0.029 A 
ATOM     45  N   UNL A   1      44.728  33.003  30.224  1.00  0.00    -0.354 N 
ATOM     46  C   UNL A   1      40.435  32.841  30.743  1.00  0.00     0.074 A 
ATOM     47  C   UNL A   1      39.798  33.970  30.105  1.00  0.00     0.031 C 
ATOM     48  C   UNL A   1      46.662  33.845  29.487  1.00  0.00     0.029 A 
ATOM     49  C   UNL A   1      46.078  32.764  30.281  1.00  0.00     0.049 A 
ATOM     50  H   UNL A   1      44.057  32.407  30.630  1.00  0.00     0.167 HD
ATOM     51  C   UNL A   1      39.771  31.853  31.389  1.00  0.00     0.037 A 
ATOM     52  C   UNL A   1      46.761  31.795  30.923  1.00  0.00     0.037 A 
ATOM     53  C   UNL A   1      40.412  30.735  32.027  1.00  0.00     0.049 A 
ATOM     54  C   UNL A   1      46.004  30.753  31.708  1.00  0.00     0.074 A 
ATOM     55  C   UNL A   1      39.829  29.667  32.688  1.00  0.00     0.029 A 
ATOM     56  N   UNL A   1      41.785  30.546  32.097  1.00  0.00    -0.354 N 
ATOM     57  N   UNL A   1      44.710  30.606  31.862  1.00  0.00    -0.248 NA
ATOM     58  C   UNL A   1      46.806  29.739  32.408  1.00  0.00     0.031 C 
ATOM     59  C   UNL A   1      40.849  28.872  33.217  1.00  0.00     0.029 A 
ATOM     60  C   UNL A   1      42.069  29.399  32.821  1.00  0.00     0.049 A 
ATOM     61  H   UNL A   1      42.459  31.139  31.692  1.00  0.00     0.167 HD
ATOM     62  C   UNL A   1      44.542  29.469  32.644  1.00  0.00     0.074 A 
ATOM     63  C   UNL A   1      45.868  28.957  32.922  1.00  0.00     0.031 C 
ATOM     64  C   UNL A   1      43.395  28.897  33.087  1.00  0.00     0.037 A 
BRANCH  51  65
ATOM     65  C   UNL A   1      38.275  31.968  31.474  1.00  0.00     0.064 A 
ATOM     66  C   UNL A   1      37.633  32.501  32.601  1.00  0.00     0.173 A 
ATOM     67  C   UNL A   1      37.473  31.548  30.401  1.00  0.00     0.173 A 
ATOM     68  F   UNL A   1      38.350  32.904  33.662  1.00  0.00    -0.203 F 
ATOM     69  C   UNL A   1      36.243  32.577  32.666  1.00  0.00     0.198 A 
ATOM     70  C   UNL A   1      36.086  31.659  30.455  1.00  0.00     0.198 A 
ATOM     71  F   UNL A   1      38.034  31.033  29.298  1.00  0.00    -0.203 F 
ATOM     72  F   UNL A   1      35.650  33.032  33.779  1.00  0.00    -0.200 F 
ATOM     73  C   UNL A   1      35.472  32.162  31.591  1.00  0.00     0.200 A 
ATOM     74  F   UNL A   1      35.344  31.272  29.408  1.00  0.00    -0.200 F 
ATOM     75  F   UNL A   1      34.136  32.240  31.653  1.00  0.00    -0.200 F 
ENDBRANCH  51  65
BRANCH  52  76
ATOM     76  C   UNL A   1      48.248  31.766  30.859  1.00  0.00     0.064 A 
ATOM     77  C   UNL A   1      49.025  32.456  31.800  1.00  0.00     0.173 A 
ATOM     78  C   UNL A   1      48.921  31.063  29.849  1.00  0.00     0.173 A 
ATOM     79  F   UNL A   1      48.427  33.166  32.769  1.00  0.00    -0.203 F 
ATOM     80  C   UNL A   1      50.416  32.459  31.723  1.00  0.00     0.198 A 
ATOM     81  C   UNL A   1      50.313  31.040  29.792  1.00  0.00     0.198 A 
ATOM     82  F   UNL A   1      48.226  30.388  28.922  1.00  0.00    -0.203 F 
ATOM     83  F   UNL A   1      51.132  33.168  32.607  1.00  0.00    -0.200 F 
ATOM     84  C   UNL A   1      51.059  31.745  30.724  1.00  0.00     0.200 A 
ATOM     85  F   UNL A   1      50.931  30.338  28.833  1.00  0.00    -0.200 F 
ATOM     86  F   UNL A   1      52.397  31.743  30.654  1.00  0.00    -0.200 F 
ENDBRANCH  52  76
BRANCH  64  87
ATOM     87  C   UNL A   1      43.512  27.625  33.880  1.00  0.00     0.064 A 
ATOM     88  C   UNL A   1      43.689  26.377  33.263  1.00  0.00     0.173 A 
ATOM     89  C   UNL A   1      43.494  27.663  35.285  1.00  0.00     0.173 A 
ATOM     90  F   UNL A   1      43.703  26.282  31.925  1.00  0.00    -0.203 F 
ATOM     91  C   UNL A   1      43.812  25.214  34.020  1.00  0.00     0.198 A 
ATOM     92  C   UNL A   1      43.653  26.504  36.037  1.00  0.00     0.198 A 
ATOM     93  F   UNL A   1      43.338  28.829  35.928  1.00  0.00    -0.203 F 
ATOM     94  F   UNL A   1      43.925  24.027  33.407  1.00  0.00    -0.200 F 
ATOM     95  C   UNL A   1      43.803  25.279  35.405  1.00  0.00     0.200 A 
ATOM     96  F   UNL A   1      43.664  26.572  37.375  1.00  0.00    -0.200 F 
ATOM     97  F   UNL A   1      43.932  24.160  36.130  1.00  0.00    -0.200 F 
ENDBRANCH  64  87
ENDBRANCH  38  39
ENDBRANCH  31  33
ENDBRANCH  30  31
ENDBRANCH  29  30
ENDBRANCH  28  29
ENDBRANCH  27  28
ENDBRANCH  26  27
ENDBRANCH  25  26
ENDBRANCH  24  25
ENDBRANCH   1  24
TORSDOF 23
ENDMDL
MODEL 2
REMARK VINA RESULT:      -7.3      5.697     11.299
REMARK SMILES CC[C@@H](C)S(=O)(=O)c1cc(C(=O)OCCOCCOCCOCCOC(=O)c2ccc(-c3c4nc(c(-c5c(F)c(F)c(F)c(F)c5F)c5ccc([nH]5)c(-c5c(F)c(F)c(F)c(F)c5F)c5nc(c(-c6c(F)c(F)c(F)c(F)c6F)c6ccc3[nH]6)C=C5)C=C4)cc2)c(C)cc1C
REMARK SMILES IDX 18 1 17 2 16 3 15 4 14 5 13 6 11 7 12 8 10 9 8 10 9 11 94 12
REMARK SMILES IDX 93 13 95 14 91 15 92 16 5 17 6 18 7 19 3 20 4 21 2 22 1 23
REMARK SMILES IDX 19 24 20 25 21 26 22 27 23 28 24 29 25 30 26 31 27 32 28 33
REMARK SMILES IDX 29 34 90 35 30 36 89 37 31 38 32 39 33 40 83 41 34 42 88 43
REMARK SMILES IDX 82 44 84 45 35 46 87 47 81 48 80 49 36 51 68 52 48 53 67 54
REMARK SMILES IDX 49 55 52 56 66 57 85 58 50 59 51 60 65 62 86 63 53 64 37 65
REMARK SMILES IDX 38 66 46 67 39 68 40 69 44 70 47 71 41 72 42 73 45 74 43 75
REMARK SMILES IDX 69 76 70 77 78 78 71 79 72 80 76 81 79 82 73 83 74 84 77 85
REMARK SMILES IDX 75 86 54 87 55 88 63 89 56 90 57 91 61 92 64 93 58 94 59 95
REMARK SMILES IDX 62 96 60 97
REMARK H PARENT 84 50 52 61
REMARK Flexibility Score: inf
ROOT
ATOM      1  C   UNL A   1      38.222  31.119  29.161  1.00  0.00     0.188 C 
ENDROOT
BRANCH   1   2
ATOM      2  C   UNL A   1      36.798  30.994  29.747  1.00  0.00     0.188 C 
BRANCH   2   3
ATOM      3  O   UNL A   1      35.770  31.100  28.783  1.00  0.00    -0.376 OA
BRANCH   3   4
ATOM      4  C   UNL A   1      35.754  30.264  27.643  1.00  0.00     0.202 C 
BRANCH   4   5
ATOM      5  C   UNL A   1      34.502  29.484  27.205  1.00  0.00     0.261 C 
BRANCH   5   6
ATOM      6  O   UNL A   1      34.730  28.223  26.577  1.00  0.00    -0.460 OA
BRANCH   6   7
ATOM      7  C   UNL A   1      33.912  27.892  25.560  1.00  0.00     0.338 C 
ATOM      8  O   UNL A   1      33.912  28.389  24.446  1.00  0.00    -0.246 OA
BRANCH   7   9
ATOM      9  C   UNL A   1      33.170  26.643  25.884  1.00  0.00     0.064 A 
ATOM     10  C   UNL A   1      33.255  24.200  25.689  1.00  0.00     0.071 A 
ATOM     11  C   UNL A   1      33.852  25.454  25.557  1.00  0.00     0.036 A 
ATOM     12  C   UNL A   1      31.920  24.136  26.130  1.00  0.00    -0.032 A 
ATOM     13  C   UNL A   1      31.288  25.324  26.559  1.00  0.00     0.009 A 
ATOM     14  C   UNL A   1      31.070  22.893  26.123  1.00  0.00     0.046 C 
ATOM     15  C   UNL A   1      31.908  26.583  26.487  1.00  0.00    -0.036 A 
ATOM     16  C   UNL A   1      31.153  27.771  27.009  1.00  0.00     0.045 C 
BRANCH  10  17
ATOM     17  S   UNL A   1      34.148  22.698  25.281  1.00  0.00     0.181 S 
ATOM     18  O   UNL A   1      33.952  21.814  26.414  1.00  0.00    -0.223 OA
ATOM     19  O   UNL A   1      35.488  23.132  24.918  1.00  0.00    -0.223 OA
BRANCH  17  20
ATOM     20  C   UNL A   1      33.507  21.871  23.822  1.00  0.00     0.110 C 
ATOM     21  C   UNL A   1      32.850  22.848  22.848  1.00  0.00     0.025 C 
BRANCH  20  22
ATOM     22  C   UNL A   1      32.730  20.577  24.125  1.00  0.00     0.016 C 
ATOM     23  C   UNL A   1      32.236  19.831  22.893  1.00  0.00     0.005 C 
ENDBRANCH  20  22
ENDBRANCH  17  20
ENDBRANCH  10  17
ENDBRANCH   7   9
ENDBRANCH   6   7
ENDBRANCH   5   6
ENDBRANCH   4   5
ENDBRANCH   3   4
ENDBRANCH   2   3
ENDBRANCH   1   2
BRANCH   1  24
ATOM     24  O   UNL A   1      39.328  30.895  30.023  1.00  0.00    -0.377 OA
BRANCH  24  25
ATOM     25  C   UNL A   1      40.014  29.647  29.986  1.00  0.00     0.188 C 
BRANCH  25  26
ATOM     26  C   UNL A   1      39.308  28.302  30.291  1.00  0.00     0.188 C 
BRANCH  26  27
ATOM     27  O   UNL A   1      39.736  27.205  29.505  1.00  0.00    -0.376 OA
BRANCH  27  28
ATOM     28  C   UNL A   1      39.336  27.158  28.149  1.00  0.00     0.202 C 
BRANCH  28  29
ATOM     29  C   UNL A   1      39.231  25.771  27.497  1.00  0.00     0.261 C 
BRANCH  29  30
ATOM     30  O   UNL A   1      40.208  25.473  26.490  1.00  0.00    -0.460 OA
BRANCH  30  31
ATOM     31  C   UNL A   1      41.215  24.642  26.834  1.00  0.00     0.338 C 
ATOM     32  O   UNL A   1      41.154  23.435  27.007  1.00  0.00    -0.246 OA
BRANCH  31  33
ATOM     33  C   UNL A   1      42.468  25.420  26.787  1.00  0.00     0.060 A 
ATOM     34  C   UNL A   1      43.198  25.615  27.967  1.00  0.00     0.016 A 
ATOM     35  C   UNL A   1      42.924  25.942  25.575  1.00  0.00     0.016 A 
ATOM     36  C   UNL A   1      44.375  26.364  27.942  1.00  0.00     0.010 A 
ATOM     37  C   UNL A   1      44.090  26.711  25.556  1.00  0.00     0.010 A 
ATOM     38  C   UNL A   1      44.801  26.953  26.744  1.00  0.00    -0.014 A 
BRANCH  38  39
ATOM     39  C   UNL A   1      45.868  27.982  26.767  1.00  0.00     0.031 A 
ATOM     40  C   UNL A   1      45.471  29.412  27.004  1.00  0.00     0.074 A 
ATOM     41  C   UNL A   1      47.160  27.659  26.591  1.00  0.00     0.049 A 
ATOM     42  N   UNL A   1      46.206  30.494  27.008  1.00  0.00    -0.248 NA
ATOM     43  C   UNL A   1      44.042  29.653  27.267  1.00  0.00     0.031 C 
ATOM     44  C   UNL A   1      47.674  26.306  26.398  1.00  0.00     0.029 A 
ATOM     45  N   UNL A   1      48.276  28.457  26.538  1.00  0.00    -0.354 N 
ATOM     46  C   UNL A   1      45.330  31.542  27.261  1.00  0.00     0.074 A 
ATOM     47  C   UNL A   1      44.006  30.972  27.372  1.00  0.00     0.031 C 
ATOM     48  C   UNL A   1      49.008  26.367  26.237  1.00  0.00     0.029 A 
ATOM     49  C   UNL A   1      49.433  27.766  26.277  1.00  0.00     0.049 A 
ATOM     50  H   UNL A   1      48.249  29.432  26.673  1.00  0.00     0.167 HD
ATOM     51  C   UNL A   1      45.608  32.861  27.396  1.00  0.00     0.037 A 
ATOM     52  C   UNL A   1      50.685  28.219  26.071  1.00  0.00     0.037 A 
ATOM     53  C   UNL A   1      46.927  33.422  27.278  1.00  0.00     0.049 A 
ATOM     54  C   UNL A   1      50.957  29.701  26.141  1.00  0.00     0.074 A 
ATOM     55  C   UNL A   1      47.320  34.741  27.421  1.00  0.00     0.029 A 
ATOM     56  N   UNL A   1      48.071  32.695  26.975  1.00  0.00    -0.354 N 
ATOM     57  N   UNL A   1      50.132  30.684  26.410  1.00  0.00    -0.248 NA
ATOM     58  C   UNL A   1      52.337  30.135  25.879  1.00  0.00     0.031 C 
ATOM     59  C   UNL A   1      48.685  34.823  27.136  1.00  0.00     0.029 A 
ATOM     60  C   UNL A   1      49.162  33.544  26.890  1.00  0.00     0.049 A 
ATOM     61  H   UNL A   1      48.102  31.721  26.841  1.00  0.00     0.167 HD
ATOM     62  C   UNL A   1      50.897  31.845  26.386  1.00  0.00     0.074 A 
ATOM     63  C   UNL A   1      52.255  31.441  26.087  1.00  0.00     0.031 C 
ATOM     64  C   UNL A   1      50.511  33.128  26.597  1.00  0.00     0.037 A 
BRANCH  51  65
ATOM     65  C   UNL A   1      44.452  33.789  27.640  1.00  0.00     0.064 A 
ATOM     66  C   UNL A   1      43.842  34.507  26.600  1.00  0.00     0.173 A 
ATOM     67  C   UNL A   1      43.938  33.951  28.936  1.00  0.00     0.173 A 
ATOM     68  F   UNL A   1      44.303  34.401  25.344  1.00  0.00    -0.203 F 
ATOM     69  C   UNL A   1      42.785  35.379  26.854  1.00  0.00     0.198 A 
ATOM     70  C   UNL A   1      42.858  34.796  29.180  1.00  0.00     0.198 A 
ATOM     71  F   UNL A   1      44.481  33.287  29.967  1.00  0.00    -0.203 F 
ATOM     72  F   UNL A   1      42.260  36.101  25.854  1.00  0.00    -0.200 F 
ATOM     73  C   UNL A   1      42.291  35.517  28.141  1.00  0.00     0.200 A 
ATOM     74  F   UNL A   1      42.373  34.915  30.423  1.00  0.00    -0.200 F 
ATOM     75  F   UNL A   1      41.272  36.352  28.384  1.00  0.00    -0.200 F 
ENDBRANCH  51  65
BRANCH  52  76
ATOM     76  C   UNL A   1      51.783  27.260  25.768  1.00  0.00     0.064 A 
ATOM     77  C   UNL A   1      52.541  26.682  26.797  1.00  0.00     0.173 A 
ATOM     78  C   UNL A   1      52.107  26.915  24.448  1.00  0.00     0.173 A 
ATOM     79  F   UNL A   1      52.287  27.001  28.074  1.00  0.00    -0.203 F 
ATOM     80  C   UNL A   1      53.591  25.810  26.515  1.00  0.00     0.198 A 
ATOM     81  C   UNL A   1      53.137  26.019  24.169  1.00  0.00     0.198 A 
ATOM     82  F   UNL A   1      51.416  27.441  23.426  1.00  0.00    -0.203 F 
ATOM     83  F   UNL A   1      54.330  25.311  27.515  1.00  0.00    -0.200 F 
ATOM     84  C   UNL A   1      53.883  25.473  25.203  1.00  0.00     0.200 A 
ATOM     85  F   UNL A   1      53.407  25.685  22.900  1.00  0.00    -0.200 F 
ATOM     86  F   UNL A   1      54.889  24.630  24.933  1.00  0.00    -0.200 F 
ENDBRANCH  52  76
BRANCH  64  87
ATOM     87  C   UNL A   1      51.576  34.190  26.560  1.00  0.00     0.064 A 
ATOM     88  C   UNL A   1      52.331  34.526  27.694  1.00  0.00     0.173 A 
ATOM     89  C   UNL A   1      51.877  34.849  25.356  1.00  0.00     0.173 A 
ATOM     90  F   UNL A   1      52.078  33.936  28.872  1.00  0.00    -0.203 F 
ATOM     91  C   UNL A   1      53.322  35.502  27.632  1.00  0.00     0.198 A 
ATOM     92  C   UNL A   1      52.893  35.797  25.289  1.00  0.00     0.198 A 
ATOM     93  F   UNL A   1      51.194  34.560  24.238  1.00  0.00    -0.203 F 
ATOM     94  F   UNL A   1      53.992  35.846  28.741  1.00  0.00    -0.200 F 
ATOM     95  C   UNL A   1      53.609  36.130  26.428  1.00  0.00     0.200 A 
ATOM     96  F   UNL A   1      53.181  36.387  24.122  1.00  0.00    -0.200 F 
ATOM     97  F   UNL A   1      54.571  37.060  26.369  1.00  0.00    -0.200 F 
ENDBRANCH  64  87
ENDBRANCH  38  39
ENDBRANCH  31  33
ENDBRANCH  30  31
ENDBRANCH  29  30
ENDBRANCH  28  29
ENDBRANCH  27  28
ENDBRANCH  26  27
ENDBRANCH  25  26
ENDBRANCH  24  25
ENDBRANCH   1  24
TORSDOF 23
ENDMDL
MODEL 3
REMARK VINA RESULT:      -7.2      5.975     11.380
REMARK SMILES CC[C@@H](C)S(=O)(=O)c1cc(C(=O)OCCOCCOCCOCCOC(=O)c2ccc(-c3c4nc(c(-c5c(F)c(F)c(F)c(F)c5F)c5ccc([nH]5)c(-c5c(F)c(F)c(F)c(F)c5F)c5nc(c(-c6c(F)c(F)c(F)c(F)c6F)c6ccc3[nH]6)C=C5)C=C4)cc2)c(C)cc1C
REMARK SMILES IDX 18 1 17 2 16 3 15 4 14 5 13 6 11 7 12 8 10 9 8 10 9 11 94 12
REMARK SMILES IDX 93 13 95 14 91 15 92 16 5 17 6 18 7 19 3 20 4 21 2 22 1 23
REMARK SMILES IDX 19 24 20 25 21 26 22 27 23 28 24 29 25 30 26 31 27 32 28 33
REMARK SMILES IDX 29 34 90 35 30 36 89 37 31 38 32 39 33 40 83 41 34 42 88 43
REMARK SMILES IDX 82 44 84 45 35 46 87 47 81 48 80 49 36 51 68 52 48 53 67 54
REMARK SMILES IDX 49 55 52 56 66 57 85 58 50 59 51 60 65 62 86 63 53 64 37 65
REMARK SMILES IDX 38 66 46 67 39 68 40 69 44 70 47 71 41 72 42 73 45 74 43 75
REMARK SMILES IDX 69 76 70 77 78 78 71 79 72 80 76 81 79 82 73 83 74 84 77 85
REMARK SMILES IDX 75 86 54 87 55 88 63 89 56 90 57 91 61 92 64 93 58 94 59 95
REMARK SMILES IDX 62 96 60 97
REMARK H PARENT 84 50 52 61
REMARK Flexibility Score: inf
ROOT
ATOM      1  C   UNL A   1      36.338  32.001  28.407  1.00  0.00     0.188 C 
ENDROOT
BRANCH   1   2
ATOM      2  C   UNL A   1      34.913  32.005  29.004  1.00  0.00     0.188 C 
BRANCH   2   3
ATOM      3  O   UNL A   1      33.904  31.634  28.085  1.00  0.00    -0.376 OA
BRANCH   3   4
ATOM      4  C   UNL A   1      34.121  30.599  27.147  1.00  0.00     0.202 C 
BRANCH   4   5
ATOM      5  C   UNL A   1      34.341  29.135  27.566  1.00  0.00     0.261 C 
BRANCH   5   6
ATOM      6  O   UNL A   1      34.142  28.150  26.552  1.00  0.00    -0.460 OA
BRANCH   6   7
ATOM      7  C   UNL A   1      32.932  27.564  26.501  1.00  0.00     0.338 C 
ATOM      8  O   UNL A   1      32.064  27.631  27.356  1.00  0.00    -0.246 OA
BRANCH   7   9
ATOM      9  C   UNL A   1      32.676  27.030  25.135  1.00  0.00     0.064 A 
ATOM     10  C   UNL A   1      33.113  25.122  23.658  1.00  0.00     0.071 A 
ATOM     11  C   UNL A   1      33.167  25.727  24.913  1.00  0.00     0.036 A 
ATOM     12  C   UNL A   1      32.583  25.857  22.582  1.00  0.00    -0.032 A 
ATOM     13  C   UNL A   1      31.994  27.115  22.840  1.00  0.00     0.009 A 
ATOM     14  C   UNL A   1      32.648  25.435  21.137  1.00  0.00     0.046 C 
ATOM     15  C   UNL A   1      31.990  27.702  24.118  1.00  0.00    -0.036 A 
ATOM     16  C   UNL A   1      31.300  29.026  24.281  1.00  0.00     0.045 C 
BRANCH  10  17
ATOM     17  S   UNL A   1      33.731  23.457  23.402  1.00  0.00     0.181 S 
ATOM     18  O   UNL A   1      34.808  23.589  22.440  1.00  0.00    -0.223 OA
ATOM     19  O   UNL A   1      32.560  22.656  23.081  1.00  0.00    -0.223 OA
BRANCH  17  20
ATOM     20  C   UNL A   1      34.413  22.720  24.891  1.00  0.00     0.110 C 
ATOM     21  C   UNL A   1      35.633  23.484  25.405  1.00  0.00     0.025 C 
BRANCH  20  22
ATOM     22  C   UNL A   1      34.537  21.187  24.833  1.00  0.00     0.016 C 
ATOM     23  C   UNL A   1      35.952  20.657  25.015  1.00  0.00     0.005 C 
ENDBRANCH  20  22
ENDBRANCH  17  20
ENDBRANCH  10  17
ENDBRANCH   7   9
ENDBRANCH   6   7
ENDBRANCH   5   6
ENDBRANCH   4   5
ENDBRANCH   3   4
ENDBRANCH   2   3
ENDBRANCH   1   2
BRANCH   1  24
ATOM     24  O   UNL A   1      37.392  31.450  29.181  1.00  0.00    -0.377 OA
BRANCH  24  25
ATOM     25  C   UNL A   1      37.486  30.037  29.346  1.00  0.00     0.188 C 
BRANCH  25  26
ATOM     26  C   UNL A   1      36.719  29.279  30.458  1.00  0.00     0.188 C 
BRANCH  26  27
ATOM     27  O   UNL A   1      36.442  30.036  31.622  1.00  0.00    -0.376 OA
BRANCH  27  28
ATOM     28  C   UNL A   1      37.530  30.426  32.440  1.00  0.00     0.202 C 
BRANCH  28  29
ATOM     29  C   UNL A   1      37.367  31.719  33.252  1.00  0.00     0.261 C 
BRANCH  29  30
ATOM     30  O   UNL A   1      38.248  32.797  32.902  1.00  0.00    -0.460 OA
BRANCH  30  31
ATOM     31  C   UNL A   1      37.928  33.527  31.814  1.00  0.00     0.338 C 
ATOM     32  O   UNL A   1      36.811  33.844  31.436  1.00  0.00    -0.246 OA
BRANCH  31  33
ATOM     33  C   UNL A   1      39.186  34.048  31.243  1.00  0.00     0.060 A 
ATOM     34  C   UNL A   1      39.236  34.372  29.880  1.00  0.00     0.016 A 
ATOM     35  C   UNL A   1      40.306  34.225  32.057  1.00  0.00     0.016 A 
ATOM     36  C   UNL A   1      40.423  34.848  29.321  1.00  0.00     0.010 A 
ATOM     37  C   UNL A   1      41.499  34.679  31.492  1.00  0.00     0.010 A 
ATOM     38  C   UNL A   1      41.572  34.959  30.115  1.00  0.00    -0.014 A 
BRANCH  38  39
ATOM     39  C   UNL A   1      42.892  35.173  29.477  1.00  0.00     0.031 A 
ATOM     40  C   UNL A   1      43.771  33.976  29.246  1.00  0.00     0.074 A 
ATOM     41  C   UNL A   1      43.301  36.396  29.101  1.00  0.00     0.049 A 
ATOM     42  N   UNL A   1      44.986  33.912  28.764  1.00  0.00    -0.248 NA
ATOM     43  C   UNL A   1      43.200  32.671  29.617  1.00  0.00     0.031 C 
ATOM     44  C   UNL A   1      42.523  37.625  29.230  1.00  0.00     0.029 A 
ATOM     45  N   UNL A   1      44.486  36.803  28.539  1.00  0.00    -0.354 N 
ATOM     46  C   UNL A   1      45.327  32.566  28.786  1.00  0.00     0.074 A 
ATOM     47  C   UNL A   1      44.207  31.852  29.357  1.00  0.00     0.031 C 
ATOM     48  C   UNL A   1      43.256  38.654  28.770  1.00  0.00     0.029 A 
ATOM     49  C   UNL A   1      44.567  38.160  28.350  1.00  0.00     0.049 A 
ATOM     50  H   UNL A   1      45.210  36.180  28.296  1.00  0.00     0.167 HD
ATOM     51  C   UNL A   1      46.470  31.978  28.359  1.00  0.00     0.037 A 
ATOM     52  C   UNL A   1      45.594  38.914  27.912  1.00  0.00     0.037 A 
ATOM     53  C   UNL A   1      47.583  32.695  27.797  1.00  0.00     0.049 A 
ATOM     54  C   UNL A   1      46.890  38.246  27.522  1.00  0.00     0.074 A 
ATOM     55  C   UNL A   1      48.778  32.191  27.312  1.00  0.00     0.029 A 
ATOM     56  N   UNL A   1      47.644  34.074  27.656  1.00  0.00    -0.354 N 
ATOM     57  N   UNL A   1      47.197  36.971  27.515  1.00  0.00    -0.248 NA
ATOM     58  C   UNL A   1      47.981  39.125  27.078  1.00  0.00     0.031 C 
ATOM     59  C   UNL A   1      49.588  33.269  26.944  1.00  0.00     0.029 A 
ATOM     60  C   UNL A   1      48.871  34.442  27.126  1.00  0.00     0.049 A 
ATOM     61  H   UNL A   1      46.923  34.699  27.896  1.00  0.00     0.167 HD
ATOM     62  C   UNL A   1      48.499  36.892  27.034  1.00  0.00     0.074 A 
ATOM     63  C   UNL A   1      48.919  38.249  26.749  1.00  0.00     0.031 C 
ATOM     64  C   UNL A   1      49.275  35.796  26.842  1.00  0.00     0.037 A 
BRANCH  51  65
ATOM     65  C   UNL A   1      46.587  30.490  28.530  1.00  0.00     0.064 A 
ATOM     66  C   UNL A   1      47.160  29.915  29.674  1.00  0.00     0.173 A 
ATOM     67  C   UNL A   1      46.104  29.625  27.535  1.00  0.00     0.173 A 
ATOM     68  F   UNL A   1      47.652  30.695  30.649  1.00  0.00    -0.203 F 
ATOM     69  C   UNL A   1      47.278  28.532  29.800  1.00  0.00     0.198 A 
ATOM     70  C   UNL A   1      46.190  28.243  27.682  1.00  0.00     0.198 A 
ATOM     71  F   UNL A   1      45.543  30.119  26.422  1.00  0.00    -0.203 F 
ATOM     72  F   UNL A   1      47.885  28.009  30.874  1.00  0.00    -0.200 F 
ATOM     73  C   UNL A   1      46.787  27.699  28.808  1.00  0.00     0.200 A 
ATOM     74  F   UNL A   1      45.700  27.439  26.728  1.00  0.00    -0.200 F 
ATOM     75  F   UNL A   1      46.896  26.369  28.932  1.00  0.00    -0.200 F 
ENDBRANCH  51  65
BRANCH  52  76
ATOM     76  C   UNL A   1      45.447  40.393  27.823  1.00  0.00     0.064 A 
ATOM     77  C   UNL A   1      45.863  41.224  28.873  1.00  0.00     0.173 A 
ATOM     78  C   UNL A   1      44.872  41.002  26.698  1.00  0.00     0.173 A 
ATOM     79  F   UNL A   1      46.392  40.687  29.981  1.00  0.00    -0.203 F 
ATOM     80  C   UNL A   1      45.695  42.606  28.807  1.00  0.00     0.198 A 
ATOM     81  C   UNL A   1      44.734  42.387  26.620  1.00  0.00     0.198 A 
ATOM     82  F   UNL A   1      44.455  40.254  25.667  1.00  0.00    -0.203 F 
ATOM     83  F   UNL A   1      46.056  43.372  29.845  1.00  0.00    -0.200 F 
ATOM     84  C   UNL A   1      45.138  43.187  27.678  1.00  0.00     0.200 A 
ATOM     85  F   UNL A   1      44.208  42.945  25.521  1.00  0.00    -0.200 F 
ATOM     86  F   UNL A   1      44.982  44.516  27.613  1.00  0.00    -0.200 F 
ENDBRANCH  52  76
BRANCH  64  87
ATOM     87  C   UNL A   1      50.642  36.007  26.252  1.00  0.00     0.064 A 
ATOM     88  C   UNL A   1      51.793  36.083  27.053  1.00  0.00     0.173 A 
ATOM     89  C   UNL A   1      50.809  36.088  24.860  1.00  0.00     0.173 A 
ATOM     90  F   UNL A   1      51.691  36.023  28.389  1.00  0.00    -0.203 F 
ATOM     91  C   UNL A   1      53.052  36.263  26.484  1.00  0.00     0.198 A 
ATOM     92  C   UNL A   1      52.072  36.230  24.293  1.00  0.00     0.198 A 
ATOM     93  F   UNL A   1      49.745  36.011  24.047  1.00  0.00    -0.203 F 
ATOM     94  F   UNL A   1      54.129  36.388  27.271  1.00  0.00    -0.200 F 
ATOM     95  C   UNL A   1      53.191  36.327  25.105  1.00  0.00     0.200 A 
ATOM     96  F   UNL A   1      52.206  36.272  22.961  1.00  0.00    -0.200 F 
ATOM     97  F   UNL A   1      54.404  36.489  24.560  1.00  0.00    -0.200 F 
ENDBRANCH  64  87
ENDBRANCH  38  39
ENDBRANCH  31  33
ENDBRANCH  30  31
ENDBRANCH  29  30
ENDBRANCH  28  29
ENDBRANCH  27  28
ENDBRANCH  26  27
ENDBRANCH  25  26
ENDBRANCH  24  25
ENDBRANCH   1  24
TORSDOF 23
ENDMDL
