MODEL 1
REMARK VINA RESULT:      -7.2      0.000      0.000
REMARK SMILES CC(=O)N[C@H]1[C@@H](Oc2ccc(C)c(C)c2)O[C@H]2CO[C@H](c3ccco3)O[C@@H]2[C@H]1OCC(=O)OCCOCCOCCOCCOC(=O)c1ccc(-c2c3nc(c(-c4c(F)c(F)c(F)c(F)c4F)c4ccc([nH]4)c(-c4c(F)c(F)c(F)c(F)c4F)c4nc(c(-c5c(F)c(F)c(F)c(F)c5F)c5ccc2[nH]5)C=C4)C=C3)cc1
REMARK SMILES IDX 38 1 37 2 36 3 35 4 34 5 33 6 31 7 32 8 30 9 29 10 28 11
REMARK SMILES IDX 5 12 6 13 16 14 27 15 17 16 26 17 18 18 20 19 19 20 4 21
REMARK SMILES IDX 1 22 2 23 3 24 7 26 8 27 9 28 15 29 10 30 13 31 11 32 14 33
REMARK SMILES IDX 12 34 21 35 22 36 25 37 23 38 24 39 39 40 40 41 41 42 42 43
REMARK SMILES IDX 43 44 44 45 45 46 46 47 47 48 48 49 49 50 110 51 50 52
REMARK SMILES IDX 109 53 51 54 52 55 53 56 103 57 54 58 108 59 102 60 104 61
REMARK SMILES IDX 55 62 107 63 101 64 100 65 56 67 88 68 68 69 87 70 69 71
REMARK SMILES IDX 72 72 86 73 105 74 70 75 71 76 85 78 106 79 73 80 57 81
REMARK SMILES IDX 58 82 66 83 59 84 60 85 64 86 67 87 61 88 62 89 65 90 63 91
REMARK SMILES IDX 89 92 90 93 98 94 91 95 92 96 96 97 99 98 93 99 94 100
REMARK SMILES IDX 97 101 95 102 74 103 75 104 83 105 76 106 77 107 81 108
REMARK SMILES IDX 84 109 78 110 79 111 82 112 80 113
REMARK H PARENT 4 25 104 66 72 77
REMARK Flexibility Score: inf
ROOT
ATOM      1  C   UNL A   1      44.776  25.871  26.008  1.00  0.00     0.188 C 
ENDROOT
BRANCH   1   2
ATOM      2  C   UNL A   1      45.411  27.176  25.469  1.00  0.00     0.188 C 
BRANCH   2   3
ATOM      3  O   UNL A   1      45.529  28.308  26.325  1.00  0.00    -0.376 OA
BRANCH   3   4
ATOM      4  C   UNL A   1      46.121  29.487  25.805  1.00  0.00     0.202 C 
BRANCH   4   5
ATOM      5  C   UNL A   1      45.940  30.803  26.578  1.00  0.00     0.261 C 
BRANCH   5   6
ATOM      6  O   UNL A   1      44.643  31.410  26.423  1.00  0.00    -0.462 OA
BRANCH   6   7
ATOM      7  C   UNL A   1      44.580  32.609  25.786  1.00  0.00     0.332 C 
ATOM      8  O   UNL A   1      44.692  32.754  24.574  1.00  0.00    -0.250 OA
BRANCH   7   9
ATOM      9  C   UNL A   1      44.527  33.800  26.778  1.00  0.00     0.283 C 
BRANCH   9  10
ATOM     10  O   UNL A   1      44.944  33.786  28.133  1.00  0.00    -0.361 OA
BRANCH  10  11
ATOM     11  C   UNL A   1      45.370  34.971  28.821  1.00  0.00     0.179 C 
ATOM     12  C   UNL A   1      44.188  36.002  28.924  1.00  0.00     0.182 C 
ATOM     13  C   UNL A   1      44.708  37.307  29.684  1.00  0.00     0.333 C 
ATOM     14  O   UNL A   1      45.499  37.052  30.850  1.00  0.00    -0.332 OA
ATOM     15  C   UNL A   1      46.118  34.825  30.159  1.00  0.00     0.184 C 
ATOM     16  C   UNL A   1      46.605  36.213  30.580  1.00  0.00     0.180 C 
ATOM     17  O   UNL A   1      47.255  33.994  29.982  1.00  0.00    -0.337 OA
ATOM     18  C   UNL A   1      47.505  36.085  31.806  1.00  0.00     0.199 C 
ATOM     19  C   UNL A   1      48.039  33.896  31.167  1.00  0.00     0.319 C 
ATOM     20  O   UNL A   1      48.561  35.162  31.556  1.00  0.00    -0.343 OA
BRANCH  12  21
ATOM     21  N   UNL A   1      42.953  35.427  29.501  1.00  0.00    -0.345 N 
ATOM     22  C   UNL A   1      41.302  35.635  27.643  1.00  0.00     0.114 C 
ATOM     23  C   UNL A   1      41.678  35.322  29.057  1.00  0.00     0.217 C 
ATOM     24  O   UNL A   1      40.827  34.925  29.856  1.00  0.00    -0.275 OA
ATOM     25  H   UNL A   1      43.087  35.040  30.395  1.00  0.00     0.164 HD
ENDBRANCH  12  21
BRANCH  13  26
ATOM     26  O   UNL A   1      43.722  38.325  29.925  1.00  0.00    -0.463 OA
BRANCH  26  27
ATOM     27  C   UNL A   1      44.067  39.532  30.469  1.00  0.00     0.123 A 
ATOM     28  C   UNL A   1      43.637  40.048  31.687  1.00  0.00     0.047 A 
ATOM     29  C   UNL A   1      44.864  40.338  29.654  1.00  0.00     0.050 A 
ATOM     30  C   UNL A   1      43.753  41.413  31.948  1.00  0.00     0.007 A 
ATOM     31  C   UNL A   1      45.064  41.700  29.943  1.00  0.00    -0.045 A 
ATOM     32  C   UNL A   1      44.400  42.264  31.045  1.00  0.00    -0.048 A 
ATOM     33  C   UNL A   1      45.988  42.488  29.056  1.00  0.00     0.045 C 
ATOM     34  C   UNL A   1      44.336  43.747  31.284  1.00  0.00     0.044 C 
ENDBRANCH  26  27
ENDBRANCH  13  26
BRANCH  19  35
ATOM     35  C   UNL A   1      49.189  33.002  30.858  1.00  0.00     0.159 A 
ATOM     36  C   UNL A   1      50.103  32.334  31.648  1.00  0.00     0.051 A 
ATOM     37  O   UNL A   1      49.413  32.695  29.543  1.00  0.00    -0.464 OA
ATOM     38  C   UNL A   1      50.889  31.542  30.774  1.00  0.00     0.042 A 
ATOM     39  C   UNL A   1      50.423  31.793  29.506  1.00  0.00     0.195 A 
ENDBRANCH  19  35
ENDBRANCH  10  11
ENDBRANCH   9  10
ENDBRANCH   7   9
ENDBRANCH   6   7
ENDBRANCH   5   6
ENDBRANCH   4   5
ENDBRANCH   3   4
ENDBRANCH   2   3
ENDBRANCH   1   2
BRANCH   1  40
ATOM     40  O   UNL A   1      44.185  25.082  24.992  1.00  0.00    -0.377 OA
BRANCH  40  41
ATOM     41  C   UNL A   1      44.946  23.952  24.613  1.00  0.00     0.188 C 
BRANCH  41  42
ATOM     42  C   UNL A   1      44.498  22.624  25.236  1.00  0.00     0.188 C 
BRANCH  42  43
ATOM     43  O   UNL A   1      43.085  22.429  25.086  1.00  0.00    -0.376 OA
BRANCH  43  44
ATOM     44  C   UNL A   1      42.379  22.082  26.273  1.00  0.00     0.202 C 
BRANCH  44  45
ATOM     45  C   UNL A   1      40.861  22.026  26.062  1.00  0.00     0.261 C 
BRANCH  45  46
ATOM     46  O   UNL A   1      40.088  22.756  27.026  1.00  0.00    -0.460 OA
BRANCH  46  47
ATOM     47  C   UNL A   1      39.271  23.727  26.560  1.00  0.00     0.338 C 
ATOM     48  O   UNL A   1      38.373  23.601  25.745  1.00  0.00    -0.246 OA
BRANCH  47  49
ATOM     49  C   UNL A   1      39.504  24.944  27.367  1.00  0.00     0.060 A 
ATOM     50  C   UNL A   1      40.196  26.011  26.779  1.00  0.00     0.016 A 
ATOM     51  C   UNL A   1      38.992  25.062  28.664  1.00  0.00     0.016 A 
ATOM     52  C   UNL A   1      40.391  27.194  27.492  1.00  0.00     0.010 A 
ATOM     53  C   UNL A   1      39.215  26.235  29.390  1.00  0.00     0.010 A 
ATOM     54  C   UNL A   1      39.941  27.293  28.817  1.00  0.00    -0.014 A 
BRANCH  54  55
ATOM     55  C   UNL A   1      40.463  28.378  29.678  1.00  0.00     0.031 A 
ATOM     56  C   UNL A   1      39.546  29.536  29.961  1.00  0.00     0.074 A 
ATOM     57  C   UNL A   1      41.696  28.342  30.211  1.00  0.00     0.049 A 
ATOM     58  N   UNL A   1      39.742  30.598  30.696  1.00  0.00    -0.248 NA
ATOM     59  C   UNL A   1      38.220  29.479  29.322  1.00  0.00     0.031 C 
ATOM     60  C   UNL A   1      42.662  27.260  30.041  1.00  0.00     0.029 A 
ATOM     61  N   UNL A   1      42.341  29.252  31.010  1.00  0.00    -0.354 N 
ATOM     62  C   UNL A   1      38.561  31.324  30.622  1.00  0.00     0.074 A 
ATOM     63  C   UNL A   1      37.670  30.607  29.739  1.00  0.00     0.031 C 
ATOM     64  C   UNL A   1      43.783  27.571  30.718  1.00  0.00     0.029 A 
ATOM     65  C   UNL A   1      43.617  28.880  31.350  1.00  0.00     0.049 A 
ATOM     66  H   UNL A   1      41.927  30.093  31.310  1.00  0.00     0.167 HD
ATOM     67  C   UNL A   1      38.240  32.482  31.245  1.00  0.00     0.037 A 
ATOM     68  C   UNL A   1      44.541  29.532  32.084  1.00  0.00     0.037 A 
ATOM     69  C   UNL A   1      39.139  33.219  32.089  1.00  0.00     0.049 A 
ATOM     70  C   UNL A   1      44.201  30.876  32.677  1.00  0.00     0.074 A 
ATOM     71  C   UNL A   1      38.919  34.407  32.760  1.00  0.00     0.029 A 
ATOM     72  N   UNL A   1      40.447  32.839  32.359  1.00  0.00    -0.354 N 
ATOM     73  N   UNL A   1      43.070  31.540  32.637  1.00  0.00    -0.248 NA
ATOM     74  C   UNL A   1      45.271  31.563  33.417  1.00  0.00     0.031 C 
ATOM     75  C   UNL A   1      40.109  34.773  33.396  1.00  0.00     0.029 A 
ATOM     76  C   UNL A   1      41.056  33.787  33.164  1.00  0.00     0.049 A 
ATOM     77  H   UNL A   1      40.876  32.019  32.027  1.00  0.00     0.167 HD
ATOM     78  C   UNL A   1      43.280  32.701  33.372  1.00  0.00     0.074 A 
ATOM     79  C   UNL A   1      44.646  32.650  33.849  1.00  0.00     0.031 C 
ATOM     80  C   UNL A   1      42.417  33.714  33.634  1.00  0.00     0.037 A 
BRANCH  67  81
ATOM     81  C   UNL A   1      36.866  33.026  30.990  1.00  0.00     0.064 A 
ATOM     82  C   UNL A   1      36.560  33.725  29.812  1.00  0.00     0.173 A 
ATOM     83  C   UNL A   1      35.854  32.881  31.950  1.00  0.00     0.173 A 
ATOM     84  F   UNL A   1      37.501  33.912  28.874  1.00  0.00    -0.203 F 
ATOM     85  C   UNL A   1      35.304  34.294  29.623  1.00  0.00     0.198 A 
ATOM     86  C   UNL A   1      34.590  33.426  31.745  1.00  0.00     0.198 A 
ATOM     87  F   UNL A   1      36.098  32.226  33.096  1.00  0.00    -0.203 F 
ATOM     88  F   UNL A   1      35.055  35.014  28.521  1.00  0.00    -0.200 F 
ATOM     89  C   UNL A   1      34.319  34.141  30.588  1.00  0.00     0.200 A 
ATOM     90  F   UNL A   1      33.639  33.275  32.677  1.00  0.00    -0.200 F 
ATOM     91  F   UNL A   1      33.113  34.698  30.410  1.00  0.00    -0.200 F 
ENDBRANCH  67  81
BRANCH  68  92
ATOM     92  C   UNL A   1      45.874  28.918  32.317  1.00  0.00     0.064 A 
ATOM     93  C   UNL A   1      46.932  29.138  31.424  1.00  0.00     0.173 A 
ATOM     94  C   UNL A   1      46.115  28.091  33.424  1.00  0.00     0.173 A 
ATOM     95  F   UNL A   1      46.742  29.896  30.334  1.00  0.00    -0.203 F 
ATOM     96  C   UNL A   1      48.179  28.546  31.624  1.00  0.00     0.198 A 
ATOM     97  C   UNL A   1      47.369  27.519  33.635  1.00  0.00     0.198 A 
ATOM     98  F   UNL A   1      45.133  27.842  34.302  1.00  0.00    -0.203 F 
ATOM     99  F   UNL A   1      49.161  28.743  30.735  1.00  0.00    -0.200 F 
ATOM    100  C   UNL A   1      48.397  27.743  32.733  1.00  0.00     0.200 A 
ATOM    101  F   UNL A   1      47.578  26.746  34.710  1.00  0.00    -0.200 F 
ATOM    102  F   UNL A   1      49.597  27.178  32.927  1.00  0.00    -0.200 F 
ENDBRANCH  68  92
BRANCH  80 103
ATOM    103  C   UNL A   1      42.908  34.834  34.504  1.00  0.00     0.064 A 
ATOM    104  C   UNL A   1      43.376  36.039  33.961  1.00  0.00     0.173 A 
ATOM    105  C   UNL A   1      42.855  34.718  35.902  1.00  0.00     0.173 A 
ATOM    106  F   UNL A   1      43.457  36.194  32.631  1.00  0.00    -0.203 F 
ATOM    107  C   UNL A   1      43.794  37.080  34.787  1.00  0.00     0.198 A 
ATOM    108  C   UNL A   1      43.248  35.771  36.723  1.00  0.00     0.198 A 
ATOM    109  F   UNL A   1      42.407  33.590  36.471  1.00  0.00    -0.203 F 
ATOM    110  F   UNL A   1      44.277  38.208  34.247  1.00  0.00    -0.200 F 
ATOM    111  C   UNL A   1      43.722  36.949  36.166  1.00  0.00     0.200 A 
ATOM    112  F   UNL A   1      43.163  35.647  38.055  1.00  0.00    -0.200 F 
ATOM    113  F   UNL A   1      44.116  37.955  36.958  1.00  0.00    -0.200 F 
ENDBRANCH  80 103
ENDBRANCH  54  55
ENDBRANCH  47  49
ENDBRANCH  46  47
ENDBRANCH  45  46
ENDBRANCH  44  45
ENDBRANCH  43  44
ENDBRANCH  42  43
ENDBRANCH  41  42
ENDBRANCH  40  41
ENDBRANCH   1  40
TORSDOF 26
ENDMDL
MODEL 2
REMARK VINA RESULT:      -6.9      2.603      4.480
REMARK SMILES CC(=O)N[C@H]1[C@@H](Oc2ccc(C)c(C)c2)O[C@H]2CO[C@H](c3ccco3)O[C@@H]2[C@H]1OCC(=O)OCCOCCOCCOCCOC(=O)c1ccc(-c2c3nc(c(-c4c(F)c(F)c(F)c(F)c4F)c4ccc([nH]4)c(-c4c(F)c(F)c(F)c(F)c4F)c4nc(c(-c5c(F)c(F)c(F)c(F)c5F)c5ccc2[nH]5)C=C4)C=C3)cc1
REMARK SMILES IDX 38 1 37 2 36 3 35 4 34 5 33 6 31 7 32 8 30 9 29 10 28 11
REMARK SMILES IDX 5 12 6 13 16 14 27 15 17 16 26 17 18 18 20 19 19 20 4 21
REMARK SMILES IDX 1 22 2 23 3 24 7 26 8 27 9 28 15 29 10 30 13 31 11 32 14 33
REMARK SMILES IDX 12 34 21 35 22 36 25 37 23 38 24 39 39 40 40 41 41 42 42 43
REMARK SMILES IDX 43 44 44 45 45 46 46 47 47 48 48 49 49 50 110 51 50 52
REMARK SMILES IDX 109 53 51 54 52 55 53 56 103 57 54 58 108 59 102 60 104 61
REMARK SMILES IDX 55 62 107 63 101 64 100 65 56 67 88 68 68 69 87 70 69 71
REMARK SMILES IDX 72 72 86 73 105 74 70 75 71 76 85 78 106 79 73 80 57 81
REMARK SMILES IDX 58 82 66 83 59 84 60 85 64 86 67 87 61 88 62 89 65 90 63 91
REMARK SMILES IDX 89 92 90 93 98 94 91 95 92 96 96 97 99 98 93 99 94 100
REMARK SMILES IDX 97 101 95 102 74 103 75 104 83 105 76 106 77 107 81 108
REMARK SMILES IDX 84 109 78 110 79 111 82 112 80 113
REMARK H PARENT 4 25 104 66 72 77
REMARK Flexibility Score: inf
ROOT
ATOM      1  C   UNL A   1      44.997  25.692  25.684  1.00  0.00     0.188 C 
ENDROOT
BRANCH   1   2
ATOM      2  C   UNL A   1      45.684  26.905  25.010  1.00  0.00     0.188 C 
BRANCH   2   3
ATOM      3  O   UNL A   1      45.117  28.203  25.151  1.00  0.00    -0.376 OA
BRANCH   3   4
ATOM      4  C   UNL A   1      44.757  28.644  26.449  1.00  0.00     0.202 C 
BRANCH   4   5
ATOM      5  C   UNL A   1      45.395  29.933  26.992  1.00  0.00     0.261 C 
BRANCH   5   6
ATOM      6  O   UNL A   1      44.545  30.689  27.876  1.00  0.00    -0.462 OA
BRANCH   6   7
ATOM      7  C   UNL A   1      44.604  32.045  27.799  1.00  0.00     0.332 C 
ATOM      8  O   UNL A   1      43.712  32.751  27.342  1.00  0.00    -0.250 OA
BRANCH   7   9
ATOM      9  C   UNL A   1      46.000  32.597  28.191  1.00  0.00     0.283 C 
BRANCH   9  10
ATOM     10  O   UNL A   1      46.913  33.261  27.335  1.00  0.00    -0.361 OA
BRANCH  10  11
ATOM     11  C   UNL A   1      47.692  34.387  27.764  1.00  0.00     0.179 C 
ATOM     12  C   UNL A   1      49.222  34.024  27.780  1.00  0.00     0.182 C 
ATOM     13  C   UNL A   1      50.048  35.299  28.273  1.00  0.00     0.333 C 
ATOM     14  O   UNL A   1      49.645  36.542  27.690  1.00  0.00    -0.332 OA
ATOM     15  C   UNL A   1      47.439  35.759  27.112  1.00  0.00     0.184 C 
ATOM     16  C   UNL A   1      48.266  36.800  27.867  1.00  0.00     0.180 C 
ATOM     17  O   UNL A   1      46.068  36.104  27.243  1.00  0.00    -0.337 OA
ATOM     18  C   UNL A   1      47.903  38.197  27.368  1.00  0.00     0.199 C 
ATOM     19  C   UNL A   1      45.791  37.406  26.738  1.00  0.00     0.319 C 
ATOM     20  O   UNL A   1      46.498  38.410  27.459  1.00  0.00    -0.343 OA
BRANCH  12  21
ATOM     21  N   UNL A   1      49.706  33.456  26.503  1.00  0.00    -0.345 N 
ATOM     22  C   UNL A   1      51.068  31.496  27.227  1.00  0.00     0.114 C 
ATOM     23  C   UNL A   1      50.559  32.451  26.193  1.00  0.00     0.217 C 
ATOM     24  O   UNL A   1      50.886  32.325  25.011  1.00  0.00    -0.275 OA
ATOM     25  H   UNL A   1      49.328  33.903  25.712  1.00  0.00     0.164 HD
ENDBRANCH  12  21
BRANCH  13  26
ATOM     26  O   UNL A   1      51.479  35.154  28.276  1.00  0.00    -0.463 OA
BRANCH  26  27
ATOM     27  C   UNL A   1      52.272  35.936  27.481  1.00  0.00     0.123 A 
ATOM     28  C   UNL A   1      52.903  37.121  27.846  1.00  0.00     0.047 A 
ATOM     29  C   UNL A   1      52.364  35.520  26.151  1.00  0.00     0.050 A 
ATOM     30  C   UNL A   1      53.359  38.001  26.865  1.00  0.00     0.007 A 
ATOM     31  C   UNL A   1      52.899  36.360  25.157  1.00  0.00    -0.045 A 
ATOM     32  C   UNL A   1      53.291  37.662  25.509  1.00  0.00    -0.048 A 
ATOM     33  C   UNL A   1      53.027  35.818  23.761  1.00  0.00     0.045 C 
ATOM     34  C   UNL A   1      53.623  38.715  24.489  1.00  0.00     0.044 C 
ENDBRANCH  26  27
ENDBRANCH  13  26
BRANCH  19  35
ATOM     35  C   UNL A   1      44.334  37.647  26.928  1.00  0.00     0.159 A 
ATOM     36  C   UNL A   1      43.580  38.794  27.085  1.00  0.00     0.051 A 
ATOM     37  O   UNL A   1      43.505  36.559  26.900  1.00  0.00    -0.464 OA
ATOM     38  C   UNL A   1      42.223  38.386  27.102  1.00  0.00     0.042 A 
ATOM     39  C   UNL A   1      42.233  37.017  26.979  1.00  0.00     0.195 A 
ENDBRANCH  19  35
ENDBRANCH  10  11
ENDBRANCH   9  10
ENDBRANCH   7   9
ENDBRANCH   6   7
ENDBRANCH   5   6
ENDBRANCH   4   5
ENDBRANCH   3   4
ENDBRANCH   2   3
ENDBRANCH   1   2
BRANCH   1  40
ATOM     40  O   UNL A   1      44.915  24.560  24.837  1.00  0.00    -0.377 OA
BRANCH  40  41
ATOM     41  C   UNL A   1      45.804  23.513  25.174  1.00  0.00     0.188 C 
BRANCH  41  42
ATOM     42  C   UNL A   1      45.172  22.336  25.925  1.00  0.00     0.188 C 
BRANCH  42  43
ATOM     43  O   UNL A   1      43.908  21.972  25.353  1.00  0.00    -0.376 OA
BRANCH  43  44
ATOM     44  C   UNL A   1      42.893  21.605  26.281  1.00  0.00     0.202 C 
BRANCH  44  45
ATOM     45  C   UNL A   1      41.482  21.920  25.767  1.00  0.00     0.261 C 
BRANCH  45  46
ATOM     46  O   UNL A   1      40.541  22.309  26.780  1.00  0.00    -0.460 OA
BRANCH  46  47
ATOM     47  C   UNL A   1      39.567  23.175  26.422  1.00  0.00     0.338 C 
ATOM     48  O   UNL A   1      38.552  22.919  25.797  1.00  0.00    -0.246 OA
BRANCH  47  49
ATOM     49  C   UNL A   1      39.830  24.461  27.104  1.00  0.00     0.060 A 
ATOM     50  C   UNL A   1      40.608  25.420  26.442  1.00  0.00     0.016 A 
ATOM     51  C   UNL A   1      39.264  24.748  28.352  1.00  0.00     0.016 A 
ATOM     52  C   UNL A   1      40.834  26.663  27.033  1.00  0.00     0.010 A 
ATOM     53  C   UNL A   1      39.517  25.981  28.957  1.00  0.00     0.010 A 
ATOM     54  C   UNL A   1      40.328  26.930  28.313  1.00  0.00    -0.014 A 
BRANCH  54  55
ATOM     55  C   UNL A   1      40.867  28.077  29.079  1.00  0.00     0.031 A 
ATOM     56  C   UNL A   1      39.931  29.218  29.364  1.00  0.00     0.074 A 
ATOM     57  C   UNL A   1      42.134  28.109  29.526  1.00  0.00     0.049 A 
ATOM     58  N   UNL A   1      40.138  30.325  30.028  1.00  0.00    -0.248 NA
ATOM     59  C   UNL A   1      38.568  29.085  28.823  1.00  0.00     0.031 C 
ATOM     60  C   UNL A   1      43.124  27.051  29.345  1.00  0.00     0.029 A 
ATOM     61  N   UNL A   1      42.799  29.082  30.230  1.00  0.00    -0.354 N 
ATOM     62  C   UNL A   1      38.930  31.008  29.999  1.00  0.00     0.074 A 
ATOM     63  C   UNL A   1      38.007  30.216  29.218  1.00  0.00     0.031 C 
ATOM     64  C   UNL A   1      44.276  27.434  29.926  1.00  0.00     0.029 A 
ATOM     65  C   UNL A   1      44.107  28.769  30.499  1.00  0.00     0.049 A 
ATOM     66  H   UNL A   1      42.376  29.924  30.514  1.00  0.00     0.167 HD
ATOM     67  C   UNL A   1      38.611  32.187  30.581  1.00  0.00     0.037 A 
ATOM     68  C   UNL A   1      45.055  29.489  31.133  1.00  0.00     0.037 A 
ATOM     69  C   UNL A   1      39.538  32.996  31.322  1.00  0.00     0.049 A 
ATOM     70  C   UNL A   1      44.708  30.852  31.677  1.00  0.00     0.074 A 
ATOM     71  C   UNL A   1      39.322  34.211  31.944  1.00  0.00     0.029 A 
ATOM     72  N   UNL A   1      40.874  32.674  31.519  1.00  0.00    -0.354 N 
ATOM     73  N   UNL A   1      43.554  31.476  31.682  1.00  0.00    -0.248 NA
ATOM     74  C   UNL A   1      45.800  31.611  32.305  1.00  0.00     0.031 C 
ATOM     75  C   UNL A   1      40.539  34.650  32.477  1.00  0.00     0.029 A 
ATOM     76  C   UNL A   1      41.502  33.682  32.230  1.00  0.00     0.049 A 
ATOM     77  H   UNL A   1      41.309  31.850  31.201  1.00  0.00     0.167 HD
ATOM     78  C   UNL A   1      43.772  32.681  32.339  1.00  0.00     0.074 A 
ATOM     79  C   UNL A   1      45.168  32.700  32.722  1.00  0.00     0.031 C 
ATOM     80  C   UNL A   1      42.893  33.679  32.608  1.00  0.00     0.037 A 
BRANCH  67  81
ATOM     81  C   UNL A   1      37.204  32.671  30.395  1.00  0.00     0.064 A 
ATOM     82  C   UNL A   1      36.825  33.402  29.258  1.00  0.00     0.173 A 
ATOM     83  C   UNL A   1      36.234  32.438  31.380  1.00  0.00     0.173 A 
ATOM     84  F   UNL A   1      37.723  33.674  28.299  1.00  0.00    -0.203 F 
ATOM     85  C   UNL A   1      35.536  33.915  29.134  1.00  0.00     0.198 A 
ATOM     86  C   UNL A   1      34.939  32.927  31.240  1.00  0.00     0.198 A 
ATOM     87  F   UNL A   1      36.549  31.749  32.488  1.00  0.00    -0.203 F 
ATOM     88  F   UNL A   1      35.215  34.667  28.073  1.00  0.00    -0.200 F 
ATOM     89  C   UNL A   1      34.594  33.675  30.124  1.00  0.00     0.200 A 
ATOM     90  F   UNL A   1      34.029  32.692  32.195  1.00  0.00    -0.200 F 
ATOM     91  F   UNL A   1      33.358  34.178  30.009  1.00  0.00    -0.200 F 
ENDBRANCH  67  81
BRANCH  68  92
ATOM     92  C   UNL A   1      46.422  28.932  31.304  1.00  0.00     0.064 A 
ATOM     93  C   UNL A   1      47.453  29.271  30.416  1.00  0.00     0.173 A 
ATOM     94  C   UNL A   1      46.724  28.041  32.345  1.00  0.00     0.173 A 
ATOM     95  F   UNL A   1      47.205  30.094  29.387  1.00  0.00    -0.203 F 
ATOM     96  C   UNL A   1      48.732  28.733  30.557  1.00  0.00     0.198 A 
ATOM     97  C   UNL A   1      48.008  27.523  32.499  1.00  0.00     0.198 A 
ATOM     98  F   UNL A   1      45.771  27.678  33.214  1.00  0.00    -0.203 F 
ATOM     99  F   UNL A   1      49.688  29.045  29.673  1.00  0.00    -0.200 F 
ATOM    100  C   UNL A   1      49.009  27.865  31.602  1.00  0.00     0.200 A 
ATOM    101  F   UNL A   1      48.275  26.687  33.512  1.00  0.00    -0.200 F 
ATOM    102  F   UNL A   1      50.240  27.352  31.740  1.00  0.00    -0.200 F 
ENDBRANCH  68  92
BRANCH  80 103
ATOM    103  C   UNL A   1      43.402  34.859  33.383  1.00  0.00     0.064 A 
ATOM    104  C   UNL A   1      43.887  36.008  32.742  1.00  0.00     0.173 A 
ATOM    105  C   UNL A   1      43.349  34.860  34.786  1.00  0.00     0.173 A 
ATOM    106  F   UNL A   1      43.969  36.052  31.404  1.00  0.00    -0.203 F 
ATOM    107  C   UNL A   1      44.322  37.107  33.479  1.00  0.00     0.198 A 
ATOM    108  C   UNL A   1      43.758  35.971  35.517  1.00  0.00     0.198 A 
ATOM    109  F   UNL A   1      42.885  33.789  35.446  1.00  0.00    -0.203 F 
ATOM    110  F   UNL A   1      44.820  38.180  32.849  1.00  0.00    -0.200 F 
ATOM    111  C   UNL A   1      44.249  37.092  34.864  1.00  0.00     0.200 A 
ATOM    112  F   UNL A   1      43.673  35.959  36.855  1.00  0.00    -0.200 F 
ATOM    113  F   UNL A   1      44.658  38.154  35.571  1.00  0.00    -0.200 F 
ENDBRANCH  80 103
ENDBRANCH  54  55
ENDBRANCH  47  49
ENDBRANCH  46  47
ENDBRANCH  45  46
ENDBRANCH  44  45
ENDBRANCH  43  44
ENDBRANCH  42  43
ENDBRANCH  41  42
ENDBRANCH  40  41
ENDBRANCH   1  40
TORSDOF 26
ENDMDL
MODEL 3
REMARK VINA RESULT:      -6.9      5.105     10.190
REMARK SMILES CC(=O)N[C@H]1[C@@H](Oc2ccc(C)c(C)c2)O[C@H]2CO[C@H](c3ccco3)O[C@@H]2[C@H]1OCC(=O)OCCOCCOCCOCCOC(=O)c1ccc(-c2c3nc(c(-c4c(F)c(F)c(F)c(F)c4F)c4ccc([nH]4)c(-c4c(F)c(F)c(F)c(F)c4F)c4nc(c(-c5c(F)c(F)c(F)c(F)c5F)c5ccc2[nH]5)C=C4)C=C3)cc1
REMARK SMILES IDX 38 1 37 2 36 3 35 4 34 5 33 6 31 7 32 8 30 9 29 10 28 11
REMARK SMILES IDX 5 12 6 13 16 14 27 15 17 16 26 17 18 18 20 19 19 20 4 21
REMARK SMILES IDX 1 22 2 23 3 24 7 26 8 27 9 28 15 29 10 30 13 31 11 32 14 33
REMARK SMILES IDX 12 34 21 35 22 36 25 37 23 38 24 39 39 40 40 41 41 42 42 43
REMARK SMILES IDX 43 44 44 45 45 46 46 47 47 48 48 49 49 50 110 51 50 52
REMARK SMILES IDX 109 53 51 54 52 55 53 56 103 57 54 58 108 59 102 60 104 61
REMARK SMILES IDX 55 62 107 63 101 64 100 65 56 67 88 68 68 69 87 70 69 71
REMARK SMILES IDX 72 72 86 73 105 74 70 75 71 76 85 78 106 79 73 80 57 81
REMARK SMILES IDX 58 82 66 83 59 84 60 85 64 86 67 87 61 88 62 89 65 90 63 91
REMARK SMILES IDX 89 92 90 93 98 94 91 95 92 96 96 97 99 98 93 99 94 100
REMARK SMILES IDX 97 101 95 102 74 103 75 104 83 105 76 106 77 107 81 108
REMARK SMILES IDX 84 109 78 110 79 111 82 112 80 113
REMARK H PARENT 4 25 104 66 72 77
REMARK Flexibility Score: inf
ROOT
ATOM      1  C   UNL A   1      45.753  25.299  38.475  1.00  0.00     0.188 C 
ENDROOT
BRANCH   1   2
ATOM      2  C   UNL A   1      44.208  25.226  38.419  1.00  0.00     0.188 C 
BRANCH   2   3
ATOM      3  O   UNL A   1      43.506  25.938  37.405  1.00  0.00    -0.376 OA
BRANCH   3   4
ATOM      4  C   UNL A   1      42.093  26.017  37.494  1.00  0.00     0.202 C 
BRANCH   4   5
ATOM      5  C   UNL A   1      41.321  26.703  36.355  1.00  0.00     0.261 C 
BRANCH   5   6
ATOM      6  O   UNL A   1      41.834  27.997  35.986  1.00  0.00    -0.462 OA
BRANCH   6   7
ATOM      7  C   UNL A   1      41.275  28.614  34.912  1.00  0.00     0.332 C 
ATOM      8  O   UNL A   1      40.655  28.035  34.027  1.00  0.00    -0.250 OA
BRANCH   7   9
ATOM      9  C   UNL A   1      41.658  30.115  34.830  1.00  0.00     0.283 C 
BRANCH   9  10
ATOM     10  O   UNL A   1      41.014  31.107  34.049  1.00  0.00    -0.361 OA
BRANCH  10  11
ATOM     11  C   UNL A   1      39.793  31.740  34.461  1.00  0.00     0.179 C 
ATOM     12  C   UNL A   1      40.056  32.709  35.671  1.00  0.00     0.182 C 
ATOM     13  C   UNL A   1      38.672  33.380  36.102  1.00  0.00     0.333 C 
ATOM     14  O   UNL A   1      37.862  33.843  35.017  1.00  0.00    -0.332 OA
ATOM     15  C   UNL A   1      38.897  32.393  33.392  1.00  0.00     0.184 C 
ATOM     16  C   UNL A   1      37.597  32.828  34.069  1.00  0.00     0.180 C 
ATOM     17  O   UNL A   1      38.576  31.440  32.391  1.00  0.00    -0.337 OA
ATOM     18  C   UNL A   1      36.610  33.315  33.010  1.00  0.00     0.199 C 
ATOM     19  C   UNL A   1      37.673  31.961  31.421  1.00  0.00     0.319 C 
ATOM     20  O   UNL A   1      36.426  32.321  32.006  1.00  0.00    -0.343 OA
BRANCH  12  21
ATOM     21  N   UNL A   1      41.140  33.682  35.421  1.00  0.00    -0.345 N 
ATOM     22  C   UNL A   1      42.098  34.069  37.691  1.00  0.00     0.114 C 
ATOM     23  C   UNL A   1      41.981  34.370  36.230  1.00  0.00     0.217 C 
ATOM     24  O   UNL A   1      42.681  35.244  35.714  1.00  0.00    -0.275 OA
ATOM     25  H   UNL A   1      41.281  33.870  34.465  1.00  0.00     0.164 HD
ENDBRANCH  12  21
BRANCH  13  26
ATOM     26  O   UNL A   1      38.753  34.354  37.157  1.00  0.00    -0.463 OA
BRANCH  26  27
ATOM     27  C   UNL A   1      38.313  34.067  38.421  1.00  0.00     0.123 A 
ATOM     28  C   UNL A   1      38.688  34.709  39.597  1.00  0.00     0.047 A 
ATOM     29  C   UNL A   1      37.471  32.958  38.513  1.00  0.00     0.050 A 
ATOM     30  C   UNL A   1      38.469  34.095  40.829  1.00  0.00     0.007 A 
ATOM     31  C   UNL A   1      37.168  32.370  39.755  1.00  0.00    -0.045 A 
ATOM     32  C   UNL A   1      37.775  32.883  40.914  1.00  0.00    -0.048 A 
ATOM     33  C   UNL A   1      36.202  31.219  39.781  1.00  0.00     0.045 C 
ATOM     34  C   UNL A   1      37.727  32.174  42.238  1.00  0.00     0.044 C 
ENDBRANCH  26  27
ENDBRANCH  13  26
BRANCH  19  35
ATOM     35  C   UNL A   1      37.419  30.877  30.432  1.00  0.00     0.159 A 
ATOM     36  C   UNL A   1      36.380  30.623  29.559  1.00  0.00     0.051 A 
ATOM     37  O   UNL A   1      38.395  29.934  30.266  1.00  0.00    -0.464 OA
ATOM     38  C   UNL A   1      36.768  29.499  28.787  1.00  0.00     0.042 A 
ATOM     39  C   UNL A   1      38.006  29.123  29.253  1.00  0.00     0.195 A 
ENDBRANCH  19  35
ENDBRANCH  10  11
ENDBRANCH   9  10
ENDBRANCH   7   9
ENDBRANCH   6   7
ENDBRANCH   5   6
ENDBRANCH   4   5
ENDBRANCH   3   4
ENDBRANCH   2   3
ENDBRANCH   1   2
BRANCH   1  40
ATOM     40  O   UNL A   1      46.367  24.023  38.511  1.00  0.00    -0.377 OA
BRANCH  40  41
ATOM     41  C   UNL A   1      47.308  23.857  39.554  1.00  0.00     0.188 C 
BRANCH  41  42
ATOM     42  C   UNL A   1      48.778  23.888  39.119  1.00  0.00     0.188 C 
BRANCH  42  43
ATOM     43  O   UNL A   1      49.011  23.011  38.008  1.00  0.00    -0.376 OA
BRANCH  43  44
ATOM     44  C   UNL A   1      49.345  21.668  38.340  1.00  0.00     0.202 C 
BRANCH  44  45
ATOM     45  C   UNL A   1      48.641  20.645  37.439  1.00  0.00     0.261 C 
BRANCH  45  46
ATOM     46  O   UNL A   1      47.320  21.018  37.016  1.00  0.00    -0.460 OA
BRANCH  46  47
ATOM     47  C   UNL A   1      47.046  20.940  35.695  1.00  0.00     0.338 C 
ATOM     48  O   UNL A   1      46.935  19.926  35.028  1.00  0.00    -0.246 OA
BRANCH  47  49
ATOM     49  C   UNL A   1      46.686  22.296  35.225  1.00  0.00     0.060 A 
ATOM     50  C   UNL A   1      45.350  22.704  35.328  1.00  0.00     0.016 A 
ATOM     51  C   UNL A   1      47.661  23.180  34.750  1.00  0.00     0.016 A 
ATOM     52  C   UNL A   1      44.983  23.993  34.941  1.00  0.00     0.010 A 
ATOM     53  C   UNL A   1      47.288  24.460  34.333  1.00  0.00     0.010 A 
ATOM     54  C   UNL A   1      45.943  24.860  34.399  1.00  0.00    -0.014 A 
BRANCH  54  55
ATOM     55  C   UNL A   1      45.496  26.062  33.660  1.00  0.00     0.031 A 
ATOM     56  C   UNL A   1      45.529  27.375  34.393  1.00  0.00     0.074 A 
ATOM     57  C   UNL A   1      45.091  26.009  32.380  1.00  0.00     0.049 A 
ATOM     58  N   UNL A   1      45.216  28.574  33.978  1.00  0.00    -0.248 NA
ATOM     59  C   UNL A   1      45.982  27.320  35.793  1.00  0.00     0.031 C 
ATOM     60  C   UNL A   1      45.049  24.806  31.553  1.00  0.00     0.029 A 
ATOM     61  N   UNL A   1      44.637  27.006  31.554  1.00  0.00    -0.354 N 
ATOM     62  C   UNL A   1      45.452  29.415  35.056  1.00  0.00     0.074 A 
ATOM     63  C   UNL A   1      45.892  28.589  36.157  1.00  0.00     0.031 C 
ATOM     64  C   UNL A   1      44.592  25.137  30.331  1.00  0.00     0.029 A 
ATOM     65  C   UNL A   1      44.292  26.568  30.300  1.00  0.00     0.049 A 
ATOM     66  H   UNL A   1      44.566  27.947  31.835  1.00  0.00     0.167 HD
ATOM     67  C   UNL A   1      45.325  30.760  35.123  1.00  0.00     0.037 A 
ATOM     68  C   UNL A   1      43.786  27.253  29.255  1.00  0.00     0.037 A 
ATOM     69  C   UNL A   1      44.847  31.578  34.043  1.00  0.00     0.049 A 
ATOM     70  C   UNL A   1      43.546  28.736  29.387  1.00  0.00     0.074 A 
ATOM     71  C   UNL A   1      44.671  32.949  34.008  1.00  0.00     0.029 A 
ATOM     72  N   UNL A   1      44.447  31.089  32.808  1.00  0.00    -0.354 N 
ATOM     73  N   UNL A   1      43.808  29.533  30.395  1.00  0.00    -0.248 NA
ATOM     74  C   UNL A   1      42.938  29.414  28.232  1.00  0.00     0.031 C 
ATOM     75  C   UNL A   1      44.117  33.284  32.768  1.00  0.00     0.029 A 
ATOM     76  C   UNL A   1      43.996  32.128  32.011  1.00  0.00     0.049 A 
ATOM     77  H   UNL A   1      44.480  30.143  32.538  1.00  0.00     0.167 HD
ATOM     78  C   UNL A   1      43.429  30.806  29.987  1.00  0.00     0.074 A 
ATOM     79  C   UNL A   1      42.923  30.677  28.637  1.00  0.00     0.031 C 
ATOM     80  C   UNL A   1      43.502  31.978  30.666  1.00  0.00     0.037 A 
BRANCH  67  81
ATOM     81  C   UNL A   1      45.678  31.406  36.429  1.00  0.00     0.064 A 
ATOM     82  C   UNL A   1      46.963  31.911  36.674  1.00  0.00     0.173 A 
ATOM     83  C   UNL A   1      44.732  31.485  37.462  1.00  0.00     0.173 A 
ATOM     84  F   UNL A   1      47.911  31.836  35.727  1.00  0.00    -0.203 F 
ATOM     85  C   UNL A   1      47.302  32.436  37.919  1.00  0.00     0.198 A 
ATOM     86  C   UNL A   1      45.065  32.037  38.696  1.00  0.00     0.198 A 
ATOM     87  F   UNL A   1      43.490  31.011  37.280  1.00  0.00    -0.203 F 
ATOM     88  F   UNL A   1      48.554  32.851  38.152  1.00  0.00    -0.200 F 
ATOM     89  C   UNL A   1      46.351  32.501  38.927  1.00  0.00     0.200 A 
ATOM     90  F   UNL A   1      44.145  32.102  39.668  1.00  0.00    -0.200 F 
ATOM     91  F   UNL A   1      46.680  32.996  40.128  1.00  0.00    -0.200 F 
ENDBRANCH  67  81
BRANCH  68  92
ATOM     92  C   UNL A   1      43.486  26.549  27.980  1.00  0.00     0.064 A 
ATOM     93  C   UNL A   1      44.467  26.408  26.989  1.00  0.00     0.173 A 
ATOM     94  C   UNL A   1      42.214  26.018  27.720  1.00  0.00     0.173 A 
ATOM     95  F   UNL A   1      45.689  26.927  27.178  1.00  0.00    -0.203 F 
ATOM     96  C   UNL A   1      44.185  25.770  25.781  1.00  0.00     0.198 A 
ATOM     97  C   UNL A   1      41.940  25.360  26.523  1.00  0.00     0.198 A 
ATOM     98  F   UNL A   1      41.238  26.136  28.632  1.00  0.00    -0.203 F 
ATOM     99  F   UNL A   1      45.130  25.682  24.837  1.00  0.00    -0.200 F 
ATOM    100  C   UNL A   1      42.924  25.241  25.553  1.00  0.00     0.200 A 
ATOM    101  F   UNL A   1      40.721  24.847  26.306  1.00  0.00    -0.200 F 
ATOM    102  F   UNL A   1      42.654  24.624  24.394  1.00  0.00    -0.200 F 
ENDBRANCH  68  92
BRANCH  80 103
ATOM    103  C   UNL A   1      43.058  33.221  29.951  1.00  0.00     0.064 A 
ATOM    104  C   UNL A   1      43.924  33.938  29.113  1.00  0.00     0.173 A 
ATOM    105  C   UNL A   1      41.731  33.666  30.063  1.00  0.00     0.173 A 
ATOM    106  F   UNL A   1      45.204  33.560  28.981  1.00  0.00    -0.203 F 
ATOM    107  C   UNL A   1      43.483  35.069  28.430  1.00  0.00     0.198 A 
ATOM    108  C   UNL A   1      41.288  34.781  29.357  1.00  0.00     0.198 A 
ATOM    109  F   UNL A   1      40.862  33.010  30.845  1.00  0.00    -0.203 F 
ATOM    110  F   UNL A   1      44.337  35.764  27.665  1.00  0.00    -0.200 F 
ATOM    111  C   UNL A   1      42.164  35.484  28.545  1.00  0.00     0.200 A 
ATOM    112  F   UNL A   1      40.009  35.171  29.459  1.00  0.00    -0.200 F 
ATOM    113  F   UNL A   1      41.740  36.567  27.879  1.00  0.00    -0.200 F 
ENDBRANCH  80 103
ENDBRANCH  54  55
ENDBRANCH  47  49
ENDBRANCH  46  47
ENDBRANCH  45  46
ENDBRANCH  44  45
ENDBRANCH  43  44
ENDBRANCH  42  43
ENDBRANCH  41  42
ENDBRANCH  40  41
ENDBRANCH   1  40
TORSDOF 26
ENDMDL
