MODEL 1
REMARK VINA RESULT:     -10.0      0.000      0.000
REMARK SMILES CCc1cccc(C)c1Nc1ccccc1CC(=O)OCCOCCOCCOCCOC(=O)c1ccc(-c2c3nc(c(-c4c(F)c(F)c(F)c(F)c4F)c4ccc([nH]4)c(-c4c(F)c(F)c(F)c(F)c4F)c4nc(c(-c5c(F)c(F)c(F)c(F)c5F)c5ccc2[nH]5)C=C4)C=C3)cc1
REMARK SMILES IDX 25 1 24 2 23 3 22 4 21 5 20 6 18 7 19 8 17 9 16 10 11 11
REMARK SMILES IDX 12 12 13 13 15 14 14 15 10 16 9 18 3 19 4 20 5 21 7 22 6 23
REMARK SMILES IDX 8 24 2 25 1 26 26 27 27 28 28 29 29 30 30 31 31 32 32 33
REMARK SMILES IDX 33 34 34 35 35 36 36 37 97 38 37 39 96 40 38 41 39 42 40 43
REMARK SMILES IDX 90 44 41 45 95 46 89 47 91 48 42 49 94 50 88 51 87 52 43 54
REMARK SMILES IDX 75 55 55 56 74 57 56 58 59 59 73 60 92 61 57 62 58 63 72 65
REMARK SMILES IDX 93 66 60 67 44 68 45 69 53 70 46 71 47 72 51 73 54 74 48 75
REMARK SMILES IDX 49 76 52 77 50 78 76 79 77 80 85 81 78 82 79 83 83 84 86 85
REMARK SMILES IDX 80 86 81 87 84 88 82 89 61 90 62 91 70 92 63 93 64 94 68 95
REMARK SMILES IDX 71 96 65 97 66 98 69 99 67 100
REMARK H PARENT 10 17 91 53 59 64
REMARK Flexibility Score: inf
ROOT
ATOM      1  C   UNL A   1      34.060  34.009  33.022  1.00  0.00     0.188 C 
ENDROOT
BRANCH   1   2
ATOM      2  C   UNL A   1      35.042  32.362  32.119  1.00  0.00     0.188 C 
BRANCH   2   3
ATOM      3  O   UNL A   1      36.256  31.572  33.561  1.00  0.00    -0.376 OA
BRANCH   3   4
ATOM      4  C   UNL A   1      37.802  30.776  33.119  1.00  0.00     0.202 C 
BRANCH   4   5
ATOM      5  C   UNL A   1      37.734  28.967  32.712  1.00  0.00     0.261 C 
BRANCH   5   6
ATOM      6  O   UNL A   1      38.501  28.181  31.374  1.00  0.00    -0.463 OA
BRANCH   6   7
ATOM      7  C   UNL A   1      39.426  28.581  30.426  1.00  0.00     0.310 C 
ATOM      8  O   UNL A   1      40.347  29.343  30.745  1.00  0.00    -0.252 OA
BRANCH   7   9
ATOM      9  C   UNL A   1      39.401  28.050  28.914  1.00  0.00     0.160 C 
BRANCH   9  10
ATOM     10  C   UNL A   1      40.515  27.973  27.713  1.00  0.00    -0.013 A 
ATOM     11  C   UNL A   1      41.528  29.048  26.985  1.00  0.00     0.042 A 
ATOM     12  C   UNL A   1      41.982  28.619  25.681  1.00  0.00     0.026 A 
ATOM     13  C   UNL A   1      41.832  27.244  25.289  1.00  0.00     0.002 A 
ATOM     14  C   UNL A   1      40.377  26.659  27.147  1.00  0.00     0.006 A 
ATOM     15  C   UNL A   1      41.093  26.287  26.018  1.00  0.00     0.000 A 
BRANCH  11  16
ATOM     16  N   UNL A   1      43.105  29.607  27.717  1.00  0.00    -0.355 N 
ATOM     17  H   UNL A   1      43.160  30.578  27.869  1.00  0.00     0.167 HD
BRANCH  16  18
ATOM     18  C   UNL A   1      44.673  28.633  28.244  1.00  0.00     0.045 A 
ATOM     19  C   UNL A   1      44.034  28.486  29.893  1.00  0.00    -0.024 A 
ATOM     20  C   UNL A   1      43.281  27.085  30.425  1.00  0.00     0.006 A 
ATOM     21  C   UNL A   1      43.027  25.796  29.528  1.00  0.00     0.001 A 
ATOM     22  C   UNL A   1      44.762  27.025  27.145  1.00  0.00    -0.027 A 
ATOM     23  C   UNL A   1      43.635  25.680  27.956  1.00  0.00     0.005 A 
ATOM     24  C   UNL A   1      45.549  26.851  25.732  1.00  0.00     0.046 C 
BRANCH  19  25
ATOM     25  C   UNL A   1      44.014  29.539  30.956  1.00  0.00     0.034 C 
ATOM     26  C   UNL A   1      45.440  29.949  31.251  1.00  0.00     0.009 C 
ENDBRANCH  19  25
ENDBRANCH  16  18
ENDBRANCH  11  16
ENDBRANCH   9  10
ENDBRANCH   7   9
ENDBRANCH   6   7
ENDBRANCH   5   6
ENDBRANCH   4   5
ENDBRANCH   3   4
ENDBRANCH   2   3
ENDBRANCH   1   2
BRANCH   1  27
ATOM     27  O   UNL A   1      34.225  35.529  32.657  1.00  0.00    -0.377 OA
BRANCH  27  28
ATOM     28  C   UNL A   1      33.273  36.511  32.284  1.00  0.00     0.188 C 
BRANCH  28  29
ATOM     29  C   UNL A   1      33.271  36.870  30.812  1.00  0.00     0.188 C 
BRANCH  29  30
ATOM     30  O   UNL A   1      32.572  36.010  29.930  1.00  0.00    -0.376 OA
BRANCH  30  31
ATOM     31  C   UNL A   1      33.313  35.439  28.863  1.00  0.00     0.202 C 
BRANCH  31  32
ATOM     32  C   UNL A   1      33.769  34.032  29.229  1.00  0.00     0.261 C 
BRANCH  32  33
ATOM     33  O   UNL A   1      34.103  33.348  27.990  1.00  0.00    -0.460 OA
BRANCH  33  34
ATOM     34  C   UNL A   1      34.880  32.237  28.129  1.00  0.00     0.338 C 
ATOM     35  O   UNL A   1      34.437  31.105  28.255  1.00  0.00    -0.246 OA
BRANCH  34  36
ATOM     36  C   UNL A   1      36.322  32.582  28.435  1.00  0.00     0.060 A 
ATOM     37  C   UNL A   1      37.125  31.631  29.094  1.00  0.00     0.016 A 
ATOM     38  C   UNL A   1      36.782  33.893  28.391  1.00  0.00     0.016 A 
ATOM     39  C   UNL A   1      38.276  32.013  29.832  1.00  0.00     0.010 A 
ATOM     40  C   UNL A   1      37.906  34.265  29.150  1.00  0.00     0.010 A 
ATOM     41  C   UNL A   1      38.644  33.359  29.945  1.00  0.00    -0.014 A 
BRANCH  41  42
ATOM     42  C   UNL A   1      39.640  33.887  30.960  1.00  0.00     0.031 A 
ATOM     43  C   UNL A   1      39.140  34.265  32.392  1.00  0.00     0.074 A 
ATOM     44  C   UNL A   1      40.986  33.679  30.787  1.00  0.00     0.049 A 
ATOM     45  N   UNL A   1      39.842  34.230  33.488  1.00  0.00    -0.248 NA
ATOM     46  C   UNL A   1      37.745  34.548  32.719  1.00  0.00     0.031 C 
ATOM     47  C   UNL A   1      41.934  33.771  31.878  1.00  0.00     0.029 A 
ATOM     48  N   UNL A   1      41.801  33.107  29.789  1.00  0.00    -0.354 N 
ATOM     49  C   UNL A   1      39.039  34.230  34.619  1.00  0.00     0.074 A 
ATOM     50  C   UNL A   1      37.725  34.458  34.063  1.00  0.00     0.031 C 
ATOM     51  C   UNL A   1      43.025  33.015  31.667  1.00  0.00     0.029 A 
ATOM     52  C   UNL A   1      43.141  32.994  30.264  1.00  0.00     0.049 A 
ATOM     53  H   UNL A   1      41.491  32.828  28.897  1.00  0.00     0.167 HD
ATOM     54  C   UNL A   1      39.590  33.949  35.858  1.00  0.00     0.037 A 
ATOM     55  C   UNL A   1      44.224  33.684  29.787  1.00  0.00     0.037 A 
ATOM     56  C   UNL A   1      41.076  33.870  35.795  1.00  0.00     0.049 A 
ATOM     57  C   UNL A   1      44.779  34.677  30.895  1.00  0.00     0.074 A 
ATOM     58  C   UNL A   1      42.037  32.950  36.190  1.00  0.00     0.029 A 
ATOM     59  N   UNL A   1      41.790  34.850  35.099  1.00  0.00    -0.354 N 
ATOM     60  N   UNL A   1      43.972  35.296  31.759  1.00  0.00    -0.248 NA
ATOM     61  C   UNL A   1      46.155  34.684  31.411  1.00  0.00     0.031 C 
ATOM     62  C   UNL A   1      43.280  33.290  35.545  1.00  0.00     0.029 A 
ATOM     63  C   UNL A   1      43.114  34.480  34.841  1.00  0.00     0.049 A 
ATOM     64  H   UNL A   1      41.402  35.710  34.820  1.00  0.00     0.167 HD
ATOM     65  C   UNL A   1      44.599  35.423  32.991  1.00  0.00     0.074 A 
ATOM     66  C   UNL A   1      45.995  35.136  32.676  1.00  0.00     0.031 C 
ATOM     67  C   UNL A   1      44.053  35.459  34.265  1.00  0.00     0.037 A 
BRANCH  54  68
ATOM     68  C   UNL A   1      38.852  33.636  37.195  1.00  0.00     0.064 A 
ATOM     69  C   UNL A   1      38.988  34.499  38.321  1.00  0.00     0.173 A 
ATOM     70  C   UNL A   1      38.053  32.502  37.469  1.00  0.00     0.173 A 
ATOM     71  F   UNL A   1      39.675  35.645  38.245  1.00  0.00    -0.203 F 
ATOM     72  C   UNL A   1      38.408  34.248  39.579  1.00  0.00     0.198 A 
ATOM     73  C   UNL A   1      37.429  32.277  38.717  1.00  0.00     0.198 A 
ATOM     74  F   UNL A   1      37.852  31.550  36.556  1.00  0.00    -0.203 F 
ATOM     75  F   UNL A   1      38.620  35.097  40.596  1.00  0.00    -0.200 F 
ATOM     76  C   UNL A   1      37.614  33.142  39.774  1.00  0.00     0.200 A 
ATOM     77  F   UNL A   1      36.645  31.201  38.885  1.00  0.00    -0.200 F 
ATOM     78  F   UNL A   1      37.032  32.917  40.960  1.00  0.00    -0.200 F 
ENDBRANCH  54  68
BRANCH  55  79
ATOM     79  C   UNL A   1      44.299  33.482  28.299  1.00  0.00     0.064 A 
ATOM     80  C   UNL A   1      43.988  34.658  27.558  1.00  0.00     0.173 A 
ATOM     81  C   UNL A   1      45.419  32.755  27.842  1.00  0.00     0.173 A 
ATOM     82  F   UNL A   1      42.905  35.383  27.886  1.00  0.00    -0.203 F 
ATOM     83  C   UNL A   1      44.916  35.239  26.681  1.00  0.00     0.198 A 
ATOM     84  C   UNL A   1      46.350  33.348  26.968  1.00  0.00     0.198 A 
ATOM     85  F   UNL A   1      45.785  31.638  28.486  1.00  0.00    -0.203 F 
ATOM     86  F   UNL A   1      44.705  36.472  26.193  1.00  0.00    -0.200 F 
ATOM     87  C   UNL A   1      46.128  34.615  26.448  1.00  0.00     0.200 A 
ATOM     88  F   UNL A   1      47.552  32.777  26.793  1.00  0.00    -0.200 F 
ATOM     89  F   UNL A   1      47.116  35.274  25.822  1.00  0.00    -0.200 F 
ENDBRANCH  55  79
BRANCH  67  90
ATOM     90  C   UNL A   1      44.281  36.704  35.099  1.00  0.00     0.064 A 
ATOM     91  C   UNL A   1      45.077  36.682  36.251  1.00  0.00     0.173 A 
ATOM     92  C   UNL A   1      43.842  37.990  34.674  1.00  0.00     0.173 A 
ATOM     93  F   UNL A   1      45.613  35.542  36.707  1.00  0.00    -0.203 F 
ATOM     94  C   UNL A   1      45.372  37.846  36.954  1.00  0.00     0.198 A 
ATOM     95  C   UNL A   1      44.197  39.155  35.343  1.00  0.00     0.198 A 
ATOM     96  F   UNL A   1      43.080  38.169  33.586  1.00  0.00    -0.203 F 
ATOM     97  F   UNL A   1      46.096  37.765  38.077  1.00  0.00    -0.200 F 
ATOM     98  C   UNL A   1      44.942  39.079  36.498  1.00  0.00     0.200 A 
ATOM     99  F   UNL A   1      43.824  40.345  34.851  1.00  0.00    -0.200 F 
ATOM    100  F   UNL A   1      45.248  40.195  37.171  1.00  0.00    -0.200 F 
ENDBRANCH  67  90
ENDBRANCH  41  42
ENDBRANCH  34  36
ENDBRANCH  33  34
ENDBRANCH  32  33
ENDBRANCH  31  32
ENDBRANCH  30  31
ENDBRANCH  29  30
ENDBRANCH  28  29
ENDBRANCH  27  28
ENDBRANCH   1  27
TORSDOF 24
ENDMDL
MODEL 2
REMARK VINA RESULT:      -9.7      1.231      2.456
REMARK SMILES CCc1cccc(C)c1Nc1ccccc1CC(=O)OCCOCCOCCOCCOC(=O)c1ccc(-c2c3nc(c(-c4c(F)c(F)c(F)c(F)c4F)c4ccc([nH]4)c(-c4c(F)c(F)c(F)c(F)c4F)c4nc(c(-c5c(F)c(F)c(F)c(F)c5F)c5ccc2[nH]5)C=C4)C=C3)cc1
REMARK SMILES IDX 25 1 24 2 23 3 22 4 21 5 20 6 18 7 19 8 17 9 16 10 11 11
REMARK SMILES IDX 12 12 13 13 15 14 14 15 10 16 9 18 3 19 4 20 5 21 7 22 6 23
REMARK SMILES IDX 8 24 2 25 1 26 26 27 27 28 28 29 29 30 30 31 31 32 32 33
REMARK SMILES IDX 33 34 34 35 35 36 36 37 97 38 37 39 96 40 38 41 39 42 40 43
REMARK SMILES IDX 90 44 41 45 95 46 89 47 91 48 42 49 94 50 88 51 87 52 43 54
REMARK SMILES IDX 75 55 55 56 74 57 56 58 59 59 73 60 92 61 57 62 58 63 72 65
REMARK SMILES IDX 93 66 60 67 44 68 45 69 53 70 46 71 47 72 51 73 54 74 48 75
REMARK SMILES IDX 49 76 52 77 50 78 76 79 77 80 85 81 78 82 79 83 83 84 86 85
REMARK SMILES IDX 80 86 81 87 84 88 82 89 61 90 62 91 70 92 63 93 64 94 68 95
REMARK SMILES IDX 71 96 65 97 66 98 69 99 67 100
REMARK H PARENT 10 17 91 53 59 64
REMARK Flexibility Score: inf
ROOT
ATOM      1  C   UNL A   1      34.000  34.378  33.176  1.00  0.00     0.188 C 
ENDROOT
BRANCH   1   2
ATOM      2  C   UNL A   1      34.933  32.665  32.346  1.00  0.00     0.188 C 
BRANCH   2   3
ATOM      3  O   UNL A   1      36.208  31.969  33.782  1.00  0.00    -0.376 OA
BRANCH   3   4
ATOM      4  C   UNL A   1      37.594  30.918  33.342  1.00  0.00     0.202 C 
BRANCH   4   5
ATOM      5  C   UNL A   1      37.212  29.159  32.894  1.00  0.00     0.261 C 
BRANCH   5   6
ATOM      6  O   UNL A   1      38.255  28.055  32.063  1.00  0.00    -0.463 OA
BRANCH   6   7
ATOM      7  C   UNL A   1      39.539  28.143  31.557  1.00  0.00     0.310 C 
ATOM      8  O   UNL A   1      40.487  28.383  32.315  1.00  0.00    -0.252 OA
BRANCH   7   9
ATOM      9  C   UNL A   1      39.881  27.885  30.013  1.00  0.00     0.160 C 
BRANCH   9  10
ATOM     10  C   UNL A   1      41.268  27.867  29.138  1.00  0.00    -0.013 A 
ATOM     11  C   UNL A   1      42.511  26.807  28.935  1.00  0.00     0.042 A 
ATOM     12  C   UNL A   1      43.716  27.423  28.426  1.00  0.00     0.026 A 
ATOM     13  C   UNL A   1      43.654  28.732  27.836  1.00  0.00     0.002 A 
ATOM     14  C   UNL A   1      41.386  29.188  28.584  1.00  0.00     0.006 A 
ATOM     15  C   UNL A   1      42.517  29.567  27.874  1.00  0.00     0.000 A 
BRANCH  11  16
ATOM     16  N   UNL A   1      42.416  25.331  27.862  1.00  0.00    -0.355 N 
ATOM     17  H   UNL A   1      42.927  24.557  28.192  1.00  0.00     0.167 HD
BRANCH  16  18
ATOM     18  C   UNL A   1      41.495  25.025  26.206  1.00  0.00     0.045 A 
ATOM     19  C   UNL A   1      42.948  24.257  25.534  1.00  0.00    -0.024 A 
ATOM     20  C   UNL A   1      43.115  22.590  25.469  1.00  0.00     0.006 A 
ATOM     21  C   UNL A   1      42.047  21.550  26.024  1.00  0.00     0.001 A 
ATOM     22  C   UNL A   1      39.954  23.895  26.592  1.00  0.00    -0.027 A 
ATOM     23  C   UNL A   1      40.548  22.056  26.620  1.00  0.00     0.005 A 
ATOM     24  C   UNL A   1      38.444  24.390  26.942  1.00  0.00     0.046 C 
BRANCH  19  25
ATOM     25  C   UNL A   1      44.179  24.938  25.024  1.00  0.00     0.034 C 
ATOM     26  C   UNL A   1      45.320  24.640  25.971  1.00  0.00     0.009 C 
ENDBRANCH  19  25
ENDBRANCH  16  18
ENDBRANCH  11  16
ENDBRANCH   9  10
ENDBRANCH   7   9
ENDBRANCH   6   7
ENDBRANCH   5   6
ENDBRANCH   4   5
ENDBRANCH   3   4
ENDBRANCH   2   3
ENDBRANCH   1   2
BRANCH   1  27
ATOM     27  O   UNL A   1      34.127  35.864  32.679  1.00  0.00    -0.377 OA
BRANCH  27  28
ATOM     28  C   UNL A   1      33.160  36.769  32.174  1.00  0.00     0.188 C 
BRANCH  28  29
ATOM     29  C   UNL A   1      33.322  37.122  30.709  1.00  0.00     0.188 C 
BRANCH  29  30
ATOM     30  O   UNL A   1      32.629  36.327  29.764  1.00  0.00    -0.376 OA
BRANCH  30  31
ATOM     31  C   UNL A   1      33.409  35.682  28.768  1.00  0.00     0.202 C 
BRANCH  31  32
ATOM     32  C   UNL A   1      33.627  34.219  29.133  1.00  0.00     0.261 C 
BRANCH  32  33
ATOM     33  O   UNL A   1      34.245  33.574  27.985  1.00  0.00    -0.460 OA
BRANCH  33  34
ATOM     34  C   UNL A   1      34.877  32.395  28.249  1.00  0.00     0.338 C 
ATOM     35  O   UNL A   1      34.295  31.345  28.476  1.00  0.00    -0.246 OA
BRANCH  34  36
ATOM     36  C   UNL A   1      36.347  32.590  28.550  1.00  0.00     0.060 A 
ATOM     37  C   UNL A   1      37.017  31.626  29.329  1.00  0.00     0.016 A 
ATOM     38  C   UNL A   1      36.970  33.820  28.373  1.00  0.00     0.016 A 
ATOM     39  C   UNL A   1      38.199  31.943  30.048  1.00  0.00     0.010 A 
ATOM     40  C   UNL A   1      38.125  34.132  29.114  1.00  0.00     0.010 A 
ATOM     41  C   UNL A   1      38.734  33.236  30.021  1.00  0.00    -0.014 A 
BRANCH  41  42
ATOM     42  C   UNL A   1      39.778  33.747  30.996  1.00  0.00     0.031 A 
ATOM     43  C   UNL A   1      39.327  34.225  32.413  1.00  0.00     0.074 A 
ATOM     44  C   UNL A   1      41.105  33.443  30.815  1.00  0.00     0.049 A 
ATOM     45  N   UNL A   1      40.043  34.197  33.500  1.00  0.00    -0.248 NA
ATOM     46  C   UNL A   1      37.959  34.614  32.745  1.00  0.00     0.031 C 
ATOM     47  C   UNL A   1      42.074  33.526  31.888  1.00  0.00     0.029 A 
ATOM     48  N   UNL A   1      41.865  32.772  29.836  1.00  0.00    -0.354 N 
ATOM     49  C   UNL A   1      39.261  34.304  34.641  1.00  0.00     0.074 A 
ATOM     50  C   UNL A   1      37.955  34.590  34.092  1.00  0.00     0.031 C 
ATOM     51  C   UNL A   1      43.111  32.691  31.700  1.00  0.00     0.029 A 
ATOM     52  C   UNL A   1      43.202  32.594  30.298  1.00  0.00     0.049 A 
ATOM     53  H   UNL A   1      41.523  32.470  28.962  1.00  0.00     0.167 HD
ATOM     54  C   UNL A   1      39.812  34.047  35.885  1.00  0.00     0.037 A 
ATOM     55  C   UNL A   1      44.319  33.188  29.773  1.00  0.00     0.037 A 
ATOM     56  C   UNL A   1      41.289  33.869  35.806  1.00  0.00     0.049 A 
ATOM     57  C   UNL A   1      44.955  34.196  30.824  1.00  0.00     0.074 A 
ATOM     58  C   UNL A   1      42.195  32.909  36.234  1.00  0.00     0.029 A 
ATOM     59  N   UNL A   1      42.053  34.765  35.054  1.00  0.00    -0.354 N 
ATOM     60  N   UNL A   1      44.204  34.907  31.667  1.00  0.00    -0.248 NA
ATOM     61  C   UNL A   1      46.337  34.138  31.320  1.00  0.00     0.031 C 
ATOM     62  C   UNL A   1      43.446  33.135  35.556  1.00  0.00     0.029 A 
ATOM     63  C   UNL A   1      43.346  34.299  34.796  1.00  0.00     0.049 A 
ATOM     64  H   UNL A   1      41.717  35.634  34.737  1.00  0.00     0.167 HD
ATOM     65  C   UNL A   1      44.858  35.052  32.883  1.00  0.00     0.074 A 
ATOM     66  C   UNL A   1      46.227  34.660  32.563  1.00  0.00     0.031 C 
ATOM     67  C   UNL A   1      44.337  35.186  34.160  1.00  0.00     0.037 A 
BRANCH  54  68
ATOM     68  C   UNL A   1      39.078  33.848  37.246  1.00  0.00     0.064 A 
ATOM     69  C   UNL A   1      39.333  34.718  38.345  1.00  0.00     0.173 A 
ATOM     70  C   UNL A   1      38.169  32.815  37.566  1.00  0.00     0.173 A 
ATOM     71  F   UNL A   1      40.138  35.781  38.224  1.00  0.00    -0.203 F 
ATOM     72  C   UNL A   1      38.760  34.561  39.622  1.00  0.00     0.198 A 
ATOM     73  C   UNL A   1      37.555  32.688  38.833  1.00  0.00     0.198 A 
ATOM     74  F   UNL A   1      37.844  31.868  36.683  1.00  0.00    -0.203 F 
ATOM     75  F   UNL A   1      39.087  35.406  40.611  1.00  0.00    -0.200 F 
ATOM     76  C   UNL A   1      37.858  33.552  39.863  1.00  0.00     0.200 A 
ATOM     77  F   UNL A   1      36.663  31.707  39.046  1.00  0.00    -0.200 F 
ATOM     78  F   UNL A   1      37.283  33.420  41.067  1.00  0.00    -0.200 F 
ENDBRANCH  54  68
BRANCH  55  79
ATOM     79  C   UNL A   1      44.357  32.911  28.296  1.00  0.00     0.064 A 
ATOM     80  C   UNL A   1      44.099  34.065  27.503  1.00  0.00     0.173 A 
ATOM     81  C   UNL A   1      45.426  32.100  27.859  1.00  0.00     0.173 A 
ATOM     82  F   UNL A   1      43.064  34.865  27.810  1.00  0.00    -0.203 F 
ATOM     83  C   UNL A   1      45.042  34.550  26.584  1.00  0.00     0.198 A 
ATOM     84  C   UNL A   1      46.374  32.596  26.943  1.00  0.00     0.198 A 
ATOM     85  F   UNL A   1      45.740  30.997  28.553  1.00  0.00    -0.203 F 
ATOM     86  F   UNL A   1      44.891  35.767  26.039  1.00  0.00    -0.200 F 
ATOM     87  C   UNL A   1      46.214  33.848  26.364  1.00  0.00     0.200 A 
ATOM     88  F   UNL A   1      47.539  31.951  26.779  1.00  0.00    -0.200 F 
ATOM     89  F   UNL A   1      47.226  34.418  25.692  1.00  0.00    -0.200 F 
ENDBRANCH  55  79
BRANCH  67  90
ATOM     90  C   UNL A   1      44.658  36.451  34.930  1.00  0.00     0.064 A 
ATOM     91  C   UNL A   1      44.190  37.704  34.515  1.00  0.00     0.173 A 
ATOM     92  C   UNL A   1      45.307  36.421  36.197  1.00  0.00     0.173 A 
ATOM     93  F   UNL A   1      43.497  37.848  33.378  1.00  0.00    -0.203 F 
ATOM     94  C   UNL A   1      44.396  38.847  35.280  1.00  0.00     0.198 A 
ATOM     95  C   UNL A   1      45.449  37.555  36.986  1.00  0.00     0.198 A 
ATOM     96  F   UNL A   1      45.801  35.293  36.728  1.00  0.00    -0.203 F 
ATOM     97  F   UNL A   1      43.972  40.029  34.815  1.00  0.00    -0.200 F 
ATOM     98  C   UNL A   1      45.015  38.773  36.515  1.00  0.00     0.200 A 
ATOM     99  F   UNL A   1      45.995  37.453  38.206  1.00  0.00    -0.200 F 
ATOM    100  F   UNL A   1      45.190  39.877  37.252  1.00  0.00    -0.200 F 
ENDBRANCH  67  90
ENDBRANCH  41  42
ENDBRANCH  34  36
ENDBRANCH  33  34
ENDBRANCH  32  33
ENDBRANCH  31  32
ENDBRANCH  30  31
ENDBRANCH  29  30
ENDBRANCH  28  29
ENDBRANCH  27  28
ENDBRANCH   1  27
TORSDOF 24
ENDMDL
MODEL 3
REMARK VINA RESULT:      -9.1      1.295      2.847
REMARK SMILES CCc1cccc(C)c1Nc1ccccc1CC(=O)OCCOCCOCCOCCOC(=O)c1ccc(-c2c3nc(c(-c4c(F)c(F)c(F)c(F)c4F)c4ccc([nH]4)c(-c4c(F)c(F)c(F)c(F)c4F)c4nc(c(-c5c(F)c(F)c(F)c(F)c5F)c5ccc2[nH]5)C=C4)C=C3)cc1
REMARK SMILES IDX 25 1 24 2 23 3 22 4 21 5 20 6 18 7 19 8 17 9 16 10 11 11
REMARK SMILES IDX 12 12 13 13 15 14 14 15 10 16 9 18 3 19 4 20 5 21 7 22 6 23
REMARK SMILES IDX 8 24 2 25 1 26 26 27 27 28 28 29 29 30 30 31 31 32 32 33
REMARK SMILES IDX 33 34 34 35 35 36 36 37 97 38 37 39 96 40 38 41 39 42 40 43
REMARK SMILES IDX 90 44 41 45 95 46 89 47 91 48 42 49 94 50 88 51 87 52 43 54
REMARK SMILES IDX 75 55 55 56 74 57 56 58 59 59 73 60 92 61 57 62 58 63 72 65
REMARK SMILES IDX 93 66 60 67 44 68 45 69 53 70 46 71 47 72 51 73 54 74 48 75
REMARK SMILES IDX 49 76 52 77 50 78 76 79 77 80 85 81 78 82 79 83 83 84 86 85
REMARK SMILES IDX 80 86 81 87 84 88 82 89 61 90 62 91 70 92 63 93 64 94 68 95
REMARK SMILES IDX 71 96 65 97 66 98 69 99 67 100
REMARK H PARENT 10 17 91 53 59 64
REMARK Flexibility Score: inf
ROOT
ATOM      1  C   UNL A   1      34.218  33.855  33.030  1.00  0.00     0.188 C 
ENDROOT
BRANCH   1   2
ATOM      2  C   UNL A   1      35.293  32.219  32.217  1.00  0.00     0.188 C 
BRANCH   2   3
ATOM      3  O   UNL A   1      36.592  31.620  33.676  1.00  0.00    -0.376 OA
BRANCH   3   4
ATOM      4  C   UNL A   1      38.170  30.883  33.247  1.00  0.00     0.202 C 
BRANCH   4   5
ATOM      5  C   UNL A   1      38.240  29.031  33.154  1.00  0.00     0.261 C 
BRANCH   5   6
ATOM      6  O   UNL A   1      39.659  28.061  32.945  1.00  0.00    -0.463 OA
BRANCH   6   7
ATOM      7  C   UNL A   1      40.902  28.034  33.551  1.00  0.00     0.310 C 
ATOM      8  O   UNL A   1      40.991  28.126  34.781  1.00  0.00    -0.252 OA
BRANCH   7   9
ATOM      9  C   UNL A   1      42.262  27.824  32.730  1.00  0.00     0.160 C 
BRANCH   9  10
ATOM     10  C   UNL A   1      42.669  27.941  31.146  1.00  0.00    -0.013 A 
ATOM     11  C   UNL A   1      43.096  26.876  29.965  1.00  0.00     0.042 A 
ATOM     12  C   UNL A   1      43.801  27.491  28.862  1.00  0.00     0.026 A 
ATOM     13  C   UNL A   1      43.767  28.919  28.701  1.00  0.00     0.002 A 
ATOM     14  C   UNL A   1      42.789  29.349  30.886  1.00  0.00     0.006 A 
ATOM     15  C   UNL A   1      43.240  29.813  29.658  1.00  0.00     0.000 A 
BRANCH  11  16
ATOM     16  N   UNL A   1      41.898  25.840  29.055  1.00  0.00    -0.355 N 
ATOM     17  H   UNL A   1      40.958  26.099  29.185  1.00  0.00     0.167 HD
BRANCH  16  18
ATOM     18  C   UNL A   1      42.151  24.336  27.889  1.00  0.00     0.045 A 
ATOM     19  C   UNL A   1      41.020  25.046  26.720  1.00  0.00    -0.024 A 
ATOM     20  C   UNL A   1      41.557  25.877  25.366  1.00  0.00     0.006 A 
ATOM     21  C   UNL A   1      43.085  26.149  25.017  1.00  0.00     0.001 A 
ATOM     22  C   UNL A   1      44.042  24.271  27.417  1.00  0.00    -0.027 A 
ATOM     23  C   UNL A   1      44.335  25.484  25.941  1.00  0.00     0.005 A 
ATOM     24  C   UNL A   1      45.210  23.436  28.181  1.00  0.00     0.046 C 
BRANCH  19  25
ATOM     25  C   UNL A   1      39.526  25.064  26.799  1.00  0.00     0.034 C 
ATOM     26  C   UNL A   1      39.019  23.649  26.623  1.00  0.00     0.009 C 
ENDBRANCH  19  25
ENDBRANCH  16  18
ENDBRANCH  11  16
ENDBRANCH   9  10
ENDBRANCH   7   9
ENDBRANCH   6   7
ENDBRANCH   5   6
ENDBRANCH   4   5
ENDBRANCH   3   4
ENDBRANCH   2   3
ENDBRANCH   1   2
BRANCH   1  27
ATOM     27  O   UNL A   1      34.225  35.343  32.523  1.00  0.00    -0.377 OA
BRANCH  27  28
ATOM     28  C   UNL A   1      33.181  36.175  32.046  1.00  0.00     0.188 C 
BRANCH  28  29
ATOM     29  C   UNL A   1      33.063  36.249  30.537  1.00  0.00     0.188 C 
BRANCH  29  30
ATOM     30  O   UNL A   1      32.497  35.137  29.869  1.00  0.00    -0.376 OA
BRANCH  30  31
ATOM     31  C   UNL A   1      33.191  34.643  28.734  1.00  0.00     0.202 C 
BRANCH  31  32
ATOM     32  C   UNL A   1      34.175  33.556  29.147  1.00  0.00     0.261 C 
BRANCH  32  33
ATOM     33  O   UNL A   1      34.446  32.746  27.970  1.00  0.00    -0.460 OA
BRANCH  33  34
ATOM     34  C   UNL A   1      35.287  31.693  28.169  1.00  0.00     0.338 C 
ATOM     35  O   UNL A   1      34.911  30.548  28.375  1.00  0.00    -0.246 OA
BRANCH  34  36
ATOM     36  C   UNL A   1      36.710  32.138  28.429  1.00  0.00     0.060 A 
ATOM     37  C   UNL A   1      37.522  31.364  29.280  1.00  0.00     0.016 A 
ATOM     38  C   UNL A   1      37.134  33.430  28.134  1.00  0.00     0.016 A 
ATOM     39  C   UNL A   1      38.642  31.923  29.950  1.00  0.00     0.010 A 
ATOM     40  C   UNL A   1      38.227  33.982  28.827  1.00  0.00     0.010 A 
ATOM     41  C   UNL A   1      38.969  33.276  29.801  1.00  0.00    -0.014 A 
BRANCH  41  42
ATOM     42  C   UNL A   1      39.922  34.027  30.710  1.00  0.00     0.031 A 
ATOM     43  C   UNL A   1      39.437  34.460  32.131  1.00  0.00     0.074 A 
ATOM     44  C   UNL A   1      41.276  33.993  30.479  1.00  0.00     0.049 A 
ATOM     45  N   UNL A   1      40.185  34.622  33.185  1.00  0.00    -0.248 NA
ATOM     46  C   UNL A   1      38.032  34.575  32.512  1.00  0.00     0.031 C 
ATOM     47  C   UNL A   1      42.248  34.315  31.504  1.00  0.00     0.029 A 
ATOM     48  N   UNL A   1      42.119  33.452  29.488  1.00  0.00    -0.354 N 
ATOM     49  C   UNL A   1      39.441  34.613  34.355  1.00  0.00     0.074 A 
ATOM     50  C   UNL A   1      38.084  34.605  33.858  1.00  0.00     0.031 C 
ATOM     51  C   UNL A   1      43.425  33.701  31.295  1.00  0.00     0.029 A 
ATOM     52  C   UNL A   1      43.482  33.569  29.894  1.00  0.00     0.049 A 
ATOM     53  H   UNL A   1      41.814  33.052  28.641  1.00  0.00     0.167 HD
ATOM     54  C   UNL A   1      40.080  34.525  35.581  1.00  0.00     0.037 A 
ATOM     55  C   UNL A   1      44.432  34.356  29.301  1.00  0.00     0.037 A 
ATOM     56  C   UNL A   1      41.558  34.648  35.441  1.00  0.00     0.049 A 
ATOM     57  C   UNL A   1      44.887  35.514  30.290  1.00  0.00     0.074 A 
ATOM     58  C   UNL A   1      42.657  33.910  35.857  1.00  0.00     0.029 A 
ATOM     59  N   UNL A   1      42.093  35.650  34.626  1.00  0.00    -0.354 N 
ATOM     60  N   UNL A   1      44.039  36.090  31.142  1.00  0.00    -0.248 NA
ATOM     61  C   UNL A   1      46.270  35.759  30.724  1.00  0.00     0.031 C 
ATOM     62  C   UNL A   1      43.809  34.360  35.116  1.00  0.00     0.029 A 
ATOM     63  C   UNL A   1      43.443  35.447  34.325  1.00  0.00     0.049 A 
ATOM     64  H   UNL A   1      41.574  36.419  34.298  1.00  0.00     0.167 HD
ATOM     65  C   UNL A   1      44.695  36.414  32.323  1.00  0.00     0.074 A 
ATOM     66  C   UNL A   1      46.102  36.297  31.954  1.00  0.00     0.031 C 
ATOM     67  C   UNL A   1      44.206  36.490  33.617  1.00  0.00     0.037 A 
BRANCH  54  68
ATOM     68  C   UNL A   1      39.455  34.235  36.979  1.00  0.00     0.064 A 
ATOM     69  C   UNL A   1      38.735  33.029  37.220  1.00  0.00     0.173 A 
ATOM     70  C   UNL A   1      39.467  35.097  38.099  1.00  0.00     0.173 A 
ATOM     71  F   UNL A   1      38.647  32.070  36.290  1.00  0.00    -0.203 F 
ATOM     72  C   UNL A   1      38.087  32.728  38.433  1.00  0.00     0.198 A 
ATOM     73  C   UNL A   1      38.859  34.772  39.334  1.00  0.00     0.198 A 
ATOM     74  F   UNL A   1      40.044  36.299  38.053  1.00  0.00    -0.203 F 
ATOM     75  F   UNL A   1      37.399  31.583  38.559  1.00  0.00    -0.200 F 
ATOM     76  C   UNL A   1      38.161  33.595  39.498  1.00  0.00     0.200 A 
ATOM     77  F   UNL A   1      38.955  35.622  40.368  1.00  0.00    -0.200 F 
ATOM     78  F   UNL A   1      37.575  33.296  40.666  1.00  0.00    -0.200 F 
ENDBRANCH  54  68
BRANCH  55  79
ATOM     79  C   UNL A   1      44.470  34.033  27.833  1.00  0.00     0.064 A 
ATOM     80  C   UNL A   1      44.635  35.184  27.011  1.00  0.00     0.173 A 
ATOM     81  C   UNL A   1      45.256  32.915  27.479  1.00  0.00     0.173 A 
ATOM     82  F   UNL A   1      43.886  36.276  27.238  1.00  0.00    -0.203 F 
ATOM     83  C   UNL A   1      45.736  35.320  26.152  1.00  0.00     0.198 A 
ATOM     84  C   UNL A   1      46.364  33.061  26.623  1.00  0.00     0.198 A 
ATOM     85  F   UNL A   1      45.166  31.792  28.206  1.00  0.00    -0.203 F 
ATOM     86  F   UNL A   1      46.008  36.505  25.583  1.00  0.00    -0.200 F 
ATOM     87  C   UNL A   1      46.639  34.280  26.020  1.00  0.00     0.200 A 
ATOM     88  F   UNL A   1      47.276  32.080  26.546  1.00  0.00    -0.200 F 
ATOM     89  F   UNL A   1      47.818  34.485  25.411  1.00  0.00    -0.200 F 
ENDBRANCH  55  79
BRANCH  67  90
ATOM     90  C   UNL A   1      44.290  37.825  34.331  1.00  0.00     0.064 A 
ATOM     91  C   UNL A   1      43.670  38.972  33.822  1.00  0.00     0.173 A 
ATOM     92  C   UNL A   1      44.856  37.952  35.631  1.00  0.00     0.173 A 
ATOM     93  F   UNL A   1      43.035  38.957  32.642  1.00  0.00    -0.203 F 
ATOM     94  C   UNL A   1      43.658  40.169  34.532  1.00  0.00     0.198 A 
ATOM     95  C   UNL A   1      44.781  39.131  36.362  1.00  0.00     0.198 A 
ATOM     96  F   UNL A   1      45.477  36.938  36.250  1.00  0.00    -0.203 F 
ATOM     97  F   UNL A   1      43.095  41.250  33.979  1.00  0.00    -0.200 F 
ATOM     98  C   UNL A   1      44.203  40.247  35.801  1.00  0.00     0.200 A 
ATOM     99  F   UNL A   1      45.259  39.170  37.614  1.00  0.00    -0.200 F 
ATOM    100  F   UNL A   1      44.169  41.398  36.483  1.00  0.00    -0.200 F 
ENDBRANCH  67  90
ENDBRANCH  41  42
ENDBRANCH  34  36
ENDBRANCH  33  34
ENDBRANCH  32  33
ENDBRANCH  31  32
ENDBRANCH  30  31
ENDBRANCH  29  30
ENDBRANCH  28  29
ENDBRANCH  27  28
ENDBRANCH   1  27
TORSDOF 24
ENDMDL
