MODEL 1
REMARK VINA RESULT:     -10.4      0.000      0.000
REMARK SMILES COc1cnc(F)c(C(=O)OCCOCCOCCOCCOC(=O)c2ccc(-c3c4nc(c(-c5c(F)c(F)c(F)c(F)c5F)c5ccc([nH]5)c(-c5c(F)c(F)c(F)c(F)c5F)c5nc(c(-c6c(F)c(F)c(F)c(F)c6F)c6ccc3[nH]6)C=C5)C=C4)cc2)c1
REMARK SMILES IDX 18 1 17 2 16 3 15 4 14 5 13 6 12 7 11 8 9 9 10 10 8 11 3 12
REMARK SMILES IDX 4 13 89 14 5 15 6 16 7 17 2 18 1 19 19 20 20 21 21 22 22 23
REMARK SMILES IDX 23 24 24 25 25 26 26 27 27 28 88 29 28 30 87 31 29 32 30 33
REMARK SMILES IDX 31 34 81 35 32 36 86 37 80 38 82 39 33 40 85 41 79 42 78 43
REMARK SMILES IDX 34 45 66 46 46 47 65 48 47 49 50 50 64 51 83 52 48 53 49 54
REMARK SMILES IDX 63 56 84 57 51 58 35 59 36 60 44 61 37 62 38 63 42 64 45 65
REMARK SMILES IDX 39 66 40 67 43 68 41 69 67 70 68 71 76 72 69 73 70 74 74 75
REMARK SMILES IDX 77 76 71 77 72 78 75 79 73 80 52 81 53 82 61 83 54 84 55 85
REMARK SMILES IDX 59 86 62 87 56 88 57 89 60 90 58 91
REMARK H PARENT 82 44 50 55
REMARK Flexibility Score: inf
ROOT
ATOM      1  C   UNL A   1      39.618  21.040  25.750  1.00  0.00     0.188 C 
ENDROOT
BRANCH   1   2
ATOM      2  O   UNL A   1      38.203  21.075  25.561  1.00  0.00    -0.377 OA
BRANCH   2   3
ATOM      3  C   UNL A   1      37.595  22.211  24.969  1.00  0.00     0.188 C 
BRANCH   3   4
ATOM      4  C   UNL A   1      37.044  23.306  25.904  1.00  0.00     0.188 C 
BRANCH   4   5
ATOM      5  O   UNL A   1      35.673  23.588  25.695  1.00  0.00    -0.376 OA
BRANCH   5   6
ATOM      6  C   UNL A   1      35.134  23.487  24.391  1.00  0.00     0.202 C 
BRANCH   6   7
ATOM      7  C   UNL A   1      33.929  22.571  24.125  1.00  0.00     0.261 C 
BRANCH   7   8
ATOM      8  O   UNL A   1      33.566  21.680  25.186  1.00  0.00    -0.460 OA
BRANCH   8   9
ATOM      9  C   UNL A   1      32.381  21.043  25.096  1.00  0.00     0.343 C 
ATOM     10  O   UNL A   1      31.276  21.546  25.203  1.00  0.00    -0.246 OA
BRANCH   9  11
ATOM     11  C   UNL A   1      32.620  19.682  24.596  1.00  0.00     0.118 A 
ATOM     12  C   UNL A   1      33.213  17.388  25.020  1.00  0.00     0.138 A 
ATOM     13  C   UNL A   1      32.965  17.142  23.674  1.00  0.00     0.160 A 
ATOM     14  C   UNL A   1      33.058  18.690  25.484  1.00  0.00     0.068 A 
ATOM     15  N   UNL A   1      32.536  18.079  22.795  1.00  0.00    -0.224 NA
ATOM     16  C   UNL A   1      32.368  19.333  23.277  1.00  0.00     0.227 A 
ATOM     17  F   UNL A   1      31.958  20.262  22.401  1.00  0.00    -0.184 F 
BRANCH  12  18
ATOM     18  O   UNL A   1      33.692  16.361  25.778  1.00  0.00    -0.495 OA
ATOM     19  C   UNL A   1      34.790  15.660  25.197  1.00  0.00     0.278 C 
ENDBRANCH  12  18
ENDBRANCH   9  11
ENDBRANCH   8   9
ENDBRANCH   7   8
ENDBRANCH   6   7
ENDBRANCH   5   6
ENDBRANCH   4   5
ENDBRANCH   3   4
ENDBRANCH   2   3
ENDBRANCH   1   2
BRANCH   1  20
ATOM     20  C   UNL A   1      40.375  19.743  26.127  1.00  0.00     0.188 C 
BRANCH  20  21
ATOM     21  O   UNL A   1      41.649  19.600  25.523  1.00  0.00    -0.376 OA
BRANCH  21  22
ATOM     22  C   UNL A   1      42.749  20.221  26.163  1.00  0.00     0.202 C 
BRANCH  22  23
ATOM     23  C   UNL A   1      43.477  21.308  25.361  1.00  0.00     0.261 C 
BRANCH  23  24
ATOM     24  O   UNL A   1      42.771  22.549  25.200  1.00  0.00    -0.460 OA
BRANCH  24  25
ATOM     25  C   UNL A   1      43.506  23.673  25.072  1.00  0.00     0.338 C 
ATOM     26  O   UNL A   1      44.366  23.905  24.239  1.00  0.00    -0.246 OA
BRANCH  25  27
ATOM     27  C   UNL A   1      42.957  24.668  26.016  1.00  0.00     0.060 A 
ATOM     28  C   UNL A   1      43.412  25.993  25.962  1.00  0.00     0.016 A 
ATOM     29  C   UNL A   1      41.975  24.294  26.935  1.00  0.00     0.016 A 
ATOM     30  C   UNL A   1      42.895  26.945  26.844  1.00  0.00     0.010 A 
ATOM     31  C   UNL A   1      41.478  25.241  27.832  1.00  0.00     0.010 A 
ATOM     32  C   UNL A   1      41.952  26.565  27.808  1.00  0.00    -0.014 A 
BRANCH  32  33
ATOM     33  C   UNL A   1      41.584  27.494  28.904  1.00  0.00     0.031 A 
ATOM     34  C   UNL A   1      42.372  27.436  30.182  1.00  0.00     0.074 A 
ATOM     35  C   UNL A   1      40.563  28.360  28.776  1.00  0.00     0.049 A 
ATOM     36  N   UNL A   1      42.177  28.067  31.312  1.00  0.00    -0.248 NA
ATOM     37  C   UNL A   1      43.541  26.541  30.185  1.00  0.00     0.031 C 
ATOM     38  C   UNL A   1      39.755  28.547  27.574  1.00  0.00     0.029 A 
ATOM     39  N   UNL A   1      40.023  29.239  29.685  1.00  0.00    -0.354 N 
ATOM     40  C   UNL A   1      43.185  27.631  32.164  1.00  0.00     0.074 A 
ATOM     41  C   UNL A   1      43.979  26.672  31.428  1.00  0.00     0.031 C 
ATOM     42  C   UNL A   1      38.810  29.471  27.823  1.00  0.00     0.029 A 
ATOM     43  C   UNL A   1      38.920  29.907  29.215  1.00  0.00     0.049 A 
ATOM     44  H   UNL A   1      40.393  29.375  30.588  1.00  0.00     0.167 HD
ATOM     45  C   UNL A   1      43.424  28.000  33.444  1.00  0.00     0.037 A 
ATOM     46  C   UNL A   1      38.078  30.747  29.849  1.00  0.00     0.037 A 
ATOM     47  C   UNL A   1      42.632  28.958  34.170  1.00  0.00     0.049 A 
ATOM     48  C   UNL A   1      38.317  31.072  31.305  1.00  0.00     0.074 A 
ATOM     49  C   UNL A   1      42.813  29.422  35.460  1.00  0.00     0.029 A 
ATOM     50  N   UNL A   1      41.501  29.588  33.672  1.00  0.00    -0.354 N 
ATOM     51  N   UNL A   1      39.288  30.685  32.096  1.00  0.00    -0.248 NA
ATOM     52  C   UNL A   1      37.337  31.955  31.956  1.00  0.00     0.031 C 
ATOM     53  C   UNL A   1      41.753  30.280  35.768  1.00  0.00     0.029 A 
ATOM     54  C   UNL A   1      40.951  30.408  34.644  1.00  0.00     0.049 A 
ATOM     55  H   UNL A   1      41.142  29.470  32.763  1.00  0.00     0.167 HD
ATOM     56  C   UNL A   1      39.057  31.301  33.320  1.00  0.00     0.074 A 
ATOM     57  C   UNL A   1      37.862  32.101  33.163  1.00  0.00     0.031 C 
ATOM     58  C   UNL A   1      39.769  31.212  34.471  1.00  0.00     0.037 A 
BRANCH  45  59
ATOM     59  C   UNL A   1      44.565  27.340  34.160  1.00  0.00     0.064 A 
ATOM     60  C   UNL A   1      45.851  27.900  34.186  1.00  0.00     0.173 A 
ATOM     61  C   UNL A   1      44.352  26.153  34.878  1.00  0.00     0.173 A 
ATOM     62  F   UNL A   1      46.111  29.026  33.504  1.00  0.00    -0.203 F 
ATOM     63  C   UNL A   1      46.885  27.286  34.886  1.00  0.00     0.198 A 
ATOM     64  C   UNL A   1      45.380  25.559  35.604  1.00  0.00     0.198 A 
ATOM     65  F   UNL A   1      43.141  25.576  34.888  1.00  0.00    -0.203 F 
ATOM     66  F   UNL A   1      48.116  27.816  34.864  1.00  0.00    -0.200 F 
ATOM     67  C   UNL A   1      46.647  26.123  35.603  1.00  0.00     0.200 A 
ATOM     68  F   UNL A   1      45.145  24.442  36.307  1.00  0.00    -0.200 F 
ATOM     69  F   UNL A   1      47.640  25.542  36.291  1.00  0.00    -0.200 F 
ENDBRANCH  45  59
BRANCH  46  70
ATOM     70  C   UNL A   1      36.910  31.329  29.134  1.00  0.00     0.064 A 
ATOM     71  C   UNL A   1      36.873  32.691  28.799  1.00  0.00     0.173 A 
ATOM     72  C   UNL A   1      35.785  30.552  28.817  1.00  0.00     0.173 A 
ATOM     73  F   UNL A   1      37.910  33.484  29.108  1.00  0.00    -0.203 F 
ATOM     74  C   UNL A   1      35.748  33.258  28.202  1.00  0.00     0.198 A 
ATOM     75  C   UNL A   1      34.675  31.113  28.189  1.00  0.00     0.198 A 
ATOM     76  F   UNL A   1      35.762  29.247  29.122  1.00  0.00    -0.203 F 
ATOM     77  F   UNL A   1      35.716  34.574  27.954  1.00  0.00    -0.200 F 
ATOM     78  C   UNL A   1      34.651  32.467  27.893  1.00  0.00     0.200 A 
ATOM     79  F   UNL A   1      33.620  30.344  27.885  1.00  0.00    -0.200 F 
ATOM     80  F   UNL A   1      33.569  33.014  27.325  1.00  0.00    -0.200 F 
ENDBRANCH  46  70
BRANCH  58  81
ATOM     81  C   UNL A   1      39.309  32.040  35.639  1.00  0.00     0.064 A 
ATOM     82  C   UNL A   1      39.716  33.372  35.809  1.00  0.00     0.173 A 
ATOM     83  C   UNL A   1      38.414  31.504  36.578  1.00  0.00     0.173 A 
ATOM     84  F   UNL A   1      40.580  33.930  34.947  1.00  0.00    -0.203 F 
ATOM     85  C   UNL A   1      39.268  34.125  36.892  1.00  0.00     0.198 A 
ATOM     86  C   UNL A   1      37.940  32.272  37.638  1.00  0.00     0.198 A 
ATOM     87  F   UNL A   1      37.984  30.239  36.458  1.00  0.00    -0.203 F 
ATOM     88  F   UNL A   1      39.714  35.377  37.065  1.00  0.00    -0.200 F 
ATOM     89  C   UNL A   1      38.374  33.578  37.801  1.00  0.00     0.200 A 
ATOM     90  F   UNL A   1      37.061  31.746  38.503  1.00  0.00    -0.200 F 
ATOM     91  F   UNL A   1      37.938  34.307  38.836  1.00  0.00    -0.200 F 
ENDBRANCH  58  81
ENDBRANCH  32  33
ENDBRANCH  25  27
ENDBRANCH  24  25
ENDBRANCH  23  24
ENDBRANCH  22  23
ENDBRANCH  21  22
ENDBRANCH  20  21
ENDBRANCH   1  20
TORSDOF 21
ENDMDL
MODEL 2
REMARK VINA RESULT:     -10.0      3.217      8.001
REMARK SMILES COc1cnc(F)c(C(=O)OCCOCCOCCOCCOC(=O)c2ccc(-c3c4nc(c(-c5c(F)c(F)c(F)c(F)c5F)c5ccc([nH]5)c(-c5c(F)c(F)c(F)c(F)c5F)c5nc(c(-c6c(F)c(F)c(F)c(F)c6F)c6ccc3[nH]6)C=C5)C=C4)cc2)c1
REMARK SMILES IDX 18 1 17 2 16 3 15 4 14 5 13 6 12 7 11 8 9 9 10 10 8 11 3 12
REMARK SMILES IDX 4 13 89 14 5 15 6 16 7 17 2 18 1 19 19 20 20 21 21 22 22 23
REMARK SMILES IDX 23 24 24 25 25 26 26 27 27 28 88 29 28 30 87 31 29 32 30 33
REMARK SMILES IDX 31 34 81 35 32 36 86 37 80 38 82 39 33 40 85 41 79 42 78 43
REMARK SMILES IDX 34 45 66 46 46 47 65 48 47 49 50 50 64 51 83 52 48 53 49 54
REMARK SMILES IDX 63 56 84 57 51 58 35 59 36 60 44 61 37 62 38 63 42 64 45 65
REMARK SMILES IDX 39 66 40 67 43 68 41 69 67 70 68 71 76 72 69 73 70 74 74 75
REMARK SMILES IDX 77 76 71 77 72 78 75 79 73 80 52 81 53 82 61 83 54 84 55 85
REMARK SMILES IDX 59 86 62 87 56 88 57 89 60 90 58 91
REMARK H PARENT 82 44 50 55
REMARK Flexibility Score: inf
ROOT
ATOM      1  C   UNL A   1      33.725  27.425  23.229  1.00  0.00     0.188 C 
ENDROOT
BRANCH   1   2
ATOM      2  O   UNL A   1      33.901  26.579  22.094  1.00  0.00    -0.377 OA
BRANCH   2   3
ATOM      3  C   UNL A   1      32.895  25.642  21.746  1.00  0.00     0.188 C 
BRANCH   3   4
ATOM      4  C   UNL A   1      31.454  26.161  21.569  1.00  0.00     0.188 C 
BRANCH   4   5
ATOM      5  O   UNL A   1      30.658  26.021  22.733  1.00  0.00    -0.376 OA
BRANCH   5   6
ATOM      6  C   UNL A   1      30.816  24.876  23.549  1.00  0.00     0.202 C 
BRANCH   6   7
ATOM      7  C   UNL A   1      30.932  25.028  25.074  1.00  0.00     0.261 C 
BRANCH   7   8
ATOM      8  O   UNL A   1      32.161  24.588  25.661  1.00  0.00    -0.460 OA
BRANCH   8   9
ATOM      9  C   UNL A   1      32.098  23.645  26.623  1.00  0.00     0.343 C 
ATOM     10  O   UNL A   1      31.406  23.676  27.625  1.00  0.00    -0.246 OA
BRANCH   9  11
ATOM     11  C   UNL A   1      32.807  22.448  26.150  1.00  0.00     0.118 A 
ATOM     12  C   UNL A   1      32.761  20.300  25.066  1.00  0.00     0.138 A 
ATOM     13  C   UNL A   1      34.146  20.279  25.190  1.00  0.00     0.160 A 
ATOM     14  C   UNL A   1      32.077  21.398  25.577  1.00  0.00     0.068 A 
ATOM     15  N   UNL A   1      34.877  21.281  25.734  1.00  0.00    -0.224 NA
ATOM     16  C   UNL A   1      34.190  22.351  26.200  1.00  0.00     0.227 A 
ATOM     17  F   UNL A   1      34.915  23.334  26.752  1.00  0.00    -0.184 F 
BRANCH  12  18
ATOM     18  O   UNL A   1      32.151  19.197  24.545  1.00  0.00    -0.495 OA
ATOM     19  C   UNL A   1      32.288  19.058  23.132  1.00  0.00     0.278 C 
ENDBRANCH  12  18
ENDBRANCH   9  11
ENDBRANCH   8   9
ENDBRANCH   7   8
ENDBRANCH   6   7
ENDBRANCH   5   6
ENDBRANCH   4   5
ENDBRANCH   3   4
ENDBRANCH   2   3
ENDBRANCH   1   2
BRANCH   1  20
ATOM     20  C   UNL A   1      33.294  28.907  23.103  1.00  0.00     0.188 C 
BRANCH  20  21
ATOM     21  O   UNL A   1      31.904  29.139  23.263  1.00  0.00    -0.376 OA
BRANCH  21  22
ATOM     22  C   UNL A   1      31.371  29.034  24.571  1.00  0.00     0.202 C 
BRANCH  22  23
ATOM     23  C   UNL A   1      31.638  30.216  25.511  1.00  0.00     0.261 C 
BRANCH  23  24
ATOM     24  O   UNL A   1      32.859  30.158  26.264  1.00  0.00    -0.460 OA
BRANCH  24  25
ATOM     25  C   UNL A   1      33.187  31.235  27.007  1.00  0.00     0.338 C 
ATOM     26  O   UNL A   1      32.498  32.214  27.237  1.00  0.00    -0.246 OA
BRANCH  25  27
ATOM     27  C   UNL A   1      34.480  30.944  27.660  1.00  0.00     0.060 A 
ATOM     28  C   UNL A   1      34.830  29.616  27.935  1.00  0.00     0.016 A 
ATOM     29  C   UNL A   1      35.355  31.987  27.975  1.00  0.00     0.016 A 
ATOM     30  C   UNL A   1      36.054  29.327  28.545  1.00  0.00     0.010 A 
ATOM     31  C   UNL A   1      36.566  31.698  28.607  1.00  0.00     0.010 A 
ATOM     32  C   UNL A   1      36.911  30.370  28.917  1.00  0.00    -0.014 A 
BRANCH  32  33
ATOM     33  C   UNL A   1      38.085  30.104  29.782  1.00  0.00     0.031 A 
ATOM     34  C   UNL A   1      39.152  29.176  29.271  1.00  0.00     0.074 A 
ATOM     35  C   UNL A   1      38.199  30.658  31.002  1.00  0.00     0.049 A 
ATOM     36  N   UNL A   1      40.213  28.708  29.877  1.00  0.00    -0.248 NA
ATOM     37  C   UNL A   1      38.998  28.711  27.882  1.00  0.00     0.031 C 
ATOM     38  C   UNL A   1      37.260  31.609  31.591  1.00  0.00     0.029 A 
ATOM     39  N   UNL A   1      39.156  30.484  31.973  1.00  0.00    -0.354 N 
ATOM     40  C   UNL A   1      40.840  27.882  28.954  1.00  0.00     0.074 A 
ATOM     41  C   UNL A   1      40.035  27.898  27.752  1.00  0.00     0.031 C 
ATOM     42  C   UNL A   1      37.678  31.924  32.830  1.00  0.00     0.029 A 
ATOM     43  C   UNL A   1      38.888  31.162  33.137  1.00  0.00     0.049 A 
ATOM     44  H   UNL A   1      39.957  29.925  31.846  1.00  0.00     0.167 HD
ATOM     45  C   UNL A   1      41.985  27.174  29.098  1.00  0.00     0.037 A 
ATOM     46  C   UNL A   1      39.531  31.141  34.321  1.00  0.00     0.037 A 
ATOM     47  C   UNL A   1      42.784  27.164  30.294  1.00  0.00     0.049 A 
ATOM     48  C   UNL A   1      40.756  30.272  34.481  1.00  0.00     0.074 A 
ATOM     49  C   UNL A   1      43.977  26.505  30.527  1.00  0.00     0.029 A 
ATOM     50  N   UNL A   1      42.462  27.836  31.465  1.00  0.00    -0.354 N 
ATOM     51  N   UNL A   1      41.364  29.519  33.597  1.00  0.00    -0.248 NA
ATOM     52  C   UNL A   1      41.384  30.251  35.811  1.00  0.00     0.031 C 
ATOM     53  C   UNL A   1      44.343  26.721  31.859  1.00  0.00     0.029 A 
ATOM     54  C   UNL A   1      43.416  27.575  32.436  1.00  0.00     0.049 A 
ATOM     55  H   UNL A   1      41.674  28.413  31.587  1.00  0.00     0.167 HD
ATOM     56  C   UNL A   1      42.460  28.967  34.250  1.00  0.00     0.074 A 
ATOM     57  C   UNL A   1      42.443  29.484  35.601  1.00  0.00     0.031 C 
ATOM     58  C   UNL A   1      43.396  28.108  33.774  1.00  0.00     0.037 A 
BRANCH  45  59
ATOM     59  C   UNL A   1      42.427  26.319  27.947  1.00  0.00     0.064 A 
ATOM     60  C   UNL A   1      41.919  25.029  27.741  1.00  0.00     0.173 A 
ATOM     61  C   UNL A   1      43.336  26.824  27.004  1.00  0.00     0.173 A 
ATOM     62  F   UNL A   1      41.058  24.493  28.620  1.00  0.00    -0.203 F 
ATOM     63  C   UNL A   1      42.319  24.268  26.645  1.00  0.00     0.198 A 
ATOM     64  C   UNL A   1      43.709  26.075  25.893  1.00  0.00     0.198 A 
ATOM     65  F   UNL A   1      43.852  28.054  27.153  1.00  0.00    -0.203 F 
ATOM     66  F   UNL A   1      41.852  23.021  26.490  1.00  0.00    -0.200 F 
ATOM     67  C   UNL A   1      43.205  24.795  25.717  1.00  0.00     0.200 A 
ATOM     68  F   UNL A   1      44.555  26.591  24.990  1.00  0.00    -0.200 F 
ATOM     69  F   UNL A   1      43.575  24.068  24.654  1.00  0.00    -0.200 F 
ENDBRANCH  45  59
BRANCH  46  70
ATOM     70  C   UNL A   1      39.026  31.942  35.469  1.00  0.00     0.064 A 
ATOM     71  C   UNL A   1      39.378  33.292  35.617  1.00  0.00     0.173 A 
ATOM     72  C   UNL A   1      38.228  31.366  36.469  1.00  0.00     0.173 A 
ATOM     73  F   UNL A   1      40.164  33.882  34.705  1.00  0.00    -0.203 F 
ATOM     74  C   UNL A   1      38.974  34.026  36.732  1.00  0.00     0.198 A 
ATOM     75  C   UNL A   1      37.797  32.110  37.566  1.00  0.00     0.198 A 
ATOM     76  F   UNL A   1      37.869  30.078  36.383  1.00  0.00    -0.203 F 
ATOM     77  F   UNL A   1      39.380  35.294  36.879  1.00  0.00    -0.200 F 
ATOM     78  C   UNL A   1      38.180  33.435  37.703  1.00  0.00     0.200 A 
ATOM     79  F   UNL A   1      37.023  31.538  38.498  1.00  0.00    -0.200 F 
ATOM     80  F   UNL A   1      37.799  34.139  38.777  1.00  0.00    -0.200 F 
ENDBRANCH  46  70
BRANCH  58  81
ATOM     81  C   UNL A   1      44.512  27.713  34.701  1.00  0.00     0.064 A 
ATOM     82  C   UNL A   1      45.688  28.470  34.811  1.00  0.00     0.173 A 
ATOM     83  C   UNL A   1      44.383  26.582  35.522  1.00  0.00     0.173 A 
ATOM     84  F   UNL A   1      45.868  29.554  34.040  1.00  0.00    -0.203 F 
ATOM     85  C   UNL A   1      46.704  28.092  35.685  1.00  0.00     0.198 A 
ATOM     86  C   UNL A   1      45.385  26.228  36.421  1.00  0.00     0.198 A 
ATOM     87  F   UNL A   1      43.275  25.827  35.466  1.00  0.00    -0.203 F 
ATOM     88  F   UNL A   1      47.841  28.799  35.732  1.00  0.00    -0.200 F 
ATOM     89  C   UNL A   1      46.549  26.977  36.495  1.00  0.00     0.200 A 
ATOM     90  F   UNL A   1      45.224  25.162  37.217  1.00  0.00    -0.200 F 
ATOM     91  F   UNL A   1      47.525  26.621  37.342  1.00  0.00    -0.200 F 
ENDBRANCH  58  81
ENDBRANCH  32  33
ENDBRANCH  25  27
ENDBRANCH  24  25
ENDBRANCH  23  24
ENDBRANCH  22  23
ENDBRANCH  21  22
ENDBRANCH  20  21
ENDBRANCH   1  20
TORSDOF 21
ENDMDL
MODEL 3
REMARK VINA RESULT:      -9.8      3.246      8.414
REMARK SMILES COc1cnc(F)c(C(=O)OCCOCCOCCOCCOC(=O)c2ccc(-c3c4nc(c(-c5c(F)c(F)c(F)c(F)c5F)c5ccc([nH]5)c(-c5c(F)c(F)c(F)c(F)c5F)c5nc(c(-c6c(F)c(F)c(F)c(F)c6F)c6ccc3[nH]6)C=C5)C=C4)cc2)c1
REMARK SMILES IDX 18 1 17 2 16 3 15 4 14 5 13 6 12 7 11 8 9 9 10 10 8 11 3 12
REMARK SMILES IDX 4 13 89 14 5 15 6 16 7 17 2 18 1 19 19 20 20 21 21 22 22 23
REMARK SMILES IDX 23 24 24 25 25 26 26 27 27 28 88 29 28 30 87 31 29 32 30 33
REMARK SMILES IDX 31 34 81 35 32 36 86 37 80 38 82 39 33 40 85 41 79 42 78 43
REMARK SMILES IDX 34 45 66 46 46 47 65 48 47 49 50 50 64 51 83 52 48 53 49 54
REMARK SMILES IDX 63 56 84 57 51 58 35 59 36 60 44 61 37 62 38 63 42 64 45 65
REMARK SMILES IDX 39 66 40 67 43 68 41 69 67 70 68 71 76 72 69 73 70 74 74 75
REMARK SMILES IDX 77 76 71 77 72 78 75 79 73 80 52 81 53 82 61 83 54 84 55 85
REMARK SMILES IDX 59 86 62 87 56 88 57 89 60 90 58 91
REMARK H PARENT 82 44 50 55
REMARK Flexibility Score: inf
ROOT
ATOM      1  C   UNL A   1      29.775  28.317  23.357  1.00  0.00     0.188 C 
ENDROOT
BRANCH   1   2
ATOM      2  O   UNL A   1      29.362  26.965  23.551  1.00  0.00    -0.377 OA
BRANCH   2   3
ATOM      3  C   UNL A   1      29.797  26.249  24.696  1.00  0.00     0.188 C 
BRANCH   3   4
ATOM      4  C   UNL A   1      30.414  24.852  24.485  1.00  0.00     0.188 C 
BRANCH   4   5
ATOM      5  O   UNL A   1      31.810  24.883  24.247  1.00  0.00    -0.376 OA
BRANCH   5   6
ATOM      6  C   UNL A   1      32.286  25.169  22.946  1.00  0.00     0.202 C 
BRANCH   6   7
ATOM      7  C   UNL A   1      33.322  24.246  22.285  1.00  0.00     0.261 C 
BRANCH   7   8
ATOM      8  O   UNL A   1      34.662  24.343  22.779  1.00  0.00    -0.460 OA
BRANCH   8   9
ATOM      9  C   UNL A   1      35.268  23.209  23.184  1.00  0.00     0.343 C 
ATOM     10  O   UNL A   1      36.346  22.786  22.805  1.00  0.00    -0.246 OA
BRANCH   9  11
ATOM     11  C   UNL A   1      34.543  22.683  24.349  1.00  0.00     0.118 A 
ATOM     12  C   UNL A   1      33.081  21.032  25.313  1.00  0.00     0.138 A 
ATOM     13  C   UNL A   1      33.282  21.661  26.536  1.00  0.00     0.160 A 
ATOM     14  C   UNL A   1      33.708  21.569  24.193  1.00  0.00     0.068 A 
ATOM     15  N   UNL A   1      34.086  22.736  26.717  1.00  0.00    -0.224 NA
ATOM     16  C   UNL A   1      34.705  23.223  25.616  1.00  0.00     0.227 A 
ATOM     17  F   UNL A   1      35.489  24.296  25.796  1.00  0.00    -0.184 F 
BRANCH  12  18
ATOM     18  O   UNL A   1      32.201  19.991  25.268  1.00  0.00    -0.495 OA
ATOM     19  C   UNL A   1      32.807  18.714  25.075  1.00  0.00     0.278 C 
ENDBRANCH  12  18
ENDBRANCH   9  11
ENDBRANCH   8   9
ENDBRANCH   7   8
ENDBRANCH   6   7
ENDBRANCH   5   6
ENDBRANCH   4   5
ENDBRANCH   3   4
ENDBRANCH   2   3
ENDBRANCH   1   2
BRANCH   1  20
ATOM     20  C   UNL A   1      31.225  28.695  22.965  1.00  0.00     0.188 C 
BRANCH  20  21
ATOM     21  O   UNL A   1      32.053  29.082  24.049  1.00  0.00    -0.376 OA
BRANCH  21  22
ATOM     22  C   UNL A   1      31.422  29.378  25.281  1.00  0.00     0.202 C 
BRANCH  22  23
ATOM     23  C   UNL A   1      31.754  30.740  25.905  1.00  0.00     0.261 C 
BRANCH  23  24
ATOM     24  O   UNL A   1      32.617  30.712  27.052  1.00  0.00    -0.460 OA
BRANCH  24  25
ATOM     25  C   UNL A   1      33.276  31.847  27.365  1.00  0.00     0.338 C 
ATOM     26  O   UNL A   1      32.847  32.988  27.328  1.00  0.00    -0.246 OA
BRANCH  25  27
ATOM     27  C   UNL A   1      34.577  31.456  27.948  1.00  0.00     0.060 A 
ATOM     28  C   UNL A   1      34.812  30.113  28.270  1.00  0.00     0.016 A 
ATOM     29  C   UNL A   1      35.570  32.417  28.150  1.00  0.00     0.016 A 
ATOM     30  C   UNL A   1      36.040  29.730  28.814  1.00  0.00     0.010 A 
ATOM     31  C   UNL A   1      36.787  32.036  28.717  1.00  0.00     0.010 A 
ATOM     32  C   UNL A   1      37.020  30.696  29.074  1.00  0.00    -0.014 A 
BRANCH  32  33
ATOM     33  C   UNL A   1      38.220  30.351  29.875  1.00  0.00     0.031 A 
ATOM     34  C   UNL A   1      39.207  29.376  29.297  1.00  0.00     0.074 A 
ATOM     35  C   UNL A   1      38.424  30.878  31.096  1.00  0.00     0.049 A 
ATOM     36  N   UNL A   1      40.269  28.840  29.842  1.00  0.00    -0.248 NA
ATOM     37  C   UNL A   1      38.958  28.943  27.911  1.00  0.00     0.031 C 
ATOM     38  C   UNL A   1      37.570  31.867  31.745  1.00  0.00     0.029 A 
ATOM     39  N   UNL A   1      39.417  30.635  32.014  1.00  0.00    -0.354 N 
ATOM     40  C   UNL A   1      40.803  27.997  28.877  1.00  0.00     0.074 A 
ATOM     41  C   UNL A   1      39.941  28.078  27.718  1.00  0.00     0.031 C 
ATOM     42  C   UNL A   1      38.066  32.138  32.965  1.00  0.00     0.029 A 
ATOM     43  C   UNL A   1      39.246  31.307  33.199  1.00  0.00     0.049 A 
ATOM     44  H   UNL A   1      40.179  30.035  31.839  1.00  0.00     0.167 HD
ATOM     45  C   UNL A   1      41.913  27.226  28.952  1.00  0.00     0.037 A 
ATOM     46  C   UNL A   1      39.945  31.230  34.349  1.00  0.00     0.037 A 
ATOM     47  C   UNL A   1      42.769  27.152  30.106  1.00  0.00     0.049 A 
ATOM     48  C   UNL A   1      41.126  30.293  34.435  1.00  0.00     0.074 A 
ATOM     49  C   UNL A   1      43.934  26.424  30.269  1.00  0.00     0.029 A 
ATOM     50  N   UNL A   1      42.543  27.820  31.301  1.00  0.00    -0.354 N 
ATOM     51  N   UNL A   1      41.647  29.523  33.510  1.00  0.00    -0.248 NA
ATOM     52  C   UNL A   1      41.818  30.216  35.731  1.00  0.00     0.031 C 
ATOM     53  C   UNL A   1      44.377  26.597  31.584  1.00  0.00     0.029 A 
ATOM     54  C   UNL A   1      43.528  27.491  32.219  1.00  0.00     0.049 A 
ATOM     55  H   UNL A   1      41.795  28.436  31.472  1.00  0.00     0.167 HD
ATOM     56  C   UNL A   1      42.742  28.901  34.098  1.00  0.00     0.074 A 
ATOM     57  C   UNL A   1      42.821  29.396  35.456  1.00  0.00     0.031 C 
ATOM     58  C   UNL A   1      43.604  28.002  33.563  1.00  0.00     0.037 A 
BRANCH  45  59
ATOM     59  C   UNL A   1      42.249  26.367  27.768  1.00  0.00     0.064 A 
ATOM     60  C   UNL A   1      43.208  26.752  26.819  1.00  0.00     0.173 A 
ATOM     61  C   UNL A   1      41.638  25.114  27.613  1.00  0.00     0.173 A 
ATOM     62  F   UNL A   1      43.810  27.947  26.913  1.00  0.00    -0.203 F 
ATOM     63  C   UNL A   1      43.527  25.921  25.748  1.00  0.00     0.198 A 
ATOM     64  C   UNL A   1      41.983  24.272  26.559  1.00  0.00     0.198 A 
ATOM     65  F   UNL A   1      40.715  24.696  28.493  1.00  0.00    -0.203 F 
ATOM     66  F   UNL A   1      44.416  26.326  24.829  1.00  0.00    -0.200 F 
ATOM     67  C   UNL A   1      42.923  24.679  25.625  1.00  0.00     0.200 A 
ATOM     68  F   UNL A   1      41.408  23.066  26.450  1.00  0.00    -0.200 F 
ATOM     69  F   UNL A   1      43.244  23.874  24.602  1.00  0.00    -0.200 F 
ENDBRANCH  45  59
BRANCH  46  70
ATOM     70  C   UNL A   1      39.543  32.038  35.532  1.00  0.00     0.064 A 
ATOM     71  C   UNL A   1      38.620  31.543  36.465  1.00  0.00     0.173 A 
ATOM     72  C   UNL A   1      40.028  33.340  35.728  1.00  0.00     0.173 A 
ATOM     73  F   UNL A   1      38.101  30.316  36.307  1.00  0.00    -0.203 F 
ATOM     74  C   UNL A   1      38.178  32.327  37.530  1.00  0.00     0.198 A 
ATOM     75  C   UNL A   1      39.612  34.110  36.813  1.00  0.00     0.198 A 
ATOM     76  F   UNL A   1      40.905  33.868  34.863  1.00  0.00    -0.203 F 
ATOM     77  F   UNL A   1      37.246  31.851  38.368  1.00  0.00    -0.200 F 
ATOM     78  C   UNL A   1      38.678  33.608  37.706  1.00  0.00     0.200 A 
ATOM     79  F   UNL A   1      40.104  35.345  36.984  1.00  0.00    -0.200 F 
ATOM     80  F   UNL A   1      38.248  34.362  38.726  1.00  0.00    -0.200 F 
ENDBRANCH  46  70
BRANCH  58  81
ATOM     81  C   UNL A   1      44.742  27.530  34.427  1.00  0.00     0.064 A 
ATOM     82  C   UNL A   1      44.647  26.368  35.208  1.00  0.00     0.173 A 
ATOM     83  C   UNL A   1      45.959  28.229  34.437  1.00  0.00     0.173 A 
ATOM     84  F   UNL A   1      43.503  25.669  35.244  1.00  0.00    -0.203 F 
ATOM     85  C   UNL A   1      45.718  25.943  35.991  1.00  0.00     0.198 A 
ATOM     86  C   UNL A   1      47.039  27.780  35.192  1.00  0.00     0.198 A 
ATOM     87  F   UNL A   1      46.108  29.340  33.700  1.00  0.00    -0.203 F 
ATOM     88  F   UNL A   1      45.586  24.863  36.772  1.00  0.00    -0.200 F 
ATOM     89  C   UNL A   1      46.915  26.644  35.976  1.00  0.00     0.200 A 
ATOM     90  F   UNL A   1      48.201  28.448  35.160  1.00  0.00    -0.200 F 
ATOM     91  F   UNL A   1      47.947  26.227  36.723  1.00  0.00    -0.200 F 
ENDBRANCH  58  81
ENDBRANCH  32  33
ENDBRANCH  25  27
ENDBRANCH  24  25
ENDBRANCH  23  24
ENDBRANCH  22  23
ENDBRANCH  21  22
ENDBRANCH  20  21
ENDBRANCH   1  20
TORSDOF 21
ENDMDL
