MODEL 1
REMARK VINA RESULT:     -11.0      0.000      0.000
REMARK SMILES C=CC[C@@]1(C(=O)OCCOCCOCCOCCOC(=O)c2ccc(-c3c4nc(c(-c5c(F)c(F)c(F)c(F)c5F)c5ccc([nH]5)c(-c5c(F)c(F)c(F)c(F)c5F)c5nc(c(-c6c(F)c(F)c(F)c(F)c6F)c6ccc3[nH]6)C=C5)C=C4)cc2)CCCN(C(=O)c2ccc3c(c2)OCO3)C1
REMARK SMILES IDX 13 1 12 2 11 3 10 4 9 5 8 6 7 7 5 8 6 9 4 10 85 11 100 12
REMARK SMILES IDX 86 13 88 14 87 15 3 16 2 17 1 18 89 19 90 20 91 21 92 22
REMARK SMILES IDX 96 23 93 24 95 25 94 26 97 27 99 28 98 29 14 30 15 31 16 32
REMARK SMILES IDX 17 33 18 34 19 35 20 36 21 37 22 38 23 39 84 40 24 41 83 42
REMARK SMILES IDX 25 43 26 44 27 45 77 46 28 47 82 48 76 49 78 50 29 51 81 52
REMARK SMILES IDX 75 53 74 54 30 56 62 57 42 58 61 59 43 60 46 61 60 62 79 63
REMARK SMILES IDX 44 64 45 65 59 67 80 68 47 69 31 70 32 71 40 72 33 73 34 74
REMARK SMILES IDX 38 75 41 76 35 77 36 78 39 79 37 80 63 81 64 82 72 83 65 84
REMARK SMILES IDX 66 85 70 86 73 87 67 88 68 89 71 90 69 91 48 92 49 93 57 94
REMARK SMILES IDX 50 95 51 96 55 97 58 98 52 99 53 100 56 101 54 102
REMARK H PARENT 78 55 46 66
REMARK Flexibility Score: inf
ROOT
ATOM      1  O   UNL A   1      40.449  21.274  27.806  1.00  0.00    -0.377 OA
ENDROOT
BRANCH   1   2
ATOM      2  C   UNL A   1      40.002  22.326  26.965  1.00  0.00     0.188 C 
BRANCH   2   3
ATOM      3  C   UNL A   1      39.019  22.119  25.788  1.00  0.00     0.188 C 
BRANCH   3   4
ATOM      4  O   UNL A   1      37.648  22.198  26.134  1.00  0.00    -0.376 OA
BRANCH   4   5
ATOM      5  C   UNL A   1      36.870  23.155  25.433  1.00  0.00     0.202 C 
BRANCH   5   6
ATOM      6  C   UNL A   1      35.394  23.291  25.850  1.00  0.00     0.261 C 
BRANCH   6   7
ATOM      7  O   UNL A   1      34.730  24.543  25.561  1.00  0.00    -0.463 OA
BRANCH   7   8
ATOM      8  C   UNL A   1      33.448  24.665  25.991  1.00  0.00     0.314 C 
ATOM      9  O   UNL A   1      33.022  23.933  26.874  1.00  0.00    -0.252 OA
BRANCH   8  10
ATOM     10  C   UNL A   1      32.620  25.768  25.255  1.00  0.00     0.089 C 
ATOM     11  C   UNL A   1      31.057  25.752  25.349  1.00  0.00     0.023 C 
ATOM     12  C   UNL A   1      32.929  25.535  23.751  1.00  0.00     0.138 C 
ATOM     13  C   UNL A   1      30.354  24.535  24.765  1.00  0.00     0.023 C 
ATOM     14  N   UNL A   1      32.281  24.304  23.250  1.00  0.00    -0.337 N 
ATOM     15  C   UNL A   1      30.821  24.256  23.347  1.00  0.00     0.120 C 
BRANCH  10  16
ATOM     16  C   UNL A   1      33.170  27.152  25.759  1.00  0.00     0.047 C 
BRANCH  16  17
ATOM     17  C   UNL A   1      32.171  28.113  26.365  1.00  0.00    -0.034 C 
ATOM     18  C   UNL A   1      31.658  27.978  27.598  1.00  0.00     0.004 C 
ENDBRANCH  16  17
ENDBRANCH  10  16
BRANCH  14  19
ATOM     19  C   UNL A   1      33.073  23.256  22.761  1.00  0.00     0.254 C 
ATOM     20  O   UNL A   1      34.053  23.386  22.035  1.00  0.00    -0.269 OA
BRANCH  19  21
ATOM     21  C   UNL A   1      32.630  21.887  23.071  1.00  0.00     0.043 A 
ATOM     22  C   UNL A   1      32.184  21.005  22.063  1.00  0.00     0.018 A 
ATOM     23  C   UNL A   1      32.819  21.467  24.389  1.00  0.00     0.064 A 
ATOM     24  C   UNL A   1      31.972  19.655  22.374  1.00  0.00     0.051 A 
ATOM     25  C   UNL A   1      32.649  20.131  24.643  1.00  0.00     0.166 A 
ATOM     26  C   UNL A   1      32.247  19.247  23.665  1.00  0.00     0.165 A 
ATOM     27  O   UNL A   1      32.920  19.520  25.826  1.00  0.00    -0.454 OA
ATOM     28  O   UNL A   1      32.216  17.966  24.127  1.00  0.00    -0.454 OA
ATOM     29  C   UNL A   1      32.827  18.139  25.425  1.00  0.00     0.468 C 
ENDBRANCH  19  21
ENDBRANCH  14  19
ENDBRANCH   8  10
ENDBRANCH   7   8
ENDBRANCH   6   7
ENDBRANCH   5   6
ENDBRANCH   4   5
ENDBRANCH   3   4
ENDBRANCH   2   3
ENDBRANCH   1   2
BRANCH   1  30
ATOM     30  C   UNL A   1      41.601  20.555  27.419  1.00  0.00     0.188 C 
BRANCH  30  31
ATOM     31  C   UNL A   1      41.458  19.712  26.141  1.00  0.00     0.188 C 
BRANCH  31  32
ATOM     32  O   UNL A   1      42.608  19.745  25.306  1.00  0.00    -0.376 OA
BRANCH  32  33
ATOM     33  C   UNL A   1      43.702  20.552  25.709  1.00  0.00     0.202 C 
BRANCH  33  34
ATOM     34  C   UNL A   1      43.847  21.965  25.116  1.00  0.00     0.261 C 
BRANCH  34  35
ATOM     35  O   UNL A   1      44.281  23.003  26.005  1.00  0.00    -0.460 OA
BRANCH  35  36
ATOM     36  C   UNL A   1      44.388  24.255  25.519  1.00  0.00     0.338 C 
ATOM     37  O   UNL A   1      44.843  24.597  24.441  1.00  0.00    -0.246 OA
BRANCH  36  38
ATOM     38  C   UNL A   1      43.658  25.142  26.450  1.00  0.00     0.060 A 
ATOM     39  C   UNL A   1      43.962  26.511  26.466  1.00  0.00     0.016 A 
ATOM     40  C   UNL A   1      42.638  24.634  27.256  1.00  0.00     0.016 A 
ATOM     41  C   UNL A   1      43.245  27.377  27.290  1.00  0.00     0.010 A 
ATOM     42  C   UNL A   1      41.952  25.493  28.117  1.00  0.00     0.010 A 
ATOM     43  C   UNL A   1      42.272  26.862  28.154  1.00  0.00    -0.014 A 
BRANCH  43  44
ATOM     44  C   UNL A   1      41.772  27.704  29.264  1.00  0.00     0.031 A 
ATOM     45  C   UNL A   1      42.505  27.630  30.575  1.00  0.00     0.074 A 
ATOM     46  C   UNL A   1      40.724  28.532  29.113  1.00  0.00     0.049 A 
ATOM     47  N   UNL A   1      42.244  28.219  31.712  1.00  0.00    -0.248 NA
ATOM     48  C   UNL A   1      43.698  26.767  30.604  1.00  0.00     0.031 C 
ATOM     49  C   UNL A   1      39.976  28.734  27.876  1.00  0.00     0.029 A 
ATOM     50  N   UNL A   1      40.106  29.355  30.022  1.00  0.00    -0.354 N 
ATOM     51  C   UNL A   1      43.233  27.794  32.589  1.00  0.00     0.074 A 
ATOM     52  C   UNL A   1      44.084  26.877  31.865  1.00  0.00     0.031 C 
ATOM     53  C   UNL A   1      38.990  29.620  28.105  1.00  0.00     0.029 A 
ATOM     54  C   UNL A   1      39.017  30.016  29.513  1.00  0.00     0.049 A 
ATOM     55  H   UNL A   1      40.417  29.461  30.951  1.00  0.00     0.167 HD
ATOM     56  C   UNL A   1      43.417  28.143  33.882  1.00  0.00     0.037 A 
ATOM     57  C   UNL A   1      38.134  30.829  30.127  1.00  0.00     0.037 A 
ATOM     58  C   UNL A   1      42.563  29.052  34.599  1.00  0.00     0.049 A 
ATOM     59  C   UNL A   1      38.307  31.128  31.596  1.00  0.00     0.074 A 
ATOM     60  C   UNL A   1      42.667  29.477  35.910  1.00  0.00     0.029 A 
ATOM     61  N   UNL A   1      41.440  29.665  34.063  1.00  0.00    -0.354 N 
ATOM     62  N   UNL A   1      39.252  30.737  32.418  1.00  0.00    -0.248 NA
ATOM     63  C   UNL A   1      37.289  31.982  32.224  1.00  0.00     0.031 C 
ATOM     64  C   UNL A   1      41.572  30.300  36.187  1.00  0.00     0.029 A 
ATOM     65  C   UNL A   1      40.824  30.444  35.029  1.00  0.00     0.049 A 
ATOM     66  H   UNL A   1      41.128  29.562  33.136  1.00  0.00     0.167 HD
ATOM     67  C   UNL A   1      38.964  31.325  33.644  1.00  0.00     0.074 A 
ATOM     68  C   UNL A   1      37.761  32.109  33.455  1.00  0.00     0.031 C 
ATOM     69  C   UNL A   1      39.634  31.230  34.819  1.00  0.00     0.037 A 
BRANCH  56  70
ATOM     70  C   UNL A   1      44.564  27.512  34.615  1.00  0.00     0.064 A 
ATOM     71  C   UNL A   1      45.830  28.113  34.668  1.00  0.00     0.173 A 
ATOM     72  C   UNL A   1      44.382  26.303  35.303  1.00  0.00     0.173 A 
ATOM     73  F   UNL A   1      46.062  29.259  34.010  1.00  0.00    -0.203 F 
ATOM     74  C   UNL A   1      46.877  27.517  35.367  1.00  0.00     0.198 A 
ATOM     75  C   UNL A   1      45.421  25.726  36.027  1.00  0.00     0.198 A 
ATOM     76  F   UNL A   1      43.191  25.685  35.283  1.00  0.00    -0.203 F 
ATOM     77  F   UNL A   1      48.091  28.086  35.365  1.00  0.00    -0.200 F 
ATOM     78  C   UNL A   1      46.669  26.330  36.053  1.00  0.00     0.200 A 
ATOM     79  F   UNL A   1      45.215  24.586  36.699  1.00  0.00    -0.200 F 
ATOM     80  F   UNL A   1      47.674  25.764  36.735  1.00  0.00    -0.200 F 
ENDBRANCH  56  70
BRANCH  57  81
ATOM     81  C   UNL A   1      36.995  31.413  29.367  1.00  0.00     0.064 A 
ATOM     82  C   UNL A   1      36.966  32.777  29.043  1.00  0.00     0.173 A 
ATOM     83  C   UNL A   1      35.898  30.629  28.980  1.00  0.00     0.173 A 
ATOM     84  F   UNL A   1      37.978  33.575  29.416  1.00  0.00    -0.203 F 
ATOM     85  C   UNL A   1      35.876  33.338  28.382  1.00  0.00     0.198 A 
ATOM     86  C   UNL A   1      34.821  31.186  28.291  1.00  0.00     0.198 A 
ATOM     87  F   UNL A   1      35.869  29.320  29.271  1.00  0.00    -0.203 F 
ATOM     88  F   UNL A   1      35.850  34.655  28.135  1.00  0.00    -0.200 F 
ATOM     89  C   UNL A   1      34.806  32.541  28.001  1.00  0.00     0.200 A 
ATOM     90  F   UNL A   1      33.795  30.410  27.917  1.00  0.00    -0.200 F 
ATOM     91  F   UNL A   1      33.757  33.082  27.366  1.00  0.00    -0.200 F 
ENDBRANCH  57  81
BRANCH  69  92
ATOM     92  C   UNL A   1      39.119  32.028  35.983  1.00  0.00     0.064 A 
ATOM     93  C   UNL A   1      38.243  31.477  36.930  1.00  0.00     0.173 A 
ATOM     94  C   UNL A   1      39.553  33.349  36.181  1.00  0.00     0.173 A 
ATOM     95  F   UNL A   1      37.789  30.223  36.782  1.00  0.00    -0.203 F 
ATOM     96  C   UNL A   1      37.799  32.229  38.016  1.00  0.00     0.198 A 
ATOM     97  C   UNL A   1      39.136  34.083  37.287  1.00  0.00     0.198 A 
ATOM     98  F   UNL A   1      40.401  33.919  35.312  1.00  0.00    -0.203 F 
ATOM     99  F   UNL A   1      36.923  31.699  38.881  1.00  0.00    -0.200 F 
ATOM    100  C   UNL A   1      38.254  33.526  38.199  1.00  0.00     0.200 A 
ATOM    101  F   UNL A   1      39.593  35.331  37.472  1.00  0.00    -0.200 F 
ATOM    102  F   UNL A   1      37.835  34.243  39.250  1.00  0.00    -0.200 F 
ENDBRANCH  69  92
ENDBRANCH  43  44
ENDBRANCH  36  38
ENDBRANCH  35  36
ENDBRANCH  34  35
ENDBRANCH  33  34
ENDBRANCH  32  33
ENDBRANCH  31  32
ENDBRANCH  30  31
ENDBRANCH   1  30
TORSDOF 24
ENDMDL
MODEL 2
REMARK VINA RESULT:     -10.6      1.293      7.634
REMARK SMILES C=CC[C@@]1(C(=O)OCCOCCOCCOCCOC(=O)c2ccc(-c3c4nc(c(-c5c(F)c(F)c(F)c(F)c5F)c5ccc([nH]5)c(-c5c(F)c(F)c(F)c(F)c5F)c5nc(c(-c6c(F)c(F)c(F)c(F)c6F)c6ccc3[nH]6)C=C5)C=C4)cc2)CCCN(C(=O)c2ccc3c(c2)OCO3)C1
REMARK SMILES IDX 13 1 12 2 11 3 10 4 9 5 8 6 7 7 5 8 6 9 4 10 85 11 100 12
REMARK SMILES IDX 86 13 88 14 87 15 3 16 2 17 1 18 89 19 90 20 91 21 92 22
REMARK SMILES IDX 96 23 93 24 95 25 94 26 97 27 99 28 98 29 14 30 15 31 16 32
REMARK SMILES IDX 17 33 18 34 19 35 20 36 21 37 22 38 23 39 84 40 24 41 83 42
REMARK SMILES IDX 25 43 26 44 27 45 77 46 28 47 82 48 76 49 78 50 29 51 81 52
REMARK SMILES IDX 75 53 74 54 30 56 62 57 42 58 61 59 43 60 46 61 60 62 79 63
REMARK SMILES IDX 44 64 45 65 59 67 80 68 47 69 31 70 32 71 40 72 33 73 34 74
REMARK SMILES IDX 38 75 41 76 35 77 36 78 39 79 37 80 63 81 64 82 72 83 65 84
REMARK SMILES IDX 66 85 70 86 73 87 67 88 68 89 71 90 69 91 48 92 49 93 57 94
REMARK SMILES IDX 50 95 51 96 55 97 58 98 52 99 53 100 56 101 54 102
REMARK H PARENT 78 55 46 66
REMARK Flexibility Score: inf
ROOT
ATOM      1  O   UNL A   1      40.338  20.662  27.003  1.00  0.00    -0.377 OA
ENDROOT
BRANCH   1   2
ATOM      2  C   UNL A   1      39.718  21.861  26.565  1.00  0.00     0.188 C 
BRANCH   2   3
ATOM      3  C   UNL A   1      38.497  21.892  25.615  1.00  0.00     0.188 C 
BRANCH   3   4
ATOM      4  O   UNL A   1      37.526  22.877  25.921  1.00  0.00    -0.376 OA
BRANCH   4   5
ATOM      5  C   UNL A   1      36.271  22.755  25.274  1.00  0.00     0.202 C 
BRANCH   5   6
ATOM      6  C   UNL A   1      35.421  24.034  25.156  1.00  0.00     0.261 C 
BRANCH   6   7
ATOM      7  O   UNL A   1      34.054  23.974  25.623  1.00  0.00    -0.463 OA
BRANCH   7   8
ATOM      8  C   UNL A   1      33.675  22.830  26.249  1.00  0.00     0.314 C 
ATOM      9  O   UNL A   1      33.966  22.645  27.422  1.00  0.00    -0.252 OA
BRANCH   8  10
ATOM     10  C   UNL A   1      32.891  21.825  25.344  1.00  0.00     0.089 C 
ATOM     11  C   UNL A   1      32.928  21.995  23.789  1.00  0.00     0.023 C 
ATOM     12  C   UNL A   1      31.403  22.046  25.732  1.00  0.00     0.138 C 
ATOM     13  C   UNL A   1      32.339  23.283  23.232  1.00  0.00     0.023 C 
ATOM     14  N   UNL A   1      30.900  23.341  25.228  1.00  0.00    -0.337 N 
ATOM     15  C   UNL A   1      30.945  23.533  23.778  1.00  0.00     0.120 C 
BRANCH  10  16
ATOM     16  C   UNL A   1      33.391  20.386  25.736  1.00  0.00     0.047 C 
BRANCH  16  17
ATOM     17  C   UNL A   1      33.658  19.417  24.605  1.00  0.00    -0.034 C 
ATOM     18  C   UNL A   1      32.847  18.397  24.288  1.00  0.00     0.004 C 
ENDBRANCH  16  17
ENDBRANCH  10  16
BRANCH  14  19
ATOM     19  C   UNL A   1      30.458  24.312  26.138  1.00  0.00     0.254 C 
ATOM     20  O   UNL A   1      29.878  24.084  27.195  1.00  0.00    -0.269 OA
BRANCH  19  21
ATOM     21  C   UNL A   1      30.623  25.720  25.742  1.00  0.00     0.043 A 
ATOM     22  C   UNL A   1      31.575  26.559  26.360  1.00  0.00     0.018 A 
ATOM     23  C   UNL A   1      29.893  26.130  24.624  1.00  0.00     0.064 A 
ATOM     24  C   UNL A   1      31.839  27.822  25.813  1.00  0.00     0.051 A 
ATOM     25  C   UNL A   1      30.214  27.349  24.089  1.00  0.00     0.166 A 
ATOM     26  C   UNL A   1      31.165  28.170  24.658  1.00  0.00     0.165 A 
ATOM     27  O   UNL A   1      29.711  27.851  22.931  1.00  0.00    -0.454 OA
ATOM     28  O   UNL A   1      31.368  29.294  23.916  1.00  0.00    -0.454 OA
ATOM     29  C   UNL A   1      30.587  28.979  22.741  1.00  0.00     0.468 C 
ENDBRANCH  19  21
ENDBRANCH  14  19
ENDBRANCH   8  10
ENDBRANCH   7   8
ENDBRANCH   6   7
ENDBRANCH   5   6
ENDBRANCH   4   5
ENDBRANCH   3   4
ENDBRANCH   2   3
ENDBRANCH   1   2
BRANCH   1  30
ATOM     30  C   UNL A   1      41.235  20.015  26.126  1.00  0.00     0.188 C 
BRANCH  30  31
ATOM     31  C   UNL A   1      42.726  20.290  26.384  1.00  0.00     0.188 C 
BRANCH  31  32
ATOM     32  O   UNL A   1      43.516  20.297  25.201  1.00  0.00    -0.376 OA
BRANCH  32  33
ATOM     33  C   UNL A   1      44.381  21.400  24.984  1.00  0.00     0.202 C 
BRANCH  33  34
ATOM     34  C   UNL A   1      43.877  22.593  24.154  1.00  0.00     0.261 C 
BRANCH  34  35
ATOM     35  O   UNL A   1      43.343  23.710  24.878  1.00  0.00    -0.460 OA
BRANCH  35  36
ATOM     36  C   UNL A   1      44.178  24.716  25.205  1.00  0.00     0.338 C 
ATOM     37  O   UNL A   1      45.203  25.045  24.635  1.00  0.00    -0.246 OA
BRANCH  36  38
ATOM     38  C   UNL A   1      43.517  25.493  26.275  1.00  0.00     0.060 A 
ATOM     39  C   UNL A   1      43.900  26.826  26.485  1.00  0.00     0.016 A 
ATOM     40  C   UNL A   1      42.483  24.927  27.024  1.00  0.00     0.016 A 
ATOM     41  C   UNL A   1      43.248  27.597  27.446  1.00  0.00     0.010 A 
ATOM     42  C   UNL A   1      41.863  25.685  28.019  1.00  0.00     0.010 A 
ATOM     43  C   UNL A   1      42.262  27.014  28.250  1.00  0.00    -0.014 A 
BRANCH  43  44
ATOM     44  C   UNL A   1      41.831  27.708  29.484  1.00  0.00     0.031 A 
ATOM     45  C   UNL A   1      40.575  28.531  29.414  1.00  0.00     0.074 A 
ATOM     46  C   UNL A   1      42.510  27.593  30.638  1.00  0.00     0.049 A 
ATOM     47  N   UNL A   1      40.013  29.276  30.329  1.00  0.00    -0.248 NA
ATOM     48  C   UNL A   1      39.856  28.510  28.129  1.00  0.00     0.031 C 
ATOM     49  C   UNL A   1      43.703  26.777  30.842  1.00  0.00     0.029 A 
ATOM     50  N   UNL A   1      42.286  28.177  31.860  1.00  0.00    -0.354 N 
ATOM     51  C   UNL A   1      38.882  29.814  29.730  1.00  0.00     0.074 A 
ATOM     52  C   UNL A   1      38.850  29.336  28.366  1.00  0.00     0.031 C 
ATOM     53  C   UNL A   1      44.114  26.919  32.114  1.00  0.00     0.029 A 
ATOM     54  C   UNL A   1      43.235  27.864  32.801  1.00  0.00     0.049 A 
ATOM     55  H   UNL A   1      41.517  28.765  32.044  1.00  0.00     0.167 HD
ATOM     56  C   UNL A   1      37.951  30.631  30.272  1.00  0.00     0.037 A 
ATOM     57  C   UNL A   1      43.381  28.314  34.064  1.00  0.00     0.037 A 
ATOM     58  C   UNL A   1      37.993  31.108  31.628  1.00  0.00     0.049 A 
ATOM     59  C   UNL A   1      42.380  29.300  34.615  1.00  0.00     0.074 A 
ATOM     60  C   UNL A   1      37.094  31.935  32.278  1.00  0.00     0.029 A 
ATOM     61  N   UNL A   1      38.996  30.808  32.538  1.00  0.00    -0.354 N 
ATOM     62  N   UNL A   1      41.304  29.795  34.051  1.00  0.00    -0.248 NA
ATOM     63  C   UNL A   1      42.615  29.790  35.981  1.00  0.00     0.031 C 
ATOM     64  C   UNL A   1      37.585  32.185  33.563  1.00  0.00     0.029 A 
ATOM     65  C   UNL A   1      38.753  31.459  33.737  1.00  0.00     0.049 A 
ATOM     66  H   UNL A   1      39.765  30.222  32.359  1.00  0.00     0.167 HD
ATOM     67  C   UNL A   1      40.717  30.622  35.002  1.00  0.00     0.074 A 
ATOM     68  C   UNL A   1      41.551  30.553  36.183  1.00  0.00     0.031 C 
ATOM     69  C   UNL A   1      39.588  31.367  34.908  1.00  0.00     0.037 A 
BRANCH  56  70
ATOM     70  C   UNL A   1      36.830  31.090  29.388  1.00  0.00     0.064 A 
ATOM     71  C   UNL A   1      36.791  32.388  28.855  1.00  0.00     0.173 A 
ATOM     72  C   UNL A   1      35.798  30.207  29.040  1.00  0.00     0.173 A 
ATOM     73  F   UNL A   1      37.744  33.278  29.173  1.00  0.00    -0.203 F 
ATOM     74  C   UNL A   1      35.749  32.789  28.023  1.00  0.00     0.198 A 
ATOM     75  C   UNL A   1      34.774  30.601  28.184  1.00  0.00     0.198 A 
ATOM     76  F   UNL A   1      35.785  28.956  29.524  1.00  0.00    -0.203 F 
ATOM     77  F   UNL A   1      35.707  34.048  27.563  1.00  0.00    -0.200 F 
ATOM     78  C   UNL A   1      34.748  31.893  27.680  1.00  0.00     0.200 A 
ATOM     79  F   UNL A   1      33.814  29.731  27.844  1.00  0.00    -0.200 F 
ATOM     80  F   UNL A   1      33.751  32.277  26.870  1.00  0.00    -0.200 F 
ENDBRANCH  56  70
BRANCH  57  81
ATOM     81  C   UNL A   1      44.524  27.851  34.898  1.00  0.00     0.064 A 
ATOM     82  C   UNL A   1      45.738  28.551  34.911  1.00  0.00     0.173 A 
ATOM     83  C   UNL A   1      44.438  26.683  35.671  1.00  0.00     0.173 A 
ATOM     84  F   UNL A   1      45.881  29.658  34.167  1.00  0.00    -0.203 F 
ATOM     85  C   UNL A   1      46.829  28.089  35.645  1.00  0.00     0.198 A 
ATOM     86  C   UNL A   1      45.519  26.239  36.429  1.00  0.00     0.198 A 
ATOM     87  F   UNL A   1      43.302  25.970  35.689  1.00  0.00    -0.203 F 
ATOM     88  F   UNL A   1      47.996  28.748  35.595  1.00  0.00    -0.200 F 
ATOM     89  C   UNL A   1      46.717  26.937  36.409  1.00  0.00     0.200 A 
ATOM     90  F   UNL A   1      45.403  25.131  37.173  1.00  0.00    -0.200 F 
ATOM     91  F   UNL A   1      47.767  26.493  37.114  1.00  0.00    -0.200 F 
ENDBRANCH  57  81
BRANCH  69  92
ATOM     92  C   UNL A   1      39.154  32.132  36.127  1.00  0.00     0.064 A 
ATOM     93  C   UNL A   1      39.596  33.439  36.379  1.00  0.00     0.173 A 
ATOM     94  C   UNL A   1      38.239  31.564  37.029  1.00  0.00     0.173 A 
ATOM     95  F   UNL A   1      40.479  34.024  35.556  1.00  0.00    -0.203 F 
ATOM     96  C   UNL A   1      39.160  34.138  37.503  1.00  0.00     0.198 A 
ATOM     97  C   UNL A   1      37.778  32.279  38.129  1.00  0.00     0.198 A 
ATOM     98  F   UNL A   1      37.775  30.321  36.828  1.00  0.00    -0.203 F 
ATOM     99  F   UNL A   1      39.634  35.367  37.750  1.00  0.00    -0.200 F 
ATOM    100  C   UNL A   1      38.244  33.562  38.370  1.00  0.00     0.200 A 
ATOM    101  F   UNL A   1      36.877  31.727  38.955  1.00  0.00    -0.200 F 
ATOM    102  F   UNL A   1      37.816  34.240  39.443  1.00  0.00    -0.200 F 
ENDBRANCH  69  92
ENDBRANCH  43  44
ENDBRANCH  36  38
ENDBRANCH  35  36
ENDBRANCH  34  35
ENDBRANCH  33  34
ENDBRANCH  32  33
ENDBRANCH  31  32
ENDBRANCH  30  31
ENDBRANCH   1  30
TORSDOF 24
ENDMDL
MODEL 3
REMARK VINA RESULT:      -9.8      1.561      2.413
REMARK SMILES C=CC[C@@]1(C(=O)OCCOCCOCCOCCOC(=O)c2ccc(-c3c4nc(c(-c5c(F)c(F)c(F)c(F)c5F)c5ccc([nH]5)c(-c5c(F)c(F)c(F)c(F)c5F)c5nc(c(-c6c(F)c(F)c(F)c(F)c6F)c6ccc3[nH]6)C=C5)C=C4)cc2)CCCN(C(=O)c2ccc3c(c2)OCO3)C1
REMARK SMILES IDX 13 1 12 2 11 3 10 4 9 5 8 6 7 7 5 8 6 9 4 10 85 11 100 12
REMARK SMILES IDX 86 13 88 14 87 15 3 16 2 17 1 18 89 19 90 20 91 21 92 22
REMARK SMILES IDX 96 23 93 24 95 25 94 26 97 27 99 28 98 29 14 30 15 31 16 32
REMARK SMILES IDX 17 33 18 34 19 35 20 36 21 37 22 38 23 39 84 40 24 41 83 42
REMARK SMILES IDX 25 43 26 44 27 45 77 46 28 47 82 48 76 49 78 50 29 51 81 52
REMARK SMILES IDX 75 53 74 54 30 56 62 57 42 58 61 59 43 60 46 61 60 62 79 63
REMARK SMILES IDX 44 64 45 65 59 67 80 68 47 69 31 70 32 71 40 72 33 73 34 74
REMARK SMILES IDX 38 75 41 76 35 77 36 78 39 79 37 80 63 81 64 82 72 83 65 84
REMARK SMILES IDX 66 85 70 86 73 87 67 88 68 89 71 90 69 91 48 92 49 93 57 94
REMARK SMILES IDX 50 95 51 96 55 97 58 98 52 99 53 100 56 101 54 102
REMARK H PARENT 78 55 46 66
REMARK Flexibility Score: inf
ROOT
ATOM      1  O   UNL A   1      40.639  20.202  26.746  1.00  0.00    -0.377 OA
ENDROOT
BRANCH   1   2
ATOM      2  C   UNL A   1      39.994  21.388  26.308  1.00  0.00     0.188 C 
BRANCH   2   3
ATOM      3  C   UNL A   1      38.688  21.393  25.479  1.00  0.00     0.188 C 
BRANCH   3   4
ATOM      4  O   UNL A   1      37.526  21.770  26.195  1.00  0.00    -0.376 OA
BRANCH   4   5
ATOM      5  C   UNL A   1      36.535  22.479  25.471  1.00  0.00     0.202 C 
BRANCH   5   6
ATOM      6  C   UNL A   1      35.598  23.392  26.285  1.00  0.00     0.261 C 
BRANCH   6   7
ATOM      7  O   UNL A   1      34.637  24.187  25.553  1.00  0.00    -0.463 OA
BRANCH   7   8
ATOM      8  C   UNL A   1      33.406  24.319  26.112  1.00  0.00     0.314 C 
ATOM      9  O   UNL A   1      33.041  23.546  26.986  1.00  0.00    -0.252 OA
BRANCH   8  10
ATOM     10  C   UNL A   1      32.552  25.490  25.527  1.00  0.00     0.089 C 
ATOM     11  C   UNL A   1      30.994  25.458  25.675  1.00  0.00     0.023 C 
ATOM     12  C   UNL A   1      32.807  25.420  23.997  1.00  0.00     0.138 C 
ATOM     13  C   UNL A   1      30.271  24.307  24.990  1.00  0.00     0.023 C 
ATOM     14  N   UNL A   1      32.142  24.247  23.391  1.00  0.00    -0.337 N 
ATOM     15  C   UNL A   1      30.686  24.182  23.535  1.00  0.00     0.120 C 
BRANCH  10  16
ATOM     16  C   UNL A   1      33.119  26.816  26.155  1.00  0.00     0.047 C 
BRANCH  16  17
ATOM     17  C   UNL A   1      32.220  28.033  26.126  1.00  0.00    -0.034 C 
ATOM     18  C   UNL A   1      31.791  28.671  27.226  1.00  0.00     0.004 C 
ENDBRANCH  16  17
ENDBRANCH  10  16
BRANCH  14  19
ATOM     19  C   UNL A   1      32.917  23.259  22.766  1.00  0.00     0.254 C 
ATOM     20  O   UNL A   1      33.800  23.467  21.941  1.00  0.00    -0.269 OA
BRANCH  19  21
ATOM     21  C   UNL A   1      32.571  21.859  23.057  1.00  0.00     0.043 A 
ATOM     22  C   UNL A   1      32.146  20.972  22.044  1.00  0.00     0.018 A 
ATOM     23  C   UNL A   1      32.831  21.423  24.359  1.00  0.00     0.064 A 
ATOM     24  C   UNL A   1      32.030  19.605  22.329  1.00  0.00     0.051 A 
ATOM     25  C   UNL A   1      32.754  20.074  24.586  1.00  0.00     0.166 A 
ATOM     26  C   UNL A   1      32.374  19.187  23.601  1.00  0.00     0.165 A 
ATOM     27  O   UNL A   1      33.104  19.455  25.744  1.00  0.00    -0.454 OA
ATOM     28  O   UNL A   1      32.440  17.897  24.032  1.00  0.00    -0.454 OA
ATOM     29  C   UNL A   1      33.083  18.081  25.314  1.00  0.00     0.468 C 
ENDBRANCH  19  21
ENDBRANCH  14  19
ENDBRANCH   8  10
ENDBRANCH   7   8
ENDBRANCH   6   7
ENDBRANCH   5   6
ENDBRANCH   4   5
ENDBRANCH   3   4
ENDBRANCH   2   3
ENDBRANCH   1   2
BRANCH   1  30
ATOM     30  C   UNL A   1      41.462  19.513  25.830  1.00  0.00     0.188 C 
BRANCH  30  31
ATOM     31  C   UNL A   1      42.637  18.738  26.450  1.00  0.00     0.188 C 
BRANCH  31  32
ATOM     32  O   UNL A   1      43.657  18.408  25.515  1.00  0.00    -0.376 OA
BRANCH  32  33
ATOM     33  C   UNL A   1      44.847  19.180  25.527  1.00  0.00     0.202 C 
BRANCH  33  34
ATOM     34  C   UNL A   1      44.891  20.497  24.731  1.00  0.00     0.261 C 
BRANCH  34  35
ATOM     35  O   UNL A   1      44.478  21.686  25.418  1.00  0.00    -0.460 OA
BRANCH  35  36
ATOM     36  C   UNL A   1      43.994  22.709  24.686  1.00  0.00     0.338 C 
ATOM     37  O   UNL A   1      43.804  22.736  23.482  1.00  0.00    -0.246 OA
BRANCH  36  38
ATOM     38  C   UNL A   1      43.533  23.740  25.640  1.00  0.00     0.060 A 
ATOM     39  C   UNL A   1      43.740  25.093  25.333  1.00  0.00     0.016 A 
ATOM     40  C   UNL A   1      42.844  23.374  26.798  1.00  0.00     0.016 A 
ATOM     41  C   UNL A   1      43.259  26.084  26.187  1.00  0.00     0.010 A 
ATOM     42  C   UNL A   1      42.404  24.366  27.677  1.00  0.00     0.010 A 
ATOM     43  C   UNL A   1      42.634  25.722  27.385  1.00  0.00    -0.014 A 
BRANCH  43  44
ATOM     44  C   UNL A   1      42.449  26.743  28.441  1.00  0.00     0.031 A 
ATOM     45  C   UNL A   1      43.493  26.822  29.520  1.00  0.00     0.074 A 
ATOM     46  C   UNL A   1      41.409  27.595  28.433  1.00  0.00     0.049 A 
ATOM     47  N   UNL A   1      43.542  27.584  30.580  1.00  0.00    -0.248 NA
ATOM     48  C   UNL A   1      44.641  25.910  29.380  1.00  0.00     0.031 C 
ATOM     49  C   UNL A   1      40.370  27.653  27.409  1.00  0.00     0.029 A 
ATOM     50  N   UNL A   1      41.057  28.574  29.329  1.00  0.00    -0.354 N 
ATOM     51  C   UNL A   1      44.717  27.240  31.234  1.00  0.00     0.074 A 
ATOM     52  C   UNL A   1      45.340  26.183  30.470  1.00  0.00     0.031 C 
ATOM     53  C   UNL A   1      39.489  28.614  27.739  1.00  0.00     0.029 A 
ATOM     54  C   UNL A   1      39.883  29.210  29.015  1.00  0.00     0.049 A 
ATOM     55  H   UNL A   1      41.598  28.797  30.122  1.00  0.00     0.167 HD
ATOM     56  C   UNL A   1      45.233  27.764  32.369  1.00  0.00     0.037 A 
ATOM     57  C   UNL A   1      39.200  30.150  29.699  1.00  0.00     0.037 A 
ATOM     58  C   UNL A   1      44.606  28.811  33.128  1.00  0.00     0.049 A 
ATOM     59  C   UNL A   1      39.749  30.650  31.013  1.00  0.00     0.074 A 
ATOM     60  C   UNL A   1      45.049  29.417  34.289  1.00  0.00     0.029 A 
ATOM     61  N   UNL A   1      43.391  29.399  32.805  1.00  0.00    -0.354 N 
ATOM     62  N   UNL A   1      40.869  30.334  31.620  1.00  0.00    -0.248 NA
ATOM     63  C   UNL A   1      38.939  31.641  31.737  1.00  0.00     0.031 C 
ATOM     64  C   UNL A   1      44.074  30.330  34.702  1.00  0.00     0.029 A 
ATOM     65  C   UNL A   1      43.055  30.342  33.762  1.00  0.00     0.049 A 
ATOM     66  H   UNL A   1      42.849  29.178  32.014  1.00  0.00     0.167 HD
ATOM     67  C   UNL A   1      40.914  31.110  32.772  1.00  0.00     0.074 A 
ATOM     68  C   UNL A   1      39.714  31.920  32.774  1.00  0.00     0.031 C 
ATOM     69  C   UNL A   1      41.863  31.151  33.740  1.00  0.00     0.037 A 
BRANCH  56  70
ATOM     70  C   UNL A   1      46.521  27.186  32.878  1.00  0.00     0.064 A 
ATOM     71  C   UNL A   1      47.765  27.746  32.550  1.00  0.00     0.173 A 
ATOM     72  C   UNL A   1      46.506  26.075  33.733  1.00  0.00     0.173 A 
ATOM     73  F   UNL A   1      47.835  28.797  31.719  1.00  0.00    -0.203 F 
ATOM     74  C   UNL A   1      48.947  27.203  33.045  1.00  0.00     0.198 A 
ATOM     75  C   UNL A   1      47.688  25.554  34.252  1.00  0.00     0.198 A 
ATOM     76  F   UNL A   1      45.344  25.499  34.076  1.00  0.00    -0.203 F 
ATOM     77  F   UNL A   1      50.127  27.726  32.682  1.00  0.00    -0.200 F 
ATOM     78  C   UNL A   1      48.908  26.114  33.903  1.00  0.00     0.200 A 
ATOM     79  F   UNL A   1      47.647  24.509  35.090  1.00  0.00    -0.200 F 
ATOM     80  F   UNL A   1      50.046  25.599  34.388  1.00  0.00    -0.200 F 
ENDBRANCH  56  70
BRANCH  57  81
ATOM     81  C   UNL A   1      37.912  30.677  29.170  1.00  0.00     0.064 A 
ATOM     82  C   UNL A   1      36.799  29.839  29.013  1.00  0.00     0.173 A 
ATOM     83  C   UNL A   1      37.778  32.017  28.777  1.00  0.00     0.173 A 
ATOM     84  F   UNL A   1      36.884  28.543  29.346  1.00  0.00    -0.203 F 
ATOM     85  C   UNL A   1      35.610  30.314  28.463  1.00  0.00     0.198 A 
ATOM     86  C   UNL A   1      36.578  32.499  28.256  1.00  0.00     0.198 A 
ATOM     87  F   UNL A   1      38.813  32.861  28.898  1.00  0.00    -0.203 F 
ATOM     88  F   UNL A   1      34.580  29.478  28.273  1.00  0.00    -0.200 F 
ATOM     89  C   UNL A   1      35.498  31.646  28.091  1.00  0.00     0.200 A 
ATOM     90  F   UNL A   1      36.472  33.789  27.908  1.00  0.00    -0.200 F 
ATOM     91  F   UNL A   1      34.354  32.102  27.562  1.00  0.00    -0.200 F 
ENDBRANCH  57  81
BRANCH  69  92
ATOM     92  C   UNL A   1      41.676  32.137  34.858  1.00  0.00     0.064 A 
ATOM     93  C   UNL A   1      42.143  33.457  34.768  1.00  0.00     0.173 A 
ATOM     94  C   UNL A   1      40.972  31.768  36.016  1.00  0.00     0.173 A 
ATOM     95  F   UNL A   1      42.831  33.858  33.689  1.00  0.00    -0.203 F 
ATOM     96  C   UNL A   1      41.935  34.362  35.808  1.00  0.00     0.198 A 
ATOM     97  C   UNL A   1      40.734  32.685  37.035  1.00  0.00     0.198 A 
ATOM     98  F   UNL A   1      40.494  30.522  36.147  1.00  0.00    -0.203 F 
ATOM     99  F   UNL A   1      42.432  35.603  35.722  1.00  0.00    -0.200 F 
ATOM    100  C   UNL A   1      41.223  33.978  36.934  1.00  0.00     0.200 A 
ATOM    101  F   UNL A   1      40.029  32.317  38.114  1.00  0.00    -0.200 F 
ATOM    102  F   UNL A   1      41.013  34.853  37.927  1.00  0.00    -0.200 F 
ENDBRANCH  69  92
ENDBRANCH  43  44
ENDBRANCH  36  38
ENDBRANCH  35  36
ENDBRANCH  34  35
ENDBRANCH  33  34
ENDBRANCH  32  33
ENDBRANCH  31  32
ENDBRANCH  30  31
ENDBRANCH   1  30
TORSDOF 24
ENDMDL
