MODEL 1
REMARK VINA RESULT:      -9.2      0.000      0.000
REMARK SMILES CCC(CC)C[N@H+]1[C@@H]2CC[C@H]1C[C@H](CC(=O)OCCOCCOCCOCCOC(=O)c1ccc(-c3c4nc(c(-c5c(F)c(F)c(F)c(F)c5F)c5ccc([nH]5)c(-c5c(F)c(F)c(F)c(F)c5F)c5nc(c(-c6c(F)c(F)c(F)c(F)c6F)c6ccc3[nH]6)C=C5)C=C4)cc1)C2
REMARK SMILES IDX 22 1 21 2 20 3 19 4 18 5 17 6 15 7 16 8 14 9 13 10 7 11 8 12
REMARK SMILES IDX 11 13 9 15 95 16 10 17 12 18 6 19 3 20 2 21 1 22 4 23 5 24
REMARK SMILES IDX 23 25 24 26 25 27 26 28 27 29 28 30 29 31 30 32 31 33 32 34
REMARK SMILES IDX 33 35 94 36 34 37 93 38 35 39 36 40 37 41 87 42 38 43 92 44
REMARK SMILES IDX 86 45 88 46 39 47 91 48 85 49 84 50 40 52 72 53 52 54 71 55
REMARK SMILES IDX 53 56 56 57 70 58 89 59 54 60 55 61 69 63 90 64 57 65 41 66
REMARK SMILES IDX 42 67 50 68 43 69 44 70 48 71 51 72 45 73 46 74 49 75 47 76
REMARK SMILES IDX 73 77 74 78 82 79 75 80 76 81 80 82 83 83 77 84 78 85 81 86
REMARK SMILES IDX 79 87 58 88 59 89 67 90 60 91 61 92 65 93 68 94 62 95 63 96
REMARK SMILES IDX 66 97 64 98
REMARK H PARENT 7 14 88 51 56 62
REMARK Flexibility Score: inf
ROOT
ATOM      1  C   UNL A   1      37.801  22.289  25.422  1.00  0.00     0.188 C 
ENDROOT
BRANCH   1   2
ATOM      2  C   UNL A   1      37.306  23.681  25.823  1.00  0.00     0.188 C 
BRANCH   2   3
ATOM      3  O   UNL A   1      36.012  23.995  25.365  1.00  0.00    -0.376 OA
BRANCH   3   4
ATOM      4  C   UNL A   1      35.300  23.092  24.536  1.00  0.00     0.202 C 
BRANCH   4   5
ATOM      5  C   UNL A   1      34.846  23.381  23.091  1.00  0.00     0.261 C 
BRANCH   5   6
ATOM      6  O   UNL A   1      33.506  23.848  22.905  1.00  0.00    -0.463 OA
BRANCH   6   7
ATOM      7  C   UNL A   1      33.390  25.180  22.680  1.00  0.00     0.306 C 
ATOM      8  O   UNL A   1      34.154  26.028  23.130  1.00  0.00    -0.252 OA
BRANCH   7   9
ATOM      9  C   UNL A   1      32.289  25.575  21.730  1.00  0.00     0.126 C 
BRANCH   9  10
ATOM     10  C   UNL A   1      30.924  26.065  22.232  1.00  0.00     0.012 C 
ATOM     11  N   UNL A   1      30.342  27.671  24.611  1.00  0.00    -0.330 N 
ATOM     12  C   UNL A   1      30.121  28.294  23.301  1.00  0.00     0.184 C 
ATOM     13  C   UNL A   1      29.663  26.364  24.454  1.00  0.00     0.184 C 
ATOM     14  H   UNL A   1      29.971  28.260  25.356  1.00  0.00     0.348 HD
ATOM     15  C   UNL A   1      28.620  28.086  23.108  1.00  0.00     0.071 C 
ATOM     16  C   UNL A   1      30.924  27.610  22.192  1.00  0.00     0.069 C 
ATOM     17  C   UNL A   1      28.335  26.750  23.779  1.00  0.00     0.071 C 
ATOM     18  C   UNL A   1      30.464  25.406  23.548  1.00  0.00     0.069 C 
BRANCH  11  19
ATOM     19  C   UNL A   1      31.731  27.561  25.090  1.00  0.00     0.266 C 
BRANCH  19  20
ATOM     20  C   UNL A   1      31.965  26.890  26.467  1.00  0.00     0.044 C 
BRANCH  20  21
ATOM     21  C   UNL A   1      32.973  25.739  26.394  1.00  0.00     0.006 C 
ATOM     22  C   UNL A   1      32.272  24.388  26.488  1.00  0.00     0.004 C 
ENDBRANCH  20  21
BRANCH  20  23
ATOM     23  C   UNL A   1      32.261  27.952  27.552  1.00  0.00     0.006 C 
ATOM     24  C   UNL A   1      33.024  29.181  27.089  1.00  0.00     0.004 C 
ENDBRANCH  20  23
ENDBRANCH  19  20
ENDBRANCH  11  19
ENDBRANCH   9  10
ENDBRANCH   7   9
ENDBRANCH   6   7
ENDBRANCH   5   6
ENDBRANCH   4   5
ENDBRANCH   3   4
ENDBRANCH   2   3
ENDBRANCH   1   2
BRANCH   1  25
ATOM     25  O   UNL A   1      38.817  21.666  26.197  1.00  0.00    -0.377 OA
BRANCH  25  26
ATOM     26  C   UNL A   1      40.045  22.315  26.474  1.00  0.00     0.188 C 
BRANCH  26  27
ATOM     27  C   UNL A   1      41.078  21.618  27.370  1.00  0.00     0.188 C 
BRANCH  27  28
ATOM     28  O   UNL A   1      40.867  20.230  27.542  1.00  0.00    -0.376 OA
BRANCH  28  29
ATOM     29  C   UNL A   1      41.101  19.365  26.441  1.00  0.00     0.202 C 
BRANCH  29  30
ATOM     30  C   UNL A   1      42.554  19.081  26.028  1.00  0.00     0.261 C 
BRANCH  30  31
ATOM     31  O   UNL A   1      42.992  19.660  24.785  1.00  0.00    -0.460 OA
BRANCH  31  32
ATOM     32  C   UNL A   1      44.317  19.685  24.530  1.00  0.00     0.338 C 
ATOM     33  O   UNL A   1      44.996  18.820  24.019  1.00  0.00    -0.246 OA
BRANCH  32  34
ATOM     34  C   UNL A   1      44.805  21.045  24.830  1.00  0.00     0.060 A 
ATOM     35  C   UNL A   1      45.388  21.294  26.079  1.00  0.00     0.016 A 
ATOM     36  C   UNL A   1      44.637  22.077  23.905  1.00  0.00     0.016 A 
ATOM     37  C   UNL A   1      45.758  22.591  26.428  1.00  0.00     0.010 A 
ATOM     38  C   UNL A   1      44.989  23.379  24.263  1.00  0.00     0.010 A 
ATOM     39  C   UNL A   1      45.509  23.648  25.543  1.00  0.00    -0.014 A 
BRANCH  39  40
ATOM     40  C   UNL A   1      45.580  25.041  26.042  1.00  0.00     0.031 A 
ATOM     41  C   UNL A   1      46.903  25.756  25.976  1.00  0.00     0.074 A 
ATOM     42  C   UNL A   1      44.490  25.679  26.499  1.00  0.00     0.049 A 
ATOM     43  N   UNL A   1      47.223  26.961  26.370  1.00  0.00    -0.248 NA
ATOM     44  C   UNL A   1      48.019  25.002  25.381  1.00  0.00     0.031 C 
ATOM     45  C   UNL A   1      43.144  25.115  26.560  1.00  0.00     0.029 A 
ATOM     46  N   UNL A   1      44.347  26.950  26.999  1.00  0.00    -0.354 N 
ATOM     47  C   UNL A   1      48.573  27.109  26.077  1.00  0.00     0.074 A 
ATOM     48  C   UNL A   1      49.022  25.857  25.508  1.00  0.00     0.031 C 
ATOM     49  C   UNL A   1      42.310  26.035  27.077  1.00  0.00     0.029 A 
ATOM     50  C   UNL A   1      43.071  27.237  27.414  1.00  0.00     0.049 A 
ATOM     51  H   UNL A   1      45.091  27.593  27.057  1.00  0.00     0.167 HD
ATOM     52  C   UNL A   1      49.364  28.194  26.253  1.00  0.00     0.037 A 
ATOM     53  C   UNL A   1      42.583  28.340  28.016  1.00  0.00     0.037 A 
ATOM     54  C   UNL A   1      48.914  29.434  26.827  1.00  0.00     0.049 A 
ATOM     55  C   UNL A   1      43.507  29.502  28.288  1.00  0.00     0.074 A 
ATOM     56  C   UNL A   1      49.635  30.594  27.051  1.00  0.00     0.029 A 
ATOM     57  N   UNL A   1      47.624  29.672  27.278  1.00  0.00    -0.354 N 
ATOM     58  N   UNL A   1      44.777  29.641  27.994  1.00  0.00    -0.248 NA
ATOM     59  C   UNL A   1      42.922  30.665  28.972  1.00  0.00     0.031 C 
ATOM     60  C   UNL A   1      48.798  31.511  27.694  1.00  0.00     0.029 A 
ATOM     61  C   UNL A   1      47.535  30.951  27.804  1.00  0.00     0.049 A 
ATOM     62  H   UNL A   1      46.881  29.028  27.232  1.00  0.00     0.167 HD
ATOM     63  C   UNL A   1      45.133  30.916  28.419  1.00  0.00     0.074 A 
ATOM     64  C   UNL A   1      43.939  31.513  28.982  1.00  0.00     0.031 C 
ATOM     65  C   UNL A   1      46.337  31.538  28.348  1.00  0.00     0.037 A 
BRANCH  52  66
ATOM     66  C   UNL A   1      50.806  28.069  25.850  1.00  0.00     0.064 A 
ATOM     67  C   UNL A   1      51.824  27.854  26.791  1.00  0.00     0.173 A 
ATOM     68  C   UNL A   1      51.174  28.153  24.498  1.00  0.00     0.173 A 
ATOM     69  F   UNL A   1      51.531  27.781  28.098  1.00  0.00    -0.203 F 
ATOM     70  C   UNL A   1      53.158  27.762  26.398  1.00  0.00     0.198 A 
ATOM     71  C   UNL A   1      52.503  28.024  24.105  1.00  0.00     0.198 A 
ATOM     72  F   UNL A   1      50.241  28.355  23.554  1.00  0.00    -0.203 F 
ATOM     73  F   UNL A   1      54.118  27.617  27.322  1.00  0.00    -0.200 F 
ATOM     74  C   UNL A   1      53.495  27.840  25.056  1.00  0.00     0.200 A 
ATOM     75  F   UNL A   1      52.824  28.086  22.806  1.00  0.00    -0.200 F 
ATOM     76  F   UNL A   1      54.777  27.747  24.679  1.00  0.00    -0.200 F 
ENDBRANCH  52  66
BRANCH  53  77
ATOM     77  C   UNL A   1      41.149  28.406  28.408  1.00  0.00     0.064 A 
ATOM     78  C   UNL A   1      40.183  28.923  27.535  1.00  0.00     0.173 A 
ATOM     79  C   UNL A   1      40.721  27.982  29.675  1.00  0.00     0.173 A 
ATOM     80  F   UNL A   1      40.544  29.366  26.322  1.00  0.00    -0.203 F 
ATOM     81  C   UNL A   1      38.849  29.036  27.923  1.00  0.00     0.198 A 
ATOM     82  C   UNL A   1      39.382  28.064  30.049  1.00  0.00     0.198 A 
ATOM     83  F   UNL A   1      41.605  27.480  30.551  1.00  0.00    -0.203 F 
ATOM     84  F   UNL A   1      37.956  29.588  27.089  1.00  0.00    -0.200 F 
ATOM     85  C   UNL A   1      38.448  28.601  29.176  1.00  0.00     0.200 A 
ATOM     86  F   UNL A   1      38.998  27.630  31.257  1.00  0.00    -0.200 F 
ATOM     87  F   UNL A   1      37.165  28.709  29.548  1.00  0.00    -0.200 F 
ENDBRANCH  53  77
BRANCH  65  88
ATOM     88  C   UNL A   1      46.413  32.959  28.836  1.00  0.00     0.064 A 
ATOM     89  C   UNL A   1      46.162  34.052  27.992  1.00  0.00     0.173 A 
ATOM     90  C   UNL A   1      46.712  33.228  30.183  1.00  0.00     0.173 A 
ATOM     91  F   UNL A   1      45.884  33.853  26.695  1.00  0.00    -0.203 F 
ATOM     92  C   UNL A   1      46.243  35.358  28.468  1.00  0.00     0.198 A 
ATOM     93  C   UNL A   1      46.753  34.534  30.662  1.00  0.00     0.198 A 
ATOM     94  F   UNL A   1      46.950  32.222  31.037  1.00  0.00    -0.203 F 
ATOM     95  F   UNL A   1      46.059  36.387  27.629  1.00  0.00    -0.200 F 
ATOM     96  C   UNL A   1      46.531  35.598  29.804  1.00  0.00     0.200 A 
ATOM     97  F   UNL A   1      47.012  34.761  31.958  1.00  0.00    -0.200 F 
ATOM     98  F   UNL A   1      46.602  36.856  30.260  1.00  0.00    -0.200 F 
ENDBRANCH  65  88
ENDBRANCH  39  40
ENDBRANCH  32  34
ENDBRANCH  31  32
ENDBRANCH  30  31
ENDBRANCH  29  30
ENDBRANCH  28  29
ENDBRANCH  27  28
ENDBRANCH  26  27
ENDBRANCH  25  26
ENDBRANCH   1  25
TORSDOF 25
ENDMDL
MODEL 2
REMARK VINA RESULT:      -9.1      5.086      6.942
REMARK SMILES CCC(CC)C[N@H+]1[C@@H]2CC[C@H]1C[C@H](CC(=O)OCCOCCOCCOCCOC(=O)c1ccc(-c3c4nc(c(-c5c(F)c(F)c(F)c(F)c5F)c5ccc([nH]5)c(-c5c(F)c(F)c(F)c(F)c5F)c5nc(c(-c6c(F)c(F)c(F)c(F)c6F)c6ccc3[nH]6)C=C5)C=C4)cc1)C2
REMARK SMILES IDX 22 1 21 2 20 3 19 4 18 5 17 6 15 7 16 8 14 9 13 10 7 11 8 12
REMARK SMILES IDX 11 13 9 15 95 16 10 17 12 18 6 19 3 20 2 21 1 22 4 23 5 24
REMARK SMILES IDX 23 25 24 26 25 27 26 28 27 29 28 30 29 31 30 32 31 33 32 34
REMARK SMILES IDX 33 35 94 36 34 37 93 38 35 39 36 40 37 41 87 42 38 43 92 44
REMARK SMILES IDX 86 45 88 46 39 47 91 48 85 49 84 50 40 52 72 53 52 54 71 55
REMARK SMILES IDX 53 56 56 57 70 58 89 59 54 60 55 61 69 63 90 64 57 65 41 66
REMARK SMILES IDX 42 67 50 68 43 69 44 70 48 71 51 72 45 73 46 74 49 75 47 76
REMARK SMILES IDX 73 77 74 78 82 79 75 80 76 81 80 82 83 83 77 84 78 85 81 86
REMARK SMILES IDX 79 87 58 88 59 89 67 90 60 91 61 92 65 93 68 94 62 95 63 96
REMARK SMILES IDX 66 97 64 98
REMARK H PARENT 7 14 88 51 56 62
REMARK Flexibility Score: inf
ROOT
ATOM      1  C   UNL A   1      37.579  22.625  25.506  1.00  0.00     0.188 C 
ENDROOT
BRANCH   1   2
ATOM      2  C   UNL A   1      36.184  22.890  26.080  1.00  0.00     0.188 C 
BRANCH   2   3
ATOM      3  O   UNL A   1      35.485  21.733  26.473  1.00  0.00    -0.376 OA
BRANCH   3   4
ATOM      4  C   UNL A   1      34.703  21.007  25.538  1.00  0.00     0.202 C 
BRANCH   4   5
ATOM      5  C   UNL A   1      33.965  21.622  24.331  1.00  0.00     0.261 C 
BRANCH   5   6
ATOM      6  O   UNL A   1      32.534  21.655  24.386  1.00  0.00    -0.463 OA
BRANCH   6   7
ATOM      7  C   UNL A   1      32.015  22.565  25.246  1.00  0.00     0.306 C 
ATOM      8  O   UNL A   1      31.201  22.301  26.126  1.00  0.00    -0.252 OA
BRANCH   7   9
ATOM      9  C   UNL A   1      32.585  23.954  25.128  1.00  0.00     0.126 C 
BRANCH   9  10
ATOM     10  C   UNL A   1      32.764  24.644  23.769  1.00  0.00     0.012 C 
ATOM     11  N   UNL A   1      31.774  27.268  22.928  1.00  0.00    -0.330 N 
ATOM     12  C   UNL A   1      33.225  27.106  23.073  1.00  0.00     0.184 C 
ATOM     13  C   UNL A   1      31.404  26.080  22.124  1.00  0.00     0.184 C 
ATOM     14  H   UNL A   1      31.555  28.164  22.494  1.00  0.00     0.348 HD
ATOM     15  C   UNL A   1      33.653  26.835  21.632  1.00  0.00     0.071 C 
ATOM     16  C   UNL A   1      33.586  25.933  23.990  1.00  0.00     0.069 C 
ATOM     17  C   UNL A   1      32.488  26.058  21.032  1.00  0.00     0.071 C 
ATOM     18  C   UNL A   1      31.460  24.783  22.958  1.00  0.00     0.069 C 
BRANCH  11  19
ATOM     19  C   UNL A   1      30.976  27.421  24.158  1.00  0.00     0.266 C 
BRANCH  19  20
ATOM     20  C   UNL A   1      30.633  28.861  24.617  1.00  0.00     0.044 C 
BRANCH  20  21
ATOM     21  C   UNL A   1      31.835  29.578  25.240  1.00  0.00     0.006 C 
ATOM     22  C   UNL A   1      31.404  30.859  25.947  1.00  0.00     0.004 C 
ENDBRANCH  20  21
BRANCH  20  23
ATOM     23  C   UNL A   1      29.918  29.641  23.488  1.00  0.00     0.006 C 
ATOM     24  C   UNL A   1      28.592  29.066  23.021  1.00  0.00     0.004 C 
ENDBRANCH  20  23
ENDBRANCH  19  20
ENDBRANCH  11  19
ENDBRANCH   9  10
ENDBRANCH   7   9
ENDBRANCH   6   7
ENDBRANCH   5   6
ENDBRANCH   4   5
ENDBRANCH   3   4
ENDBRANCH   2   3
ENDBRANCH   1   2
BRANCH   1  25
ATOM     25  O   UNL A   1      38.220  21.389  25.792  1.00  0.00    -0.377 OA
BRANCH  25  26
ATOM     26  C   UNL A   1      39.597  21.323  26.119  1.00  0.00     0.188 C 
BRANCH  26  27
ATOM     27  C   UNL A   1      40.301  19.959  26.132  1.00  0.00     0.188 C 
BRANCH  27  28
ATOM     28  O   UNL A   1      41.497  19.905  25.380  1.00  0.00    -0.376 OA
BRANCH  28  29
ATOM     29  C   UNL A   1      42.736  19.868  26.073  1.00  0.00     0.202 C 
BRANCH  29  30
ATOM     30  C   UNL A   1      43.911  20.688  25.517  1.00  0.00     0.261 C 
BRANCH  30  31
ATOM     31  O   UNL A   1      43.991  22.062  25.940  1.00  0.00    -0.460 OA
BRANCH  31  32
ATOM     32  C   UNL A   1      43.529  23.011  25.100  1.00  0.00     0.338 C 
ATOM     33  O   UNL A   1      43.509  22.990  23.888  1.00  0.00    -0.246 OA
BRANCH  32  34
ATOM     34  C   UNL A   1      42.875  24.052  25.916  1.00  0.00     0.060 A 
ATOM     35  C   UNL A   1      43.352  25.366  25.846  1.00  0.00     0.016 A 
ATOM     36  C   UNL A   1      41.835  23.718  26.786  1.00  0.00     0.016 A 
ATOM     37  C   UNL A   1      42.825  26.345  26.686  1.00  0.00     0.010 A 
ATOM     38  C   UNL A   1      41.320  24.695  27.641  1.00  0.00     0.010 A 
ATOM     39  C   UNL A   1      41.845  26.001  27.625  1.00  0.00    -0.014 A 
BRANCH  39  40
ATOM     40  C   UNL A   1      41.539  26.941  28.730  1.00  0.00     0.031 A 
ATOM     41  C   UNL A   1      42.424  26.921  29.947  1.00  0.00     0.074 A 
ATOM     42  C   UNL A   1      40.533  27.827  28.639  1.00  0.00     0.049 A 
ATOM     43  N   UNL A   1      42.347  27.624  31.048  1.00  0.00    -0.248 NA
ATOM     44  C   UNL A   1      43.551  25.974  29.916  1.00  0.00     0.031 C 
ATOM     45  C   UNL A   1      39.644  27.982  27.491  1.00  0.00     0.029 A 
ATOM     46  N   UNL A   1      40.093  28.766  29.538  1.00  0.00    -0.354 N 
ATOM     47  C   UNL A   1      43.408  27.203  31.839  1.00  0.00     0.074 A 
ATOM     48  C   UNL A   1      44.091  26.156  31.111  1.00  0.00     0.031 C 
ATOM     49  C   UNL A   1      38.756  28.956  27.756  1.00  0.00     0.029 A 
ATOM     50  C   UNL A   1      38.994  29.467  29.106  1.00  0.00     0.049 A 
ATOM     51  H   UNL A   1      40.523  28.921  30.410  1.00  0.00     0.167 HD
ATOM     52  C   UNL A   1      43.788  27.657  33.057  1.00  0.00     0.037 A 
ATOM     53  C   UNL A   1      38.257  30.400  29.741  1.00  0.00     0.037 A 
ATOM     54  C   UNL A   1      43.100  28.693  33.781  1.00  0.00     0.049 A 
ATOM     55  C   UNL A   1      38.645  30.822  31.136  1.00  0.00     0.074 A 
ATOM     56  C   UNL A   1      43.402  29.226  35.022  1.00  0.00     0.029 A 
ATOM     57  N   UNL A   1      41.963  29.348  33.330  1.00  0.00    -0.354 N 
ATOM     58  N   UNL A   1      39.658  30.432  31.873  1.00  0.00    -0.248 NA
ATOM     59  C   UNL A   1      37.784  31.821  31.787  1.00  0.00     0.031 C 
ATOM     60  C   UNL A   1      42.412  30.158  35.350  1.00  0.00     0.029 A 
ATOM     61  C   UNL A   1      41.535  30.261  34.282  1.00  0.00     0.049 A 
ATOM     62  H   UNL A   1      41.525  29.189  32.464  1.00  0.00     0.167 HD
ATOM     63  C   UNL A   1      39.580  31.165  33.052  1.00  0.00     0.074 A 
ATOM     64  C   UNL A   1      38.426  32.031  32.927  1.00  0.00     0.031 C 
ATOM     65  C   UNL A   1      40.392  31.127  34.138  1.00  0.00     0.037 A 
BRANCH  52  66
ATOM     66  C   UNL A   1      44.983  27.007  33.694  1.00  0.00     0.064 A 
ATOM     67  C   UNL A   1      46.274  27.540  33.566  1.00  0.00     0.173 A 
ATOM     68  C   UNL A   1      44.832  25.838  34.457  1.00  0.00     0.173 A 
ATOM     69  F   UNL A   1      46.478  28.647  32.836  1.00  0.00    -0.203 F 
ATOM     70  C   UNL A   1      47.373  26.910  34.147  1.00  0.00     0.198 A 
ATOM     71  C   UNL A   1      45.926  25.231  35.066  1.00  0.00     0.198 A 
ATOM     72  F   UNL A   1      43.620  25.285  34.615  1.00  0.00    -0.203 F 
ATOM     73  F   UNL A   1      48.604  27.406  33.960  1.00  0.00    -0.200 F 
ATOM     74  C   UNL A   1      47.197  25.761  34.902  1.00  0.00     0.200 A 
ATOM     75  F   UNL A   1      45.752  24.128  35.807  1.00  0.00    -0.200 F 
ATOM     76  F   UNL A   1      48.253  25.158  35.464  1.00  0.00    -0.200 F 
ENDBRANCH  52  66
BRANCH  53  77
ATOM     77  C   UNL A   1      37.074  31.001  29.069  1.00  0.00     0.064 A 
ATOM     78  C   UNL A   1      37.070  32.346  28.677  1.00  0.00     0.173 A 
ATOM     79  C   UNL A   1      35.910  30.252  28.836  1.00  0.00     0.173 A 
ATOM     80  F   UNL A   1      38.147  33.113  28.901  1.00  0.00    -0.203 F 
ATOM     81  C   UNL A   1      35.941  32.925  28.099  1.00  0.00     0.198 A 
ATOM     82  C   UNL A   1      34.794  30.822  28.227  1.00  0.00     0.198 A 
ATOM     83  F   UNL A   1      35.858  28.960  29.194  1.00  0.00    -0.203 F 
ATOM     84  F   UNL A   1      35.946  34.228  27.785  1.00  0.00    -0.200 F 
ATOM     85  C   UNL A   1      34.807  32.162  27.869  1.00  0.00     0.200 A 
ATOM     86  F   UNL A   1      33.706  30.077  27.996  1.00  0.00    -0.200 F 
ATOM     87  F   UNL A   1      33.723  32.718  27.311  1.00  0.00    -0.200 F 
ENDBRANCH  53  77
BRANCH  65  88
ATOM     88  C   UNL A   1      40.100  32.091  35.256  1.00  0.00     0.064 A 
ATOM     89  C   UNL A   1      40.755  33.327  35.366  1.00  0.00     0.173 A 
ATOM     90  C   UNL A   1      39.122  31.781  36.217  1.00  0.00     0.173 A 
ATOM     91  F   UNL A   1      41.705  33.667  34.483  1.00  0.00    -0.203 F 
ATOM     92  C   UNL A   1      40.468  34.199  36.413  1.00  0.00     0.198 A 
ATOM     93  C   UNL A   1      38.812  32.674  37.239  1.00  0.00     0.198 A 
ATOM     94  F   UNL A   1      38.457  30.618  36.155  1.00  0.00    -0.203 F 
ATOM     95  F   UNL A   1      41.150  35.347  36.531  1.00  0.00    -0.200 F 
ATOM     96  C   UNL A   1      39.492  33.876  37.344  1.00  0.00     0.200 A 
ATOM     97  F   UNL A   1      37.854  32.366  38.125  1.00  0.00    -0.200 F 
ATOM     98  F   UNL A   1      39.215  34.720  38.347  1.00  0.00    -0.200 F 
ENDBRANCH  65  88
ENDBRANCH  39  40
ENDBRANCH  32  34
ENDBRANCH  31  32
ENDBRANCH  30  31
ENDBRANCH  29  30
ENDBRANCH  28  29
ENDBRANCH  27  28
ENDBRANCH  26  27
ENDBRANCH  25  26
ENDBRANCH   1  25
TORSDOF 25
ENDMDL
MODEL 3
REMARK VINA RESULT:      -9.1      6.487     11.061
REMARK SMILES CCC(CC)C[N@H+]1[C@@H]2CC[C@H]1C[C@H](CC(=O)OCCOCCOCCOCCOC(=O)c1ccc(-c3c4nc(c(-c5c(F)c(F)c(F)c(F)c5F)c5ccc([nH]5)c(-c5c(F)c(F)c(F)c(F)c5F)c5nc(c(-c6c(F)c(F)c(F)c(F)c6F)c6ccc3[nH]6)C=C5)C=C4)cc1)C2
REMARK SMILES IDX 22 1 21 2 20 3 19 4 18 5 17 6 15 7 16 8 14 9 13 10 7 11 8 12
REMARK SMILES IDX 11 13 9 15 95 16 10 17 12 18 6 19 3 20 2 21 1 22 4 23 5 24
REMARK SMILES IDX 23 25 24 26 25 27 26 28 27 29 28 30 29 31 30 32 31 33 32 34
REMARK SMILES IDX 33 35 94 36 34 37 93 38 35 39 36 40 37 41 87 42 38 43 92 44
REMARK SMILES IDX 86 45 88 46 39 47 91 48 85 49 84 50 40 52 72 53 52 54 71 55
REMARK SMILES IDX 53 56 56 57 70 58 89 59 54 60 55 61 69 63 90 64 57 65 41 66
REMARK SMILES IDX 42 67 50 68 43 69 44 70 48 71 51 72 45 73 46 74 49 75 47 76
REMARK SMILES IDX 73 77 74 78 82 79 75 80 76 81 80 82 83 83 77 84 78 85 81 86
REMARK SMILES IDX 79 87 58 88 59 89 67 90 60 91 61 92 65 93 68 94 62 95 63 96
REMARK SMILES IDX 66 97 64 98
REMARK H PARENT 7 14 88 51 56 62
REMARK Flexibility Score: inf
ROOT
ATOM      1  C   UNL A   1      32.697  27.137  25.603  1.00  0.00     0.188 C 
ENDROOT
BRANCH   1   2
ATOM      2  C   UNL A   1      33.940  27.117  24.710  1.00  0.00     0.188 C 
BRANCH   2   3
ATOM      3  O   UNL A   1      34.016  28.181  23.790  1.00  0.00    -0.376 OA
BRANCH   3   4
ATOM      4  C   UNL A   1      34.046  27.929  22.395  1.00  0.00     0.202 C 
BRANCH   4   5
ATOM      5  C   UNL A   1      33.149  26.916  21.655  1.00  0.00     0.261 C 
BRANCH   5   6
ATOM      6  O   UNL A   1      33.588  25.554  21.623  1.00  0.00    -0.463 OA
BRANCH   6   7
ATOM      7  C   UNL A   1      32.817  24.687  22.324  1.00  0.00     0.306 C 
ATOM      8  O   UNL A   1      31.636  24.879  22.601  1.00  0.00    -0.252 OA
BRANCH   7   9
ATOM      9  C   UNL A   1      33.479  23.381  22.677  1.00  0.00     0.126 C 
BRANCH   9  10
ATOM     10  C   UNL A   1      33.873  23.036  24.119  1.00  0.00     0.012 C 
ATOM     11  N   UNL A   1      33.891  20.408  25.410  1.00  0.00    -0.330 N 
ATOM     12  C   UNL A   1      35.186  21.057  25.176  1.00  0.00     0.184 C 
ATOM     13  C   UNL A   1      33.102  21.497  26.030  1.00  0.00     0.184 C 
ATOM     14  H   UNL A   1      34.006  19.577  25.990  1.00  0.00     0.348 HD
ATOM     15  C   UNL A   1      35.463  21.696  26.536  1.00  0.00     0.071 C 
ATOM     16  C   UNL A   1      35.112  22.113  24.070  1.00  0.00     0.069 C 
ATOM     17  C   UNL A   1      34.086  22.088  27.055  1.00  0.00     0.071 C 
ATOM     18  C   UNL A   1      32.697  22.570  24.999  1.00  0.00     0.069 C 
BRANCH  11  19
ATOM     19  C   UNL A   1      33.225  19.777  24.257  1.00  0.00     0.266 C 
BRANCH  19  20
ATOM     20  C   UNL A   1      33.420  18.253  24.059  1.00  0.00     0.044 C 
BRANCH  20  21
ATOM     21  C   UNL A   1      33.302  17.473  25.372  1.00  0.00     0.006 C 
ATOM     22  C   UNL A   1      34.134  16.196  25.329  1.00  0.00     0.004 C 
ENDBRANCH  20  21
BRANCH  20  23
ATOM     23  C   UNL A   1      32.532  17.731  22.905  1.00  0.00     0.006 C 
ATOM     24  C   UNL A   1      32.334  18.680  21.737  1.00  0.00     0.004 C 
ENDBRANCH  20  23
ENDBRANCH  19  20
ENDBRANCH  11  19
ENDBRANCH   9  10
ENDBRANCH   7   9
ENDBRANCH   6   7
ENDBRANCH   5   6
ENDBRANCH   4   5
ENDBRANCH   3   4
ENDBRANCH   2   3
ENDBRANCH   1   2
BRANCH   1  25
ATOM     25  O   UNL A   1      31.672  28.086  25.340  1.00  0.00    -0.377 OA
BRANCH  25  26
ATOM     26  C   UNL A   1      31.363  29.123  26.255  1.00  0.00     0.188 C 
BRANCH  26  27
ATOM     27  C   UNL A   1      32.210  30.403  26.253  1.00  0.00     0.188 C 
BRANCH  27  28
ATOM     28  O   UNL A   1      33.583  30.202  26.525  1.00  0.00    -0.376 OA
BRANCH  28  29
ATOM     29  C   UNL A   1      34.284  31.194  27.261  1.00  0.00     0.202 C 
BRANCH  29  30
ATOM     30  C   UNL A   1      33.484  32.109  28.203  1.00  0.00     0.261 C 
BRANCH  30  31
ATOM     31  O   UNL A   1      33.183  33.428  27.712  1.00  0.00    -0.460 OA
BRANCH  31  32
ATOM     32  C   UNL A   1      33.284  34.463  28.572  1.00  0.00     0.338 C 
ATOM     33  O   UNL A   1      32.525  35.399  28.707  1.00  0.00    -0.246 OA
BRANCH  32  34
ATOM     34  C   UNL A   1      34.419  34.187  29.474  1.00  0.00     0.060 A 
ATOM     35  C   UNL A   1      35.723  34.322  28.982  1.00  0.00     0.016 A 
ATOM     36  C   UNL A   1      34.193  33.744  30.778  1.00  0.00     0.016 A 
ATOM     37  C   UNL A   1      36.808  33.963  29.778  1.00  0.00     0.010 A 
ATOM     38  C   UNL A   1      35.280  33.366  31.569  1.00  0.00     0.010 A 
ATOM     39  C   UNL A   1      36.589  33.431  31.055  1.00  0.00    -0.014 A 
BRANCH  39  40
ATOM     40  C   UNL A   1      37.699  32.740  31.752  1.00  0.00     0.031 A 
ATOM     41  C   UNL A   1      38.351  31.569  31.067  1.00  0.00     0.074 A 
ATOM     42  C   UNL A   1      38.155  33.168  32.941  1.00  0.00     0.049 A 
ATOM     43  N   UNL A   1      39.318  30.791  31.481  1.00  0.00    -0.248 NA
ATOM     44  C   UNL A   1      37.838  31.231  29.729  1.00  0.00     0.031 C 
ATOM     45  C   UNL A   1      37.645  34.322  33.677  1.00  0.00     0.029 A 
ATOM     46  N   UNL A   1      39.156  32.672  33.739  1.00  0.00    -0.354 N 
ATOM     47  C   UNL A   1      39.525  29.872  30.460  1.00  0.00     0.074 A 
ATOM     48  C   UNL A   1      38.558  30.162  29.425  1.00  0.00     0.031 C 
ATOM     49  C   UNL A   1      38.334  34.443  34.826  1.00  0.00     0.029 A 
ATOM     50  C   UNL A   1      39.307  33.356  34.920  1.00  0.00     0.049 A 
ATOM     51  H   UNL A   1      39.713  31.899  33.489  1.00  0.00     0.167 HD
ATOM     52  C   UNL A   1      40.448  28.883  30.386  1.00  0.00     0.037 A 
ATOM     53  C   UNL A   1      40.125  33.114  35.963  1.00  0.00     0.037 A 
ATOM     54  C   UNL A   1      41.403  28.592  31.422  1.00  0.00     0.049 A 
ATOM     55  C   UNL A   1      41.079  31.947  35.897  1.00  0.00     0.074 A 
ATOM     56  C   UNL A   1      42.379  27.612  31.448  1.00  0.00     0.029 A 
ATOM     57  N   UNL A   1      41.494  29.279  32.625  1.00  0.00    -0.354 N 
ATOM     58  N   UNL A   1      41.281  31.092  34.924  1.00  0.00    -0.248 NA
ATOM     59  C   UNL A   1      41.925  31.717  37.078  1.00  0.00     0.031 C 
ATOM     60  C   UNL A   1      43.018  27.664  32.690  1.00  0.00     0.029 A 
ATOM     61  C   UNL A   1      42.493  28.725  33.411  1.00  0.00     0.049 A 
ATOM     62  H   UNL A   1      40.933  30.045  32.883  1.00  0.00     0.167 HD
ATOM     63  C   UNL A   1      42.301  30.250  35.356  1.00  0.00     0.074 A 
ATOM     64  C   UNL A   1      42.682  30.707  36.677  1.00  0.00     0.031 C 
ATOM     65  C   UNL A   1      42.872  29.198  34.718  1.00  0.00     0.037 A 
BRANCH  52  66
ATOM     66  C   UNL A   1      40.440  28.023  29.154  1.00  0.00     0.064 A 
ATOM     67  C   UNL A   1      41.212  28.335  28.025  1.00  0.00     0.173 A 
ATOM     68  C   UNL A   1      39.657  26.859  29.107  1.00  0.00     0.173 A 
ATOM     69  F   UNL A   1      41.967  29.445  28.010  1.00  0.00    -0.203 F 
ATOM     70  C   UNL A   1      41.174  27.536  26.885  1.00  0.00     0.198 A 
ATOM     71  C   UNL A   1      39.649  26.042  27.980  1.00  0.00     0.198 A 
ATOM     72  F   UNL A   1      38.900  26.509  30.159  1.00  0.00    -0.203 F 
ATOM     73  F   UNL A   1      41.875  27.889  25.798  1.00  0.00    -0.200 F 
ATOM     74  C   UNL A   1      40.399  26.387  26.866  1.00  0.00     0.200 A 
ATOM     75  F   UNL A   1      38.910  24.925  27.969  1.00  0.00    -0.200 F 
ATOM     76  F   UNL A   1      40.368  25.616  25.770  1.00  0.00    -0.200 F 
ENDBRANCH  52  66
BRANCH  53  77
ATOM     77  C   UNL A   1      40.081  33.988  37.166  1.00  0.00     0.064 A 
ATOM     78  C   UNL A   1      39.180  33.739  38.210  1.00  0.00     0.173 A 
ATOM     79  C   UNL A   1      40.917  35.110  37.281  1.00  0.00     0.173 A 
ATOM     80  F   UNL A   1      38.341  32.696  38.137  1.00  0.00    -0.203 F 
ATOM     81  C   UNL A   1      39.100  34.590  39.311  1.00  0.00     0.198 A 
ATOM     82  C   UNL A   1      40.860  35.941  38.398  1.00  0.00     0.198 A 
ATOM     83  F   UNL A   1      41.797  35.396  36.309  1.00  0.00    -0.203 F 
ATOM     84  F   UNL A   1      38.191  34.360  40.268  1.00  0.00    -0.200 F 
ATOM     85  C   UNL A   1      39.944  35.686  39.407  1.00  0.00     0.200 A 
ATOM     86  F   UNL A   1      41.686  36.991  38.492  1.00  0.00    -0.200 F 
ATOM     87  F   UNL A   1      39.868  36.503  40.467  1.00  0.00    -0.200 F 
ENDBRANCH  53  77
BRANCH  65  88
ATOM     88  C   UNL A   1      44.012  28.502  35.411  1.00  0.00     0.064 A 
ATOM     89  C   UNL A   1      45.345  28.902  35.237  1.00  0.00     0.173 A 
ATOM     90  C   UNL A   1      43.758  27.436  36.290  1.00  0.00     0.173 A 
ATOM     91  F   UNL A   1      45.645  29.907  34.400  1.00  0.00    -0.203 F 
ATOM     92  C   UNL A   1      46.383  28.238  35.887  1.00  0.00     0.198 A 
ATOM     93  C   UNL A   1      44.795  26.801  36.967  1.00  0.00     0.198 A 
ATOM     94  F   UNL A   1      42.500  27.018  36.502  1.00  0.00    -0.203 F 
ATOM     95  F   UNL A   1      47.653  28.599  35.658  1.00  0.00    -0.200 F 
ATOM     96  C   UNL A   1      46.106  27.194  36.757  1.00  0.00     0.200 A 
ATOM     97  F   UNL A   1      44.522  25.805  37.822  1.00  0.00    -0.200 F 
ATOM     98  F   UNL A   1      47.106  26.561  37.386  1.00  0.00    -0.200 F 
ENDBRANCH  65  88
ENDBRANCH  39  40
ENDBRANCH  32  34
ENDBRANCH  31  32
ENDBRANCH  30  31
ENDBRANCH  29  30
ENDBRANCH  28  29
ENDBRANCH  27  28
ENDBRANCH  26  27
ENDBRANCH  25  26
ENDBRANCH   1  25
TORSDOF 25
ENDMDL
