MODEL 1
REMARK VINA RESULT:     -10.6      0.000      0.000
REMARK SMILES [NH3+][C@H](c1ccc(C(=O)OCCOCCOCCOCCOC(=O)c2ccc(-c3c4nc(c(-c5c(F)c(F)c(F)c(F)c5F)c5ccc([nH]5)c(-c5c(F)c(F)c(F)c(F)c5F)c5nc(c(-c6c(F)c(F)c(F)c(F)c6F)c6ccc3[nH]6)C=C5)C=C4)cc2)cc1Cl)C(F)(F)F
REMARK SMILES IDX 15 1 14 2 13 3 12 4 11 5 10 6 9 7 7 8 8 9 6 10 3 11 4 12
REMARK SMILES IDX 88 13 5 14 87 15 89 16 2 17 1 18 90 22 91 23 92 24 93 25
REMARK SMILES IDX 16 26 17 27 18 28 19 29 20 30 21 31 22 32 23 33 24 34 25 35
REMARK SMILES IDX 86 36 26 37 85 38 27 39 28 40 29 41 79 42 30 43 84 44 78 45
REMARK SMILES IDX 80 46 31 47 83 48 77 49 76 50 32 52 64 53 44 54 63 55 45 56
REMARK SMILES IDX 48 57 62 58 81 59 46 60 47 61 61 63 82 64 49 65 33 66 34 67
REMARK SMILES IDX 42 68 35 69 36 70 40 71 43 72 37 73 38 74 41 75 39 76 65 77
REMARK SMILES IDX 66 78 74 79 67 80 68 81 72 82 75 83 69 84 70 85 73 86 71 87
REMARK SMILES IDX 50 88 51 89 59 90 52 91 53 92 57 93 60 94 54 95 55 96 58 97
REMARK SMILES IDX 56 98
REMARK H PARENT 1 19 1 20 1 21 80 51 48 62
REMARK Flexibility Score: inf
ROOT
ATOM      1  O   UNL A   1      37.355  23.115  24.952  1.00  0.00    -0.377 OA
ENDROOT
BRANCH   1   2
ATOM      2  C   UNL A   1      36.256  23.790  25.545  1.00  0.00     0.188 C 
BRANCH   2   3
ATOM      3  C   UNL A   1      35.266  22.955  26.383  1.00  0.00     0.188 C 
BRANCH   3   4
ATOM      4  O   UNL A   1      34.010  23.584  26.569  1.00  0.00    -0.376 OA
BRANCH   4   5
ATOM      5  C   UNL A   1      33.424  24.284  25.488  1.00  0.00     0.202 C 
BRANCH   5   6
ATOM      6  C   UNL A   1      32.458  23.544  24.547  1.00  0.00     0.261 C 
BRANCH   6   7
ATOM      7  O   UNL A   1      31.153  24.116  24.389  1.00  0.00    -0.460 OA
BRANCH   7   8
ATOM      8  C   UNL A   1      30.705  24.890  25.399  1.00  0.00     0.338 C 
ATOM      9  O   UNL A   1      30.680  24.606  26.582  1.00  0.00    -0.246 OA
BRANCH   8  10
ATOM     10  C   UNL A   1      30.438  26.246  24.865  1.00  0.00     0.061 A 
ATOM     11  C   UNL A   1      29.969  28.781  23.683  1.00  0.00     0.037 A 
ATOM     12  C   UNL A   1      29.183  27.655  23.350  1.00  0.00     0.013 A 
ATOM     13  C   UNL A   1      30.930  28.610  24.705  1.00  0.00     0.051 A 
ATOM     14  C   UNL A   1      29.445  26.395  23.898  1.00  0.00     0.016 A 
ATOM     15  C   UNL A   1      31.138  27.363  25.316  1.00  0.00     0.036 A 
ATOM     16  Cl  UNL A   1      31.992  29.876  25.211  1.00  0.00    -0.084 Cl
BRANCH  11  17
ATOM     17  C   UNL A   1      29.865  30.081  22.860  1.00  0.00     0.320 C 
BRANCH  17  18
ATOM     18  N   UNL A   1      30.594  29.961  21.554  1.00  0.00    -0.344 N 
ATOM     19  H   UNL A   1      29.959  30.189  20.789  1.00  0.00     0.345 HD
ATOM     20  H   UNL A   1      30.933  29.005  21.440  1.00  0.00     0.345 HD
ATOM     21  H   UNL A   1      31.384  30.605  21.544  1.00  0.00     0.345 HD
ENDBRANCH  17  18
BRANCH  17  22
ATOM     22  C   UNL A   1      28.423  30.664  22.672  1.00  0.00     0.445 C 
ATOM     23  F   UNL A   1      27.630  30.511  23.749  1.00  0.00    -0.165 F 
ATOM     24  F   UNL A   1      28.481  31.998  22.425  1.00  0.00    -0.165 F 
ATOM     25  F   UNL A   1      27.798  30.093  21.614  1.00  0.00    -0.165 F 
ENDBRANCH  17  22
ENDBRANCH  11  17
ENDBRANCH   8  10
ENDBRANCH   7   8
ENDBRANCH   6   7
ENDBRANCH   5   6
ENDBRANCH   4   5
ENDBRANCH   3   4
ENDBRANCH   2   3
ENDBRANCH   1   2
BRANCH   1  26
ATOM     26  C   UNL A   1      38.167  22.250  25.744  1.00  0.00     0.188 C 
BRANCH  26  27
ATOM     27  C   UNL A   1      38.230  20.718  25.515  1.00  0.00     0.188 C 
BRANCH  27  28
ATOM     28  O   UNL A   1      39.535  20.169  25.522  1.00  0.00    -0.376 OA
BRANCH  28  29
ATOM     29  C   UNL A   1      40.430  20.578  26.538  1.00  0.00     0.202 C 
BRANCH  29  30
ATOM     30  C   UNL A   1      41.761  21.190  26.084  1.00  0.00     0.261 C 
BRANCH  30  31
ATOM     31  O   UNL A   1      41.678  22.458  25.418  1.00  0.00    -0.460 OA
BRANCH  31  32
ATOM     32  C   UNL A   1      42.749  23.274  25.494  1.00  0.00     0.338 C 
ATOM     33  O   UNL A   1      43.814  23.160  24.908  1.00  0.00    -0.246 OA
BRANCH  32  34
ATOM     34  C   UNL A   1      42.346  24.444  26.297  1.00  0.00     0.060 A 
ATOM     35  C   UNL A   1      43.191  25.561  26.374  1.00  0.00     0.016 A 
ATOM     36  C   UNL A   1      41.115  24.436  26.954  1.00  0.00     0.016 A 
ATOM     37  C   UNL A   1      42.815  26.667  27.141  1.00  0.00     0.010 A 
ATOM     38  C   UNL A   1      40.753  25.530  27.737  1.00  0.00     0.010 A 
ATOM     39  C   UNL A   1      41.616  26.634  27.862  1.00  0.00    -0.014 A 
BRANCH  39  40
ATOM     40  C   UNL A   1      41.346  27.626  28.928  1.00  0.00     0.031 A 
ATOM     41  C   UNL A   1      42.188  27.560  30.170  1.00  0.00     0.074 A 
ATOM     42  C   UNL A   1      40.354  28.527  28.823  1.00  0.00     0.049 A 
ATOM     43  N   UNL A   1      42.048  28.185  31.309  1.00  0.00    -0.248 NA
ATOM     44  C   UNL A   1      43.342  26.646  30.120  1.00  0.00     0.031 C 
ATOM     45  C   UNL A   1      39.505  28.721  27.652  1.00  0.00     0.029 A 
ATOM     46  N   UNL A   1      39.880  29.433  29.741  1.00  0.00    -0.354 N 
ATOM     47  C   UNL A   1      43.080  27.725  32.117  1.00  0.00     0.074 A 
ATOM     48  C   UNL A   1      43.824  26.750  31.348  1.00  0.00     0.031 C 
ATOM     49  C   UNL A   1      38.592  29.668  27.931  1.00  0.00     0.029 A 
ATOM     50  C   UNL A   1      38.766  30.110  29.314  1.00  0.00     0.049 A 
ATOM     51  H   UNL A   1      40.299  29.580  30.619  1.00  0.00     0.167 HD
ATOM     52  C   UNL A   1      43.380  28.084  33.387  1.00  0.00     0.037 A 
ATOM     53  C   UNL A   1      37.959  30.958  29.983  1.00  0.00     0.037 A 
ATOM     54  C   UNL A   1      42.631  29.049  34.145  1.00  0.00     0.049 A 
ATOM     55  C   UNL A   1      38.263  31.282  31.426  1.00  0.00     0.074 A 
ATOM     56  C   UNL A   1      42.854  29.495  35.434  1.00  0.00     0.029 A 
ATOM     57  N   UNL A   1      41.502  29.710  33.680  1.00  0.00    -0.354 N 
ATOM     58  N   UNL A   1      39.245  30.857  32.184  1.00  0.00    -0.248 NA
ATOM     59  C   UNL A   1      37.344  32.206  32.107  1.00  0.00     0.031 C 
ATOM     60  C   UNL A   1      41.825  30.377  35.774  1.00  0.00     0.029 A 
ATOM     61  C   UNL A   1      41.004  30.543  34.669  1.00  0.00     0.049 A 
ATOM     62  H   UNL A   1      41.113  29.603  32.782  1.00  0.00     0.167 HD
ATOM     63  C   UNL A   1      39.089  31.494  33.410  1.00  0.00     0.074 A 
ATOM     64  C   UNL A   1      37.917  32.335  33.296  1.00  0.00     0.031 C 
ATOM     65  C   UNL A   1      39.851  31.395  34.527  1.00  0.00     0.037 A 
BRANCH  52  66
ATOM     66  C   UNL A   1      44.542  27.401  34.046  1.00  0.00     0.064 A 
ATOM     67  C   UNL A   1      44.405  26.166  34.699  1.00  0.00     0.173 A 
ATOM     68  C   UNL A   1      45.820  27.981  34.005  1.00  0.00     0.173 A 
ATOM     69  F   UNL A   1      43.203  25.577  34.783  1.00  0.00    -0.203 F 
ATOM     70  C   UNL A   1      45.496  25.553  35.308  1.00  0.00     0.198 A 
ATOM     71  C   UNL A   1      46.915  27.347  34.585  1.00  0.00     0.198 A 
ATOM     72  F   UNL A   1      46.007  29.160  33.394  1.00  0.00    -0.203 F 
ATOM     73  F   UNL A   1      45.329  24.400  35.972  1.00  0.00    -0.200 F 
ATOM     74  C   UNL A   1      46.751  26.139  35.243  1.00  0.00     0.200 A 
ATOM     75  F   UNL A   1      48.129  27.909  34.508  1.00  0.00    -0.200 F 
ATOM     76  F   UNL A   1      47.802  25.543  35.823  1.00  0.00    -0.200 F 
ENDBRANCH  52  66
BRANCH  53  77
ATOM     77  C   UNL A   1      36.772  31.549  29.309  1.00  0.00     0.064 A 
ATOM     78  C   UNL A   1      35.647  30.766  29.009  1.00  0.00     0.173 A 
ATOM     79  C   UNL A   1      36.745  32.898  28.924  1.00  0.00     0.173 A 
ATOM     80  F   UNL A   1      35.633  29.464  29.332  1.00  0.00    -0.203 F 
ATOM     81  C   UNL A   1      34.554  31.303  28.332  1.00  0.00     0.198 A 
ATOM     82  C   UNL A   1      35.638  33.441  28.276  1.00  0.00     0.198 A 
ATOM     83  F   UNL A   1      37.795  33.692  29.182  1.00  0.00    -0.203 F 
ATOM     84  F   UNL A   1      33.517  30.518  28.010  1.00  0.00    -0.200 F 
ATOM     85  C   UNL A   1      34.548  32.642  27.971  1.00  0.00     0.200 A 
ATOM     86  F   UNL A   1      35.630  34.739  27.940  1.00  0.00    -0.200 F 
ATOM     87  F   UNL A   1      33.495  33.158  27.321  1.00  0.00    -0.200 F 
ENDBRANCH  53  77
BRANCH  65  88
ATOM     88  C   UNL A   1      39.498  32.272  35.697  1.00  0.00     0.064 A 
ATOM     89  C   UNL A   1      40.036  33.557  35.856  1.00  0.00     0.173 A 
ATOM     90  C   UNL A   1      38.549  31.838  36.636  1.00  0.00     0.173 A 
ATOM     91  F   UNL A   1      40.955  34.017  34.994  1.00  0.00    -0.203 F 
ATOM     92  C   UNL A   1      39.654  34.365  36.924  1.00  0.00     0.198 A 
ATOM     93  C   UNL A   1      38.142  32.662  37.682  1.00  0.00     0.198 A 
ATOM     94  F   UNL A   1      37.996  30.620  36.525  1.00  0.00    -0.203 F 
ATOM     95  F   UNL A   1      40.213  35.573  37.081  1.00  0.00    -0.200 F 
ATOM     96  C   UNL A   1      38.701  33.922  37.828  1.00  0.00     0.200 A 
ATOM     97  F   UNL A   1      37.206  32.238  38.541  1.00  0.00    -0.200 F 
ATOM     98  F   UNL A   1      38.321  34.708  38.844  1.00  0.00    -0.200 F 
ENDBRANCH  65  88
ENDBRANCH  39  40
ENDBRANCH  32  34
ENDBRANCH  31  32
ENDBRANCH  30  31
ENDBRANCH  29  30
ENDBRANCH  28  29
ENDBRANCH  27  28
ENDBRANCH  26  27
ENDBRANCH   1  26
TORSDOF 23
ENDMDL
MODEL 2
REMARK VINA RESULT:     -10.5      4.444      9.388
REMARK SMILES [NH3+][C@H](c1ccc(C(=O)OCCOCCOCCOCCOC(=O)c2ccc(-c3c4nc(c(-c5c(F)c(F)c(F)c(F)c5F)c5ccc([nH]5)c(-c5c(F)c(F)c(F)c(F)c5F)c5nc(c(-c6c(F)c(F)c(F)c(F)c6F)c6ccc3[nH]6)C=C5)C=C4)cc2)cc1Cl)C(F)(F)F
REMARK SMILES IDX 15 1 14 2 13 3 12 4 11 5 10 6 9 7 7 8 8 9 6 10 3 11 4 12
REMARK SMILES IDX 88 13 5 14 87 15 89 16 2 17 1 18 90 22 91 23 92 24 93 25
REMARK SMILES IDX 16 26 17 27 18 28 19 29 20 30 21 31 22 32 23 33 24 34 25 35
REMARK SMILES IDX 86 36 26 37 85 38 27 39 28 40 29 41 79 42 30 43 84 44 78 45
REMARK SMILES IDX 80 46 31 47 83 48 77 49 76 50 32 52 64 53 44 54 63 55 45 56
REMARK SMILES IDX 48 57 62 58 81 59 46 60 47 61 61 63 82 64 49 65 33 66 34 67
REMARK SMILES IDX 42 68 35 69 36 70 40 71 43 72 37 73 38 74 41 75 39 76 65 77
REMARK SMILES IDX 66 78 74 79 67 80 68 81 72 82 75 83 69 84 70 85 73 86 71 87
REMARK SMILES IDX 50 88 51 89 59 90 52 91 53 92 57 93 60 94 54 95 55 96 58 97
REMARK SMILES IDX 56 98
REMARK H PARENT 1 19 1 20 1 21 80 51 48 62
REMARK Flexibility Score: inf
ROOT
ATOM      1  O   UNL A   1      34.233  30.556  27.210  1.00  0.00    -0.377 OA
ENDROOT
BRANCH   1   2
ATOM      2  C   UNL A   1      32.828  30.416  27.063  1.00  0.00     0.188 C 
BRANCH   2   3
ATOM      3  C   UNL A   1      32.301  29.779  25.760  1.00  0.00     0.188 C 
BRANCH   3   4
ATOM      4  O   UNL A   1      33.329  29.336  24.892  1.00  0.00    -0.376 OA
BRANCH   4   5
ATOM      5  C   UNL A   1      33.504  27.947  24.685  1.00  0.00     0.202 C 
BRANCH   5   6
ATOM      6  C   UNL A   1      33.373  27.375  23.263  1.00  0.00     0.261 C 
BRANCH   6   7
ATOM      7  O   UNL A   1      32.655  26.141  23.133  1.00  0.00    -0.460 OA
BRANCH   7   8
ATOM      8  C   UNL A   1      33.064  25.302  22.160  1.00  0.00     0.338 C 
ATOM      9  O   UNL A   1      33.279  25.582  20.995  1.00  0.00    -0.246 OA
BRANCH   8  10
ATOM     10  C   UNL A   1      33.423  24.006  22.782  1.00  0.00     0.061 A 
ATOM     11  C   UNL A   1      33.985  21.553  24.091  1.00  0.00     0.037 A 
ATOM     12  C   UNL A   1      32.743  21.786  23.461  1.00  0.00     0.013 A 
ATOM     13  C   UNL A   1      34.971  22.558  23.951  1.00  0.00     0.051 A 
ATOM     14  C   UNL A   1      32.449  23.012  22.857  1.00  0.00     0.016 A 
ATOM     15  C   UNL A   1      34.704  23.757  23.272  1.00  0.00     0.036 A 
ATOM     16  Cl  UNL A   1      36.531  22.445  24.684  1.00  0.00    -0.084 Cl
BRANCH  11  17
ATOM     17  C   UNL A   1      34.187  20.325  25.002  1.00  0.00     0.320 C 
BRANCH  17  18
ATOM     18  N   UNL A   1      33.996  20.680  26.447  1.00  0.00    -0.344 N 
ATOM     19  H   UNL A   1      33.351  21.466  26.522  1.00  0.00     0.345 HD
ATOM     20  H   UNL A   1      34.894  20.938  26.856  1.00  0.00     0.345 HD
ATOM     21  H   UNL A   1      33.614  19.877  26.947  1.00  0.00     0.345 HD
ENDBRANCH  17  18
BRANCH  17  22
ATOM     22  C   UNL A   1      33.387  19.037  24.607  1.00  0.00     0.445 C 
ATOM     23  F   UNL A   1      33.241  18.874  23.278  1.00  0.00    -0.165 F 
ATOM     24  F   UNL A   1      34.025  17.927  25.062  1.00  0.00    -0.165 F 
ATOM     25  F   UNL A   1      32.152  19.038  25.161  1.00  0.00    -0.165 F 
ENDBRANCH  17  22
ENDBRANCH  11  17
ENDBRANCH   8  10
ENDBRANCH   7   8
ENDBRANCH   6   7
ENDBRANCH   5   6
ENDBRANCH   4   5
ENDBRANCH   3   4
ENDBRANCH   2   3
ENDBRANCH   1   2
BRANCH   1  26
ATOM     26  C   UNL A   1      34.773  31.756  27.760  1.00  0.00     0.188 C 
BRANCH  26  27
ATOM     27  C   UNL A   1      33.917  33.026  28.003  1.00  0.00     0.188 C 
BRANCH  27  28
ATOM     28  O   UNL A   1      34.552  34.034  28.768  1.00  0.00    -0.376 OA
BRANCH  28  29
ATOM     29  C   UNL A   1      34.221  35.383  28.507  1.00  0.00     0.202 C 
BRANCH  29  30
ATOM     30  C   UNL A   1      33.015  35.959  29.259  1.00  0.00     0.261 C 
BRANCH  30  31
ATOM     31  O   UNL A   1      32.527  35.179  30.360  1.00  0.00    -0.460 OA
BRANCH  31  32
ATOM     32  C   UNL A   1      32.656  35.698  31.598  1.00  0.00     0.338 C 
ATOM     33  O   UNL A   1      31.907  36.484  32.156  1.00  0.00    -0.246 OA
BRANCH  32  34
ATOM     34  C   UNL A   1      33.794  35.013  32.239  1.00  0.00     0.060 A 
ATOM     35  C   UNL A   1      35.064  35.607  32.223  1.00  0.00     0.016 A 
ATOM     36  C   UNL A   1      33.588  33.789  32.876  1.00  0.00     0.016 A 
ATOM     37  C   UNL A   1      36.145  34.956  32.823  1.00  0.00     0.010 A 
ATOM     38  C   UNL A   1      34.672  33.129  33.452  1.00  0.00     0.010 A 
ATOM     39  C   UNL A   1      35.960  33.693  33.398  1.00  0.00    -0.014 A 
BRANCH  39  40
ATOM     40  C   UNL A   1      37.120  32.839  33.741  1.00  0.00     0.031 A 
ATOM     41  C   UNL A   1      37.834  33.119  35.033  1.00  0.00     0.074 A 
ATOM     42  C   UNL A   1      37.560  31.876  32.913  1.00  0.00     0.049 A 
ATOM     43  N   UNL A   1      38.966  32.645  35.482  1.00  0.00    -0.248 NA
ATOM     44  C   UNL A   1      37.182  34.083  35.935  1.00  0.00     0.031 C 
ATOM     45  C   UNL A   1      36.924  31.479  31.660  1.00  0.00     0.029 A 
ATOM     46  N   UNL A   1      38.674  31.076  32.998  1.00  0.00    -0.354 N 
ATOM     47  C   UNL A   1      39.172  33.269  36.706  1.00  0.00     0.074 A 
ATOM     48  C   UNL A   1      38.062  34.172  36.919  1.00  0.00     0.031 C 
ATOM     49  C   UNL A   1      37.674  30.527  31.078  1.00  0.00     0.029 A 
ATOM     50  C   UNL A   1      38.863  30.284  31.894  1.00  0.00     0.049 A 
ATOM     51  H   UNL A   1      39.276  31.072  33.776  1.00  0.00     0.167 HD
ATOM     52  C   UNL A   1      40.196  33.100  37.574  1.00  0.00     0.037 A 
ATOM     53  C   UNL A   1      39.901  29.489  31.566  1.00  0.00     0.037 A 
ATOM     54  C   UNL A   1      41.297  32.204  37.351  1.00  0.00     0.049 A 
ATOM     55  C   UNL A   1      41.073  29.379  32.512  1.00  0.00     0.074 A 
ATOM     56  C   UNL A   1      42.381  31.949  38.170  1.00  0.00     0.029 A 
ATOM     57  N   UNL A   1      41.458  31.423  36.215  1.00  0.00    -0.354 N 
ATOM     58  N   UNL A   1      41.261  29.957  33.674  1.00  0.00    -0.248 NA
ATOM     59  C   UNL A   1      42.180  28.503  32.099  1.00  0.00     0.031 C 
ATOM     60  C   UNL A   1      43.231  31.062  37.504  1.00  0.00     0.029 A 
ATOM     61  C   UNL A   1      42.639  30.703  36.303  1.00  0.00     0.049 A 
ATOM     62  H   UNL A   1      40.829  31.386  35.460  1.00  0.00     0.167 HD
ATOM     63  C   UNL A   1      42.478  29.483  34.148  1.00  0.00     0.074 A 
ATOM     64  C   UNL A   1      42.987  28.568  33.149  1.00  0.00     0.031 C 
ATOM     65  C   UNL A   1      43.115  29.774  35.310  1.00  0.00     0.037 A 
BRANCH  52  66
ATOM     66  C   UNL A   1      40.190  33.931  38.824  1.00  0.00     0.064 A 
ATOM     67  C   UNL A   1      39.560  33.498  40.001  1.00  0.00     0.173 A 
ATOM     68  C   UNL A   1      40.845  35.172  38.852  1.00  0.00     0.173 A 
ATOM     69  F   UNL A   1      38.904  32.328  40.025  1.00  0.00    -0.203 F 
ATOM     70  C   UNL A   1      39.562  34.288  41.148  1.00  0.00     0.198 A 
ATOM     71  C   UNL A   1      40.876  35.943  40.011  1.00  0.00     0.198 A 
ATOM     72  F   UNL A   1      41.464  35.634  37.755  1.00  0.00    -0.203 F 
ATOM     73  F   UNL A   1      38.907  33.877  42.243  1.00  0.00    -0.200 F 
ATOM     74  C   UNL A   1      40.228  35.505  41.154  1.00  0.00     0.200 A 
ATOM     75  F   UNL A   1      41.532  37.111  40.018  1.00  0.00    -0.200 F 
ATOM     76  F   UNL A   1      40.237  36.259  42.262  1.00  0.00    -0.200 F 
ENDBRANCH  52  66
BRANCH  53  77
ATOM     77  C   UNL A   1      39.896  28.745  30.278  1.00  0.00     0.064 A 
ATOM     78  C   UNL A   1      39.348  27.457  30.190  1.00  0.00     0.173 A 
ATOM     79  C   UNL A   1      40.461  29.291  29.116  1.00  0.00     0.173 A 
ATOM     80  F   UNL A   1      38.818  26.879  31.279  1.00  0.00    -0.203 F 
ATOM     81  C   UNL A   1      39.387  26.736  28.998  1.00  0.00     0.198 A 
ATOM     82  C   UNL A   1      40.470  28.582  27.916  1.00  0.00     0.198 A 
ATOM     83  F   UNL A   1      41.003  30.518  29.144  1.00  0.00    -0.203 F 
ATOM     84  F   UNL A   1      38.906  25.486  28.958  1.00  0.00    -0.200 F 
ATOM     85  C   UNL A   1      39.943  27.302  27.861  1.00  0.00     0.200 A 
ATOM     86  F   UNL A   1      40.997  29.137  26.816  1.00  0.00    -0.200 F 
ATOM     87  F   UNL A   1      39.978  26.608  26.714  1.00  0.00    -0.200 F 
ENDBRANCH  53  77
BRANCH  65  88
ATOM     88  C   UNL A   1      44.394  29.042  35.612  1.00  0.00     0.064 A 
ATOM     89  C   UNL A   1      45.648  29.545  35.237  1.00  0.00     0.173 A 
ATOM     90  C   UNL A   1      44.360  27.848  36.350  1.00  0.00     0.173 A 
ATOM     91  F   UNL A   1      45.736  30.676  34.521  1.00  0.00    -0.203 F 
ATOM     92  C   UNL A   1      46.818  28.869  35.572  1.00  0.00     0.198 A 
ATOM     93  C   UNL A   1      45.533  27.194  36.714  1.00  0.00     0.198 A 
ATOM     94  F   UNL A   1      43.186  27.329  36.742  1.00  0.00    -0.203 F 
ATOM     95  F   UNL A   1      48.004  29.345  35.167  1.00  0.00    -0.200 F 
ATOM     96  C   UNL A   1      46.761  27.702  36.319  1.00  0.00     0.200 A 
ATOM     97  F   UNL A   1      45.475  26.078  37.453  1.00  0.00    -0.200 F 
ATOM     98  F   UNL A   1      47.889  27.063  36.656  1.00  0.00    -0.200 F 
ENDBRANCH  65  88
ENDBRANCH  39  40
ENDBRANCH  32  34
ENDBRANCH  31  32
ENDBRANCH  30  31
ENDBRANCH  29  30
ENDBRANCH  28  29
ENDBRANCH  27  28
ENDBRANCH  26  27
ENDBRANCH   1  26
TORSDOF 23
ENDMDL
MODEL 3
REMARK VINA RESULT:     -10.4      4.734      9.018
REMARK SMILES [NH3+][C@H](c1ccc(C(=O)OCCOCCOCCOCCOC(=O)c2ccc(-c3c4nc(c(-c5c(F)c(F)c(F)c(F)c5F)c5ccc([nH]5)c(-c5c(F)c(F)c(F)c(F)c5F)c5nc(c(-c6c(F)c(F)c(F)c(F)c6F)c6ccc3[nH]6)C=C5)C=C4)cc2)cc1Cl)C(F)(F)F
REMARK SMILES IDX 15 1 14 2 13 3 12 4 11 5 10 6 9 7 7 8 8 9 6 10 3 11 4 12
REMARK SMILES IDX 88 13 5 14 87 15 89 16 2 17 1 18 90 22 91 23 92 24 93 25
REMARK SMILES IDX 16 26 17 27 18 28 19 29 20 30 21 31 22 32 23 33 24 34 25 35
REMARK SMILES IDX 86 36 26 37 85 38 27 39 28 40 29 41 79 42 30 43 84 44 78 45
REMARK SMILES IDX 80 46 31 47 83 48 77 49 76 50 32 52 64 53 44 54 63 55 45 56
REMARK SMILES IDX 48 57 62 58 81 59 46 60 47 61 61 63 82 64 49 65 33 66 34 67
REMARK SMILES IDX 42 68 35 69 36 70 40 71 43 72 37 73 38 74 41 75 39 76 65 77
REMARK SMILES IDX 66 78 74 79 67 80 68 81 72 82 75 83 69 84 70 85 73 86 71 87
REMARK SMILES IDX 50 88 51 89 59 90 52 91 53 92 57 93 60 94 54 95 55 96 58 97
REMARK SMILES IDX 56 98
REMARK H PARENT 1 19 1 20 1 21 80 51 48 62
REMARK Flexibility Score: inf
ROOT
ATOM      1  O   UNL A   1      34.282  22.830  24.320  1.00  0.00    -0.377 OA
ENDROOT
BRANCH   1   2
ATOM      2  C   UNL A   1      33.305  21.803  24.398  1.00  0.00     0.188 C 
BRANCH   2   3
ATOM      3  C   UNL A   1      31.928  22.072  23.756  1.00  0.00     0.188 C 
BRANCH   3   4
ATOM      4  O   UNL A   1      31.245  23.176  24.324  1.00  0.00    -0.376 OA
BRANCH   4   5
ATOM      5  C   UNL A   1      30.710  23.058  25.628  1.00  0.00     0.202 C 
BRANCH   5   6
ATOM      6  C   UNL A   1      31.423  23.752  26.801  1.00  0.00     0.261 C 
BRANCH   6   7
ATOM      7  O   UNL A   1      31.341  25.183  26.844  1.00  0.00    -0.460 OA
BRANCH   7   8
ATOM      8  C   UNL A   1      32.256  25.864  26.125  1.00  0.00     0.338 C 
ATOM      9  O   UNL A   1      33.420  25.557  25.943  1.00  0.00    -0.246 OA
BRANCH   8  10
ATOM     10  C   UNL A   1      31.562  26.954  25.400  1.00  0.00     0.061 A 
ATOM     11  C   UNL A   1      30.330  29.001  23.871  1.00  0.00     0.037 A 
ATOM     12  C   UNL A   1      30.187  27.637  23.530  1.00  0.00     0.013 A 
ATOM     13  C   UNL A   1      31.028  29.291  25.066  1.00  0.00     0.051 A 
ATOM     14  C   UNL A   1      30.833  26.632  24.256  1.00  0.00     0.016 A 
ATOM     15  C   UNL A   1      31.608  28.274  25.842  1.00  0.00     0.036 A 
ATOM     16  Cl  UNL A   1      31.318  30.905  25.611  1.00  0.00    -0.084 Cl
BRANCH  11  17
ATOM     17  C   UNL A   1      29.865  30.105  22.901  1.00  0.00     0.320 C 
BRANCH  17  18
ATOM     18  N   UNL A   1      30.654  30.080  21.625  1.00  0.00    -0.344 N 
ATOM     19  H   UNL A   1      31.405  30.768  21.676  1.00  0.00     0.345 HD
ATOM     20  H   UNL A   1      30.041  30.304  20.841  1.00  0.00     0.345 HD
ATOM     21  H   UNL A   1      31.053  29.151  21.489  1.00  0.00     0.345 HD
ENDBRANCH  17  18
BRANCH  17  22
ATOM     22  C   UNL A   1      28.324  30.182  22.632  1.00  0.00     0.445 C 
ATOM     23  F   UNL A   1      27.938  29.568  21.497  1.00  0.00    -0.165 F 
ATOM     24  F   UNL A   1      27.638  29.588  23.643  1.00  0.00    -0.165 F 
ATOM     25  F   UNL A   1      27.901  31.467  22.570  1.00  0.00    -0.165 F 
ENDBRANCH  17  22
ENDBRANCH  11  17
ENDBRANCH   8  10
ENDBRANCH   7   8
ENDBRANCH   6   7
ENDBRANCH   5   6
ENDBRANCH   4   5
ENDBRANCH   3   4
ENDBRANCH   2   3
ENDBRANCH   1   2
BRANCH   1  26
ATOM     26  C   UNL A   1      35.665  22.503  24.445  1.00  0.00     0.188 C 
BRANCH  26  27
ATOM     27  C   UNL A   1      36.160  21.191  25.106  1.00  0.00     0.188 C 
BRANCH  27  28
ATOM     28  O   UNL A   1      37.547  20.942  24.968  1.00  0.00    -0.376 OA
BRANCH  28  29
ATOM     29  C   UNL A   1      37.978  19.605  24.811  1.00  0.00     0.202 C 
BRANCH  29  30
ATOM     30  C   UNL A   1      39.094  19.122  25.746  1.00  0.00     0.261 C 
BRANCH  30  31
ATOM     31  O   UNL A   1      40.057  20.108  26.141  1.00  0.00    -0.460 OA
BRANCH  31  32
ATOM     32  C   UNL A   1      41.358  19.755  26.114  1.00  0.00     0.338 C 
ATOM     33  O   UNL A   1      41.833  18.690  25.751  1.00  0.00    -0.246 OA
BRANCH  32  34
ATOM     34  C   UNL A   1      42.142  20.959  26.449  1.00  0.00     0.060 A 
ATOM     35  C   UNL A   1      42.442  21.244  27.789  1.00  0.00     0.016 A 
ATOM     36  C   UNL A   1      42.595  21.791  25.425  1.00  0.00     0.016 A 
ATOM     37  C   UNL A   1      43.177  22.388  28.110  1.00  0.00     0.010 A 
ATOM     38  C   UNL A   1      43.306  22.944  25.748  1.00  0.00     0.010 A 
ATOM     39  C   UNL A   1      43.571  23.266  27.092  1.00  0.00    -0.014 A 
BRANCH  39  40
ATOM     40  C   UNL A   1      44.050  24.630  27.412  1.00  0.00     0.031 A 
ATOM     41  C   UNL A   1      43.034  25.632  27.883  1.00  0.00     0.074 A 
ATOM     42  C   UNL A   1      45.335  24.987  27.247  1.00  0.00     0.049 A 
ATOM     43  N   UNL A   1      43.151  26.921  28.059  1.00  0.00    -0.248 NA
ATOM     44  C   UNL A   1      41.693  25.101  28.180  1.00  0.00     0.031 C 
ATOM     45  C   UNL A   1      46.418  24.095  26.845  1.00  0.00     0.029 A 
ATOM     46  N   UNL A   1      45.935  26.217  27.371  1.00  0.00    -0.354 N 
ATOM     47  C   UNL A   1      41.897  27.358  28.466  1.00  0.00     0.074 A 
ATOM     48  C   UNL A   1      41.027  26.203  28.487  1.00  0.00     0.031 C 
ATOM     49  C   UNL A   1      47.549  24.812  26.729  1.00  0.00     0.029 A 
ATOM     50  C   UNL A   1      47.256  26.219  27.002  1.00  0.00     0.049 A 
ATOM     51  H   UNL A   1      45.462  27.017  27.694  1.00  0.00     0.167 HD
ATOM     52  C   UNL A   1      41.508  28.612  28.793  1.00  0.00     0.037 A 
ATOM     53  C   UNL A   1      48.114  27.250  26.862  1.00  0.00     0.037 A 
ATOM     54  C   UNL A   1      42.379  29.756  28.763  1.00  0.00     0.049 A 
ATOM     55  C   UNL A   1      47.637  28.652  27.152  1.00  0.00     0.074 A 
ATOM     56  C   UNL A   1      42.090  31.069  29.085  1.00  0.00     0.029 A 
ATOM     57  N   UNL A   1      43.712  29.720  28.376  1.00  0.00    -0.354 N 
ATOM     58  N   UNL A   1      46.456  29.062  27.549  1.00  0.00    -0.248 NA
ATOM     59  C   UNL A   1      48.614  29.737  26.975  1.00  0.00     0.031 C 
ATOM     60  C   UNL A   1      43.229  31.839  28.833  1.00  0.00     0.029 A 
ATOM     61  C   UNL A   1      44.252  30.995  28.429  1.00  0.00     0.049 A 
ATOM     62  H   UNL A   1      44.200  28.910  28.104  1.00  0.00     0.167 HD
ATOM     63  C   UNL A   1      46.561  30.439  27.711  1.00  0.00     0.074 A 
ATOM     64  C   UNL A   1      47.921  30.796  27.371  1.00  0.00     0.031 C 
ATOM     65  C   UNL A   1      45.617  31.327  28.113  1.00  0.00     0.037 A 
BRANCH  52  66
ATOM     66  C   UNL A   1      40.070  28.817  29.171  1.00  0.00     0.064 A 
ATOM     67  C   UNL A   1      39.624  28.677  30.495  1.00  0.00     0.173 A 
ATOM     68  C   UNL A   1      39.127  29.180  28.198  1.00  0.00     0.173 A 
ATOM     69  F   UNL A   1      40.480  28.314  31.462  1.00  0.00    -0.203 F 
ATOM     70  C   UNL A   1      38.284  28.866  30.822  1.00  0.00     0.198 A 
ATOM     71  C   UNL A   1      37.795  29.404  28.536  1.00  0.00     0.198 A 
ATOM     72  F   UNL A   1      39.499  29.328  26.918  1.00  0.00    -0.203 F 
ATOM     73  F   UNL A   1      37.872  28.674  32.084  1.00  0.00    -0.200 F 
ATOM     74  C   UNL A   1      37.373  29.238  29.845  1.00  0.00     0.200 A 
ATOM     75  F   UNL A   1      36.920  29.777  27.592  1.00  0.00    -0.200 F 
ATOM     76  F   UNL A   1      36.085  29.428  30.164  1.00  0.00    -0.200 F 
ENDBRANCH  52  66
BRANCH  53  77
ATOM     77  C   UNL A   1      49.509  27.004  26.408  1.00  0.00     0.064 A 
ATOM     78  C   UNL A   1      49.838  27.019  25.044  1.00  0.00     0.173 A 
ATOM     79  C   UNL A   1      50.538  26.723  27.320  1.00  0.00     0.173 A 
ATOM     80  F   UNL A   1      48.886  27.258  24.129  1.00  0.00    -0.203 F 
ATOM     81  C   UNL A   1      51.132  26.740  24.611  1.00  0.00     0.198 A 
ATOM     82  C   UNL A   1      51.839  26.475  26.887  1.00  0.00     0.198 A 
ATOM     83  F   UNL A   1      50.279  26.692  28.636  1.00  0.00    -0.203 F 
ATOM     84  F   UNL A   1      51.404  26.705  23.299  1.00  0.00    -0.200 F 
ATOM     85  C   UNL A   1      52.133  26.473  25.533  1.00  0.00     0.200 A 
ATOM     86  F   UNL A   1      52.806  26.231  27.782  1.00  0.00    -0.200 F 
ATOM     87  F   UNL A   1      53.378  26.206  25.116  1.00  0.00    -0.200 F 
ENDBRANCH  53  77
BRANCH  65  88
ATOM     88  C   UNL A   1      46.032  32.762  28.286  1.00  0.00     0.064 A 
ATOM     89  C   UNL A   1      46.660  33.223  29.451  1.00  0.00     0.173 A 
ATOM     90  C   UNL A   1      45.857  33.673  27.232  1.00  0.00     0.173 A 
ATOM     91  F   UNL A   1      46.842  32.397  30.493  1.00  0.00    -0.203 F 
ATOM     92  C   UNL A   1      47.077  34.547  29.564  1.00  0.00     0.198 A 
ATOM     93  C   UNL A   1      46.307  34.986  27.333  1.00  0.00     0.198 A 
ATOM     94  F   UNL A   1      45.270  33.281  26.090  1.00  0.00    -0.203 F 
ATOM     95  F   UNL A   1      47.635  34.977  30.703  1.00  0.00    -0.200 F 
ATOM     96  C   UNL A   1      46.910  35.423  28.502  1.00  0.00     0.200 A 
ATOM     97  F   UNL A   1      46.162  35.824  26.298  1.00  0.00    -0.200 F 
ATOM     98  F   UNL A   1      47.328  36.692  28.605  1.00  0.00    -0.200 F 
ENDBRANCH  65  88
ENDBRANCH  39  40
ENDBRANCH  32  34
ENDBRANCH  31  32
ENDBRANCH  30  31
ENDBRANCH  29  30
ENDBRANCH  28  29
ENDBRANCH  27  28
ENDBRANCH  26  27
ENDBRANCH   1  26
TORSDOF 23
ENDMDL
