MODEL 1
REMARK VINA RESULT:     -11.0      0.000      0.000
REMARK SMILES C[C@H]1C[N@H+]2CCCC[C@@H]2CN1C(=O)[C@H]([NH3+])CC(=O)OCCOCCOCCOCCOC(=O)c1ccc(-c2c3nc(c(-c4c(F)c(F)c(F)c(F)c4F)c4ccc([nH]4)c(-c4c(F)c(F)c(F)c(F)c4F)c4nc(c(-c5c(F)c(F)c(F)c(F)c5F)c5ccc2[nH]5)C=C4)C=C3)cc1
REMARK SMILES IDX 24 1 23 2 22 3 21 4 20 5 19 6 17 7 18 8 16 9 14 10 12 11
REMARK SMILES IDX 13 12 11 13 1 14 2 15 3 16 4 17 10 18 5 19 9 20 6 22 8 23
REMARK SMILES IDX 7 24 15 25 25 29 26 30 27 31 28 32 29 33 30 34 31 35 32 36
REMARK SMILES IDX 33 37 34 38 35 39 96 40 36 41 95 42 37 43 38 44 39 45 89 46
REMARK SMILES IDX 40 47 94 48 88 49 90 50 41 51 93 52 87 53 86 54 42 56 74 57
REMARK SMILES IDX 54 58 73 59 55 60 58 61 72 62 91 63 56 64 57 65 71 67 92 68
REMARK SMILES IDX 59 69 43 70 44 71 52 72 45 73 46 74 50 75 53 76 47 77 48 78
REMARK SMILES IDX 51 79 49 80 75 81 76 82 84 83 77 84 78 85 82 86 85 87 79 88
REMARK SMILES IDX 80 89 83 90 81 91 60 92 61 93 69 94 62 95 63 96 67 97 70 98
REMARK SMILES IDX 64 99 65 100 68 101 66 102
REMARK H PARENT 4 21 15 26 15 27 15 28 90 55 58 66
REMARK Flexibility Score: inf
ROOT
ATOM      1  C   UNL A   1      39.845  21.905  26.223  1.00  0.00     0.188 C 
ENDROOT
BRANCH   1   2
ATOM      2  C   UNL A   1      38.466  21.903  25.559  1.00  0.00     0.188 C 
BRANCH   2   3
ATOM      3  O   UNL A   1      37.648  20.747  25.618  1.00  0.00    -0.376 OA
BRANCH   3   4
ATOM      4  C   UNL A   1      36.376  20.733  24.985  1.00  0.00     0.202 C 
BRANCH   4   5
ATOM      5  C   UNL A   1      35.159  21.455  25.593  1.00  0.00     0.261 C 
BRANCH   5   6
ATOM      6  O   UNL A   1      34.000  20.644  25.890  1.00  0.00    -0.463 OA
BRANCH   6   7
ATOM      7  C   UNL A   1      32.860  20.981  25.247  1.00  0.00     0.312 C 
ATOM      8  O   UNL A   1      31.983  20.176  24.947  1.00  0.00    -0.252 OA
BRANCH   7   9
ATOM      9  C   UNL A   1      32.731  22.432  24.845  1.00  0.00     0.198 C 
BRANCH   9  10
ATOM     10  C   UNL A   1      32.415  22.903  23.421  1.00  0.00     0.282 C 
BRANCH  10  11
ATOM     11  C   UNL A   1      33.577  23.794  22.920  1.00  0.00     0.282 C 
ATOM     12  O   UNL A   1      34.536  23.216  22.396  1.00  0.00    -0.268 OA
BRANCH  11  13
ATOM     13  N   UNL A   1      33.559  25.162  23.122  1.00  0.00    -0.323 N 
ATOM     14  C   UNL A   1      32.651  25.607  20.752  1.00  0.00     0.037 C 
ATOM     15  C   UNL A   1      33.282  26.146  22.045  1.00  0.00     0.137 C 
ATOM     16  C   UNL A   1      32.345  27.301  22.549  1.00  0.00     0.287 C 
ATOM     17  N   UNL A   1      32.545  27.786  23.937  1.00  0.00    -0.329 N 
ATOM     18  C   UNL A   1      33.886  25.804  24.393  1.00  0.00     0.185 C 
ATOM     19  C   UNL A   1      31.414  28.636  24.337  1.00  0.00     0.262 C 
ATOM     20  C   UNL A   1      32.691  26.641  24.860  1.00  0.00     0.203 C 
ATOM     21  H   UNL A   1      33.399  28.342  23.979  1.00  0.00     0.348 HD
ATOM     22  C   UNL A   1      31.582  29.154  25.765  1.00  0.00     0.062 C 
ATOM     23  C   UNL A   1      32.898  27.098  26.308  1.00  0.00     0.067 C 
ATOM     24  C   UNL A   1      31.764  28.010  26.755  1.00  0.00     0.012 C 
ENDBRANCH  11  13
ENDBRANCH  10  11
BRANCH  10  25
ATOM     25  N   UNL A   1      31.084  23.445  23.082  1.00  0.00    -0.347 N 
ATOM     26  H   UNL A   1      30.693  22.922  22.298  1.00  0.00     0.345 HD
ATOM     27  H   UNL A   1      31.172  24.429  22.823  1.00  0.00     0.345 HD
ATOM     28  H   UNL A   1      30.465  23.361  23.889  1.00  0.00     0.345 HD
ENDBRANCH  10  25
ENDBRANCH   9  10
ENDBRANCH   7   9
ENDBRANCH   6   7
ENDBRANCH   5   6
ENDBRANCH   4   5
ENDBRANCH   3   4
ENDBRANCH   2   3
ENDBRANCH   1   2
BRANCH   1  29
ATOM     29  O   UNL A   1      40.048  20.939  27.237  1.00  0.00    -0.377 OA
BRANCH  29  30
ATOM     30  C   UNL A   1      41.353  20.382  27.343  1.00  0.00     0.188 C 
BRANCH  30  31
ATOM     31  C   UNL A   1      42.263  20.422  26.101  1.00  0.00     0.188 C 
BRANCH  31  32
ATOM     32  O   UNL A   1      43.376  21.297  26.224  1.00  0.00    -0.376 OA
BRANCH  32  33
ATOM     33  C   UNL A   1      44.338  21.334  25.177  1.00  0.00     0.202 C 
BRANCH  33  34
ATOM     34  C   UNL A   1      44.249  22.478  24.150  1.00  0.00     0.261 C 
BRANCH  34  35
ATOM     35  O   UNL A   1      43.570  23.674  24.575  1.00  0.00    -0.460 OA
BRANCH  35  36
ATOM     36  C   UNL A   1      44.315  24.705  25.026  1.00  0.00     0.338 C 
ATOM     37  O   UNL A   1      45.423  25.031  24.656  1.00  0.00    -0.246 OA
BRANCH  36  38
ATOM     38  C   UNL A   1      43.467  25.522  25.924  1.00  0.00     0.060 A 
ATOM     39  C   UNL A   1      43.781  26.878  26.082  1.00  0.00     0.016 A 
ATOM     40  C   UNL A   1      42.397  24.960  26.624  1.00  0.00     0.016 A 
ATOM     41  C   UNL A   1      43.062  27.663  26.981  1.00  0.00     0.010 A 
ATOM     42  C   UNL A   1      41.691  25.743  27.545  1.00  0.00     0.010 A 
ATOM     43  C   UNL A   1      42.049  27.087  27.759  1.00  0.00    -0.014 A 
BRANCH  43  44
ATOM     44  C   UNL A   1      41.534  27.833  28.935  1.00  0.00     0.031 A 
ATOM     45  C   UNL A   1      42.264  27.692  30.244  1.00  0.00     0.074 A 
ATOM     46  C   UNL A   1      40.484  28.668  28.834  1.00  0.00     0.049 A 
ATOM     47  N   UNL A   1      42.012  28.243  31.404  1.00  0.00    -0.248 NA
ATOM     48  C   UNL A   1      43.444  26.810  30.244  1.00  0.00     0.031 C 
ATOM     49  C   UNL A   1      39.728  28.933  27.612  1.00  0.00     0.029 A 
ATOM     50  N   UNL A   1      39.873  29.451  29.784  1.00  0.00    -0.354 N 
ATOM     51  C   UNL A   1      42.990  27.767  32.268  1.00  0.00     0.074 A 
ATOM     52  C   UNL A   1      43.826  26.864  31.511  1.00  0.00     0.031 C 
ATOM     53  C   UNL A   1      38.749  29.815  27.888  1.00  0.00     0.029 A 
ATOM     54  C   UNL A   1      38.790  30.151  29.311  1.00  0.00     0.049 A 
ATOM     55  H   UNL A   1      40.183  29.505  30.717  1.00  0.00     0.167 HD
ATOM     56  C   UNL A   1      43.176  28.062  33.576  1.00  0.00     0.037 A 
ATOM     57  C   UNL A   1      37.922  30.950  29.962  1.00  0.00     0.037 A 
ATOM     58  C   UNL A   1      42.354  28.974  34.326  1.00  0.00     0.049 A 
ATOM     59  C   UNL A   1      38.112  31.199  31.440  1.00  0.00     0.074 A 
ATOM     60  C   UNL A   1      42.485  29.364  35.646  1.00  0.00     0.029 A 
ATOM     61  N   UNL A   1      41.240  29.626  33.823  1.00  0.00    -0.354 N 
ATOM     62  N   UNL A   1      39.063  30.779  32.239  1.00  0.00    -0.248 NA
ATOM     63  C   UNL A   1      37.103  32.037  32.107  1.00  0.00     0.031 C 
ATOM     64  C   UNL A   1      41.411  30.200  35.962  1.00  0.00     0.029 A 
ATOM     65  C   UNL A   1      40.652  30.389  34.819  1.00  0.00     0.049 A 
ATOM     66  H   UNL A   1      40.914  29.560  32.896  1.00  0.00     0.167 HD
ATOM     67  C   UNL A   1      38.793  31.336  33.483  1.00  0.00     0.074 A 
ATOM     68  C   UNL A   1      37.596  32.134  33.333  1.00  0.00     0.031 C 
ATOM     69  C   UNL A   1      39.474  31.199  34.648  1.00  0.00     0.037 A 
BRANCH  56  70
ATOM     70  C   UNL A   1      44.293  27.369  34.302  1.00  0.00     0.064 A 
ATOM     71  C   UNL A   1      44.129  26.107  34.890  1.00  0.00     0.173 A 
ATOM     72  C   UNL A   1      45.569  27.955  34.348  1.00  0.00     0.173 A 
ATOM     73  F   UNL A   1      42.927  25.511  34.885  1.00  0.00    -0.203 F 
ATOM     74  C   UNL A   1      45.197  25.461  35.508  1.00  0.00     0.198 A 
ATOM     75  C   UNL A   1      46.640  27.293  34.940  1.00  0.00     0.198 A 
ATOM     76  F   UNL A   1      45.780  29.160  33.800  1.00  0.00    -0.203 F 
ATOM     77  F   UNL A   1      45.010  24.270  36.092  1.00  0.00    -0.200 F 
ATOM     78  C   UNL A   1      46.454  26.049  35.521  1.00  0.00     0.200 A 
ATOM     79  F   UNL A   1      47.856  27.857  34.939  1.00  0.00    -0.200 F 
ATOM     80  F   UNL A   1      47.484  25.416  36.099  1.00  0.00    -0.200 F 
ENDBRANCH  56  70
BRANCH  57  81
ATOM     81  C   UNL A   1      36.772  31.568  29.243  1.00  0.00     0.064 A 
ATOM     82  C   UNL A   1      36.741  32.943  28.968  1.00  0.00     0.173 A 
ATOM     83  C   UNL A   1      35.649  30.810  28.880  1.00  0.00     0.173 A 
ATOM     84  F   UNL A   1      37.778  33.720  29.317  1.00  0.00    -0.203 F 
ATOM     85  C   UNL A   1      35.618  33.540  28.398  1.00  0.00     0.198 A 
ATOM     86  C   UNL A   1      34.542  31.402  28.277  1.00  0.00     0.198 A 
ATOM     87  F   UNL A   1      35.621  29.491  29.121  1.00  0.00    -0.203 F 
ATOM     88  F   UNL A   1      35.587  34.868  28.215  1.00  0.00    -0.200 F 
ATOM     89  C   UNL A   1      34.520  32.769  28.049  1.00  0.00     0.200 A 
ATOM     90  F   UNL A   1      33.488  30.649  27.930  1.00  0.00    -0.200 F 
ATOM     91  F   UNL A   1      33.437  33.344  27.509  1.00  0.00    -0.200 F 
ENDBRANCH  57  81
BRANCH  69  92
ATOM     92  C   UNL A   1      38.983  31.975  35.838  1.00  0.00     0.064 A 
ATOM     93  C   UNL A   1      38.167  31.392  36.819  1.00  0.00     0.173 A 
ATOM     94  C   UNL A   1      39.376  33.311  36.022  1.00  0.00     0.173 A 
ATOM     95  F   UNL A   1      37.753  30.123  36.687  1.00  0.00    -0.203 F 
ATOM     96  C   UNL A   1      37.737  32.127  37.922  1.00  0.00     0.198 A 
ATOM     97  C   UNL A   1      38.975  34.030  37.144  1.00  0.00     0.198 A 
ATOM     98  F   UNL A   1      40.165  33.914  35.120  1.00  0.00    -0.203 F 
ATOM     99  F   UNL A   1      36.912  31.566  38.817  1.00  0.00    -0.200 F 
ATOM    100  C   UNL A   1      38.149  33.441  38.087  1.00  0.00     0.200 A 
ATOM    101  F   UNL A   1      39.391  35.293  37.313  1.00  0.00    -0.200 F 
ATOM    102  F   UNL A   1      37.742  34.142  39.155  1.00  0.00    -0.200 F 
ENDBRANCH  69  92
ENDBRANCH  43  44
ENDBRANCH  36  38
ENDBRANCH  35  36
ENDBRANCH  34  35
ENDBRANCH  33  34
ENDBRANCH  32  33
ENDBRANCH  31  32
ENDBRANCH  30  31
ENDBRANCH  29  30
ENDBRANCH   1  29
TORSDOF 24
ENDMDL
MODEL 2
REMARK VINA RESULT:     -10.6      1.329      2.303
REMARK SMILES C[C@H]1C[N@H+]2CCCC[C@@H]2CN1C(=O)[C@H]([NH3+])CC(=O)OCCOCCOCCOCCOC(=O)c1ccc(-c2c3nc(c(-c4c(F)c(F)c(F)c(F)c4F)c4ccc([nH]4)c(-c4c(F)c(F)c(F)c(F)c4F)c4nc(c(-c5c(F)c(F)c(F)c(F)c5F)c5ccc2[nH]5)C=C4)C=C3)cc1
REMARK SMILES IDX 24 1 23 2 22 3 21 4 20 5 19 6 17 7 18 8 16 9 14 10 12 11
REMARK SMILES IDX 13 12 11 13 1 14 2 15 3 16 4 17 10 18 5 19 9 20 6 22 8 23
REMARK SMILES IDX 7 24 15 25 25 29 26 30 27 31 28 32 29 33 30 34 31 35 32 36
REMARK SMILES IDX 33 37 34 38 35 39 96 40 36 41 95 42 37 43 38 44 39 45 89 46
REMARK SMILES IDX 40 47 94 48 88 49 90 50 41 51 93 52 87 53 86 54 42 56 74 57
REMARK SMILES IDX 54 58 73 59 55 60 58 61 72 62 91 63 56 64 57 65 71 67 92 68
REMARK SMILES IDX 59 69 43 70 44 71 52 72 45 73 46 74 50 75 53 76 47 77 48 78
REMARK SMILES IDX 51 79 49 80 75 81 76 82 84 83 77 84 78 85 82 86 85 87 79 88
REMARK SMILES IDX 80 89 83 90 81 91 60 92 61 93 69 94 62 95 63 96 67 97 70 98
REMARK SMILES IDX 64 99 65 100 68 101 66 102
REMARK H PARENT 4 21 15 26 15 27 15 28 90 55 58 66
REMARK Flexibility Score: inf
ROOT
ATOM      1  C   UNL A   1      38.501  21.576  25.215  1.00  0.00     0.188 C 
ENDROOT
BRANCH   1   2
ATOM      2  C   UNL A   1      37.245  20.716  25.369  1.00  0.00     0.188 C 
BRANCH   2   3
ATOM      3  O   UNL A   1      36.044  21.288  25.857  1.00  0.00    -0.376 OA
BRANCH   3   4
ATOM      4  C   UNL A   1      35.025  21.700  24.956  1.00  0.00     0.202 C 
BRANCH   4   5
ATOM      5  C   UNL A   1      34.546  23.162  24.885  1.00  0.00     0.261 C 
BRANCH   5   6
ATOM      6  O   UNL A   1      33.160  23.379  24.539  1.00  0.00    -0.463 OA
BRANCH   6   7
ATOM      7  C   UNL A   1      32.920  23.765  23.266  1.00  0.00     0.312 C 
ATOM      8  O   UNL A   1      33.055  23.029  22.293  1.00  0.00    -0.252 OA
BRANCH   7   9
ATOM      9  C   UNL A   1      32.521  25.211  23.077  1.00  0.00     0.198 C 
BRANCH   9  10
ATOM     10  C   UNL A   1      32.904  26.053  21.855  1.00  0.00     0.282 C 
BRANCH  10  11
ATOM     11  C   UNL A   1      32.851  27.551  22.245  1.00  0.00     0.282 C 
ATOM     12  O   UNL A   1      33.833  28.239  21.944  1.00  0.00    -0.268 OA
BRANCH  11  13
ATOM     13  N   UNL A   1      31.782  28.059  22.959  1.00  0.00    -0.323 N 
ATOM     14  C   UNL A   1      33.271  28.645  24.978  1.00  0.00     0.037 C 
ATOM     15  C   UNL A   1      31.865  28.460  24.386  1.00  0.00     0.137 C 
ATOM     16  C   UNL A   1      31.091  29.801  24.651  1.00  0.00     0.287 C 
ATOM     17  N   UNL A   1      29.822  30.015  23.913  1.00  0.00    -0.329 N 
ATOM     18  C   UNL A   1      30.429  28.187  22.422  1.00  0.00     0.185 C 
ATOM     19  C   UNL A   1      29.396  31.415  24.048  1.00  0.00     0.262 C 
ATOM     20  C   UNL A   1      29.994  29.654  22.491  1.00  0.00     0.203 C 
ATOM     21  H   UNL A   1      29.098  29.416  24.310  1.00  0.00     0.348 HD
ATOM     22  C   UNL A   1      28.090  31.677  23.298  1.00  0.00     0.062 C 
ATOM     23  C   UNL A   1      28.704  29.862  21.690  1.00  0.00     0.067 C 
ATOM     24  C   UNL A   1      28.207  31.295  21.827  1.00  0.00     0.012 C 
ENDBRANCH  11  13
ENDBRANCH  10  11
BRANCH  10  25
ATOM     25  N   UNL A   1      32.309  25.780  20.531  1.00  0.00    -0.347 N 
ATOM     26  H   UNL A   1      31.682  24.979  20.599  1.00  0.00     0.345 HD
ATOM     27  H   UNL A   1      33.051  25.575  19.861  1.00  0.00     0.345 HD
ATOM     28  H   UNL A   1      31.785  26.597  20.218  1.00  0.00     0.345 HD
ENDBRANCH  10  25
ENDBRANCH   9  10
ENDBRANCH   7   9
ENDBRANCH   6   7
ENDBRANCH   5   6
ENDBRANCH   4   5
ENDBRANCH   3   4
ENDBRANCH   2   3
ENDBRANCH   1   2
BRANCH   1  29
ATOM     29  O   UNL A   1      38.895  22.310  26.359  1.00  0.00    -0.377 OA
BRANCH  29  30
ATOM     30  C   UNL A   1      40.048  21.849  27.054  1.00  0.00     0.188 C 
BRANCH  30  31
ATOM     31  C   UNL A   1      41.114  21.073  26.258  1.00  0.00     0.188 C 
BRANCH  31  32
ATOM     32  O   UNL A   1      42.452  21.444  26.563  1.00  0.00    -0.376 OA
BRANCH  32  33
ATOM     33  C   UNL A   1      43.493  21.040  25.682  1.00  0.00     0.202 C 
BRANCH  33  34
ATOM     34  C   UNL A   1      44.065  22.086  24.707  1.00  0.00     0.261 C 
BRANCH  34  35
ATOM     35  O   UNL A   1      43.408  23.367  24.678  1.00  0.00    -0.460 OA
BRANCH  35  36
ATOM     36  C   UNL A   1      44.136  24.464  24.976  1.00  0.00     0.338 C 
ATOM     37  O   UNL A   1      45.197  24.799  24.492  1.00  0.00    -0.246 OA
BRANCH  36  38
ATOM     38  C   UNL A   1      43.320  25.326  25.862  1.00  0.00     0.060 A 
ATOM     39  C   UNL A   1      43.705  26.662  26.026  1.00  0.00     0.016 A 
ATOM     40  C   UNL A   1      42.211  24.822  26.545  1.00  0.00     0.016 A 
ATOM     41  C   UNL A   1      43.015  27.485  26.915  1.00  0.00     0.010 A 
ATOM     42  C   UNL A   1      41.534  25.643  27.456  1.00  0.00     0.010 A 
ATOM     43  C   UNL A   1      41.961  26.964  27.677  1.00  0.00    -0.014 A 
BRANCH  43  44
ATOM     44  C   UNL A   1      41.469  27.738  28.845  1.00  0.00     0.031 A 
ATOM     45  C   UNL A   1      42.219  27.616  30.146  1.00  0.00     0.074 A 
ATOM     46  C   UNL A   1      40.423  28.577  28.745  1.00  0.00     0.049 A 
ATOM     47  N   UNL A   1      41.989  28.192  31.298  1.00  0.00    -0.248 NA
ATOM     48  C   UNL A   1      43.392  26.726  30.145  1.00  0.00     0.031 C 
ATOM     49  C   UNL A   1      39.650  28.824  27.530  1.00  0.00     0.029 A 
ATOM     50  N   UNL A   1      39.833  29.383  29.688  1.00  0.00    -0.354 N 
ATOM     51  C   UNL A   1      42.977  27.726  32.157  1.00  0.00     0.074 A 
ATOM     52  C   UNL A   1      43.795  26.802  31.404  1.00  0.00     0.031 C 
ATOM     53  C   UNL A   1      38.682  29.718  27.803  1.00  0.00     0.029 A 
ATOM     54  C   UNL A   1      38.747  30.081  29.219  1.00  0.00     0.049 A 
ATOM     55  H   UNL A   1      40.158  29.453  30.615  1.00  0.00     0.167 HD
ATOM     56  C   UNL A   1      43.185  28.045  33.456  1.00  0.00     0.037 A 
ATOM     57  C   UNL A   1      37.895  30.899  29.867  1.00  0.00     0.037 A 
ATOM     58  C   UNL A   1      42.380  28.977  34.200  1.00  0.00     0.049 A 
ATOM     59  C   UNL A   1      38.109  31.175  31.337  1.00  0.00     0.074 A 
ATOM     60  C   UNL A   1      42.535  29.392  35.510  1.00  0.00     0.029 A 
ATOM     61  N   UNL A   1      41.263  29.627  33.702  1.00  0.00    -0.354 N 
ATOM     62  N   UNL A   1      39.069  30.764  32.129  1.00  0.00    -0.248 NA
ATOM     63  C   UNL A   1      37.117  32.033  32.002  1.00  0.00     0.031 C 
ATOM     64  C   UNL A   1      41.471  30.242  35.826  1.00  0.00     0.029 A 
ATOM     65  C   UNL A   1      40.696  30.414  34.691  1.00  0.00     0.049 A 
ATOM     66  H   UNL A   1      40.923  29.545  32.781  1.00  0.00     0.167 HD
ATOM     67  C   UNL A   1      38.822  31.347  33.366  1.00  0.00     0.074 A 
ATOM     68  C   UNL A   1      37.629  32.151  33.219  1.00  0.00     0.031 C 
ATOM     69  C   UNL A   1      39.521  31.229  34.522  1.00  0.00     0.037 A 
BRANCH  56  70
ATOM     70  C   UNL A   1      44.308  27.359  34.178  1.00  0.00     0.064 A 
ATOM     71  C   UNL A   1      45.593  27.916  34.255  1.00  0.00     0.173 A 
ATOM     72  C   UNL A   1      44.072  26.156  34.862  1.00  0.00     0.173 A 
ATOM     73  F   UNL A   1      45.875  29.057  33.606  1.00  0.00    -0.203 F 
ATOM     74  C   UNL A   1      46.603  27.288  34.979  1.00  0.00     0.198 A 
ATOM     75  C   UNL A   1      45.075  25.548  35.610  1.00  0.00     0.198 A 
ATOM     76  F   UNL A   1      42.860  25.583  34.823  1.00  0.00    -0.203 F 
ATOM     77  F   UNL A   1      47.833  27.819  35.011  1.00  0.00    -0.200 F 
ATOM     78  C   UNL A   1      46.340  26.111  35.665  1.00  0.00     0.200 A 
ATOM     79  F   UNL A   1      44.814  24.418  36.283  1.00  0.00    -0.200 F 
ATOM     80  F   UNL A   1      47.309  25.519  36.378  1.00  0.00    -0.200 F 
ENDBRANCH  56  70
BRANCH  57  81
ATOM     81  C   UNL A   1      36.738  31.511  29.153  1.00  0.00     0.064 A 
ATOM     82  C   UNL A   1      36.702  32.885  28.872  1.00  0.00     0.173 A 
ATOM     83  C   UNL A   1      35.614  30.748  28.803  1.00  0.00     0.173 A 
ATOM     84  F   UNL A   1      37.739  33.666  29.210  1.00  0.00    -0.203 F 
ATOM     85  C   UNL A   1      35.573  33.477  28.308  1.00  0.00     0.198 A 
ATOM     86  C   UNL A   1      34.501  31.335  28.205  1.00  0.00     0.198 A 
ATOM     87  F   UNL A   1      35.591  29.430  29.050  1.00  0.00    -0.203 F 
ATOM     88  F   UNL A   1      35.538  34.804  28.119  1.00  0.00    -0.200 F 
ATOM     89  C   UNL A   1      34.475  32.701  27.970  1.00  0.00     0.200 A 
ATOM     90  F   UNL A   1      33.447  30.578  27.869  1.00  0.00    -0.200 F 
ATOM     91  F   UNL A   1      33.386  33.271  27.437  1.00  0.00    -0.200 F 
ENDBRANCH  57  81
BRANCH  69  92
ATOM     92  C   UNL A   1      39.053  32.031  35.705  1.00  0.00     0.064 A 
ATOM     93  C   UNL A   1      38.249  31.473  36.709  1.00  0.00     0.173 A 
ATOM     94  C   UNL A   1      39.458  33.367  35.856  1.00  0.00     0.173 A 
ATOM     95  F   UNL A   1      37.825  30.205  36.608  1.00  0.00    -0.203 F 
ATOM     96  C   UNL A   1      37.841  32.232  37.804  1.00  0.00     0.198 A 
ATOM     97  C   UNL A   1      39.080  34.111  36.970  1.00  0.00     0.198 A 
ATOM     98  F   UNL A   1      40.238  33.947  34.931  1.00  0.00    -0.203 F 
ATOM     99  F   UNL A   1      37.027  31.694  38.722  1.00  0.00    -0.200 F 
ATOM    100  C   UNL A   1      38.264  33.546  37.937  1.00  0.00     0.200 A 
ATOM    101  F   UNL A   1      39.506  35.374  37.107  1.00  0.00    -0.200 F 
ATOM    102  F   UNL A   1      37.879  34.271  38.997  1.00  0.00    -0.200 F 
ENDBRANCH  69  92
ENDBRANCH  43  44
ENDBRANCH  36  38
ENDBRANCH  35  36
ENDBRANCH  34  35
ENDBRANCH  33  34
ENDBRANCH  32  33
ENDBRANCH  31  32
ENDBRANCH  30  31
ENDBRANCH  29  30
ENDBRANCH   1  29
TORSDOF 24
ENDMDL
MODEL 3
REMARK VINA RESULT:     -10.5      1.123      2.335
REMARK SMILES C[C@H]1C[N@H+]2CCCC[C@@H]2CN1C(=O)[C@H]([NH3+])CC(=O)OCCOCCOCCOCCOC(=O)c1ccc(-c2c3nc(c(-c4c(F)c(F)c(F)c(F)c4F)c4ccc([nH]4)c(-c4c(F)c(F)c(F)c(F)c4F)c4nc(c(-c5c(F)c(F)c(F)c(F)c5F)c5ccc2[nH]5)C=C4)C=C3)cc1
REMARK SMILES IDX 24 1 23 2 22 3 21 4 20 5 19 6 17 7 18 8 16 9 14 10 12 11
REMARK SMILES IDX 13 12 11 13 1 14 2 15 3 16 4 17 10 18 5 19 9 20 6 22 8 23
REMARK SMILES IDX 7 24 15 25 25 29 26 30 27 31 28 32 29 33 30 34 31 35 32 36
REMARK SMILES IDX 33 37 34 38 35 39 96 40 36 41 95 42 37 43 38 44 39 45 89 46
REMARK SMILES IDX 40 47 94 48 88 49 90 50 41 51 93 52 87 53 86 54 42 56 74 57
REMARK SMILES IDX 54 58 73 59 55 60 58 61 72 62 91 63 56 64 57 65 71 67 92 68
REMARK SMILES IDX 59 69 43 70 44 71 52 72 45 73 46 74 50 75 53 76 47 77 48 78
REMARK SMILES IDX 51 79 49 80 75 81 76 82 84 83 77 84 78 85 82 86 85 87 79 88
REMARK SMILES IDX 80 89 83 90 81 91 60 92 61 93 69 94 62 95 63 96 67 97 70 98
REMARK SMILES IDX 64 99 65 100 68 101 66 102
REMARK H PARENT 4 21 15 26 15 27 15 28 90 55 58 66
REMARK Flexibility Score: inf
ROOT
ATOM      1  C   UNL A   1      41.095  20.411  27.377  1.00  0.00     0.188 C 
ENDROOT
BRANCH   1   2
ATOM      2  C   UNL A   1      40.490  21.006  26.103  1.00  0.00     0.188 C 
BRANCH   2   3
ATOM      3  O   UNL A   1      39.410  21.920  26.186  1.00  0.00    -0.376 OA
BRANCH   3   4
ATOM      4  C   UNL A   1      38.183  21.644  25.526  1.00  0.00     0.202 C 
BRANCH   4   5
ATOM      5  C   UNL A   1      37.058  22.693  25.431  1.00  0.00     0.261 C 
BRANCH   5   6
ATOM      6  O   UNL A   1      35.896  22.336  24.650  1.00  0.00    -0.463 OA
BRANCH   6   7
ATOM      7  C   UNL A   1      35.721  23.023  23.500  1.00  0.00     0.312 C 
ATOM      8  O   UNL A   1      36.457  22.916  22.523  1.00  0.00    -0.252 OA
BRANCH   7   9
ATOM      9  C   UNL A   1      34.574  24.007  23.484  1.00  0.00     0.198 C 
BRANCH   9  10
ATOM     10  C   UNL A   1      33.279  23.803  22.689  1.00  0.00     0.282 C 
BRANCH  10  11
ATOM     11  C   UNL A   1      32.113  23.583  23.684  1.00  0.00     0.282 C 
ATOM     12  O   UNL A   1      31.761  22.414  23.879  1.00  0.00    -0.268 OA
BRANCH  11  13
ATOM     13  N   UNL A   1      31.463  24.658  24.262  1.00  0.00    -0.323 N 
ATOM     14  C   UNL A   1      32.752  24.384  26.476  1.00  0.00     0.037 C 
ATOM     15  C   UNL A   1      31.589  25.017  25.697  1.00  0.00     0.137 C 
ATOM     16  C   UNL A   1      31.716  26.571  25.891  1.00  0.00     0.287 C 
ATOM     17  N   UNL A   1      30.912  27.439  24.996  1.00  0.00    -0.329 N 
ATOM     18  C   UNL A   1      30.517  25.517  23.552  1.00  0.00     0.185 C 
ATOM     19  C   UNL A   1      31.369  28.831  25.108  1.00  0.00     0.262 C 
ATOM     20  C   UNL A   1      31.015  26.964  23.600  1.00  0.00     0.203 C 
ATOM     21  H   UNL A   1      29.932  27.395  25.277  1.00  0.00     0.348 HD
ATOM     22  C   UNL A   1      30.565  29.759  24.198  1.00  0.00     0.062 C 
ATOM     23  C   UNL A   1      30.198  27.836  22.640  1.00  0.00     0.067 C 
ATOM     24  C   UNL A   1      30.617  29.297  22.746  1.00  0.00     0.012 C 
ENDBRANCH  11  13
ENDBRANCH  10  11
BRANCH  10  25
ATOM     25  N   UNL A   1      33.237  22.881  21.536  1.00  0.00    -0.347 N 
ATOM     26  H   UNL A   1      33.206  23.421  20.671  1.00  0.00     0.345 HD
ATOM     27  H   UNL A   1      32.404  22.294  21.600  1.00  0.00     0.345 HD
ATOM     28  H   UNL A   1      34.069  22.292  21.540  1.00  0.00     0.345 HD
ENDBRANCH  10  25
ENDBRANCH   9  10
ENDBRANCH   7   9
ENDBRANCH   6   7
ENDBRANCH   5   6
ENDBRANCH   4   5
ENDBRANCH   3   4
ENDBRANCH   2   3
ENDBRANCH   1   2
BRANCH   1  29
ATOM     29  O   UNL A   1      42.275  19.648  27.206  1.00  0.00    -0.377 OA
BRANCH  29  30
ATOM     30  C   UNL A   1      42.486  19.068  25.924  1.00  0.00     0.188 C 
BRANCH  30  31
ATOM     31  C   UNL A   1      43.912  19.095  25.341  1.00  0.00     0.188 C 
BRANCH  31  32
ATOM     32  O   UNL A   1      44.315  20.366  24.849  1.00  0.00    -0.376 OA
BRANCH  32  33
ATOM     33  C   UNL A   1      45.470  20.982  25.406  1.00  0.00     0.202 C 
BRANCH  33  34
ATOM     34  C   UNL A   1      45.756  22.450  25.040  1.00  0.00     0.261 C 
BRANCH  34  35
ATOM     35  O   UNL A   1      44.915  23.444  25.655  1.00  0.00    -0.460 OA
BRANCH  35  36
ATOM     36  C   UNL A   1      43.823  23.861  24.979  1.00  0.00     0.338 C 
ATOM     37  O   UNL A   1      43.397  23.431  23.928  1.00  0.00    -0.246 OA
BRANCH  36  38
ATOM     38  C   UNL A   1      43.088  24.812  25.845  1.00  0.00     0.060 A 
ATOM     39  C   UNL A   1      43.576  26.120  25.959  1.00  0.00     0.016 A 
ATOM     40  C   UNL A   1      41.953  24.418  26.557  1.00  0.00     0.016 A 
ATOM     41  C   UNL A   1      42.965  27.022  26.827  1.00  0.00     0.010 A 
ATOM     42  C   UNL A   1      41.355  25.318  27.448  1.00  0.00     0.010 A 
ATOM     43  C   UNL A   1      41.885  26.609  27.619  1.00  0.00    -0.014 A 
BRANCH  43  44
ATOM     44  C   UNL A   1      41.470  27.456  28.767  1.00  0.00     0.031 A 
ATOM     45  C   UNL A   1      42.274  27.374  30.038  1.00  0.00     0.074 A 
ATOM     46  C   UNL A   1      40.448  28.325  28.668  1.00  0.00     0.049 A 
ATOM     47  N   UNL A   1      42.114  28.015  31.168  1.00  0.00    -0.248 NA
ATOM     48  C   UNL A   1      43.417  26.446  30.032  1.00  0.00     0.031 C 
ATOM     49  C   UNL A   1      39.630  28.536  27.477  1.00  0.00     0.029 A 
ATOM     50  N   UNL A   1      39.927  29.196  29.594  1.00  0.00    -0.354 N 
ATOM     51  C   UNL A   1      43.124  27.559  32.006  1.00  0.00     0.074 A 
ATOM     52  C   UNL A   1      43.878  26.572  31.268  1.00  0.00     0.031 C 
ATOM     53  C   UNL A   1      38.703  29.475  27.745  1.00  0.00     0.029 A 
ATOM     54  C   UNL A   1      38.843  29.906  29.136  1.00  0.00     0.049 A 
ATOM     55  H   UNL A   1      40.295  29.301  30.501  1.00  0.00     0.167 HD
ATOM     56  C   UNL A   1      43.400  27.935  33.277  1.00  0.00     0.037 A 
ATOM     57  C   UNL A   1      38.047  30.784  29.777  1.00  0.00     0.037 A 
ATOM     58  C   UNL A   1      42.660  28.930  34.006  1.00  0.00     0.049 A 
ATOM     59  C   UNL A   1      38.336  31.126  31.221  1.00  0.00     0.074 A 
ATOM     60  C   UNL A   1      42.886  29.405  35.286  1.00  0.00     0.029 A 
ATOM     61  N   UNL A   1      41.542  29.592  33.524  1.00  0.00    -0.354 N 
ATOM     62  N   UNL A   1      39.317  30.723  31.991  1.00  0.00    -0.248 NA
ATOM     63  C   UNL A   1      37.402  32.049  31.884  1.00  0.00     0.031 C 
ATOM     64  C   UNL A   1      41.865  30.304  35.603  1.00  0.00     0.029 A 
ATOM     65  C   UNL A   1      41.045  30.445  34.495  1.00  0.00     0.049 A 
ATOM     66  H   UNL A   1      41.159  29.475  32.625  1.00  0.00     0.167 HD
ATOM     67  C   UNL A   1      39.145  31.375  33.206  1.00  0.00     0.074 A 
ATOM     68  C   UNL A   1      37.972  32.209  33.069  1.00  0.00     0.031 C 
ATOM     69  C   UNL A   1      39.890  31.290  34.335  1.00  0.00     0.037 A 
BRANCH  56  70
ATOM     70  C   UNL A   1      44.533  27.248  33.984  1.00  0.00     0.064 A 
ATOM     71  C   UNL A   1      45.816  27.810  34.052  1.00  0.00     0.173 A 
ATOM     72  C   UNL A   1      44.307  26.041  34.662  1.00  0.00     0.173 A 
ATOM     73  F   UNL A   1      46.088  28.956  33.409  1.00  0.00    -0.203 F 
ATOM     74  C   UNL A   1      46.835  27.180  34.763  1.00  0.00     0.198 A 
ATOM     75  C   UNL A   1      45.319  25.431  35.397  1.00  0.00     0.198 A 
ATOM     76  F   UNL A   1      43.097  25.463  34.630  1.00  0.00    -0.203 F 
ATOM     77  F   UNL A   1      48.063  27.716  34.788  1.00  0.00    -0.200 F 
ATOM     78  C   UNL A   1      46.583  25.998  35.444  1.00  0.00     0.200 A 
ATOM     79  F   UNL A   1      45.069  24.296  36.065  1.00  0.00    -0.200 F 
ATOM     80  F   UNL A   1      47.560  25.405  36.144  1.00  0.00    -0.200 F 
ENDBRANCH  56  70
BRANCH  57  81
ATOM     81  C   UNL A   1      36.880  31.398  29.084  1.00  0.00     0.064 A 
ATOM     82  C   UNL A   1      36.877  32.755  28.729  1.00  0.00     0.173 A 
ATOM     83  C   UNL A   1      35.715  30.659  28.828  1.00  0.00     0.173 A 
ATOM     84  F   UNL A   1      37.955  33.515  28.975  1.00  0.00    -0.203 F 
ATOM     85  C   UNL A   1      35.744  33.356  28.184  1.00  0.00     0.198 A 
ATOM     86  C   UNL A   1      34.596  31.253  28.249  1.00  0.00     0.198 A 
ATOM     87  F   UNL A   1      35.659  29.358  29.149  1.00  0.00    -0.203 F 
ATOM     88  F   UNL A   1      35.744  34.672  27.924  1.00  0.00    -0.200 F 
ATOM     89  C   UNL A   1      34.605  32.604  27.941  1.00  0.00     0.200 A 
ATOM     90  F   UNL A   1      33.502  30.518  28.004  1.00  0.00    -0.200 F 
ATOM     91  F   UNL A   1      33.512  33.184  27.426  1.00  0.00    -0.200 F 
ENDBRANCH  57  81
BRANCH  69  92
ATOM     92  C   UNL A   1      39.502  32.166  35.494  1.00  0.00     0.064 A 
ATOM     93  C   UNL A   1      40.014  33.462  35.650  1.00  0.00     0.173 A 
ATOM     94  C   UNL A   1      38.565  31.713  36.438  1.00  0.00     0.173 A 
ATOM     95  F   UNL A   1      40.920  33.939  34.784  1.00  0.00    -0.203 F 
ATOM     96  C   UNL A   1      39.627  34.261  36.724  1.00  0.00     0.198 A 
ATOM     97  C   UNL A   1      38.153  32.528  37.489  1.00  0.00     0.198 A 
ATOM     98  F   UNL A   1      38.035  30.486  36.330  1.00  0.00    -0.203 F 
ATOM     99  F   UNL A   1      40.173  35.474  36.883  1.00  0.00    -0.200 F 
ATOM    100  C   UNL A   1      38.692  33.796  37.637  1.00  0.00     0.200 A 
ATOM    101  F   UNL A   1      37.233  32.085  38.357  1.00  0.00    -0.200 F 
ATOM    102  F   UNL A   1      38.314  34.571  38.663  1.00  0.00    -0.200 F 
ENDBRANCH  69  92
ENDBRANCH  43  44
ENDBRANCH  36  38
ENDBRANCH  35  36
ENDBRANCH  34  35
ENDBRANCH  33  34
ENDBRANCH  32  33
ENDBRANCH  31  32
ENDBRANCH  30  31
ENDBRANCH  29  30
ENDBRANCH   1  29
TORSDOF 24
ENDMDL
