MODEL 1
REMARK VINA RESULT:     -11.5      0.000      0.000
REMARK SMILES CN1C(=O)C[C@@H](C(=O)OCCOCCOCCOCCOC(=O)c2ccc(-c3c4nc(c(-c5c(F)c(F)c(F)c(F)c5F)c5ccc([nH]5)c(-c5c(F)c(F)c(F)c(F)c5F)c5nc(c(-c6c(F)c(F)c(F)c(F)c6F)c6ccc3[nH]6)C=C5)C=C4)cc2)C12CCN(c1ccc(Cl)cn1)CC2
REMARK SMILES IDX 16 1 15 2 14 3 13 4 12 5 11 6 10 7 9 8 7 9 8 10 6 11 1 12
REMARK SMILES IDX 2 13 3 14 87 15 4 16 5 17 88 18 99 19 89 20 98 21 90 22
REMARK SMILES IDX 91 23 92 24 97 25 93 26 96 27 94 28 95 29 17 30 18 31 19 32
REMARK SMILES IDX 20 33 21 34 22 35 23 36 24 37 25 38 86 39 26 40 85 41 27 42
REMARK SMILES IDX 28 43 29 44 79 45 30 46 84 47 78 48 80 49 31 50 83 51 77 52
REMARK SMILES IDX 76 53 32 55 64 56 44 57 63 58 45 59 48 60 62 61 81 62 46 63
REMARK SMILES IDX 47 64 61 66 82 67 49 68 33 69 34 70 42 71 35 72 36 73 40 74
REMARK SMILES IDX 43 75 37 76 38 77 41 78 39 79 65 80 66 81 74 82 67 83 68 84
REMARK SMILES IDX 72 85 75 86 69 87 70 88 73 89 71 90 50 91 51 92 59 93 52 94
REMARK SMILES IDX 53 95 57 96 60 97 54 98 55 99 58 100 56 101
REMARK H PARENT 80 54 48 65
REMARK Flexibility Score: inf
ROOT
ATOM      1  C   UNL A   1      33.047  29.467  24.880  1.00  0.00     0.188 C 
ENDROOT
BRANCH   1   2
ATOM      2  O   UNL A   1      32.010  29.313  23.912  1.00  0.00    -0.377 OA
BRANCH   2   3
ATOM      3  C   UNL A   1      30.702  28.928  24.305  1.00  0.00     0.188 C 
BRANCH   3   4
ATOM      4  C   UNL A   1      29.747  28.494  23.196  1.00  0.00     0.188 C 
BRANCH   4   5
ATOM      5  O   UNL A   1      30.096  27.368  22.425  1.00  0.00    -0.376 OA
BRANCH   5   6
ATOM      6  C   UNL A   1      30.626  26.223  23.085  1.00  0.00     0.202 C 
BRANCH   6   7
ATOM      7  C   UNL A   1      30.076  25.726  24.442  1.00  0.00     0.261 C 
BRANCH   7   8
ATOM      8  O   UNL A   1      30.773  24.624  25.099  1.00  0.00    -0.463 OA
BRANCH   8   9
ATOM      9  C   UNL A   1      32.029  24.903  25.507  1.00  0.00     0.311 C 
ATOM     10  O   UNL A   1      32.274  25.766  26.355  1.00  0.00    -0.252 OA
BRANCH   9  11
ATOM     11  C   UNL A   1      33.213  24.216  24.833  1.00  0.00     0.134 C 
ATOM     12  C   UNL A   1      33.305  23.522  21.129  1.00  0.00     0.147 C 
ATOM     13  N   UNL A   1      33.426  24.005  22.497  1.00  0.00    -0.339 N 
ATOM     14  C   UNL A   1      33.801  25.303  22.781  1.00  0.00     0.223 C 
ATOM     15  C   UNL A   1      33.307  23.147  23.698  1.00  0.00     0.060 C 
ATOM     16  O   UNL A   1      33.977  26.205  21.980  1.00  0.00    -0.275 OA
ATOM     17  C   UNL A   1      34.024  25.404  24.259  1.00  0.00     0.118 C 
ATOM     18  C   UNL A   1      32.162  22.145  23.495  1.00  0.00     0.051 C 
ATOM     19  C   UNL A   1      34.659  22.353  23.892  1.00  0.00     0.051 C 
ATOM     20  C   UNL A   1      32.198  20.882  24.329  1.00  0.00     0.120 C 
ATOM     21  C   UNL A   1      34.560  21.144  24.841  1.00  0.00     0.120 C 
ATOM     22  N   UNL A   1      33.520  20.271  24.320  1.00  0.00    -0.356 N 
BRANCH  22  23
ATOM     23  C   UNL A   1      33.461  18.947  24.775  1.00  0.00     0.128 A 
ATOM     24  C   UNL A   1      34.483  18.074  24.376  1.00  0.00     0.048 A 
ATOM     25  N   UNL A   1      32.382  18.497  25.444  1.00  0.00    -0.238 NA
ATOM     26  C   UNL A   1      34.375  16.705  24.611  1.00  0.00     0.026 A 
ATOM     27  C   UNL A   1      32.300  17.155  25.672  1.00  0.00     0.134 A 
ATOM     28  C   UNL A   1      33.249  16.232  25.260  1.00  0.00     0.059 A 
ATOM     29  Cl  UNL A   1      33.033  14.549  25.511  1.00  0.00    -0.083 Cl
ENDBRANCH  22  23
ENDBRANCH   9  11
ENDBRANCH   8   9
ENDBRANCH   7   8
ENDBRANCH   6   7
ENDBRANCH   5   6
ENDBRANCH   4   5
ENDBRANCH   3   4
ENDBRANCH   2   3
ENDBRANCH   1   2
BRANCH   1  30
ATOM     30  C   UNL A   1      32.693  29.384  26.367  1.00  0.00     0.188 C 
BRANCH  30  31
ATOM     31  O   UNL A   1      32.489  30.599  27.091  1.00  0.00    -0.376 OA
BRANCH  31  32
ATOM     32  C   UNL A   1      31.531  31.534  26.614  1.00  0.00     0.202 C 
BRANCH  32  33
ATOM     33  C   UNL A   1      31.843  33.001  26.899  1.00  0.00     0.261 C 
BRANCH  33  34
ATOM     34  O   UNL A   1      33.125  33.144  27.528  1.00  0.00    -0.460 OA
BRANCH  34  35
ATOM     35  C   UNL A   1      33.230  34.212  28.351  1.00  0.00     0.338 C 
ATOM     36  O   UNL A   1      32.480  35.166  28.428  1.00  0.00    -0.246 OA
BRANCH  35  37
ATOM     37  C   UNL A   1      34.338  33.992  29.295  1.00  0.00     0.060 A 
ATOM     38  C   UNL A   1      35.633  34.262  28.840  1.00  0.00     0.016 A 
ATOM     39  C   UNL A   1      34.122  33.453  30.567  1.00  0.00     0.016 A 
ATOM     40  C   UNL A   1      36.727  33.936  29.630  1.00  0.00     0.010 A 
ATOM     41  C   UNL A   1      35.221  33.113  31.356  1.00  0.00     0.010 A 
ATOM     42  C   UNL A   1      36.524  33.310  30.865  1.00  0.00    -0.014 A 
BRANCH  42  43
ATOM     43  C   UNL A   1      37.675  32.663  31.530  1.00  0.00     0.031 A 
ATOM     44  C   UNL A   1      38.339  31.510  30.834  1.00  0.00     0.074 A 
ATOM     45  C   UNL A   1      38.146  33.135  32.695  1.00  0.00     0.049 A 
ATOM     46  N   UNL A   1      39.336  30.760  31.227  1.00  0.00    -0.248 NA
ATOM     47  C   UNL A   1      37.805  31.152  29.508  1.00  0.00     0.031 C 
ATOM     48  C   UNL A   1      37.605  34.283  33.421  1.00  0.00     0.029 A 
ATOM     49  N   UNL A   1      39.183  32.698  33.476  1.00  0.00    -0.354 N 
ATOM     50  C   UNL A   1      39.546  29.848  30.201  1.00  0.00     0.074 A 
ATOM     51  C   UNL A   1      38.550  30.106  29.186  1.00  0.00     0.031 C 
ATOM     52  C   UNL A   1      38.306  34.449  34.555  1.00  0.00     0.029 A 
ATOM     53  C   UNL A   1      39.317  33.398  34.649  1.00  0.00     0.049 A 
ATOM     54  H   UNL A   1      39.776  31.953  33.221  1.00  0.00     0.167 HD
ATOM     55  C   UNL A   1      40.496  28.887  30.114  1.00  0.00     0.037 A 
ATOM     56  C   UNL A   1      40.146  33.185  35.689  1.00  0.00     0.037 A 
ATOM     57  C   UNL A   1      41.472  28.636  31.140  1.00  0.00     0.049 A 
ATOM     58  C   UNL A   1      41.136  32.051  35.607  1.00  0.00     0.074 A 
ATOM     59  C   UNL A   1      42.474  27.685  31.165  1.00  0.00     0.029 A 
ATOM     60  N   UNL A   1      41.559  29.345  32.330  1.00  0.00    -0.354 N 
ATOM     61  N   UNL A   1      41.339  31.196  34.632  1.00  0.00    -0.248 NA
ATOM     62  C   UNL A   1      42.016  31.856  36.766  1.00  0.00     0.031 C 
ATOM     63  C   UNL A   1      43.132  27.781  32.397  1.00  0.00     0.029 A 
ATOM     64  C   UNL A   1      42.583  28.836  33.110  1.00  0.00     0.049 A 
ATOM     65  H   UNL A   1      40.978  30.099  32.583  1.00  0.00     0.167 HD
ATOM     66  C   UNL A   1      42.386  30.383  35.046  1.00  0.00     0.074 A 
ATOM     67  C   UNL A   1      42.787  30.859  36.354  1.00  0.00     0.031 C 
ATOM     68  C   UNL A   1      42.966  29.337  34.405  1.00  0.00     0.037 A 
BRANCH  55  69
ATOM     69  C   UNL A   1      40.501  28.025  28.885  1.00  0.00     0.064 A 
ATOM     70  C   UNL A   1      41.238  28.371  27.741  1.00  0.00     0.173 A 
ATOM     71  C   UNL A   1      39.775  26.824  28.855  1.00  0.00     0.173 A 
ATOM     72  F   UNL A   1      41.934  29.518  27.708  1.00  0.00    -0.203 F 
ATOM     73  C   UNL A   1      41.225  27.563  26.606  1.00  0.00     0.198 A 
ATOM     74  C   UNL A   1      39.791  26.003  27.731  1.00  0.00     0.198 A 
ATOM     75  F   UNL A   1      39.052  26.445  29.919  1.00  0.00    -0.203 F 
ATOM     76  F   UNL A   1      41.893  27.941  25.508  1.00  0.00    -0.200 F 
ATOM     77  C   UNL A   1      40.508  26.376  26.605  1.00  0.00     0.200 A 
ATOM     78  F   UNL A   1      39.106  24.851  27.737  1.00  0.00    -0.200 F 
ATOM     79  F   UNL A   1      40.502  25.596  25.516  1.00  0.00    -0.200 F 
ENDBRANCH  55  69
BRANCH  56  80
ATOM     80  C   UNL A   1      40.056  34.041  36.901  1.00  0.00     0.064 A 
ATOM     81  C   UNL A   1      39.202  33.712  37.964  1.00  0.00     0.173 A 
ATOM     82  C   UNL A   1      40.806  35.222  37.012  1.00  0.00     0.173 A 
ATOM     83  F   UNL A   1      38.448  32.605  37.898  1.00  0.00    -0.203 F 
ATOM     84  C   UNL A   1      39.084  34.544  39.076  1.00  0.00     0.198 A 
ATOM     85  C   UNL A   1      40.711  36.035  38.139  1.00  0.00     0.198 A 
ATOM     86  F   UNL A   1      41.640  35.583  36.025  1.00  0.00    -0.203 F 
ATOM     87  F   UNL A   1      38.218  34.235  40.051  1.00  0.00    -0.200 F 
ATOM     88  C   UNL A   1      39.842  35.702  39.165  1.00  0.00     0.200 A 
ATOM     89  F   UNL A   1      41.458  37.144  38.226  1.00  0.00    -0.200 F 
ATOM     90  F   UNL A   1      39.726  36.501  40.234  1.00  0.00    -0.200 F 
ENDBRANCH  56  80
BRANCH  68  91
ATOM     91  C   UNL A   1      44.123  28.667  35.092  1.00  0.00     0.064 A 
ATOM     92  C   UNL A   1      43.937  27.600  35.983  1.00  0.00     0.173 A 
ATOM     93  C   UNL A   1      45.439  29.071  34.814  1.00  0.00     0.173 A 
ATOM     94  F   UNL A   1      42.698  27.186  36.290  1.00  0.00    -0.203 F 
ATOM     95  C   UNL A   1      45.024  26.983  36.595  1.00  0.00     0.198 A 
ATOM     96  C   UNL A   1      46.524  28.426  35.400  1.00  0.00     0.198 A 
ATOM     97  F   UNL A   1      45.672  30.080  33.962  1.00  0.00    -0.203 F 
ATOM     98  F   UNL A   1      44.820  26.001  37.484  1.00  0.00    -0.200 F 
ATOM     99  C   UNL A   1      46.316  27.390  36.296  1.00  0.00     0.200 A 
ATOM    100  F   UNL A   1      47.772  28.809  35.096  1.00  0.00    -0.200 F 
ATOM    101  F   UNL A   1      47.361  26.786  36.879  1.00  0.00    -0.200 F 
ENDBRANCH  68  91
ENDBRANCH  42  43
ENDBRANCH  35  37
ENDBRANCH  34  35
ENDBRANCH  33  34
ENDBRANCH  32  33
ENDBRANCH  31  32
ENDBRANCH  30  31
ENDBRANCH   1  30
TORSDOF 21
ENDMDL
MODEL 2
REMARK VINA RESULT:     -11.5      1.844      2.827
REMARK SMILES CN1C(=O)C[C@@H](C(=O)OCCOCCOCCOCCOC(=O)c2ccc(-c3c4nc(c(-c5c(F)c(F)c(F)c(F)c5F)c5ccc([nH]5)c(-c5c(F)c(F)c(F)c(F)c5F)c5nc(c(-c6c(F)c(F)c(F)c(F)c6F)c6ccc3[nH]6)C=C5)C=C4)cc2)C12CCN(c1ccc(Cl)cn1)CC2
REMARK SMILES IDX 16 1 15 2 14 3 13 4 12 5 11 6 10 7 9 8 7 9 8 10 6 11 1 12
REMARK SMILES IDX 2 13 3 14 87 15 4 16 5 17 88 18 99 19 89 20 98 21 90 22
REMARK SMILES IDX 91 23 92 24 97 25 93 26 96 27 94 28 95 29 17 30 18 31 19 32
REMARK SMILES IDX 20 33 21 34 22 35 23 36 24 37 25 38 86 39 26 40 85 41 27 42
REMARK SMILES IDX 28 43 29 44 79 45 30 46 84 47 78 48 80 49 31 50 83 51 77 52
REMARK SMILES IDX 76 53 32 55 64 56 44 57 63 58 45 59 48 60 62 61 81 62 46 63
REMARK SMILES IDX 47 64 61 66 82 67 49 68 33 69 34 70 42 71 35 72 36 73 40 74
REMARK SMILES IDX 43 75 37 76 38 77 41 78 39 79 65 80 66 81 74 82 67 83 68 84
REMARK SMILES IDX 72 85 75 86 69 87 70 88 73 89 71 90 50 91 51 92 59 93 52 94
REMARK SMILES IDX 53 95 57 96 60 97 54 98 55 99 58 100 56 101
REMARK H PARENT 80 54 48 65
REMARK Flexibility Score: inf
ROOT
ATOM      1  C   UNL A   1      32.872  28.997  25.224  1.00  0.00     0.188 C 
ENDROOT
BRANCH   1   2
ATOM      2  O   UNL A   1      32.086  29.050  24.034  1.00  0.00    -0.377 OA
BRANCH   2   3
ATOM      3  C   UNL A   1      30.709  28.709  24.058  1.00  0.00     0.188 C 
BRANCH   3   4
ATOM      4  C   UNL A   1      30.232  27.688  23.029  1.00  0.00     0.188 C 
BRANCH   4   5
ATOM      5  O   UNL A   1      31.062  27.428  21.920  1.00  0.00    -0.376 OA
BRANCH   5   6
ATOM      6  C   UNL A   1      31.774  26.196  21.871  1.00  0.00     0.202 C 
BRANCH   6   7
ATOM      7  C   UNL A   1      32.876  25.841  22.895  1.00  0.00     0.261 C 
BRANCH   7   8
ATOM      8  O   UNL A   1      34.000  25.030  22.435  1.00  0.00    -0.463 OA
BRANCH   8   9
ATOM      9  C   UNL A   1      33.697  23.750  22.136  1.00  0.00     0.311 C 
ATOM     10  O   UNL A   1      33.344  23.398  21.007  1.00  0.00    -0.252 OA
BRANCH   9  11
ATOM     11  C   UNL A   1      33.678  22.700  23.243  1.00  0.00     0.134 C 
ATOM     12  C   UNL A   1      32.868  23.555  26.824  1.00  0.00     0.147 C 
ATOM     13  N   UNL A   1      32.920  23.141  25.430  1.00  0.00    -0.339 N 
ATOM     14  C   UNL A   1      31.776  22.976  24.675  1.00  0.00     0.223 C 
ATOM     15  C   UNL A   1      34.157  22.724  24.730  1.00  0.00     0.060 C 
ATOM     16  O   UNL A   1      30.634  23.232  25.014  1.00  0.00    -0.275 OA
ATOM     17  C   UNL A   1      32.173  22.355  23.370  1.00  0.00     0.118 C 
ATOM     18  C   UNL A   1      35.312  23.646  25.146  1.00  0.00     0.051 C 
ATOM     19  C   UNL A   1      34.504  21.241  25.151  1.00  0.00     0.051 C 
ATOM     20  C   UNL A   1      36.717  23.108  24.974  1.00  0.00     0.120 C 
ATOM     21  C   UNL A   1      35.947  20.806  24.830  1.00  0.00     0.120 C 
ATOM     22  N   UNL A   1      36.837  21.750  25.488  1.00  0.00    -0.356 N 
BRANCH  22  23
ATOM     23  C   UNL A   1      38.182  21.399  25.660  1.00  0.00     0.128 A 
ATOM     24  C   UNL A   1      38.548  20.070  25.401  1.00  0.00     0.048 A 
ATOM     25  N   UNL A   1      39.057  22.270  26.200  1.00  0.00    -0.238 NA
ATOM     26  C   UNL A   1      39.813  19.603  25.754  1.00  0.00     0.026 A 
ATOM     27  C   UNL A   1      40.292  21.795  26.531  1.00  0.00     0.134 A 
ATOM     28  C   UNL A   1      40.700  20.482  26.349  1.00  0.00     0.059 A 
ATOM     29  Cl  UNL A   1      42.243  19.942  26.868  1.00  0.00    -0.083 Cl
ENDBRANCH  22  23
ENDBRANCH   9  11
ENDBRANCH   8   9
ENDBRANCH   7   8
ENDBRANCH   6   7
ENDBRANCH   5   6
ENDBRANCH   4   5
ENDBRANCH   3   4
ENDBRANCH   2   3
ENDBRANCH   1   2
BRANCH   1  30
ATOM     30  C   UNL A   1      32.201  29.282  26.569  1.00  0.00     0.188 C 
BRANCH  30  31
ATOM     31  O   UNL A   1      32.256  30.611  27.094  1.00  0.00    -0.376 OA
BRANCH  31  32
ATOM     32  C   UNL A   1      31.441  31.618  26.508  1.00  0.00     0.202 C 
BRANCH  32  33
ATOM     33  C   UNL A   1      31.788  33.053  26.896  1.00  0.00     0.261 C 
BRANCH  33  34
ATOM     34  O   UNL A   1      33.035  33.111  27.606  1.00  0.00    -0.460 OA
BRANCH  34  35
ATOM     35  C   UNL A   1      33.207  34.228  28.346  1.00  0.00     0.338 C 
ATOM     36  O   UNL A   1      32.506  35.222  28.366  1.00  0.00    -0.246 OA
BRANCH  35  37
ATOM     37  C   UNL A   1      34.320  34.022  29.288  1.00  0.00     0.060 A 
ATOM     38  C   UNL A   1      35.617  34.216  28.801  1.00  0.00     0.016 A 
ATOM     39  C   UNL A   1      34.104  33.565  30.591  1.00  0.00     0.016 A 
ATOM     40  C   UNL A   1      36.711  33.894  29.594  1.00  0.00     0.010 A 
ATOM     41  C   UNL A   1      35.201  33.230  31.384  1.00  0.00     0.010 A 
ATOM     42  C   UNL A   1      36.504  33.349  30.866  1.00  0.00    -0.014 A 
BRANCH  42  43
ATOM     43  C   UNL A   1      37.640  32.698  31.552  1.00  0.00     0.031 A 
ATOM     44  C   UNL A   1      38.276  31.508  30.895  1.00  0.00     0.074 A 
ATOM     45  C   UNL A   1      38.122  33.198  32.701  1.00  0.00     0.049 A 
ATOM     46  N   UNL A   1      39.255  30.748  31.313  1.00  0.00    -0.248 NA
ATOM     47  C   UNL A   1      37.733  31.117  29.583  1.00  0.00     0.031 C 
ATOM     48  C   UNL A   1      37.609  34.382  33.387  1.00  0.00     0.029 A 
ATOM     49  N   UNL A   1      39.150  32.764  33.496  1.00  0.00    -0.354 N 
ATOM     50  C   UNL A   1      39.444  29.797  30.319  1.00  0.00     0.074 A 
ATOM     51  C   UNL A   1      38.453  30.044  29.296  1.00  0.00     0.031 C 
ATOM     52  C   UNL A   1      38.314  34.570  34.515  1.00  0.00     0.029 A 
ATOM     53  C   UNL A   1      39.301  33.499  34.644  1.00  0.00     0.049 A 
ATOM     54  H   UNL A   1      39.725  31.998  33.266  1.00  0.00     0.167 HD
ATOM     55  C   UNL A   1      40.371  28.812  30.264  1.00  0.00     0.037 A 
ATOM     56  C   UNL A   1      40.126  33.303  35.691  1.00  0.00     0.037 A 
ATOM     57  C   UNL A   1      41.342  28.574  31.298  1.00  0.00     0.049 A 
ATOM     58  C   UNL A   1      41.089  32.144  35.647  1.00  0.00     0.074 A 
ATOM     59  C   UNL A   1      42.322  27.600  31.356  1.00  0.00     0.029 A 
ATOM     60  N   UNL A   1      41.446  29.320  32.464  1.00  0.00    -0.354 N 
ATOM     61  N   UNL A   1      41.272  31.252  34.702  1.00  0.00    -0.248 NA
ATOM     62  C   UNL A   1      41.965  31.968  36.812  1.00  0.00     0.031 C 
ATOM     63  C   UNL A   1      42.983  27.723  32.583  1.00  0.00     0.029 A 
ATOM     64  C   UNL A   1      42.459  28.814  33.260  1.00  0.00     0.049 A 
ATOM     65  H   UNL A   1      40.883  30.095  32.691  1.00  0.00     0.167 HD
ATOM     66  C   UNL A   1      42.300  30.430  35.142  1.00  0.00     0.074 A 
ATOM     67  C   UNL A   1      42.713  30.941  36.434  1.00  0.00     0.031 C 
ATOM     68  C   UNL A   1      42.855  29.350  34.538  1.00  0.00     0.037 A 
BRANCH  55  69
ATOM     69  C   UNL A   1      40.355  27.910  29.065  1.00  0.00     0.064 A 
ATOM     70  C   UNL A   1      41.082  28.210  27.902  1.00  0.00     0.173 A 
ATOM     71  C   UNL A   1      39.619  26.715  29.084  1.00  0.00     0.173 A 
ATOM     72  F   UNL A   1      41.787  29.349  27.823  1.00  0.00    -0.203 F 
ATOM     73  C   UNL A   1      41.049  27.365  26.795  1.00  0.00     0.198 A 
ATOM     74  C   UNL A   1      39.615  25.855  27.988  1.00  0.00     0.198 A 
ATOM     75  F   UNL A   1      38.905  26.377  30.168  1.00  0.00    -0.203 F 
ATOM     76  F   UNL A   1      41.708  27.700  25.678  1.00  0.00    -0.200 F 
ATOM     77  C   UNL A   1      40.322  26.184  26.843  1.00  0.00     0.200 A 
ATOM     78  F   UNL A   1      38.921  24.710  28.041  1.00  0.00    -0.200 F 
ATOM     79  F   UNL A   1      40.298  25.368  25.781  1.00  0.00    -0.200 F 
ENDBRANCH  55  69
BRANCH  56  80
ATOM     80  C   UNL A   1      40.056  34.201  36.874  1.00  0.00     0.064 A 
ATOM     81  C   UNL A   1      40.849  35.355  36.961  1.00  0.00     0.173 A 
ATOM     82  C   UNL A   1      39.211  33.911  37.955  1.00  0.00     0.173 A 
ATOM     83  F   UNL A   1      41.689  35.666  35.963  1.00  0.00    -0.203 F 
ATOM     84  C   UNL A   1      40.817  36.166  38.093  1.00  0.00     0.198 A 
ATOM     85  C   UNL A   1      39.156  34.740  39.072  1.00  0.00     0.198 A 
ATOM     86  F   UNL A   1      38.430  32.820  37.924  1.00  0.00    -0.203 F 
ATOM     87  F   UNL A   1      41.626  37.232  38.174  1.00  0.00    -0.200 F 
ATOM     88  C   UNL A   1      39.967  35.862  39.146  1.00  0.00     0.200 A 
ATOM     89  F   UNL A   1      38.322  34.450  40.079  1.00  0.00    -0.200 F 
ATOM     90  F   UNL A   1      39.939  36.642  40.235  1.00  0.00    -0.200 F 
ENDBRANCH  56  80
BRANCH  68  91
ATOM     91  C   UNL A   1      43.996  28.676  35.247  1.00  0.00     0.064 A 
ATOM     92  C   UNL A   1      43.785  27.653  36.182  1.00  0.00     0.173 A 
ATOM     93  C   UNL A   1      45.321  29.031  34.946  1.00  0.00     0.173 A 
ATOM     94  F   UNL A   1      42.538  27.287  36.512  1.00  0.00    -0.203 F 
ATOM     95  C   UNL A   1      44.859  27.031  36.814  1.00  0.00     0.198 A 
ATOM     96  C   UNL A   1      46.392  28.381  35.554  1.00  0.00     0.198 A 
ATOM     97  F   UNL A   1      45.578  29.996  34.051  1.00  0.00    -0.203 F 
ATOM     98  F   UNL A   1      44.633  26.094  37.745  1.00  0.00    -0.200 F 
ATOM     99  C   UNL A   1      46.160  27.390  36.494  1.00  0.00     0.200 A 
ATOM    100  F   UNL A   1      47.648  28.716  35.228  1.00  0.00    -0.200 F 
ATOM    101  F   UNL A   1      47.191  26.781  37.096  1.00  0.00    -0.200 F 
ENDBRANCH  68  91
ENDBRANCH  42  43
ENDBRANCH  35  37
ENDBRANCH  34  35
ENDBRANCH  33  34
ENDBRANCH  32  33
ENDBRANCH  31  32
ENDBRANCH  30  31
ENDBRANCH   1  30
TORSDOF 21
ENDMDL
MODEL 3
REMARK VINA RESULT:     -11.1      2.122      7.699
REMARK SMILES CN1C(=O)C[C@@H](C(=O)OCCOCCOCCOCCOC(=O)c2ccc(-c3c4nc(c(-c5c(F)c(F)c(F)c(F)c5F)c5ccc([nH]5)c(-c5c(F)c(F)c(F)c(F)c5F)c5nc(c(-c6c(F)c(F)c(F)c(F)c6F)c6ccc3[nH]6)C=C5)C=C4)cc2)C12CCN(c1ccc(Cl)cn1)CC2
REMARK SMILES IDX 16 1 15 2 14 3 13 4 12 5 11 6 10 7 9 8 7 9 8 10 6 11 1 12
REMARK SMILES IDX 2 13 3 14 87 15 4 16 5 17 88 18 99 19 89 20 98 21 90 22
REMARK SMILES IDX 91 23 92 24 97 25 93 26 96 27 94 28 95 29 17 30 18 31 19 32
REMARK SMILES IDX 20 33 21 34 22 35 23 36 24 37 25 38 86 39 26 40 85 41 27 42
REMARK SMILES IDX 28 43 29 44 79 45 30 46 84 47 78 48 80 49 31 50 83 51 77 52
REMARK SMILES IDX 76 53 32 55 64 56 44 57 63 58 45 59 48 60 62 61 81 62 46 63
REMARK SMILES IDX 47 64 61 66 82 67 49 68 33 69 34 70 42 71 35 72 36 73 40 74
REMARK SMILES IDX 43 75 37 76 38 77 41 78 39 79 65 80 66 81 74 82 67 83 68 84
REMARK SMILES IDX 72 85 75 86 69 87 70 88 73 89 71 90 50 91 51 92 59 93 52 94
REMARK SMILES IDX 53 95 57 96 60 97 54 98 55 99 58 100 56 101
REMARK H PARENT 80 54 48 65
REMARK Flexibility Score: inf
ROOT
ATOM      1  C   UNL A   1      32.994  29.460  25.072  1.00  0.00     0.188 C 
ENDROOT
BRANCH   1   2
ATOM      2  O   UNL A   1      31.779  28.831  24.667  1.00  0.00    -0.377 OA
BRANCH   2   3
ATOM      3  C   UNL A   1      30.992  28.106  25.599  1.00  0.00     0.188 C 
BRANCH   3   4
ATOM      4  C   UNL A   1      31.205  26.596  25.656  1.00  0.00     0.188 C 
BRANCH   4   5
ATOM      5  O   UNL A   1      32.374  26.115  26.277  1.00  0.00    -0.376 OA
BRANCH   5   6
ATOM      6  C   UNL A   1      33.496  25.783  25.465  1.00  0.00     0.202 C 
BRANCH   6   7
ATOM      7  C   UNL A   1      33.370  25.561  23.940  1.00  0.00     0.261 C 
BRANCH   7   8
ATOM      8  O   UNL A   1      34.412  24.782  23.276  1.00  0.00    -0.463 OA
BRANCH   8   9
ATOM      9  C   UNL A   1      34.029  23.559  22.852  1.00  0.00     0.311 C 
ATOM     10  O   UNL A   1      33.480  23.376  21.762  1.00  0.00    -0.252 OA
BRANCH   9  11
ATOM     11  C   UNL A   1      34.171  22.358  23.784  1.00  0.00     0.134 C 
ATOM     12  C   UNL A   1      33.504  22.586  27.487  1.00  0.00     0.147 C 
ATOM     13  N   UNL A   1      33.509  22.392  26.044  1.00  0.00    -0.339 N 
ATOM     14  C   UNL A   1      32.341  22.230  25.326  1.00  0.00     0.223 C 
ATOM     15  C   UNL A   1      34.734  22.208  25.232  1.00  0.00     0.060 C 
ATOM     16  O   UNL A   1      31.203  22.320  25.752  1.00  0.00    -0.275 OA
ATOM     17  C   UNL A   1      32.713  21.853  23.924  1.00  0.00     0.118 C 
ATOM     18  C   UNL A   1      35.824  23.166  25.733  1.00  0.00     0.051 C 
ATOM     19  C   UNL A   1      35.238  20.719  25.403  1.00  0.00     0.051 C 
ATOM     20  C   UNL A   1      37.259  22.799  25.416  1.00  0.00     0.120 C 
ATOM     21  C   UNL A   1      36.692  20.480  24.954  1.00  0.00     0.120 C 
ATOM     22  N   UNL A   1      37.531  21.398  25.708  1.00  0.00    -0.356 N 
BRANCH  22  23
ATOM     23  C   UNL A   1      38.911  21.159  25.762  1.00  0.00     0.128 A 
ATOM     24  C   UNL A   1      39.343  19.825  25.749  1.00  0.00     0.048 A 
ATOM     25  N   UNL A   1      39.777  22.170  25.972  1.00  0.00    -0.238 NA
ATOM     26  C   UNL A   1      40.674  19.510  26.016  1.00  0.00     0.026 A 
ATOM     27  C   UNL A   1      41.076  21.840  26.221  1.00  0.00     0.134 A 
ATOM     28  C   UNL A   1      41.558  20.541  26.274  1.00  0.00     0.059 A 
ATOM     29  Cl  UNL A   1      43.191  20.205  26.677  1.00  0.00    -0.083 Cl
ENDBRANCH  22  23
ENDBRANCH   9  11
ENDBRANCH   8   9
ENDBRANCH   7   8
ENDBRANCH   6   7
ENDBRANCH   5   6
ENDBRANCH   4   5
ENDBRANCH   3   4
ENDBRANCH   2   3
ENDBRANCH   1   2
BRANCH   1  30
ATOM     30  C   UNL A   1      33.290  29.609  26.566  1.00  0.00     0.188 C 
BRANCH  30  31
ATOM     31  O   UNL A   1      33.001  30.858  27.200  1.00  0.00    -0.376 OA
BRANCH  31  32
ATOM     32  C   UNL A   1      31.818  31.559  26.836  1.00  0.00     0.202 C 
BRANCH  32  33
ATOM     33  C   UNL A   1      31.838  33.062  27.094  1.00  0.00     0.261 C 
BRANCH  33  34
ATOM     34  O   UNL A   1      33.171  33.525  27.360  1.00  0.00    -0.460 OA
BRANCH  34  35
ATOM     35  C   UNL A   1      33.266  34.409  28.378  1.00  0.00     0.338 C 
ATOM     36  O   UNL A   1      32.506  35.321  28.643  1.00  0.00    -0.246 OA
BRANCH  35  37
ATOM     37  C   UNL A   1      34.376  34.017  29.262  1.00  0.00     0.060 A 
ATOM     38  C   UNL A   1      35.677  34.250  28.801  1.00  0.00     0.016 A 
ATOM     39  C   UNL A   1      34.152  33.359  30.474  1.00  0.00     0.016 A 
ATOM     40  C   UNL A   1      36.763  33.770  29.520  1.00  0.00     0.010 A 
ATOM     41  C   UNL A   1      35.242  32.865  31.191  1.00  0.00     0.010 A 
ATOM     42  C   UNL A   1      36.545  33.028  30.687  1.00  0.00    -0.014 A 
BRANCH  42  43
ATOM     43  C   UNL A   1      37.664  32.240  31.246  1.00  0.00     0.031 A 
ATOM     44  C   UNL A   1      38.130  32.561  32.636  1.00  0.00     0.074 A 
ATOM     45  C   UNL A   1      38.205  31.230  30.547  1.00  0.00     0.049 A 
ATOM     46  N   UNL A   1      39.110  32.040  33.328  1.00  0.00    -0.248 NA
ATOM     47  C   UNL A   1      37.388  33.616  33.348  1.00  0.00     0.031 C 
ATOM     48  C   UNL A   1      37.784  30.806  29.213  1.00  0.00     0.029 A 
ATOM     49  N   UNL A   1      39.233  30.382  30.865  1.00  0.00    -0.354 N 
ATOM     50  C   UNL A   1      39.101  32.702  34.549  1.00  0.00     0.074 A 
ATOM     51  C   UNL A   1      38.048  33.690  34.493  1.00  0.00     0.031 C 
ATOM     52  C   UNL A   1      38.563  29.785  28.816  1.00  0.00     0.029 A 
ATOM     53  C   UNL A   1      39.556  29.512  29.853  1.00  0.00     0.049 A 
ATOM     54  H   UNL A   1      39.696  30.394  31.734  1.00  0.00     0.167 HD
ATOM     55  C   UNL A   1      39.896  32.491  35.624  1.00  0.00     0.037 A 
ATOM     56  C   UNL A   1      40.563  28.622  29.772  1.00  0.00     0.037 A 
ATOM     57  C   UNL A   1      40.947  31.510  35.658  1.00  0.00     0.049 A 
ATOM     58  C   UNL A   1      41.492  28.469  30.949  1.00  0.00     0.074 A 
ATOM     59  C   UNL A   1      41.822  31.216  36.687  1.00  0.00     0.029 A 
ATOM     60  N   UNL A   1      41.267  30.667  34.603  1.00  0.00    -0.354 N 
ATOM     61  N   UNL A   1      41.475  29.088  32.106  1.00  0.00    -0.248 NA
ATOM     62  C   UNL A   1      42.577  27.489  30.812  1.00  0.00     0.031 C 
ATOM     63  C   UNL A   1      42.709  30.232  36.234  1.00  0.00     0.029 A 
ATOM     64  C   UNL A   1      42.344  29.868  34.947  1.00  0.00     0.049 A 
ATOM     65  H   UNL A   1      40.799  30.641  33.738  1.00  0.00     0.167 HD
ATOM     66  C   UNL A   1      42.522  28.554  32.843  1.00  0.00     0.074 A 
ATOM     67  C   UNL A   1      43.145  27.547  32.008  1.00  0.00     0.031 C 
ATOM     68  C   UNL A   1      42.936  28.865  34.097  1.00  0.00     0.037 A 
BRANCH  55  69
ATOM     69  C   UNL A   1      39.675  33.356  36.832  1.00  0.00     0.064 A 
ATOM     70  C   UNL A   1      38.734  33.022  37.819  1.00  0.00     0.173 A 
ATOM     71  C   UNL A   1      40.428  34.526  37.016  1.00  0.00     0.173 A 
ATOM     72  F   UNL A   1      37.974  31.925  37.684  1.00  0.00    -0.203 F 
ATOM     73  C   UNL A   1      38.537  33.840  38.930  1.00  0.00     0.198 A 
ATOM     74  C   UNL A   1      40.251  35.324  38.143  1.00  0.00     0.198 A 
ATOM     75  F   UNL A   1      41.339  34.894  36.104  1.00  0.00    -0.203 F 
ATOM     76  F   UNL A   1      37.597  33.528  39.832  1.00  0.00    -0.200 F 
ATOM     77  C   UNL A   1      39.302  34.986  39.094  1.00  0.00     0.200 A 
ATOM     78  F   UNL A   1      40.998  36.425  38.305  1.00  0.00    -0.200 F 
ATOM     79  F   UNL A   1      39.116  35.768  40.166  1.00  0.00    -0.200 F 
ENDBRANCH  55  69
BRANCH  56  80
ATOM     80  C   UNL A   1      40.762  27.833  28.527  1.00  0.00     0.064 A 
ATOM     81  C   UNL A   1      41.656  28.253  27.532  1.00  0.00     0.173 A 
ATOM     82  C   UNL A   1      40.042  26.651  28.296  1.00  0.00     0.173 A 
ATOM     83  F   UNL A   1      42.352  29.387  27.695  1.00  0.00    -0.203 F 
ATOM     84  C   UNL A   1      41.800  27.537  26.345  1.00  0.00     0.198 A 
ATOM     85  C   UNL A   1      40.212  25.918  27.125  1.00  0.00     0.198 A 
ATOM     86  F   UNL A   1      39.174  26.201  29.216  1.00  0.00    -0.203 F 
ATOM     87  F   UNL A   1      42.619  27.992  25.387  1.00  0.00    -0.200 F 
ATOM     88  C   UNL A   1      41.083  26.367  26.144  1.00  0.00     0.200 A 
ATOM     89  F   UNL A   1      39.528  24.780  26.943  1.00  0.00    -0.200 F 
ATOM     90  F   UNL A   1      41.223  25.680  25.003  1.00  0.00    -0.200 F 
ENDBRANCH  56  80
BRANCH  68  91
ATOM     91  C   UNL A   1      44.088  28.078  34.657  1.00  0.00     0.064 A 
ATOM     92  C   UNL A   1      45.419  28.477  34.465  1.00  0.00     0.173 A 
ATOM     93  C   UNL A   1      43.849  26.934  35.435  1.00  0.00     0.173 A 
ATOM     94  F   UNL A   1      45.699  29.556  33.718  1.00  0.00    -0.203 F 
ATOM     95  C   UNL A   1      46.470  27.742  35.007  1.00  0.00     0.198 A 
ATOM     96  C   UNL A   1      44.901  26.224  36.005  1.00  0.00     0.198 A 
ATOM     97  F   UNL A   1      42.594  26.516  35.657  1.00  0.00    -0.203 F 
ATOM     98  F   UNL A   1      47.735  28.110  34.765  1.00  0.00    -0.200 F 
ATOM     99  C   UNL A   1      46.210  26.622  35.783  1.00  0.00     0.200 A 
ATOM    100  F   UNL A   1      44.647  25.153  36.770  1.00  0.00    -0.200 F 
ATOM    101  F   UNL A   1      47.224  25.923  36.312  1.00  0.00    -0.200 F 
ENDBRANCH  68  91
ENDBRANCH  42  43
ENDBRANCH  35  37
ENDBRANCH  34  35
ENDBRANCH  33  34
ENDBRANCH  32  33
ENDBRANCH  31  32
ENDBRANCH  30  31
ENDBRANCH   1  30
TORSDOF 21
ENDMDL
