MODEL 1
REMARK VINA RESULT:     -10.8      0.000      0.000
REMARK SMILES O=C(OCCOCCOCCOCCOC(=O)c1cc(Br)n(Cc2ccn(C3CCCC3)n2)c1)c1ccc(-c2c3nc(c(-c4c(F)c(F)c(F)c(F)c4F)c4ccc([nH]4)c(-c4c(F)c(F)c(F)c(F)c4F)c4nc(c(-c5c(F)c(F)c(F)c(F)c5F)c5ccc2[nH]5)C=C4)C=C3)cc1
REMARK SMILES IDX 10 1 9 2 8 3 7 4 6 5 5 6 4 7 3 8 2 9 1 10 35 11 36 12 97 13
REMARK SMILES IDX 37 14 96 15 38 16 39 17 40 18 90 19 41 20 95 21 89 22 91 23
REMARK SMILES IDX 42 24 94 25 88 26 87 27 43 29 75 30 55 31 74 32 56 33 59 34
REMARK SMILES IDX 73 35 92 36 57 37 58 38 72 40 93 41 60 42 44 43 45 44 53 45
REMARK SMILES IDX 46 46 47 47 51 48 54 49 48 50 49 51 52 52 50 53 76 54 77 55
REMARK SMILES IDX 85 56 78 57 79 58 83 59 86 60 80 61 81 62 84 63 82 64 61 65
REMARK SMILES IDX 62 66 70 67 63 68 64 69 68 70 71 71 65 72 66 73 69 74 67 75
REMARK SMILES IDX 11 76 12 77 13 78 14 79 15 80 16 81 17 82 18 83 19 84 34 85
REMARK SMILES IDX 20 86 22 87 21 88 23 89 24 90 25 91 33 92 26 93 27 94 28 95
REMARK SMILES IDX 29 96 32 97 30 98 31 99
REMARK H PARENT 91 28 59 39
REMARK Flexibility Score: inf
ROOT
ATOM      1  C   UNL A   1      34.092  26.123  25.785  1.00  0.00     0.188 C 
ENDROOT
BRANCH   1   2
ATOM      2  O   UNL A   1      34.412  24.755  25.908  1.00  0.00    -0.377 OA
BRANCH   2   3
ATOM      3  C   UNL A   1      35.667  24.404  25.358  1.00  0.00     0.188 C 
BRANCH   3   4
ATOM      4  C   UNL A   1      36.509  23.372  26.131  1.00  0.00     0.188 C 
BRANCH   4   5
ATOM      5  O   UNL A   1      37.907  23.167  25.998  1.00  0.00    -0.376 OA
BRANCH   5   6
ATOM      6  C   UNL A   1      38.626  21.973  25.775  1.00  0.00     0.202 C 
BRANCH   6   7
ATOM      7  C   UNL A   1      39.902  21.571  26.509  1.00  0.00     0.261 C 
BRANCH   7   8
ATOM      8  O   UNL A   1      41.118  21.902  25.859  1.00  0.00    -0.460 OA
BRANCH   8   9
ATOM      9  C   UNL A   1      41.888  22.991  26.031  1.00  0.00     0.338 C 
ATOM     10  O   UNL A   1      43.067  22.924  25.686  1.00  0.00    -0.246 OA
BRANCH   9  11
ATOM     11  C   UNL A   1      41.433  24.244  26.701  1.00  0.00     0.060 A 
ATOM     12  C   UNL A   1      40.613  25.237  26.160  1.00  0.00     0.016 A 
ATOM     13  C   UNL A   1      41.918  24.416  28.012  1.00  0.00     0.016 A 
ATOM     14  C   UNL A   1      40.446  26.442  26.816  1.00  0.00     0.010 A 
ATOM     15  C   UNL A   1      41.729  25.604  28.691  1.00  0.00     0.010 A 
ATOM     16  C   UNL A   1      41.077  26.640  28.039  1.00  0.00    -0.014 A 
BRANCH  16  17
ATOM     17  C   UNL A   1      41.075  27.991  28.560  1.00  0.00     0.031 A 
ATOM     18  C   UNL A   1      42.221  28.842  28.152  1.00  0.00     0.074 A 
ATOM     19  C   UNL A   1      40.075  28.403  29.362  1.00  0.00     0.049 A 
ATOM     20  N   UNL A   1      43.089  29.434  28.907  1.00  0.00    -0.248 NA
ATOM     21  C   UNL A   1      42.490  28.965  26.711  1.00  0.00     0.031 C 
ATOM     22  C   UNL A   1      38.802  27.731  29.647  1.00  0.00     0.029 A 
ATOM     23  N   UNL A   1      39.956  29.576  30.034  1.00  0.00    -0.354 N 
ATOM     24  C   UNL A   1      43.923  30.142  28.045  1.00  0.00     0.074 A 
ATOM     25  C   UNL A   1      43.584  29.727  26.708  1.00  0.00     0.031 C 
ATOM     26  C   UNL A   1      37.958  28.608  30.232  1.00  0.00     0.029 A 
ATOM     27  C   UNL A   1      38.675  29.844  30.485  1.00  0.00     0.049 A 
ATOM     28  H   UNL A   1      40.716  30.183  30.187  1.00  0.00     0.167 HD
ATOM     29  C   UNL A   1      44.698  31.171  28.482  1.00  0.00     0.037 A 
ATOM     30  C   UNL A   1      38.227  31.034  30.950  1.00  0.00     0.037 A 
ATOM     31  C   UNL A   1      44.961  31.081  29.891  1.00  0.00     0.049 A 
ATOM     32  C   UNL A   1      39.413  31.832  31.350  1.00  0.00     0.074 A 
ATOM     33  C   UNL A   1      45.616  30.162  30.688  1.00  0.00     0.029 A 
ATOM     34  N   UNL A   1      44.224  31.852  30.753  1.00  0.00    -0.354 N 
ATOM     35  N   UNL A   1      40.178  31.536  32.365  1.00  0.00    -0.248 NA
ATOM     36  C   UNL A   1      40.018  32.694  30.345  1.00  0.00     0.031 C 
ATOM     37  C   UNL A   1      44.857  30.108  31.892  1.00  0.00     0.029 A 
ATOM     38  C   UNL A   1      43.821  31.035  31.779  1.00  0.00     0.049 A 
ATOM     39  H   UNL A   1      44.021  32.812  30.654  1.00  0.00     0.167 HD
ATOM     40  C   UNL A   1      41.466  31.816  31.933  1.00  0.00     0.074 A 
ATOM     41  C   UNL A   1      41.298  32.603  30.715  1.00  0.00     0.031 C 
ATOM     42  C   UNL A   1      42.543  31.148  32.441  1.00  0.00     0.037 A 
BRANCH  29  43
ATOM     43  C   UNL A   1      44.943  32.418  27.674  1.00  0.00     0.064 A 
ATOM     44  C   UNL A   1      46.173  32.601  27.016  1.00  0.00     0.173 A 
ATOM     45  C   UNL A   1      44.120  33.564  27.760  1.00  0.00     0.173 A 
ATOM     46  F   UNL A   1      47.047  31.589  26.909  1.00  0.00    -0.203 F 
ATOM     47  C   UNL A   1      46.568  33.850  26.527  1.00  0.00     0.198 A 
ATOM     48  C   UNL A   1      44.494  34.794  27.225  1.00  0.00     0.198 A 
ATOM     49  F   UNL A   1      42.978  33.566  28.460  1.00  0.00    -0.203 F 
ATOM     50  F   UNL A   1      47.793  34.005  26.006  1.00  0.00    -0.200 F 
ATOM     51  C   UNL A   1      45.729  34.945  26.633  1.00  0.00     0.200 A 
ATOM     52  F   UNL A   1      43.675  35.848  27.362  1.00  0.00    -0.200 F 
ATOM     53  F   UNL A   1      46.127  36.153  26.215  1.00  0.00    -0.200 F 
ENDBRANCH  29  43
BRANCH  30  54
ATOM     54  C   UNL A   1      36.892  31.633  30.716  1.00  0.00     0.064 A 
ATOM     55  C   UNL A   1      36.027  31.909  31.785  1.00  0.00     0.173 A 
ATOM     56  C   UNL A   1      36.547  32.191  29.469  1.00  0.00     0.173 A 
ATOM     57  F   UNL A   1      36.310  31.457  33.015  1.00  0.00    -0.203 F 
ATOM     58  C   UNL A   1      34.892  32.711  31.618  1.00  0.00     0.198 A 
ATOM     59  C   UNL A   1      35.412  32.982  29.301  1.00  0.00     0.198 A 
ATOM     60  F   UNL A   1      37.355  32.060  28.407  1.00  0.00    -0.203 F 
ATOM     61  F   UNL A   1      34.121  33.004  32.674  1.00  0.00    -0.200 F 
ATOM     62  C   UNL A   1      34.591  33.254  30.379  1.00  0.00     0.200 A 
ATOM     63  F   UNL A   1      35.154  33.530  28.106  1.00  0.00    -0.200 F 
ATOM     64  F   UNL A   1      33.538  34.069  30.232  1.00  0.00    -0.200 F 
ENDBRANCH  30  54
BRANCH  42  65
ATOM     65  C   UNL A   1      42.314  30.265  33.638  1.00  0.00     0.064 A 
ATOM     66  C   UNL A   1      41.920  28.918  33.549  1.00  0.00     0.173 A 
ATOM     67  C   UNL A   1      42.641  30.755  34.909  1.00  0.00     0.173 A 
ATOM     68  F   UNL A   1      41.700  28.340  32.362  1.00  0.00    -0.203 F 
ATOM     69  C   UNL A   1      41.810  28.118  34.685  1.00  0.00     0.198 A 
ATOM     70  C   UNL A   1      42.566  29.943  36.038  1.00  0.00     0.198 A 
ATOM     71  F   UNL A   1      43.085  32.015  35.049  1.00  0.00    -0.203 F 
ATOM     72  F   UNL A   1      41.421  26.839  34.573  1.00  0.00    -0.200 F 
ATOM     73  C   UNL A   1      42.139  28.630  35.929  1.00  0.00     0.200 A 
ATOM     74  F   UNL A   1      42.939  30.427  37.231  1.00  0.00    -0.200 F 
ATOM     75  F   UNL A   1      42.075  27.850  37.017  1.00  0.00    -0.200 F 
ENDBRANCH  42  65
ENDBRANCH  16  17
ENDBRANCH   9  11
ENDBRANCH   8   9
ENDBRANCH   7   8
ENDBRANCH   6   7
ENDBRANCH   5   6
ENDBRANCH   4   5
ENDBRANCH   3   4
ENDBRANCH   2   3
ENDBRANCH   1   2
BRANCH   1  76
ATOM     76  C   UNL A   1      33.913  26.588  24.325  1.00  0.00     0.188 C 
BRANCH  76  77
ATOM     77  O   UNL A   1      33.440  27.888  24.009  1.00  0.00    -0.376 OA
BRANCH  77  78
ATOM     78  C   UNL A   1      32.489  28.554  24.824  1.00  0.00     0.202 C 
BRANCH  78  79
ATOM     79  C   UNL A   1      31.018  28.719  24.401  1.00  0.00     0.261 C 
BRANCH  79  80
ATOM     80  O   UNL A   1      30.553  27.899  23.325  1.00  0.00    -0.460 OA
BRANCH  80  81
ATOM     81  C   UNL A   1      29.653  26.948  23.655  1.00  0.00     0.339 C 
ATOM     82  O   UNL A   1      28.417  27.114  23.661  1.00  0.00    -0.246 OA
BRANCH  81  83
ATOM     83  C   UNL A   1      30.259  25.658  23.916  1.00  0.00     0.078 A 
ATOM     84  C   UNL A   1      30.591  25.110  25.179  1.00  0.00     0.051 A 
ATOM     85  C   UNL A   1      30.547  24.673  22.980  1.00  0.00     0.102 A 
ATOM     86  C   UNL A   1      30.835  23.769  24.977  1.00  0.00     0.086 A 
ATOM     87  N   UNL A   1      31.042  23.556  23.633  1.00  0.00    -0.335 N 
ATOM     88  Br  UNL A   1      30.658  22.539  26.372  1.00  0.00    -0.031 Br
BRANCH  87  89
ATOM     89  C   UNL A   1      31.385  22.309  22.927  1.00  0.00     0.180 C 
BRANCH  89  90
ATOM     90  C   UNL A   1      32.490  21.476  23.529  1.00  0.00     0.082 A 
ATOM     91  C   UNL A   1      33.723  21.916  24.067  1.00  0.00     0.047 A 
ATOM     92  N   UNL A   1      32.320  20.157  23.774  1.00  0.00    -0.176 NA
ATOM     93  C   UNL A   1      34.305  20.820  24.642  1.00  0.00     0.109 A 
ATOM     94  N   UNL A   1      33.433  19.790  24.456  1.00  0.00    -0.269 N 
BRANCH  94  95
ATOM     95  C   UNL A   1      33.642  18.460  24.980  1.00  0.00     0.107 C 
ATOM     96  C   UNL A   1      32.424  17.541  24.982  1.00  0.00     0.027 C 
ATOM     97  C   UNL A   1      34.701  17.624  24.268  1.00  0.00     0.027 C 
ATOM     98  C   UNL A   1      33.027  16.187  25.341  1.00  0.00     0.002 C 
ATOM     99  C   UNL A   1      34.451  16.202  24.775  1.00  0.00     0.002 C 
ENDBRANCH  94  95
ENDBRANCH  89  90
ENDBRANCH  87  89
ENDBRANCH  81  83
ENDBRANCH  80  81
ENDBRANCH  79  80
ENDBRANCH  78  79
ENDBRANCH  77  78
ENDBRANCH  76  77
ENDBRANCH   1  76
TORSDOF 23
ENDMDL
MODEL 2
REMARK VINA RESULT:      -9.6      3.314      7.569
REMARK SMILES O=C(OCCOCCOCCOCCOC(=O)c1cc(Br)n(Cc2ccn(C3CCCC3)n2)c1)c1ccc(-c2c3nc(c(-c4c(F)c(F)c(F)c(F)c4F)c4ccc([nH]4)c(-c4c(F)c(F)c(F)c(F)c4F)c4nc(c(-c5c(F)c(F)c(F)c(F)c5F)c5ccc2[nH]5)C=C4)C=C3)cc1
REMARK SMILES IDX 10 1 9 2 8 3 7 4 6 5 5 6 4 7 3 8 2 9 1 10 35 11 36 12 97 13
REMARK SMILES IDX 37 14 96 15 38 16 39 17 40 18 90 19 41 20 95 21 89 22 91 23
REMARK SMILES IDX 42 24 94 25 88 26 87 27 43 29 75 30 55 31 74 32 56 33 59 34
REMARK SMILES IDX 73 35 92 36 57 37 58 38 72 40 93 41 60 42 44 43 45 44 53 45
REMARK SMILES IDX 46 46 47 47 51 48 54 49 48 50 49 51 52 52 50 53 76 54 77 55
REMARK SMILES IDX 85 56 78 57 79 58 83 59 86 60 80 61 81 62 84 63 82 64 61 65
REMARK SMILES IDX 62 66 70 67 63 68 64 69 68 70 71 71 65 72 66 73 69 74 67 75
REMARK SMILES IDX 11 76 12 77 13 78 14 79 15 80 16 81 17 82 18 83 19 84 34 85
REMARK SMILES IDX 20 86 22 87 21 88 23 89 24 90 25 91 33 92 26 93 27 94 28 95
REMARK SMILES IDX 29 96 32 97 30 98 31 99
REMARK H PARENT 91 28 59 39
REMARK Flexibility Score: inf
ROOT
ATOM      1  C   UNL A   1      37.824  30.148  28.540  1.00  0.00     0.188 C 
ENDROOT
BRANCH   1   2
ATOM      2  O   UNL A   1      37.981  29.847  29.908  1.00  0.00    -0.377 OA
BRANCH   2   3
ATOM      3  C   UNL A   1      36.763  29.667  30.604  1.00  0.00     0.188 C 
BRANCH   3   4
ATOM      4  C   UNL A   1      36.510  30.570  31.825  1.00  0.00     0.188 C 
BRANCH   4   5
ATOM      5  O   UNL A   1      35.418  31.461  31.993  1.00  0.00    -0.376 OA
BRANCH   5   6
ATOM      6  C   UNL A   1      34.892  32.421  31.101  1.00  0.00     0.202 C 
BRANCH   6   7
ATOM      7  C   UNL A   1      34.557  33.864  31.469  1.00  0.00     0.261 C 
BRANCH   7   8
ATOM      8  O   UNL A   1      35.666  34.737  31.615  1.00  0.00    -0.460 OA
BRANCH   8   9
ATOM      9  C   UNL A   1      36.715  34.621  32.449  1.00  0.00     0.338 C 
ATOM     10  O   UNL A   1      36.602  35.081  33.584  1.00  0.00    -0.246 OA
BRANCH   9  11
ATOM     11  C   UNL A   1      38.041  34.060  32.058  1.00  0.00     0.060 A 
ATOM     12  C   UNL A   1      38.401  33.541  30.812  1.00  0.00     0.016 A 
ATOM     13  C   UNL A   1      39.001  34.054  33.090  1.00  0.00     0.016 A 
ATOM     14  C   UNL A   1      39.594  32.862  30.655  1.00  0.00     0.010 A 
ATOM     15  C   UNL A   1      40.211  33.407  32.932  1.00  0.00     0.010 A 
ATOM     16  C   UNL A   1      40.449  32.732  31.743  1.00  0.00    -0.014 A 
BRANCH  16  17
ATOM     17  C   UNL A   1      41.555  31.810  31.596  1.00  0.00     0.031 A 
ATOM     18  C   UNL A   1      42.625  32.232  30.657  1.00  0.00     0.074 A 
ATOM     19  C   UNL A   1      41.567  30.655  32.287  1.00  0.00     0.049 A 
ATOM     20  N   UNL A   1      43.051  31.620  29.599  1.00  0.00    -0.248 NA
ATOM     21  C   UNL A   1      43.229  33.556  30.873  1.00  0.00     0.031 C 
ATOM     22  C   UNL A   1      40.688  30.245  33.387  1.00  0.00     0.029 A 
ATOM     23  N   UNL A   1      42.444  29.623  32.198  1.00  0.00    -0.354 N 
ATOM     24  C   UNL A   1      44.091  32.401  29.102  1.00  0.00     0.074 A 
ATOM     25  C   UNL A   1      44.082  33.631  29.850  1.00  0.00     0.031 C 
ATOM     26  C   UNL A   1      41.225  29.172  34.008  1.00  0.00     0.029 A 
ATOM     27  C   UNL A   1      42.397  28.745  33.266  1.00  0.00     0.049 A 
ATOM     28  H   UNL A   1      43.061  29.511  31.438  1.00  0.00     0.167 HD
ATOM     29  C   UNL A   1      45.018  31.897  28.242  1.00  0.00     0.037 A 
ATOM     30  C   UNL A   1      43.315  27.792  33.556  1.00  0.00     0.037 A 
ATOM     31  C   UNL A   1      44.521  30.750  27.533  1.00  0.00     0.049 A 
ATOM     32  C   UNL A   1      44.085  27.523  32.316  1.00  0.00     0.074 A 
ATOM     33  C   UNL A   1      43.486  30.548  26.642  1.00  0.00     0.029 A 
ATOM     34  N   UNL A   1      44.884  29.498  27.962  1.00  0.00    -0.354 N 
ATOM     35  N   UNL A   1      43.581  26.949  31.259  1.00  0.00    -0.248 NA
ATOM     36  C   UNL A   1      45.288  28.310  32.084  1.00  0.00     0.031 C 
ATOM     37  C   UNL A   1      42.962  29.263  26.967  1.00  0.00     0.029 A 
ATOM     38  C   UNL A   1      43.742  28.738  27.997  1.00  0.00     0.049 A 
ATOM     39  H   UNL A   1      45.793  29.201  28.199  1.00  0.00     0.167 HD
ATOM     40  C   UNL A   1      44.139  27.628  30.185  1.00  0.00     0.074 A 
ATOM     41  C   UNL A   1      45.243  28.397  30.752  1.00  0.00     0.031 C 
ATOM     42  C   UNL A   1      43.483  27.725  28.991  1.00  0.00     0.037 A 
BRANCH  29  43
ATOM     43  C   UNL A   1      46.476  32.269  28.291  1.00  0.00     0.064 A 
ATOM     44  C   UNL A   1      47.092  32.853  27.168  1.00  0.00     0.173 A 
ATOM     45  C   UNL A   1      47.354  31.810  29.300  1.00  0.00     0.173 A 
ATOM     46  F   UNL A   1      46.357  33.289  26.135  1.00  0.00    -0.203 F 
ATOM     47  C   UNL A   1      48.483  32.925  27.047  1.00  0.00     0.198 A 
ATOM     48  C   UNL A   1      48.736  31.932  29.199  1.00  0.00     0.198 A 
ATOM     49  F   UNL A   1      46.913  31.129  30.366  1.00  0.00    -0.203 F 
ATOM     50  F   UNL A   1      49.030  33.387  25.913  1.00  0.00    -0.200 F 
ATOM     51  C   UNL A   1      49.304  32.463  28.061  1.00  0.00     0.200 A 
ATOM     52  F   UNL A   1      49.513  31.455  30.183  1.00  0.00    -0.200 F 
ATOM     53  F   UNL A   1      50.636  32.481  27.923  1.00  0.00    -0.200 F 
ENDBRANCH  29  43
BRANCH  30  54
ATOM     54  C   UNL A   1      43.788  27.396  34.903  1.00  0.00     0.064 A 
ATOM     55  C   UNL A   1      44.356  28.337  35.774  1.00  0.00     0.173 A 
ATOM     56  C   UNL A   1      43.450  26.147  35.461  1.00  0.00     0.173 A 
ATOM     57  F   UNL A   1      44.660  29.566  35.333  1.00  0.00    -0.203 F 
ATOM     58  C   UNL A   1      44.558  28.050  37.129  1.00  0.00     0.198 A 
ATOM     59  C   UNL A   1      43.660  25.858  36.809  1.00  0.00     0.198 A 
ATOM     60  F   UNL A   1      42.821  25.213  34.733  1.00  0.00    -0.203 F 
ATOM     61  F   UNL A   1      45.047  28.993  37.946  1.00  0.00    -0.200 F 
ATOM     62  C   UNL A   1      44.201  26.814  37.647  1.00  0.00     0.200 A 
ATOM     63  F   UNL A   1      43.276  24.673  37.302  1.00  0.00    -0.200 F 
ATOM     64  F   UNL A   1      44.340  26.560  38.954  1.00  0.00    -0.200 F 
ENDBRANCH  30  54
BRANCH  42  65
ATOM     65  C   UNL A   1      42.246  26.887  28.806  1.00  0.00     0.064 A 
ATOM     66  C   UNL A   1      40.965  27.283  29.233  1.00  0.00     0.173 A 
ATOM     67  C   UNL A   1      42.335  25.714  28.047  1.00  0.00     0.173 A 
ATOM     68  F   UNL A   1      40.778  28.447  29.865  1.00  0.00    -0.203 F 
ATOM     69  C   UNL A   1      39.838  26.511  28.956  1.00  0.00     0.198 A 
ATOM     70  C   UNL A   1      41.203  24.964  27.739  1.00  0.00     0.198 A 
ATOM     71  F   UNL A   1      43.522  25.320  27.557  1.00  0.00    -0.203 F 
ATOM     72  F   UNL A   1      38.630  26.905  29.384  1.00  0.00    -0.200 F 
ATOM     73  C   UNL A   1      39.957  25.355  28.204  1.00  0.00     0.200 A 
ATOM     74  F   UNL A   1      41.316  23.877  26.964  1.00  0.00    -0.200 F 
ATOM     75  F   UNL A   1      38.869  24.634  27.900  1.00  0.00    -0.200 F 
ENDBRANCH  42  65
ENDBRANCH  16  17
ENDBRANCH   9  11
ENDBRANCH   8   9
ENDBRANCH   7   8
ENDBRANCH   6   7
ENDBRANCH   5   6
ENDBRANCH   4   5
ENDBRANCH   3   4
ENDBRANCH   2   3
ENDBRANCH   1   2
BRANCH   1  76
ATOM     76  C   UNL A   1      36.366  30.050  28.048  1.00  0.00     0.188 C 
BRANCH  76  77
ATOM     77  O   UNL A   1      35.644  31.195  27.620  1.00  0.00    -0.376 OA
BRANCH  77  78
ATOM     78  C   UNL A   1      34.228  31.198  27.546  1.00  0.00     0.202 C 
BRANCH  78  79
ATOM     79  C   UNL A   1      33.404  29.899  27.535  1.00  0.00     0.261 C 
BRANCH  79  80
ATOM     80  O   UNL A   1      33.269  29.221  26.282  1.00  0.00    -0.460 OA
BRANCH  80  81
ATOM     81  C   UNL A   1      32.021  29.177  25.767  1.00  0.00     0.339 C 
ATOM     82  O   UNL A   1      31.371  30.176  25.399  1.00  0.00    -0.246 OA
BRANCH  81  83
ATOM     83  C   UNL A   1      31.528  27.826  25.587  1.00  0.00     0.078 A 
ATOM     84  C   UNL A   1      30.982  27.268  24.406  1.00  0.00     0.051 A 
ATOM     85  C   UNL A   1      31.583  26.794  26.514  1.00  0.00     0.102 A 
ATOM     86  C   UNL A   1      30.951  25.903  24.591  1.00  0.00     0.086 A 
ATOM     87  N   UNL A   1      31.086  25.636  25.935  1.00  0.00    -0.335 N 
ATOM     88  Br  UNL A   1      30.946  24.734  23.133  1.00  0.00    -0.031 Br
BRANCH  87  89
ATOM     89  C   UNL A   1      31.064  24.342  26.638  1.00  0.00     0.180 C 
BRANCH  89  90
ATOM     90  C   UNL A   1      32.389  23.637  26.792  1.00  0.00     0.082 A 
ATOM     91  C   UNL A   1      32.727  22.597  27.691  1.00  0.00     0.047 A 
ATOM     92  N   UNL A   1      33.397  23.836  25.913  1.00  0.00    -0.176 NA
ATOM     93  C   UNL A   1      33.977  22.173  27.338  1.00  0.00     0.109 A 
ATOM     94  N   UNL A   1      34.342  22.929  26.264  1.00  0.00    -0.269 N 
BRANCH  94  95
ATOM     95  C   UNL A   1      35.578  22.747  25.539  1.00  0.00     0.107 C 
ATOM     96  C   UNL A   1      36.060  21.308  25.387  1.00  0.00     0.027 C 
ATOM     97  C   UNL A   1      35.591  23.267  24.105  1.00  0.00     0.027 C 
ATOM     98  C   UNL A   1      37.206  21.443  24.389  1.00  0.00     0.002 C 
ATOM     99  C   UNL A   1      36.841  22.631  23.493  1.00  0.00     0.002 C 
ENDBRANCH  94  95
ENDBRANCH  89  90
ENDBRANCH  87  89
ENDBRANCH  81  83
ENDBRANCH  80  81
ENDBRANCH  79  80
ENDBRANCH  78  79
ENDBRANCH  77  78
ENDBRANCH  76  77
ENDBRANCH   1  76
TORSDOF 23
ENDMDL
MODEL 3
REMARK VINA RESULT:      -9.4      3.853      8.855
REMARK SMILES O=C(OCCOCCOCCOCCOC(=O)c1cc(Br)n(Cc2ccn(C3CCCC3)n2)c1)c1ccc(-c2c3nc(c(-c4c(F)c(F)c(F)c(F)c4F)c4ccc([nH]4)c(-c4c(F)c(F)c(F)c(F)c4F)c4nc(c(-c5c(F)c(F)c(F)c(F)c5F)c5ccc2[nH]5)C=C4)C=C3)cc1
REMARK SMILES IDX 10 1 9 2 8 3 7 4 6 5 5 6 4 7 3 8 2 9 1 10 35 11 36 12 97 13
REMARK SMILES IDX 37 14 96 15 38 16 39 17 40 18 90 19 41 20 95 21 89 22 91 23
REMARK SMILES IDX 42 24 94 25 88 26 87 27 43 29 75 30 55 31 74 32 56 33 59 34
REMARK SMILES IDX 73 35 92 36 57 37 58 38 72 40 93 41 60 42 44 43 45 44 53 45
REMARK SMILES IDX 46 46 47 47 51 48 54 49 48 50 49 51 52 52 50 53 76 54 77 55
REMARK SMILES IDX 85 56 78 57 79 58 83 59 86 60 80 61 81 62 84 63 82 64 61 65
REMARK SMILES IDX 62 66 70 67 63 68 64 69 68 70 71 71 65 72 66 73 69 74 67 75
REMARK SMILES IDX 11 76 12 77 13 78 14 79 15 80 16 81 17 82 18 83 19 84 34 85
REMARK SMILES IDX 20 86 22 87 21 88 23 89 24 90 25 91 33 92 26 93 27 94 28 95
REMARK SMILES IDX 29 96 32 97 30 98 31 99
REMARK H PARENT 91 28 59 39
REMARK Flexibility Score: inf
ROOT
ATOM      1  C   UNL A   1      33.765  34.125  29.264  1.00  0.00     0.188 C 
ENDROOT
BRANCH   1   2
ATOM      2  O   UNL A   1      32.631  34.936  29.474  1.00  0.00    -0.377 OA
BRANCH   2   3
ATOM      3  C   UNL A   1      32.924  36.207  30.022  1.00  0.00     0.188 C 
BRANCH   3   4
ATOM      4  C   UNL A   1      33.203  36.275  31.534  1.00  0.00     0.188 C 
BRANCH   4   5
ATOM      5  O   UNL A   1      34.186  35.529  32.236  1.00  0.00    -0.376 OA
BRANCH   5   6
ATOM      6  C   UNL A   1      34.059  34.320  32.953  1.00  0.00     0.202 C 
BRANCH   6   7
ATOM      7  C   UNL A   1      34.651  32.981  32.519  1.00  0.00     0.261 C 
BRANCH   7   8
ATOM      8  O   UNL A   1      36.067  32.905  32.517  1.00  0.00    -0.460 OA
BRANCH   8   9
ATOM      9  C   UNL A   1      36.878  32.449  31.545  1.00  0.00     0.338 C 
ATOM     10  O   UNL A   1      36.621  32.768  30.385  1.00  0.00    -0.246 OA
BRANCH   9  11
ATOM     11  C   UNL A   1      38.011  31.505  31.770  1.00  0.00     0.060 A 
ATOM     12  C   UNL A   1      39.314  31.830  32.154  1.00  0.00     0.016 A 
ATOM     13  C   UNL A   1      37.697  30.150  31.544  1.00  0.00     0.016 A 
ATOM     14  C   UNL A   1      40.312  30.876  32.118  1.00  0.00     0.010 A 
ATOM     15  C   UNL A   1      38.682  29.182  31.539  1.00  0.00     0.010 A 
ATOM     16  C   UNL A   1      39.997  29.579  31.730  1.00  0.00    -0.014 A 
BRANCH  16  17
ATOM     17  C   UNL A   1      41.110  28.689  31.471  1.00  0.00     0.031 A 
ATOM     18  C   UNL A   1      41.942  28.338  32.649  1.00  0.00     0.074 A 
ATOM     19  C   UNL A   1      41.334  28.235  30.224  1.00  0.00     0.049 A 
ATOM     20  N   UNL A   1      43.210  28.532  32.822  1.00  0.00    -0.248 NA
ATOM     21  C   UNL A   1      41.250  27.788  33.826  1.00  0.00     0.031 C 
ATOM     22  C   UNL A   1      40.463  28.338  29.048  1.00  0.00     0.029 A 
ATOM     23  N   UNL A   1      42.377  27.497  29.766  1.00  0.00    -0.354 N 
ATOM     24  C   UNL A   1      43.513  27.983  34.065  1.00  0.00     0.074 A 
ATOM     25  C   UNL A   1      42.258  27.646  34.687  1.00  0.00     0.031 C 
ATOM     26  C   UNL A   1      40.904  27.490  28.093  1.00  0.00     0.029 A 
ATOM     27  C   UNL A   1      42.153  26.900  28.538  1.00  0.00     0.049 A 
ATOM     28  H   UNL A   1      43.220  27.396  30.265  1.00  0.00     0.167 HD
ATOM     29  C   UNL A   1      44.787  27.658  34.414  1.00  0.00     0.037 A 
ATOM     30  C   UNL A   1      42.905  25.924  27.976  1.00  0.00     0.037 A 
ATOM     31  C   UNL A   1      45.755  28.399  33.654  1.00  0.00     0.049 A 
ATOM     32  C   UNL A   1      44.235  25.951  28.637  1.00  0.00     0.074 A 
ATOM     33  C   UNL A   1      46.058  29.742  33.537  1.00  0.00     0.029 A 
ATOM     34  N   UNL A   1      46.363  27.792  32.584  1.00  0.00    -0.354 N 
ATOM     35  N   UNL A   1      45.094  26.922  28.497  1.00  0.00    -0.248 NA
ATOM     36  C   UNL A   1      44.419  25.120  29.818  1.00  0.00     0.031 C 
ATOM     37  C   UNL A   1      46.389  29.929  32.164  1.00  0.00     0.029 A 
ATOM     38  C   UNL A   1      46.321  28.682  31.540  1.00  0.00     0.049 A 
ATOM     39  H   UNL A   1      46.754  26.888  32.568  1.00  0.00     0.167 HD
ATOM     40  C   UNL A   1      45.654  27.086  29.756  1.00  0.00     0.074 A 
ATOM     41  C   UNL A   1      45.261  25.896  30.506  1.00  0.00     0.031 C 
ATOM     42  C   UNL A   1      46.141  28.295  30.162  1.00  0.00     0.037 A 
BRANCH  29  43
ATOM     43  C   UNL A   1      45.134  26.437  35.224  1.00  0.00     0.064 A 
ATOM     44  C   UNL A   1      45.866  26.569  36.419  1.00  0.00     0.173 A 
ATOM     45  C   UNL A   1      45.019  25.121  34.720  1.00  0.00     0.173 A 
ATOM     46  F   UNL A   1      46.068  27.776  36.966  1.00  0.00    -0.203 F 
ATOM     47  C   UNL A   1      46.476  25.471  37.033  1.00  0.00     0.198 A 
ATOM     48  C   UNL A   1      45.584  24.023  35.363  1.00  0.00     0.198 A 
ATOM     49  F   UNL A   1      44.454  24.864  33.533  1.00  0.00    -0.203 F 
ATOM     50  F   UNL A   1      47.256  25.657  38.107  1.00  0.00    -0.200 F 
ATOM     51  C   UNL A   1      46.337  24.200  36.504  1.00  0.00     0.200 A 
ATOM     52  F   UNL A   1      45.457  22.804  34.818  1.00  0.00    -0.200 F 
ATOM     53  F   UNL A   1      46.966  23.156  37.059  1.00  0.00    -0.200 F 
ENDBRANCH  29  43
BRANCH  30  54
ATOM     54  C   UNL A   1      42.417  24.766  27.192  1.00  0.00     0.064 A 
ATOM     55  C   UNL A   1      43.069  24.361  26.019  1.00  0.00     0.173 A 
ATOM     56  C   UNL A   1      41.462  23.873  27.720  1.00  0.00     0.173 A 
ATOM     57  F   UNL A   1      44.026  25.131  25.480  1.00  0.00    -0.203 F 
ATOM     58  C   UNL A   1      42.795  23.127  25.418  1.00  0.00     0.198 A 
ATOM     59  C   UNL A   1      41.183  22.648  27.116  1.00  0.00     0.198 A 
ATOM     60  F   UNL A   1      40.850  24.127  28.885  1.00  0.00    -0.203 F 
ATOM     61  F   UNL A   1      43.481  22.747  24.332  1.00  0.00    -0.200 F 
ATOM     62  C   UNL A   1      41.859  22.268  25.972  1.00  0.00     0.200 A 
ATOM     63  F   UNL A   1      40.303  21.812  27.684  1.00  0.00    -0.200 F 
ATOM     64  F   UNL A   1      41.639  21.063  25.431  1.00  0.00    -0.200 F 
ENDBRANCH  30  54
BRANCH  42  65
ATOM     65  C   UNL A   1      46.259  29.382  29.126  1.00  0.00     0.064 A 
ATOM     66  C   UNL A   1      45.215  30.269  28.805  1.00  0.00     0.173 A 
ATOM     67  C   UNL A   1      47.509  29.624  28.545  1.00  0.00     0.173 A 
ATOM     68  F   UNL A   1      44.022  30.176  29.403  1.00  0.00    -0.203 F 
ATOM     69  C   UNL A   1      45.405  31.315  27.904  1.00  0.00     0.198 A 
ATOM     70  C   UNL A   1      47.706  30.693  27.674  1.00  0.00     0.198 A 
ATOM     71  F   UNL A   1      48.560  28.850  28.863  1.00  0.00    -0.203 F 
ATOM     72  F   UNL A   1      44.390  32.140  27.606  1.00  0.00    -0.200 F 
ATOM     73  C   UNL A   1      46.652  31.530  27.343  1.00  0.00     0.200 A 
ATOM     74  F   UNL A   1      48.928  30.930  27.178  1.00  0.00    -0.200 F 
ATOM     75  F   UNL A   1      46.848  32.562  26.510  1.00  0.00    -0.200 F 
ENDBRANCH  42  65
ENDBRANCH  16  17
ENDBRANCH   9  11
ENDBRANCH   8   9
ENDBRANCH   7   8
ENDBRANCH   6   7
ENDBRANCH   5   6
ENDBRANCH   4   5
ENDBRANCH   3   4
ENDBRANCH   2   3
ENDBRANCH   1   2
BRANCH   1  76
ATOM     76  C   UNL A   1      33.787  33.437  27.884  1.00  0.00     0.188 C 
BRANCH  76  77
ATOM     77  O   UNL A   1      34.168  32.079  27.732  1.00  0.00    -0.376 OA
BRANCH  77  78
ATOM     78  C   UNL A   1      33.212  31.032  27.727  1.00  0.00     0.202 C 
BRANCH  78  79
ATOM     79  C   UNL A   1      33.161  29.973  26.611  1.00  0.00     0.261 C 
BRANCH  79  80
ATOM     80  O   UNL A   1      31.875  29.449  26.267  1.00  0.00    -0.460 OA
BRANCH  80  81
ATOM     81  C   UNL A   1      31.608  28.203  26.713  1.00  0.00     0.339 C 
ATOM     82  O   UNL A   1      31.394  27.908  27.905  1.00  0.00    -0.246 OA
BRANCH  81  83
ATOM     83  C   UNL A   1      31.495  27.229  25.645  1.00  0.00     0.078 A 
ATOM     84  C   UNL A   1      31.867  27.402  24.289  1.00  0.00     0.051 A 
ATOM     85  C   UNL A   1      31.084  25.908  25.768  1.00  0.00     0.102 A 
ATOM     86  C   UNL A   1      31.887  26.146  23.722  1.00  0.00     0.086 A 
ATOM     87  N   UNL A   1      31.192  25.282  24.536  1.00  0.00    -0.335 N 
ATOM     88  Br  UNL A   1      32.922  25.793  22.207  1.00  0.00    -0.031 Br
BRANCH  87  89
ATOM     89  C   UNL A   1      30.891  23.853  24.343  1.00  0.00     0.180 C 
BRANCH  89  90
ATOM     90  C   UNL A   1      32.061  22.903  24.409  1.00  0.00     0.082 A 
ATOM     91  C   UNL A   1      33.210  22.987  25.232  1.00  0.00     0.047 A 
ATOM     92  N   UNL A   1      32.040  21.717  23.761  1.00  0.00    -0.176 NA
ATOM     93  C   UNL A   1      33.894  21.816  25.059  1.00  0.00     0.109 A 
ATOM     94  N   UNL A   1      33.160  21.077  24.181  1.00  0.00    -0.269 N 
BRANCH  94  95
ATOM     95  C   UNL A   1      33.504  19.732  23.782  1.00  0.00     0.107 C 
ATOM     96  C   UNL A   1      34.007  18.812  24.891  1.00  0.00     0.027 C 
ATOM     97  C   UNL A   1      32.382  18.919  23.145  1.00  0.00     0.027 C 
ATOM     98  C   UNL A   1      34.032  17.448  24.208  1.00  0.00     0.002 C 
ATOM     99  C   UNL A   1      32.907  17.482  23.168  1.00  0.00     0.002 C 
ENDBRANCH  94  95
ENDBRANCH  89  90
ENDBRANCH  87  89
ENDBRANCH  81  83
ENDBRANCH  80  81
ENDBRANCH  79  80
ENDBRANCH  78  79
ENDBRANCH  77  78
ENDBRANCH  76  77
ENDBRANCH   1  76
TORSDOF 23
ENDMDL
