MODEL 1
REMARK VINA RESULT:     -10.1      0.000      0.000
REMARK SMILES O=C(OCCOCCOCCOCCOC(=O)c1cccnc1Sc1cccc(C(F)(F)F)c1)c1ccc(-c2c3nc(c(-c4c(F)c(F)c(F)c(F)c4F)c4ccc([nH]4)c(-c4c(F)c(F)c(F)c(F)c4F)c4nc(c(-c5c(F)c(F)c(F)c(F)c5F)c5ccc2[nH]5)C=C4)C=C3)cc1
REMARK SMILES IDX 10 1 9 2 8 3 7 4 6 5 5 6 4 7 3 8 2 9 1 10 35 11 36 12 97 13
REMARK SMILES IDX 37 14 96 15 38 16 39 17 40 18 90 19 41 20 95 21 89 22 91 23
REMARK SMILES IDX 42 24 94 25 88 26 87 27 43 29 75 30 55 31 74 32 56 33 59 34
REMARK SMILES IDX 73 35 92 36 57 37 58 38 72 40 93 41 60 42 44 43 45 44 53 45
REMARK SMILES IDX 46 46 47 47 51 48 54 49 48 50 49 51 52 52 50 53 76 54 77 55
REMARK SMILES IDX 85 56 78 57 79 58 83 59 86 60 80 61 81 62 84 63 82 64 61 65
REMARK SMILES IDX 62 66 70 67 63 68 64 69 68 70 71 71 65 72 66 73 69 74 67 75
REMARK SMILES IDX 11 76 12 77 13 78 14 79 15 80 16 81 17 82 18 83 19 84 23 85
REMARK SMILES IDX 20 86 22 87 21 88 24 89 25 90 26 91 34 92 27 93 29 94 28 95
REMARK SMILES IDX 30 96 31 97 32 98 33 99
REMARK H PARENT 91 28 59 39
REMARK Flexibility Score: inf
ROOT
ATOM      1  C   UNL A   1      37.775  22.113  25.362  1.00  0.00     0.188 C 
ENDROOT
BRANCH   1   2
ATOM      2  O   UNL A   1      38.630  21.767  26.438  1.00  0.00    -0.377 OA
BRANCH   2   3
ATOM      3  C   UNL A   1      40.010  21.743  26.077  1.00  0.00     0.188 C 
BRANCH   3   4
ATOM      4  C   UNL A   1      40.752  20.453  26.458  1.00  0.00     0.188 C 
BRANCH   4   5
ATOM      5  O   UNL A   1      41.813  20.087  25.555  1.00  0.00    -0.376 OA
BRANCH   5   6
ATOM      6  C   UNL A   1      43.115  20.399  26.058  1.00  0.00     0.202 C 
BRANCH   6   7
ATOM      7  C   UNL A   1      43.914  21.353  25.160  1.00  0.00     0.261 C 
BRANCH   7   8
ATOM      8  O   UNL A   1      43.271  22.621  24.974  1.00  0.00    -0.460 OA
BRANCH   8   9
ATOM      9  C   UNL A   1      43.713  23.862  25.287  1.00  0.00     0.338 C 
ATOM     10  O   UNL A   1      44.298  24.489  24.401  1.00  0.00    -0.246 OA
BRANCH   9  11
ATOM     11  C   UNL A   1      43.488  24.568  26.599  1.00  0.00     0.060 A 
ATOM     12  C   UNL A   1      42.713  24.132  27.679  1.00  0.00     0.016 A 
ATOM     13  C   UNL A   1      44.121  25.823  26.726  1.00  0.00     0.016 A 
ATOM     14  C   UNL A   1      42.470  24.961  28.783  1.00  0.00     0.010 A 
ATOM     15  C   UNL A   1      43.907  26.648  27.833  1.00  0.00     0.010 A 
ATOM     16  C   UNL A   1      43.031  26.240  28.841  1.00  0.00    -0.014 A 
BRANCH  16  17
ATOM     17  C   UNL A   1      42.510  27.238  29.800  1.00  0.00     0.031 A 
ATOM     18  C   UNL A   1      43.266  27.405  31.082  1.00  0.00     0.074 A 
ATOM     19  C   UNL A   1      41.398  27.951  29.558  1.00  0.00     0.049 A 
ATOM     20  N   UNL A   1      42.988  28.144  32.121  1.00  0.00    -0.248 NA
ATOM     21  C   UNL A   1      44.495  26.604  31.218  1.00  0.00     0.031 C 
ATOM     22  C   UNL A   1      40.589  27.846  28.355  1.00  0.00     0.029 A 
ATOM     23  N   UNL A   1      40.753  28.900  30.311  1.00  0.00    -0.354 N 
ATOM     24  C   UNL A   1      43.988  27.874  33.043  1.00  0.00     0.074 A 
ATOM     25  C   UNL A   1      44.881  26.909  32.444  1.00  0.00     0.031 C 
ATOM     26  C   UNL A   1      39.576  28.725  28.419  1.00  0.00     0.029 A 
ATOM     27  C   UNL A   1      39.620  29.397  29.713  1.00  0.00     0.049 A 
ATOM     28  H   UNL A   1      41.071  29.196  31.193  1.00  0.00     0.167 HD
ATOM     29  C   UNL A   1      44.128  28.368  34.295  1.00  0.00     0.037 A 
ATOM     30  C   UNL A   1      38.699  30.262  30.180  1.00  0.00     0.037 A 
ATOM     31  C   UNL A   1      43.199  29.286  34.891  1.00  0.00     0.049 A 
ATOM     32  C   UNL A   1      38.862  30.788  31.581  1.00  0.00     0.074 A 
ATOM     33  C   UNL A   1      43.214  29.830  36.159  1.00  0.00     0.029 A 
ATOM     34  N   UNL A   1      42.067  29.777  34.251  1.00  0.00    -0.354 N 
ATOM     35  N   UNL A   1      39.815  30.537  32.448  1.00  0.00    -0.248 NA
ATOM     36  C   UNL A   1      37.816  31.687  32.082  1.00  0.00     0.031 C 
ATOM     37  C   UNL A   1      42.063  30.611  36.307  1.00  0.00     0.029 A 
ATOM     38  C   UNL A   1      41.361  30.602  35.109  1.00  0.00     0.049 A 
ATOM     39  H   UNL A   1      41.805  29.570  33.325  1.00  0.00     0.167 HD
ATOM     40  C   UNL A   1      39.489  31.245  33.594  1.00  0.00     0.074 A 
ATOM     41  C   UNL A   1      38.257  31.954  33.306  1.00  0.00     0.031 C 
ATOM     42  C   UNL A   1      40.141  31.297  34.781  1.00  0.00     0.037 A 
BRANCH  29  43
ATOM     43  C   UNL A   1      45.277  27.838  35.099  1.00  0.00     0.064 A 
ATOM     44  C   UNL A   1      45.115  26.798  36.028  1.00  0.00     0.173 A 
ATOM     45  C   UNL A   1      46.542  28.435  34.995  1.00  0.00     0.173 A 
ATOM     46  F   UNL A   1      43.916  26.217  36.188  1.00  0.00    -0.203 F 
ATOM     47  C   UNL A   1      46.164  26.408  36.856  1.00  0.00     0.198 A 
ATOM     48  C   UNL A   1      47.598  28.022  35.803  1.00  0.00     0.198 A 
ATOM     49  F   UNL A   1      46.748  29.439  34.130  1.00  0.00    -0.203 F 
ATOM     50  F   UNL A   1      45.964  25.470  37.791  1.00  0.00    -0.200 F 
ATOM     51  C   UNL A   1      47.405  27.019  36.741  1.00  0.00     0.200 A 
ATOM     52  F   UNL A   1      48.795  28.611  35.690  1.00  0.00    -0.200 F 
ATOM     53  F   UNL A   1      48.408  26.658  37.553  1.00  0.00    -0.200 F 
ENDBRANCH  29  43
BRANCH  30  54
ATOM     54  C   UNL A   1      37.538  30.643  29.329  1.00  0.00     0.064 A 
ATOM     55  C   UNL A   1      36.489  29.745  29.091  1.00  0.00     0.173 A 
ATOM     56  C   UNL A   1      37.433  31.926  28.769  1.00  0.00     0.173 A 
ATOM     57  F   UNL A   1      36.549  28.499  29.583  1.00  0.00    -0.203 F 
ATOM     58  C   UNL A   1      35.380  30.116  28.330  1.00  0.00     0.198 A 
ATOM     59  C   UNL A   1      36.310  32.306  28.035  1.00  0.00     0.198 A 
ATOM     60  F   UNL A   1      38.407  32.826  28.964  1.00  0.00    -0.203 F 
ATOM     61  F   UNL A   1      34.403  29.228  28.096  1.00  0.00    -0.200 F 
ATOM     62  C   UNL A   1      35.286  31.399  27.813  1.00  0.00     0.200 A 
ATOM     63  F   UNL A   1      36.217  33.553  27.555  1.00  0.00    -0.200 F 
ATOM     64  F   UNL A   1      34.210  31.761  27.100  1.00  0.00    -0.200 F 
ENDBRANCH  30  54
BRANCH  42  65
ATOM     65  C   UNL A   1      39.555  32.167  35.851  1.00  0.00     0.064 A 
ATOM     66  C   UNL A   1      38.589  31.683  36.742  1.00  0.00     0.173 A 
ATOM     67  C   UNL A   1      40.045  33.467  36.045  1.00  0.00     0.173 A 
ATOM     68  F   UNL A   1      38.081  30.451  36.585  1.00  0.00    -0.203 F 
ATOM     69  C   UNL A   1      38.131  32.472  37.793  1.00  0.00     0.198 A 
ATOM     70  C   UNL A   1      39.605  34.243  37.112  1.00  0.00     0.198 A 
ATOM     71  F   UNL A   1      40.976  33.969  35.220  1.00  0.00    -0.203 F 
ATOM     72  F   UNL A   1      37.192  32.000  38.624  1.00  0.00    -0.200 F 
ATOM     73  C   UNL A   1      38.648  33.746  37.984  1.00  0.00     0.200 A 
ATOM     74  F   UNL A   1      40.116  35.466  37.303  1.00  0.00    -0.200 F 
ATOM     75  F   UNL A   1      38.224  34.495  39.011  1.00  0.00    -0.200 F 
ENDBRANCH  42  65
ENDBRANCH  16  17
ENDBRANCH   9  11
ENDBRANCH   8   9
ENDBRANCH   7   8
ENDBRANCH   6   7
ENDBRANCH   5   6
ENDBRANCH   4   5
ENDBRANCH   3   4
ENDBRANCH   2   3
ENDBRANCH   1   2
BRANCH   1  76
ATOM     76  C   UNL A   1      37.447  23.601  25.190  1.00  0.00     0.188 C 
BRANCH  76  77
ATOM     77  O   UNL A   1      36.084  24.001  25.114  1.00  0.00    -0.376 OA
BRANCH  77  78
ATOM     78  C   UNL A   1      35.310  23.362  24.078  1.00  0.00     0.202 C 
BRANCH  78  79
ATOM     79  C   UNL A   1      34.331  24.228  23.273  1.00  0.00     0.261 C 
BRANCH  79  80
ATOM     80  O   UNL A   1      34.063  25.494  23.911  1.00  0.00    -0.460 OA
BRANCH  80  81
ATOM     81  C   UNL A   1      33.101  26.320  23.406  1.00  0.00     0.340 C 
ATOM     82  O   UNL A   1      32.841  26.480  22.232  1.00  0.00    -0.246 OA
BRANCH  81  83
ATOM     83  C   UNL A   1      32.322  26.787  24.587  1.00  0.00     0.092 A 
ATOM     84  C   UNL A   1      32.561  28.120  25.011  1.00  0.00     0.020 A 
ATOM     85  C   UNL A   1      31.564  25.954  25.418  1.00  0.00     0.115 A 
ATOM     86  C   UNL A   1      32.095  28.579  26.234  1.00  0.00     0.021 A 
ATOM     87  N   UNL A   1      31.113  26.429  26.623  1.00  0.00    -0.249 NA
ATOM     88  C   UNL A   1      31.381  27.696  27.006  1.00  0.00     0.112 A 
BRANCH  85  89
ATOM     89  S   UNL A   1      30.922  24.318  25.198  1.00  0.00    -0.069 SA
BRANCH  89  90
ATOM     90  C   UNL A   1      31.970  23.032  25.813  1.00  0.00     0.014 A 
ATOM     91  C   UNL A   1      32.809  23.379  26.880  1.00  0.00     0.015 A 
ATOM     92  C   UNL A   1      32.135  21.774  25.226  1.00  0.00     0.028 A 
ATOM     93  C   UNL A   1      33.733  22.474  27.401  1.00  0.00     0.002 A 
ATOM     94  C   UNL A   1      33.018  20.821  25.780  1.00  0.00     0.057 A 
ATOM     95  C   UNL A   1      33.815  21.193  26.871  1.00  0.00     0.013 A 
BRANCH  94  96
ATOM     96  C   UNL A   1      33.054  19.386  25.301  1.00  0.00     0.416 C 
ATOM     97  F   UNL A   1      32.155  19.121  24.322  1.00  0.00    -0.166 F 
ATOM     98  F   UNL A   1      34.267  19.065  24.765  1.00  0.00    -0.166 F 
ATOM     99  F   UNL A   1      32.817  18.469  26.267  1.00  0.00    -0.166 F 
ENDBRANCH  94  96
ENDBRANCH  89  90
ENDBRANCH  85  89
ENDBRANCH  81  83
ENDBRANCH  80  81
ENDBRANCH  79  80
ENDBRANCH  78  79
ENDBRANCH  77  78
ENDBRANCH  76  77
ENDBRANCH   1  76
TORSDOF 23
ENDMDL
MODEL 2
REMARK VINA RESULT:     -10.0      5.351     10.741
REMARK SMILES O=C(OCCOCCOCCOCCOC(=O)c1cccnc1Sc1cccc(C(F)(F)F)c1)c1ccc(-c2c3nc(c(-c4c(F)c(F)c(F)c(F)c4F)c4ccc([nH]4)c(-c4c(F)c(F)c(F)c(F)c4F)c4nc(c(-c5c(F)c(F)c(F)c(F)c5F)c5ccc2[nH]5)C=C4)C=C3)cc1
REMARK SMILES IDX 10 1 9 2 8 3 7 4 6 5 5 6 4 7 3 8 2 9 1 10 35 11 36 12 97 13
REMARK SMILES IDX 37 14 96 15 38 16 39 17 40 18 90 19 41 20 95 21 89 22 91 23
REMARK SMILES IDX 42 24 94 25 88 26 87 27 43 29 75 30 55 31 74 32 56 33 59 34
REMARK SMILES IDX 73 35 92 36 57 37 58 38 72 40 93 41 60 42 44 43 45 44 53 45
REMARK SMILES IDX 46 46 47 47 51 48 54 49 48 50 49 51 52 52 50 53 76 54 77 55
REMARK SMILES IDX 85 56 78 57 79 58 83 59 86 60 80 61 81 62 84 63 82 64 61 65
REMARK SMILES IDX 62 66 70 67 63 68 64 69 68 70 71 71 65 72 66 73 69 74 67 75
REMARK SMILES IDX 11 76 12 77 13 78 14 79 15 80 16 81 17 82 18 83 19 84 23 85
REMARK SMILES IDX 20 86 22 87 21 88 24 89 25 90 26 91 34 92 27 93 29 94 28 95
REMARK SMILES IDX 30 96 31 97 32 98 33 99
REMARK H PARENT 91 28 59 39
REMARK Flexibility Score: inf
ROOT
ATOM      1  C   UNL A   1      34.425  34.516  27.992  1.00  0.00     0.188 C 
ENDROOT
BRANCH   1   2
ATOM      2  O   UNL A   1      33.151  34.533  28.610  1.00  0.00    -0.377 OA
BRANCH   2   3
ATOM      3  C   UNL A   1      33.086  35.391  29.749  1.00  0.00     0.188 C 
BRANCH   3   4
ATOM      4  C   UNL A   1      33.927  34.931  30.949  1.00  0.00     0.188 C 
BRANCH   4   5
ATOM      5  O   UNL A   1      33.299  35.136  32.229  1.00  0.00    -0.376 OA
BRANCH   5   6
ATOM      6  C   UNL A   1      33.969  34.464  33.300  1.00  0.00     0.202 C 
BRANCH   6   7
ATOM      7  C   UNL A   1      34.393  33.029  32.962  1.00  0.00     0.261 C 
BRANCH   7   8
ATOM      8  O   UNL A   1      35.785  32.918  32.632  1.00  0.00    -0.460 OA
BRANCH   8   9
ATOM      9  C   UNL A   1      36.730  32.105  33.159  1.00  0.00     0.338 C 
ATOM     10  O   UNL A   1      36.733  31.970  34.385  1.00  0.00    -0.246 OA
BRANCH   9  11
ATOM     11  C   UNL A   1      37.731  31.298  32.373  1.00  0.00     0.060 A 
ATOM     12  C   UNL A   1      38.801  30.548  32.875  1.00  0.00     0.016 A 
ATOM     13  C   UNL A   1      37.570  31.334  30.972  1.00  0.00     0.016 A 
ATOM     14  C   UNL A   1      39.746  29.966  32.018  1.00  0.00     0.010 A 
ATOM     15  C   UNL A   1      38.492  30.737  30.109  1.00  0.00     0.010 A 
ATOM     16  C   UNL A   1      39.618  30.098  30.633  1.00  0.00    -0.014 A 
BRANCH  16  17
ATOM     17  C   UNL A   1      40.767  29.806  29.748  1.00  0.00     0.031 A 
ATOM     18  C   UNL A   1      40.803  28.453  29.110  1.00  0.00     0.074 A 
ATOM     19  C   UNL A   1      41.750  30.695  29.537  1.00  0.00     0.049 A 
ATOM     20  N   UNL A   1      41.726  27.911  28.361  1.00  0.00    -0.248 NA
ATOM     21  C   UNL A   1      39.648  27.579  29.377  1.00  0.00     0.031 C 
ATOM     22  C   UNL A   1      41.812  32.023  30.125  1.00  0.00     0.029 A 
ATOM     23  N   UNL A   1      42.890  30.615  28.776  1.00  0.00    -0.354 N 
ATOM     24  C   UNL A   1      41.276  26.626  28.095  1.00  0.00     0.074 A 
ATOM     25  C   UNL A   1      40.000  26.467  28.755  1.00  0.00     0.031 C 
ATOM     26  C   UNL A   1      42.904  32.661  29.676  1.00  0.00     0.029 A 
ATOM     27  C   UNL A   1      43.666  31.749  28.830  1.00  0.00     0.049 A 
ATOM     28  H   UNL A   1      43.129  29.823  28.244  1.00  0.00     0.167 HD
ATOM     29  C   UNL A   1      41.893  25.655  27.384  1.00  0.00     0.037 A 
ATOM     30  C   UNL A   1      44.875  32.001  28.294  1.00  0.00     0.037 A 
ATOM     31  C   UNL A   1      43.186  25.816  26.781  1.00  0.00     0.049 A 
ATOM     32  C   UNL A   1      45.554  30.901  27.522  1.00  0.00     0.074 A 
ATOM     33  C   UNL A   1      43.928  24.896  26.068  1.00  0.00     0.029 A 
ATOM     34  N   UNL A   1      43.938  26.983  26.846  1.00  0.00    -0.354 N 
ATOM     35  N   UNL A   1      45.122  29.690  27.263  1.00  0.00    -0.248 NA
ATOM     36  C   UNL A   1      46.894  31.186  26.993  1.00  0.00     0.031 C 
ATOM     37  C   UNL A   1      45.153  25.489  25.744  1.00  0.00     0.029 A 
ATOM     38  C   UNL A   1      45.150  26.799  26.204  1.00  0.00     0.049 A 
ATOM     39  H   UNL A   1      43.652  27.817  27.284  1.00  0.00     0.167 HD
ATOM     40  C   UNL A   1      46.129  29.066  26.543  1.00  0.00     0.074 A 
ATOM     41  C   UNL A   1      47.190  30.043  26.387  1.00  0.00     0.031 C 
ATOM     42  C   UNL A   1      46.179  27.800  26.063  1.00  0.00     0.037 A 
BRANCH  29  43
ATOM     43  C   UNL A   1      41.198  24.327  27.321  1.00  0.00     0.064 A 
ATOM     44  C   UNL A   1      41.671  23.209  28.025  1.00  0.00     0.173 A 
ATOM     45  C   UNL A   1      40.088  24.155  26.481  1.00  0.00     0.173 A 
ATOM     46  F   UNL A   1      42.749  23.315  28.816  1.00  0.00    -0.203 F 
ATOM     47  C   UNL A   1      41.087  21.956  27.852  1.00  0.00     0.198 A 
ATOM     48  C   UNL A   1      39.488  22.907  26.335  1.00  0.00     0.198 A 
ATOM     49  F   UNL A   1      39.602  25.189  25.780  1.00  0.00    -0.203 F 
ATOM     50  F   UNL A   1      41.606  20.886  28.470  1.00  0.00    -0.200 F 
ATOM     51  C   UNL A   1      39.996  21.807  27.008  1.00  0.00     0.200 A 
ATOM     52  F   UNL A   1      38.433  22.765  25.522  1.00  0.00    -0.200 F 
ATOM     53  F   UNL A   1      39.448  20.598  26.827  1.00  0.00    -0.200 F 
ENDBRANCH  29  43
BRANCH  30  54
ATOM     54  C   UNL A   1      45.521  33.325  28.505  1.00  0.00     0.064 A 
ATOM     55  C   UNL A   1      46.455  33.519  29.531  1.00  0.00     0.173 A 
ATOM     56  C   UNL A   1      45.249  34.413  27.661  1.00  0.00     0.173 A 
ATOM     57  F   UNL A   1      46.736  32.520  30.381  1.00  0.00    -0.203 F 
ATOM     58  C   UNL A   1      47.094  34.748  29.704  1.00  0.00     0.198 A 
ATOM     59  C   UNL A   1      45.911  35.631  27.814  1.00  0.00     0.198 A 
ATOM     60  F   UNL A   1      44.364  34.285  26.663  1.00  0.00    -0.203 F 
ATOM     61  F   UNL A   1      47.964  34.914  30.710  1.00  0.00    -0.200 F 
ATOM     62  C   UNL A   1      46.830  35.799  28.838  1.00  0.00     0.200 A 
ATOM     63  F   UNL A   1      45.665  36.636  26.963  1.00  0.00    -0.200 F 
ATOM     64  F   UNL A   1      47.460  36.972  28.990  1.00  0.00    -0.200 F 
ENDBRANCH  30  54
BRANCH  42  65
ATOM     65  C   UNL A   1      47.405  27.399  25.301  1.00  0.00     0.064 A 
ATOM     66  C   UNL A   1      47.543  27.678  23.936  1.00  0.00     0.173 A 
ATOM     67  C   UNL A   1      48.493  26.823  25.975  1.00  0.00     0.173 A 
ATOM     68  F   UNL A   1      46.524  28.216  23.249  1.00  0.00    -0.203 F 
ATOM     69  C   UNL A   1      48.730  27.392  23.267  1.00  0.00     0.198 A 
ATOM     70  C   UNL A   1      49.686  26.562  25.310  1.00  0.00     0.198 A 
ATOM     71  F   UNL A   1      48.406  26.545  27.284  1.00  0.00    -0.203 F 
ATOM     72  F   UNL A   1      48.837  27.647  21.956  1.00  0.00    -0.200 F 
ATOM     73  C   UNL A   1      49.803  26.846  23.957  1.00  0.00     0.200 A 
ATOM     74  F   UNL A   1      50.725  26.049  25.980  1.00  0.00    -0.200 F 
ATOM     75  F   UNL A   1      50.953  26.593  23.317  1.00  0.00    -0.200 F 
ENDBRANCH  42  65
ENDBRANCH  16  17
ENDBRANCH   9  11
ENDBRANCH   8   9
ENDBRANCH   7   8
ENDBRANCH   6   7
ENDBRANCH   5   6
ENDBRANCH   4   5
ENDBRANCH   3   4
ENDBRANCH   2   3
ENDBRANCH   1   2
BRANCH   1  76
ATOM     76  C   UNL A   1      35.325  33.311  28.295  1.00  0.00     0.188 C 
BRANCH  76  77
ATOM     77  O   UNL A   1      34.723  32.094  28.722  1.00  0.00    -0.376 OA
BRANCH  77  78
ATOM     78  C   UNL A   1      34.825  30.996  27.792  1.00  0.00     0.202 C 
BRANCH  78  79
ATOM     79  C   UNL A   1      33.526  30.327  27.322  1.00  0.00     0.261 C 
BRANCH  79  80
ATOM     80  O   UNL A   1      33.639  29.775  25.995  1.00  0.00    -0.460 OA
BRANCH  80  81
ATOM     81  C   UNL A   1      32.515  29.552  25.253  1.00  0.00     0.340 C 
ATOM     82  O   UNL A   1      31.495  30.207  25.287  1.00  0.00    -0.246 OA
BRANCH  81  83
ATOM     83  C   UNL A   1      32.895  28.502  24.266  1.00  0.00     0.092 A 
ATOM     84  C   UNL A   1      33.683  28.928  23.166  1.00  0.00     0.020 A 
ATOM     85  C   UNL A   1      32.352  27.212  24.232  1.00  0.00     0.115 A 
ATOM     86  C   UNL A   1      33.881  28.109  22.065  1.00  0.00     0.021 A 
ATOM     87  N   UNL A   1      32.562  26.419  23.133  1.00  0.00    -0.249 NA
ATOM     88  C   UNL A   1      33.297  26.867  22.092  1.00  0.00     0.112 A 
BRANCH  85  89
ATOM     89  S   UNL A   1      31.465  26.261  25.435  1.00  0.00    -0.069 SA
BRANCH  89  90
ATOM     90  C   UNL A   1      31.913  24.551  25.489  1.00  0.00     0.014 A 
ATOM     91  C   UNL A   1      30.874  23.649  25.752  1.00  0.00     0.015 A 
ATOM     92  C   UNL A   1      33.221  24.056  25.448  1.00  0.00     0.028 A 
ATOM     93  C   UNL A   1      31.116  22.284  25.894  1.00  0.00     0.002 A 
ATOM     94  C   UNL A   1      33.479  22.669  25.523  1.00  0.00     0.057 A 
ATOM     95  C   UNL A   1      32.408  21.795  25.752  1.00  0.00     0.013 A 
BRANCH  94  96
ATOM     96  C   UNL A   1      34.854  22.094  25.263  1.00  0.00     0.416 C 
ATOM     97  F   UNL A   1      35.588  21.918  26.388  1.00  0.00    -0.166 F 
ATOM     98  F   UNL A   1      34.781  20.857  24.689  1.00  0.00    -0.166 F 
ATOM     99  F   UNL A   1      35.625  22.842  24.441  1.00  0.00    -0.166 F 
ENDBRANCH  94  96
ENDBRANCH  89  90
ENDBRANCH  85  89
ENDBRANCH  81  83
ENDBRANCH  80  81
ENDBRANCH  79  80
ENDBRANCH  78  79
ENDBRANCH  77  78
ENDBRANCH  76  77
ENDBRANCH   1  76
TORSDOF 23
ENDMDL
MODEL 3
REMARK VINA RESULT:     -10.0      3.393      8.751
REMARK SMILES O=C(OCCOCCOCCOCCOC(=O)c1cccnc1Sc1cccc(C(F)(F)F)c1)c1ccc(-c2c3nc(c(-c4c(F)c(F)c(F)c(F)c4F)c4ccc([nH]4)c(-c4c(F)c(F)c(F)c(F)c4F)c4nc(c(-c5c(F)c(F)c(F)c(F)c5F)c5ccc2[nH]5)C=C4)C=C3)cc1
REMARK SMILES IDX 10 1 9 2 8 3 7 4 6 5 5 6 4 7 3 8 2 9 1 10 35 11 36 12 97 13
REMARK SMILES IDX 37 14 96 15 38 16 39 17 40 18 90 19 41 20 95 21 89 22 91 23
REMARK SMILES IDX 42 24 94 25 88 26 87 27 43 29 75 30 55 31 74 32 56 33 59 34
REMARK SMILES IDX 73 35 92 36 57 37 58 38 72 40 93 41 60 42 44 43 45 44 53 45
REMARK SMILES IDX 46 46 47 47 51 48 54 49 48 50 49 51 52 52 50 53 76 54 77 55
REMARK SMILES IDX 85 56 78 57 79 58 83 59 86 60 80 61 81 62 84 63 82 64 61 65
REMARK SMILES IDX 62 66 70 67 63 68 64 69 68 70 71 71 65 72 66 73 69 74 67 75
REMARK SMILES IDX 11 76 12 77 13 78 14 79 15 80 16 81 17 82 18 83 19 84 23 85
REMARK SMILES IDX 20 86 22 87 21 88 24 89 25 90 26 91 34 92 27 93 29 94 28 95
REMARK SMILES IDX 30 96 31 97 32 98 33 99
REMARK H PARENT 91 28 59 39
REMARK Flexibility Score: inf
ROOT
ATOM      1  C   UNL A   1      31.213  27.008  25.818  1.00  0.00     0.188 C 
ENDROOT
BRANCH   1   2
ATOM      2  O   UNL A   1      32.364  27.679  26.298  1.00  0.00    -0.377 OA
BRANCH   2   3
ATOM      3  C   UNL A   1      32.098  28.526  27.416  1.00  0.00     0.188 C 
BRANCH   3   4
ATOM      4  C   UNL A   1      32.388  30.016  27.177  1.00  0.00     0.188 C 
BRANCH   4   5
ATOM      5  O   UNL A   1      31.475  30.662  26.271  1.00  0.00    -0.376 OA
BRANCH   5   6
ATOM      6  C   UNL A   1      31.430  32.083  26.433  1.00  0.00     0.202 C 
BRANCH   6   7
ATOM      7  C   UNL A   1      32.428  32.621  27.466  1.00  0.00     0.261 C 
BRANCH   7   8
ATOM      8  O   UNL A   1      32.212  34.002  27.791  1.00  0.00    -0.460 OA
BRANCH   8   9
ATOM      9  C   UNL A   1      32.927  34.814  28.604  1.00  0.00     0.338 C 
ATOM     10  O   UNL A   1      32.453  35.928  28.840  1.00  0.00    -0.246 OA
BRANCH   9  11
ATOM     11  C   UNL A   1      34.212  34.449  29.301  1.00  0.00     0.060 A 
ATOM     12  C   UNL A   1      35.510  34.520  28.785  1.00  0.00     0.016 A 
ATOM     13  C   UNL A   1      34.068  33.958  30.616  1.00  0.00     0.016 A 
ATOM     14  C   UNL A   1      36.605  34.005  29.494  1.00  0.00     0.010 A 
ATOM     15  C   UNL A   1      35.155  33.466  31.342  1.00  0.00     0.010 A 
ATOM     16  C   UNL A   1      36.422  33.436  30.757  1.00  0.00    -0.014 A 
BRANCH  16  17
ATOM     17  C   UNL A   1      37.478  32.587  31.349  1.00  0.00     0.031 A 
ATOM     18  C   UNL A   1      37.906  32.914  32.747  1.00  0.00     0.074 A 
ATOM     19  C   UNL A   1      38.053  31.582  30.670  1.00  0.00     0.049 A 
ATOM     20  N   UNL A   1      38.856  32.388  33.470  1.00  0.00    -0.248 NA
ATOM     21  C   UNL A   1      37.174  34.007  33.409  1.00  0.00     0.031 C 
ATOM     22  C   UNL A   1      37.719  31.201  29.307  1.00  0.00     0.029 A 
ATOM     23  N   UNL A   1      39.042  30.700  31.029  1.00  0.00    -0.354 N 
ATOM     24  C   UNL A   1      38.856  33.105  34.657  1.00  0.00     0.074 A 
ATOM     25  C   UNL A   1      37.811  34.099  34.562  1.00  0.00     0.031 C 
ATOM     26  C   UNL A   1      38.452  30.135  28.948  1.00  0.00     0.029 A 
ATOM     27  C   UNL A   1      39.371  29.811  30.034  1.00  0.00     0.049 A 
ATOM     28  H   UNL A   1      39.474  30.704  31.913  1.00  0.00     0.167 HD
ATOM     29  C   UNL A   1      39.679  32.963  35.721  1.00  0.00     0.037 A 
ATOM     30  C   UNL A   1      40.337  28.873  29.991  1.00  0.00     0.037 A 
ATOM     31  C   UNL A   1      40.745  32.003  35.773  1.00  0.00     0.049 A 
ATOM     32  C   UNL A   1      41.254  28.742  31.177  1.00  0.00     0.074 A 
ATOM     33  C   UNL A   1      41.666  31.787  36.778  1.00  0.00     0.029 A 
ATOM     34  N   UNL A   1      41.043  31.110  34.750  1.00  0.00    -0.354 N 
ATOM     35  N   UNL A   1      41.245  29.416  32.303  1.00  0.00    -0.248 NA
ATOM     36  C   UNL A   1      42.331  27.748  31.081  1.00  0.00     0.031 C 
ATOM     37  C   UNL A   1      42.554  30.797  36.344  1.00  0.00     0.029 A 
ATOM     38  C   UNL A   1      42.150  30.354  35.091  1.00  0.00     0.049 A 
ATOM     39  H   UNL A   1      40.540  31.027  33.908  1.00  0.00     0.167 HD
ATOM     40  C   UNL A   1      42.307  28.931  33.051  1.00  0.00     0.074 A 
ATOM     41  C   UNL A   1      42.930  27.889  32.257  1.00  0.00     0.031 C 
ATOM     42  C   UNL A   1      42.736  29.319  34.276  1.00  0.00     0.037 A 
BRANCH  29  43
ATOM     43  C   UNL A   1      39.491  33.934  36.847  1.00  0.00     0.064 A 
ATOM     44  C   UNL A   1      40.118  35.190  36.856  1.00  0.00     0.173 A 
ATOM     45  C   UNL A   1      38.735  33.569  37.971  1.00  0.00     0.173 A 
ATOM     46  F   UNL A   1      40.879  35.571  35.819  1.00  0.00    -0.203 F 
ATOM     47  C   UNL A   1      40.035  36.023  37.969  1.00  0.00     0.198 A 
ATOM     48  C   UNL A   1      38.628  34.419  39.069  1.00  0.00     0.198 A 
ATOM     49  F   UNL A   1      38.122  32.378  38.017  1.00  0.00    -0.203 F 
ATOM     50  F   UNL A   1      40.709  37.182  37.988  1.00  0.00    -0.200 F 
ATOM     51  C   UNL A   1      39.289  35.638  39.073  1.00  0.00     0.200 A 
ATOM     52  F   UNL A   1      37.905  34.047  40.133  1.00  0.00    -0.200 F 
ATOM     53  F   UNL A   1      39.225  36.432  40.150  1.00  0.00    -0.200 F 
ENDBRANCH  29  43
BRANCH  30  54
ATOM     54  C   UNL A   1      40.499  28.028  28.776  1.00  0.00     0.064 A 
ATOM     55  C   UNL A   1      39.850  26.792  28.662  1.00  0.00     0.173 A 
ATOM     56  C   UNL A   1      41.275  28.456  27.687  1.00  0.00     0.173 A 
ATOM     57  F   UNL A   1      39.113  26.325  29.681  1.00  0.00    -0.203 F 
ATOM     58  C   UNL A   1      39.966  26.018  27.506  1.00  0.00     0.198 A 
ATOM     59  C   UNL A   1      41.366  27.697  26.521  1.00  0.00     0.198 A 
ATOM     60  F   UNL A   1      41.920  29.629  27.741  1.00  0.00    -0.203 F 
ATOM     61  F   UNL A   1      39.354  24.828  27.434  1.00  0.00    -0.200 F 
ATOM     62  C   UNL A   1      40.714  26.477  26.433  1.00  0.00     0.200 A 
ATOM     63  F   UNL A   1      42.075  28.155  25.480  1.00  0.00    -0.200 F 
ATOM     64  F   UNL A   1      40.808  25.744  25.315  1.00  0.00    -0.200 F 
ENDBRANCH  30  54
BRANCH  42  65
ATOM     65  C   UNL A   1      43.918  28.599  34.851  1.00  0.00     0.064 A 
ATOM     66  C   UNL A   1      45.218  29.105  34.722  1.00  0.00     0.173 A 
ATOM     67  C   UNL A   1      43.728  27.446  35.627  1.00  0.00     0.173 A 
ATOM     68  F   UNL A   1      45.448  30.197  33.978  1.00  0.00    -0.203 F 
ATOM     69  C   UNL A   1      46.291  28.478  35.350  1.00  0.00     0.198 A 
ATOM     70  C   UNL A   1      44.798  26.837  36.274  1.00  0.00     0.198 A 
ATOM     71  F   UNL A   1      42.499  26.931  35.783  1.00  0.00    -0.203 F 
ATOM     72  F   UNL A   1      47.530  28.964  35.199  1.00  0.00    -0.200 F 
ATOM     73  C   UNL A   1      46.078  27.353  36.134  1.00  0.00     0.200 A 
ATOM     74  F   UNL A   1      44.589  25.761  37.043  1.00  0.00    -0.200 F 
ATOM     75  F   UNL A   1      47.109  26.765  36.758  1.00  0.00    -0.200 F 
ENDBRANCH  42  65
ENDBRANCH  16  17
ENDBRANCH   9  11
ENDBRANCH   8   9
ENDBRANCH   7   8
ENDBRANCH   6   7
ENDBRANCH   5   6
ENDBRANCH   4   5
ENDBRANCH   3   4
ENDBRANCH   2   3
ENDBRANCH   1   2
BRANCH   1  76
ATOM     76  C   UNL A   1      30.903  25.639  26.436  1.00  0.00     0.188 C 
BRANCH  76  77
ATOM     77  O   UNL A   1      31.520  24.481  25.887  1.00  0.00    -0.376 OA
BRANCH  77  78
ATOM     78  C   UNL A   1      31.579  23.337  26.765  1.00  0.00     0.202 C 
BRANCH  78  79
ATOM     79  C   UNL A   1      31.875  21.966  26.143  1.00  0.00     0.261 C 
BRANCH  79  80
ATOM     80  O   UNL A   1      33.285  21.662  26.127  1.00  0.00    -0.460 OA
BRANCH  80  81
ATOM     81  C   UNL A   1      33.788  20.821  25.176  1.00  0.00     0.340 C 
ATOM     82  O   UNL A   1      33.142  20.098  24.447  1.00  0.00    -0.246 OA
BRANCH  81  83
ATOM     83  C   UNL A   1      35.239  21.149  25.087  1.00  0.00     0.092 A 
ATOM     84  C   UNL A   1      36.114  20.065  24.812  1.00  0.00     0.020 A 
ATOM     85  C   UNL A   1      35.801  22.372  25.469  1.00  0.00     0.115 A 
ATOM     86  C   UNL A   1      37.486  20.196  24.957  1.00  0.00     0.021 A 
ATOM     87  N   UNL A   1      37.161  22.479  25.604  1.00  0.00    -0.249 NA
ATOM     88  C   UNL A   1      37.962  21.419  25.360  1.00  0.00     0.112 A 
BRANCH  85  89
ATOM     89  S   UNL A   1      35.094  23.974  25.743  1.00  0.00    -0.069 SA
BRANCH  89  90
ATOM     90  C   UNL A   1      34.294  24.670  24.328  1.00  0.00     0.014 A 
ATOM     91  C   UNL A   1      33.839  23.759  23.365  1.00  0.00     0.015 A 
ATOM     92  C   UNL A   1      34.226  26.035  24.028  1.00  0.00     0.028 A 
ATOM     93  C   UNL A   1      33.262  24.191  22.173  1.00  0.00     0.002 A 
ATOM     94  C   UNL A   1      33.584  26.493  22.856  1.00  0.00     0.057 A 
ATOM     95  C   UNL A   1      33.110  25.550  21.934  1.00  0.00     0.013 A 
BRANCH  94  96
ATOM     96  C   UNL A   1      33.303  27.960  22.616  1.00  0.00     0.416 C 
ATOM     97  F   UNL A   1      33.778  28.768  23.595  1.00  0.00    -0.166 F 
ATOM     98  F   UNL A   1      33.896  28.405  21.470  1.00  0.00    -0.166 F 
ATOM     99  F   UNL A   1      31.991  28.265  22.501  1.00  0.00    -0.166 F 
ENDBRANCH  94  96
ENDBRANCH  89  90
ENDBRANCH  85  89
ENDBRANCH  81  83
ENDBRANCH  80  81
ENDBRANCH  79  80
ENDBRANCH  78  79
ENDBRANCH  77  78
ENDBRANCH  76  77
ENDBRANCH   1  76
TORSDOF 23
ENDMDL
