MODEL 1
REMARK VINA RESULT:     -11.2      0.000      0.000
REMARK SMILES CC1=CC2=[NH+]C(=O)C[C@@](C)(C(=O)OCCOCCOCCOCCOC(=O)c3ccc(-c4c5nc(c(-c6c(F)c(F)c(F)c(F)c6F)c6ccc([nH]6)c(-c6c(F)c(F)c(F)c(F)c6F)c6nc(c(-c7c(F)c(F)c(F)c(F)c7F)c7ccc4[nH]7)C=C6)C=C5)cc3)N2C=C1
REMARK SMILES IDX 20 1 19 2 18 3 17 4 16 5 15 6 14 7 13 8 11 9 12 10 9 11 1 12
REMARK SMILES IDX 2 13 3 14 93 15 4 16 92 17 5 18 91 19 6 20 7 22 8 23 10 24
REMARK SMILES IDX 21 25 22 26 23 27 24 28 25 29 26 30 27 31 28 32 29 33 90 34
REMARK SMILES IDX 30 35 89 36 31 37 32 38 33 39 83 40 34 41 88 42 82 43 84 44
REMARK SMILES IDX 35 45 87 46 81 47 80 48 36 50 68 51 48 52 67 53 49 54 52 55
REMARK SMILES IDX 66 56 85 57 50 58 51 59 65 61 86 62 53 63 37 64 38 65 46 66
REMARK SMILES IDX 39 67 40 68 44 69 47 70 41 71 42 72 45 73 43 74 69 75 70 76
REMARK SMILES IDX 78 77 71 78 72 79 76 80 79 81 73 82 74 83 77 84 75 85 54 86
REMARK SMILES IDX 55 87 63 88 56 89 57 90 61 91 64 92 58 93 59 94 62 95 60 96
REMARK H PARENT 5 21 84 49 52 60
REMARK Flexibility Score: inf
ROOT
ATOM      1  C   UNL A   1      29.733  29.648  23.042  1.00  0.00     0.188 C 
ENDROOT
BRANCH   1   2
ATOM      2  O   UNL A   1      30.024  28.612  22.116  1.00  0.00    -0.377 OA
BRANCH   2   3
ATOM      3  C   UNL A   1      30.343  27.367  22.753  1.00  0.00     0.188 C 
BRANCH   3   4
ATOM      4  C   UNL A   1      31.632  26.745  22.048  1.00  0.00     0.188 C 
BRANCH   4   5
ATOM      5  O   UNL A   1      32.365  25.500  22.026  1.00  0.00    -0.376 OA
BRANCH   5   6
ATOM      6  C   UNL A   1      33.618  25.533  22.722  1.00  0.00     0.202 C 
BRANCH   6   7
ATOM      7  C   UNL A   1      33.592  26.439  24.009  1.00  0.00     0.261 C 
BRANCH   7   8
ATOM      8  O   UNL A   1      33.561  25.701  25.274  1.00  0.00    -0.460 OA
BRANCH   8   9
ATOM      9  C   UNL A   1      34.464  24.635  25.535  1.00  0.00     0.355 C 
ATOM     10  O   UNL A   1      35.651  24.799  25.754  1.00  0.00    -0.247 OA
BRANCH   9  11
ATOM     11  C   UNL A   1      33.606  23.368  25.764  1.00  0.00     0.216 C 
ATOM     12  C   UNL A   1      32.162  18.122  23.562  1.00  0.00     0.045 C 
ATOM     13  C   UNL A   1      32.617  19.472  24.013  1.00  0.00    -0.039 C 
ATOM     14  C   UNL A   1      33.248  19.518  25.185  1.00  0.00     0.102 C 
ATOM     15  C   UNL A   1      32.331  20.711  23.286  1.00  0.00     0.047 C 
ATOM     16  C   UNL A   1      33.480  20.843  25.746  1.00  0.00     0.282 C 
ATOM     17  C   UNL A   1      32.755  21.916  23.739  1.00  0.00     0.202 C 
ATOM     18  N   UNL A   1      33.657  20.730  27.033  1.00  0.00    -0.210 N 
ATOM     19  N   UNL A   1      33.419  22.064  24.961  1.00  0.00    -0.217 N 
ATOM     20  C   UNL A   1      33.647  21.949  27.581  1.00  0.00     0.312 C 
ATOM     21  H   UNL A   1      33.779  19.884  27.522  1.00  0.00     0.315 HD
ATOM     22  O   UNL A   1      32.736  22.318  28.295  1.00  0.00    -0.247 OA
ATOM     23  C   UNL A   1      34.550  22.830  26.839  1.00  0.00     0.193 C 
ATOM     24  C   UNL A   1      32.177  23.940  25.992  1.00  0.00     0.076 C 
ENDBRANCH   9  11
ENDBRANCH   8   9
ENDBRANCH   7   8
ENDBRANCH   6   7
ENDBRANCH   5   6
ENDBRANCH   4   5
ENDBRANCH   3   4
ENDBRANCH   2   3
ENDBRANCH   1   2
BRANCH   1  25
ATOM     25  C   UNL A   1      30.698  29.762  24.238  1.00  0.00     0.188 C 
BRANCH  25  26
ATOM     26  O   UNL A   1      30.631  30.993  24.947  1.00  0.00    -0.376 OA
BRANCH  26  27
ATOM     27  C   UNL A   1      31.133  30.989  26.285  1.00  0.00     0.202 C 
BRANCH  27  28
ATOM     28  C   UNL A   1      31.938  32.222  26.736  1.00  0.00     0.261 C 
BRANCH  28  29
ATOM     29  O   UNL A   1      33.024  31.967  27.645  1.00  0.00    -0.460 OA
BRANCH  29  30
ATOM     30  C   UNL A   1      33.857  32.999  27.950  1.00  0.00     0.338 C 
ATOM     31  O   UNL A   1      33.578  34.138  28.136  1.00  0.00    -0.246 OA
BRANCH  30  32
ATOM     32  C   UNL A   1      35.171  32.381  28.293  1.00  0.00     0.060 A 
ATOM     33  C   UNL A   1      35.247  30.979  28.265  1.00  0.00     0.016 A 
ATOM     34  C   UNL A   1      36.322  33.151  28.489  1.00  0.00     0.016 A 
ATOM     35  C   UNL A   1      36.472  30.344  28.453  1.00  0.00     0.010 A 
ATOM     36  C   UNL A   1      37.539  32.514  28.742  1.00  0.00     0.010 A 
ATOM     37  C   UNL A   1      37.605  31.108  28.767  1.00  0.00    -0.014 A 
BRANCH  37  38
ATOM     38  C   UNL A   1      38.703  30.436  29.497  1.00  0.00     0.031 A 
ATOM     39  C   UNL A   1      38.881  30.837  30.937  1.00  0.00     0.074 A 
ATOM     40  C   UNL A   1      39.470  29.483  28.944  1.00  0.00     0.049 A 
ATOM     41  N   UNL A   1      39.736  30.407  31.826  1.00  0.00    -0.248 NA
ATOM     42  C   UNL A   1      37.951  31.863  31.447  1.00  0.00     0.031 C 
ATOM     43  C   UNL A   1      39.354  28.979  27.579  1.00  0.00     0.029 A 
ATOM     44  N   UNL A   1      40.508  28.765  29.483  1.00  0.00    -0.354 N 
ATOM     45  C   UNL A   1      39.437  31.100  32.991  1.00  0.00     0.074 A 
ATOM     46  C   UNL A   1      38.344  31.995  32.700  1.00  0.00     0.031 C 
ATOM     47  C   UNL A   1      40.298  28.040  27.381  1.00  0.00     0.029 A 
ATOM     48  C   UNL A   1      41.096  27.895  28.598  1.00  0.00     0.049 A 
ATOM     49  H   UNL A   1      40.803  28.864  30.417  1.00  0.00     0.167 HD
ATOM     50  C   UNL A   1      40.020  30.997  34.206  1.00  0.00     0.037 A 
ATOM     51  C   UNL A   1      42.169  27.095  28.762  1.00  0.00     0.037 A 
ATOM     52  C   UNL A   1      41.128  30.132  34.486  1.00  0.00     0.049 A 
ATOM     53  C   UNL A   1      42.865  27.067  30.102  1.00  0.00     0.074 A 
ATOM     54  C   UNL A   1      41.810  29.960  35.675  1.00  0.00     0.029 A 
ATOM     55  N   UNL A   1      41.724  29.300  33.550  1.00  0.00    -0.354 N 
ATOM     56  N   UNL A   1      42.565  27.706  31.207  1.00  0.00    -0.248 NA
ATOM     57  C   UNL A   1      44.049  26.202  30.216  1.00  0.00     0.031 C 
ATOM     58  C   UNL A   1      42.853  29.058  35.446  1.00  0.00     0.029 A 
ATOM     59  C   UNL A   1      42.784  28.627  34.129  1.00  0.00     0.049 A 
ATOM     60  H   UNL A   1      41.436  29.203  32.613  1.00  0.00     0.167 HD
ATOM     61  C   UNL A   1      43.499  27.302  32.152  1.00  0.00     0.074 A 
ATOM     62  C   UNL A   1      44.372  26.353  31.493  1.00  0.00     0.031 C 
ATOM     63  C   UNL A   1      43.626  27.677  33.450  1.00  0.00     0.037 A 
BRANCH  50  64
ATOM     64  C   UNL A   1      39.490  31.878  35.296  1.00  0.00     0.064 A 
ATOM     65  C   UNL A   1      38.579  31.400  36.251  1.00  0.00     0.173 A 
ATOM     66  C   UNL A   1      39.888  33.220  35.377  1.00  0.00     0.173 A 
ATOM     67  F   UNL A   1      38.144  30.132  36.193  1.00  0.00    -0.203 F 
ATOM     68  C   UNL A   1      38.073  32.240  37.238  1.00  0.00     0.198 A 
ATOM     69  C   UNL A   1      39.400  34.050  36.382  1.00  0.00     0.198 A 
ATOM     70  F   UNL A   1      40.745  33.726  34.478  1.00  0.00    -0.203 F 
ATOM     71  F   UNL A   1      37.167  31.777  38.111  1.00  0.00    -0.200 F 
ATOM     72  C   UNL A   1      38.489  33.562  37.307  1.00  0.00     0.200 A 
ATOM     73  F   UNL A   1      39.805  35.325  36.450  1.00  0.00    -0.200 F 
ATOM     74  F   UNL A   1      38.004  34.369  38.260  1.00  0.00    -0.200 F 
ENDBRANCH  50  64
BRANCH  51  75
ATOM     75  C   UNL A   1      42.668  26.268  27.630  1.00  0.00     0.064 A 
ATOM     76  C   UNL A   1      43.675  26.738  26.775  1.00  0.00     0.173 A 
ATOM     77  C   UNL A   1      42.124  25.004  27.361  1.00  0.00     0.173 A 
ATOM     78  F   UNL A   1      44.209  27.952  26.973  1.00  0.00    -0.203 F 
ATOM     79  C   UNL A   1      44.105  25.983  25.685  1.00  0.00     0.198 A 
ATOM     80  C   UNL A   1      42.574  24.238  26.286  1.00  0.00     0.198 A 
ATOM     81  F   UNL A   1      41.153  24.509  28.143  1.00  0.00    -0.203 F 
ATOM     82  F   UNL A   1      45.036  26.476  24.856  1.00  0.00    -0.200 F 
ATOM     83  C   UNL A   1      43.558  24.731  25.444  1.00  0.00     0.200 A 
ATOM     84  F   UNL A   1      42.047  23.026  26.063  1.00  0.00    -0.200 F 
ATOM     85  F   UNL A   1      43.973  24.006  24.397  1.00  0.00    -0.200 F 
ENDBRANCH  51  75
BRANCH  63  86
ATOM     86  C   UNL A   1      44.716  27.033  34.255  1.00  0.00     0.064 A 
ATOM     87  C   UNL A   1      44.541  25.783  34.865  1.00  0.00     0.173 A 
ATOM     88  C   UNL A   1      45.974  27.648  34.357  1.00  0.00     0.173 A 
ATOM     89  F   UNL A   1      43.354  25.162  34.804  1.00  0.00    -0.203 F 
ATOM     90  C   UNL A   1      45.581  25.182  35.568  1.00  0.00     0.198 A 
ATOM     91  C   UNL A   1      47.020  27.029  35.034  1.00  0.00     0.198 A 
ATOM     92  F   UNL A   1      46.194  28.838  33.779  1.00  0.00    -0.203 F 
ATOM     93  F   UNL A   1      45.381  24.006  36.178  1.00  0.00    -0.200 F 
ATOM     94  C   UNL A   1      46.820  25.800  35.645  1.00  0.00     0.200 A 
ATOM     95  F   UNL A   1      48.221  27.620  35.093  1.00  0.00    -0.200 F 
ATOM     96  F   UNL A   1      47.824  25.213  36.312  1.00  0.00    -0.200 F 
ENDBRANCH  63  86
ENDBRANCH  37  38
ENDBRANCH  30  32
ENDBRANCH  29  30
ENDBRANCH  28  29
ENDBRANCH  27  28
ENDBRANCH  26  27
ENDBRANCH  25  26
ENDBRANCH   1  25
TORSDOF 20
ENDMDL
MODEL 2
REMARK VINA RESULT:     -11.2      0.898      2.464
REMARK SMILES CC1=CC2=[NH+]C(=O)C[C@@](C)(C(=O)OCCOCCOCCOCCOC(=O)c3ccc(-c4c5nc(c(-c6c(F)c(F)c(F)c(F)c6F)c6ccc([nH]6)c(-c6c(F)c(F)c(F)c(F)c6F)c6nc(c(-c7c(F)c(F)c(F)c(F)c7F)c7ccc4[nH]7)C=C6)C=C5)cc3)N2C=C1
REMARK SMILES IDX 20 1 19 2 18 3 17 4 16 5 15 6 14 7 13 8 11 9 12 10 9 11 1 12
REMARK SMILES IDX 2 13 3 14 93 15 4 16 92 17 5 18 91 19 6 20 7 22 8 23 10 24
REMARK SMILES IDX 21 25 22 26 23 27 24 28 25 29 26 30 27 31 28 32 29 33 90 34
REMARK SMILES IDX 30 35 89 36 31 37 32 38 33 39 83 40 34 41 88 42 82 43 84 44
REMARK SMILES IDX 35 45 87 46 81 47 80 48 36 50 68 51 48 52 67 53 49 54 52 55
REMARK SMILES IDX 66 56 85 57 50 58 51 59 65 61 86 62 53 63 37 64 38 65 46 66
REMARK SMILES IDX 39 67 40 68 44 69 47 70 41 71 42 72 45 73 43 74 69 75 70 76
REMARK SMILES IDX 78 77 71 78 72 79 76 80 79 81 73 82 74 83 77 84 75 85 54 86
REMARK SMILES IDX 55 87 63 88 56 89 57 90 61 91 64 92 58 93 59 94 62 95 60 96
REMARK H PARENT 5 21 84 49 52 60
REMARK Flexibility Score: inf
ROOT
ATOM      1  C   UNL A   1      29.876  29.687  23.114  1.00  0.00     0.188 C 
ENDROOT
BRANCH   1   2
ATOM      2  O   UNL A   1      29.598  28.412  22.554  1.00  0.00    -0.377 OA
BRANCH   2   3
ATOM      3  C   UNL A   1      30.528  27.403  22.972  1.00  0.00     0.188 C 
BRANCH   3   4
ATOM      4  C   UNL A   1      29.761  26.349  23.892  1.00  0.00     0.188 C 
BRANCH   4   5
ATOM      5  O   UNL A   1      29.934  25.691  25.166  1.00  0.00    -0.376 OA
BRANCH   5   6
ATOM      6  C   UNL A   1      30.751  26.407  26.101  1.00  0.00     0.202 C 
BRANCH   6   7
ATOM      7  C   UNL A   1      32.293  26.200  25.867  1.00  0.00     0.261 C 
BRANCH   7   8
ATOM      8  O   UNL A   1      32.666  24.862  25.401  1.00  0.00    -0.460 OA
BRANCH   8   9
ATOM      9  C   UNL A   1      34.008  24.536  25.073  1.00  0.00     0.355 C 
ATOM     10  O   UNL A   1      34.974  25.002  25.653  1.00  0.00    -0.247 OA
BRANCH   9  11
ATOM     11  C   UNL A   1      33.953  23.328  24.109  1.00  0.00     0.216 C 
ATOM     12  C   UNL A   1      32.706  17.606  23.696  1.00  0.00     0.045 C 
ATOM     13  C   UNL A   1      32.985  19.055  23.936  1.00  0.00    -0.039 C 
ATOM     14  C   UNL A   1      32.249  19.918  23.239  1.00  0.00     0.102 C 
ATOM     15  C   UNL A   1      34.055  19.543  24.810  1.00  0.00     0.047 C 
ATOM     16  C   UNL A   1      32.669  21.313  23.281  1.00  0.00     0.282 C 
ATOM     17  C   UNL A   1      34.278  20.868  24.989  1.00  0.00     0.202 C 
ATOM     18  N   UNL A   1      32.187  21.930  22.238  1.00  0.00    -0.210 N 
ATOM     19  N   UNL A   1      33.560  21.848  24.297  1.00  0.00    -0.217 N 
ATOM     20  C   UNL A   1      32.747  23.140  22.152  1.00  0.00     0.312 C 
ATOM     21  H   UNL A   1      31.517  21.564  21.615  1.00  0.00     0.315 HD
ATOM     22  O   UNL A   1      33.531  23.416  21.267  1.00  0.00    -0.247 OA
ATOM     23  C   UNL A   1      32.664  23.815  23.448  1.00  0.00     0.193 C 
ATOM     24  C   UNL A   1      35.371  23.316  23.469  1.00  0.00     0.076 C 
ENDBRANCH   9  11
ENDBRANCH   8   9
ENDBRANCH   7   8
ENDBRANCH   6   7
ENDBRANCH   5   6
ENDBRANCH   4   5
ENDBRANCH   3   4
ENDBRANCH   2   3
ENDBRANCH   1   2
BRANCH   1  25
ATOM     25  C   UNL A   1      30.882  29.696  24.281  1.00  0.00     0.188 C 
BRANCH  25  26
ATOM     26  O   UNL A   1      30.767  30.804  25.164  1.00  0.00    -0.376 OA
BRANCH  26  27
ATOM     27  C   UNL A   1      31.740  30.898  26.206  1.00  0.00     0.202 C 
BRANCH  27  28
ATOM     28  C   UNL A   1      31.921  32.273  26.876  1.00  0.00     0.261 C 
BRANCH  28  29
ATOM     29  O   UNL A   1      32.826  32.314  27.993  1.00  0.00    -0.460 OA
BRANCH  29  30
ATOM     30  C   UNL A   1      33.752  33.312  28.028  1.00  0.00     0.338 C 
ATOM     31  O   UNL A   1      33.567  34.484  28.033  1.00  0.00    -0.246 OA
BRANCH  30  32
ATOM     32  C   UNL A   1      35.053  32.657  28.349  1.00  0.00     0.060 A 
ATOM     33  C   UNL A   1      35.079  31.253  28.359  1.00  0.00     0.016 A 
ATOM     34  C   UNL A   1      36.236  33.390  28.490  1.00  0.00     0.016 A 
ATOM     35  C   UNL A   1      36.286  30.579  28.529  1.00  0.00     0.010 A 
ATOM     36  C   UNL A   1      37.437  32.717  28.725  1.00  0.00     0.010 A 
ATOM     37  C   UNL A   1      37.454  31.311  28.788  1.00  0.00    -0.014 A 
BRANCH  37  38
ATOM     38  C   UNL A   1      38.549  30.620  29.504  1.00  0.00     0.031 A 
ATOM     39  C   UNL A   1      38.730  30.993  30.951  1.00  0.00     0.074 A 
ATOM     40  C   UNL A   1      39.312  29.673  28.933  1.00  0.00     0.049 A 
ATOM     41  N   UNL A   1      39.584  30.542  31.831  1.00  0.00    -0.248 NA
ATOM     42  C   UNL A   1      37.806  32.013  31.481  1.00  0.00     0.031 C 
ATOM     43  C   UNL A   1      39.191  29.196  27.558  1.00  0.00     0.029 A 
ATOM     44  N   UNL A   1      40.347  28.941  29.457  1.00  0.00    -0.354 N 
ATOM     45  C   UNL A   1      39.289  31.214  33.009  1.00  0.00     0.074 A 
ATOM     46  C   UNL A   1      38.201  32.120  32.736  1.00  0.00     0.031 C 
ATOM     47  C   UNL A   1      40.131  28.256  27.342  1.00  0.00     0.029 A 
ATOM     48  C   UNL A   1      40.930  28.085  28.556  1.00  0.00     0.049 A 
ATOM     49  H   UNL A   1      40.643  29.021  30.392  1.00  0.00     0.167 HD
ATOM     50  C   UNL A   1      39.873  31.086  34.222  1.00  0.00     0.037 A 
ATOM     51  C   UNL A   1      41.998  27.277  28.703  1.00  0.00     0.037 A 
ATOM     52  C   UNL A   1      40.977  30.210  34.485  1.00  0.00     0.049 A 
ATOM     53  C   UNL A   1      42.696  27.220  30.041  1.00  0.00     0.074 A 
ATOM     54  C   UNL A   1      41.659  30.012  35.669  1.00  0.00     0.029 A 
ATOM     55  N   UNL A   1      41.568  29.393  33.532  1.00  0.00    -0.354 N 
ATOM     56  N   UNL A   1      42.400  27.840  31.159  1.00  0.00    -0.248 NA
ATOM     57  C   UNL A   1      43.876  26.348  30.138  1.00  0.00     0.031 C 
ATOM     58  C   UNL A   1      42.698  29.110  35.422  1.00  0.00     0.029 A 
ATOM     59  C   UNL A   1      42.626  28.705  34.098  1.00  0.00     0.049 A 
ATOM     60  H   UNL A   1      41.279  29.316  32.594  1.00  0.00     0.167 HD
ATOM     61  C   UNL A   1      43.332  27.413  32.095  1.00  0.00     0.074 A 
ATOM     62  C   UNL A   1      44.201  26.473  31.418  1.00  0.00     0.031 C 
ATOM     63  C   UNL A   1      43.462  27.763  33.400  1.00  0.00     0.037 A 
BRANCH  50  64
ATOM     64  C   UNL A   1      39.348  31.949  35.328  1.00  0.00     0.064 A 
ATOM     65  C   UNL A   1      39.699  33.303  35.435  1.00  0.00     0.173 A 
ATOM     66  C   UNL A   1      38.493  31.410  36.299  1.00  0.00     0.173 A 
ATOM     67  F   UNL A   1      40.541  33.854  34.548  1.00  0.00    -0.203 F 
ATOM     68  C   UNL A   1      39.226  34.082  36.487  1.00  0.00     0.198 A 
ATOM     69  C   UNL A   1      38.001  32.199  37.334  1.00  0.00     0.198 A 
ATOM     70  F   UNL A   1      38.140  30.117  36.248  1.00  0.00    -0.203 F 
ATOM     71  F   UNL A   1      39.612  35.361  36.598  1.00  0.00    -0.200 F 
ATOM     72  C   UNL A   1      38.372  33.532  37.431  1.00  0.00     0.200 A 
ATOM     73  F   UNL A   1      37.172  31.667  38.244  1.00  0.00    -0.200 F 
ATOM     74  F   UNL A   1      37.914  34.284  38.441  1.00  0.00    -0.200 F 
ENDBRANCH  50  64
BRANCH  51  75
ATOM     75  C   UNL A   1      42.493  26.469  27.555  1.00  0.00     0.064 A 
ATOM     76  C   UNL A   1      41.994  25.183  27.302  1.00  0.00     0.173 A 
ATOM     77  C   UNL A   1      43.500  26.954  26.708  1.00  0.00     0.173 A 
ATOM     78  F   UNL A   1      41.050  24.662  28.100  1.00  0.00    -0.203 F 
ATOM     79  C   UNL A   1      42.496  24.408  26.258  1.00  0.00     0.198 A 
ATOM     80  C   UNL A   1      43.981  26.188  25.647  1.00  0.00     0.198 A 
ATOM     81  F   UNL A   1      44.017  28.174  26.909  1.00  0.00    -0.203 F 
ATOM     82  F   UNL A   1      42.034  23.164  26.068  1.00  0.00    -0.200 F 
ATOM     83  C   UNL A   1      43.485  24.913  25.427  1.00  0.00     0.200 A 
ATOM     84  F   UNL A   1      44.932  26.684  24.843  1.00  0.00    -0.200 F 
ATOM     85  F   UNL A   1      43.966  24.167  24.424  1.00  0.00    -0.200 F 
ENDBRANCH  51  75
BRANCH  63  86
ATOM     86  C   UNL A   1      44.550  27.099  34.191  1.00  0.00     0.064 A 
ATOM     87  C   UNL A   1      45.796  27.712  34.390  1.00  0.00     0.173 A 
ATOM     88  C   UNL A   1      44.316  25.863  34.813  1.00  0.00     0.173 A 
ATOM     89  F   UNL A   1      46.070  28.888  33.806  1.00  0.00    -0.203 F 
ATOM     90  C   UNL A   1      46.775  27.100  35.166  1.00  0.00     0.198 A 
ATOM     91  C   UNL A   1      45.286  25.270  35.614  1.00  0.00     0.198 A 
ATOM     92  F   UNL A   1      43.135  25.244  34.664  1.00  0.00    -0.203 F 
ATOM     93  F   UNL A   1      47.973  27.683  35.311  1.00  0.00    -0.200 F 
ATOM     94  C   UNL A   1      46.518  25.885  35.784  1.00  0.00     0.200 A 
ATOM     95  F   UNL A   1      45.029  24.104  36.224  1.00  0.00    -0.200 F 
ATOM     96  F   UNL A   1      47.458  25.303  36.542  1.00  0.00    -0.200 F 
ENDBRANCH  63  86
ENDBRANCH  37  38
ENDBRANCH  30  32
ENDBRANCH  29  30
ENDBRANCH  28  29
ENDBRANCH  27  28
ENDBRANCH  26  27
ENDBRANCH  25  26
ENDBRANCH   1  25
TORSDOF 20
ENDMDL
MODEL 3
REMARK VINA RESULT:     -10.8      4.360     10.436
REMARK SMILES CC1=CC2=[NH+]C(=O)C[C@@](C)(C(=O)OCCOCCOCCOCCOC(=O)c3ccc(-c4c5nc(c(-c6c(F)c(F)c(F)c(F)c6F)c6ccc([nH]6)c(-c6c(F)c(F)c(F)c(F)c6F)c6nc(c(-c7c(F)c(F)c(F)c(F)c7F)c7ccc4[nH]7)C=C6)C=C5)cc3)N2C=C1
REMARK SMILES IDX 20 1 19 2 18 3 17 4 16 5 15 6 14 7 13 8 11 9 12 10 9 11 1 12
REMARK SMILES IDX 2 13 3 14 93 15 4 16 92 17 5 18 91 19 6 20 7 22 8 23 10 24
REMARK SMILES IDX 21 25 22 26 23 27 24 28 25 29 26 30 27 31 28 32 29 33 90 34
REMARK SMILES IDX 30 35 89 36 31 37 32 38 33 39 83 40 34 41 88 42 82 43 84 44
REMARK SMILES IDX 35 45 87 46 81 47 80 48 36 50 68 51 48 52 67 53 49 54 52 55
REMARK SMILES IDX 66 56 85 57 50 58 51 59 65 61 86 62 53 63 37 64 38 65 46 66
REMARK SMILES IDX 39 67 40 68 44 69 47 70 41 71 42 72 45 73 43 74 69 75 70 76
REMARK SMILES IDX 78 77 71 78 72 79 76 80 79 81 73 82 74 83 77 84 75 85 54 86
REMARK SMILES IDX 55 87 63 88 56 89 57 90 61 91 64 92 58 93 59 94 62 95 60 96
REMARK H PARENT 5 21 84 49 52 60
REMARK Flexibility Score: inf
ROOT
ATOM      1  C   UNL A   1      35.476  21.746  24.376  1.00  0.00     0.188 C 
ENDROOT
BRANCH   1   2
ATOM      2  O   UNL A   1      34.926  20.903  25.377  1.00  0.00    -0.377 OA
BRANCH   2   3
ATOM      3  C   UNL A   1      34.383  19.686  24.847  1.00  0.00     0.188 C 
BRANCH   3   4
ATOM      4  C   UNL A   1      32.807  19.859  24.672  1.00  0.00     0.188 C 
BRANCH   4   5
ATOM      5  O   UNL A   1      31.758  20.752  25.106  1.00  0.00    -0.376 OA
BRANCH   5   6
ATOM      6  C   UNL A   1      31.773  22.040  24.478  1.00  0.00     0.202 C 
BRANCH   6   7
ATOM      7  C   UNL A   1      31.196  23.185  25.392  1.00  0.00     0.261 C 
BRANCH   7   8
ATOM      8  O   UNL A   1      31.276  24.528  24.813  1.00  0.00    -0.460 OA
BRANCH   8   9
ATOM      9  C   UNL A   1      31.247  25.691  25.626  1.00  0.00     0.355 C 
ATOM     10  O   UNL A   1      31.389  25.668  26.837  1.00  0.00    -0.247 OA
BRANCH   9  11
ATOM     11  C   UNL A   1      31.304  26.907  24.671  1.00  0.00     0.216 C 
ATOM     12  C   UNL A   1      28.171  31.285  22.331  1.00  0.00     0.045 C 
ATOM     13  C   UNL A   1      28.852  30.135  22.998  1.00  0.00    -0.039 C 
ATOM     14  C   UNL A   1      29.876  30.440  23.793  1.00  0.00     0.102 C 
ATOM     15  C   UNL A   1      28.507  28.732  22.754  1.00  0.00     0.047 C 
ATOM     16  C   UNL A   1      30.695  29.325  24.255  1.00  0.00     0.282 C 
ATOM     17  C   UNL A   1      29.161  27.720  23.375  1.00  0.00     0.202 C 
ATOM     18  N   UNL A   1      31.867  29.780  24.602  1.00  0.00    -0.210 N 
ATOM     19  N   UNL A   1      30.252  27.942  24.221  1.00  0.00    -0.217 N 
ATOM     20  C   UNL A   1      32.688  28.746  24.812  1.00  0.00     0.312 C 
ATOM     21  H   UNL A   1      32.108  30.730  24.696  1.00  0.00     0.315 HD
ATOM     22  O   UNL A   1      33.613  28.507  24.063  1.00  0.00    -0.247 OA
ATOM     23  C   UNL A   1      32.040  27.773  25.693  1.00  0.00     0.193 C 
ATOM     24  C   UNL A   1      31.902  26.309  23.366  1.00  0.00     0.076 C 
ENDBRANCH   9  11
ENDBRANCH   8   9
ENDBRANCH   7   8
ENDBRANCH   6   7
ENDBRANCH   5   6
ENDBRANCH   4   5
ENDBRANCH   3   4
ENDBRANCH   2   3
ENDBRANCH   1   2
BRANCH   1  25
ATOM     25  C   UNL A   1      36.990  22.009  24.486  1.00  0.00     0.188 C 
BRANCH  25  26
ATOM     26  O   UNL A   1      37.794  20.843  24.611  1.00  0.00    -0.376 OA
BRANCH  26  27
ATOM     27  C   UNL A   1      38.619  20.755  25.775  1.00  0.00     0.202 C 
BRANCH  27  28
ATOM     28  C   UNL A   1      39.767  19.729  25.745  1.00  0.00     0.261 C 
BRANCH  28  29
ATOM     29  O   UNL A   1      41.086  20.266  25.537  1.00  0.00    -0.460 OA
BRANCH  29  30
ATOM     30  C   UNL A   1      41.926  20.329  26.606  1.00  0.00     0.338 C 
ATOM     31  O   UNL A   1      42.689  19.504  26.989  1.00  0.00    -0.246 OA
BRANCH  30  32
ATOM     32  C   UNL A   1      41.920  21.752  27.053  1.00  0.00     0.060 A 
ATOM     33  C   UNL A   1      41.451  22.709  26.140  1.00  0.00     0.016 A 
ATOM     34  C   UNL A   1      42.224  22.116  28.370  1.00  0.00     0.016 A 
ATOM     35  C   UNL A   1      41.303  24.036  26.535  1.00  0.00     0.010 A 
ATOM     36  C   UNL A   1      42.137  23.457  28.749  1.00  0.00     0.010 A 
ATOM     37  C   UNL A   1      41.718  24.425  27.816  1.00  0.00    -0.014 A 
BRANCH  37  38
ATOM     38  C   UNL A   1      42.084  25.845  28.016  1.00  0.00     0.031 A 
ATOM     39  C   UNL A   1      43.419  26.266  27.462  1.00  0.00     0.074 A 
ATOM     40  C   UNL A   1      41.266  26.734  28.603  1.00  0.00     0.049 A 
ATOM     41  N   UNL A   1      43.994  27.440  27.466  1.00  0.00    -0.248 NA
ATOM     42  C   UNL A   1      44.211  25.213  26.800  1.00  0.00     0.031 C 
ATOM     43  C   UNL A   1      39.934  26.450  29.128  1.00  0.00     0.029 A 
ATOM     44  N   UNL A   1      41.451  28.071  28.851  1.00  0.00    -0.354 N 
ATOM     45  C   UNL A   1      45.199  27.262  26.801  1.00  0.00     0.074 A 
ATOM     46  C   UNL A   1      45.293  25.872  26.429  1.00  0.00     0.031 C 
ATOM     47  C   UNL A   1      39.424  27.581  29.651  1.00  0.00     0.029 A 
ATOM     48  C   UNL A   1      40.404  28.658  29.517  1.00  0.00     0.049 A 
ATOM     49  H   UNL A   1      42.258  28.563  28.576  1.00  0.00     0.167 HD
ATOM     50  C   UNL A   1      46.150  28.181  26.519  1.00  0.00     0.037 A 
ATOM     51  C   UNL A   1      40.276  29.919  29.978  1.00  0.00     0.037 A 
ATOM     52  C   UNL A   1      46.071  29.555  26.919  1.00  0.00     0.049 A 
ATOM     53  C   UNL A   1      41.393  30.906  29.735  1.00  0.00     0.074 A 
ATOM     54  C   UNL A   1      46.984  30.570  26.704  1.00  0.00     0.029 A 
ATOM     55  N   UNL A   1      45.015  30.100  27.633  1.00  0.00    -0.354 N 
ATOM     56  N   UNL A   1      42.521  30.739  29.086  1.00  0.00    -0.248 NA
ATOM     57  C   UNL A   1      41.217  32.257  30.287  1.00  0.00     0.031 C 
ATOM     58  C   UNL A   1      46.501  31.722  27.332  1.00  0.00     0.029 A 
ATOM     59  C   UNL A   1      45.263  31.436  27.890  1.00  0.00     0.049 A 
ATOM     60  H   UNL A   1      44.209  29.610  27.916  1.00  0.00     0.167 HD
ATOM     61  C   UNL A   1      43.173  31.965  29.125  1.00  0.00     0.074 A 
ATOM     62  C   UNL A   1      42.310  32.871  29.854  1.00  0.00     0.031 C 
ATOM     63  C   UNL A   1      44.376  32.316  28.605  1.00  0.00     0.037 A 
BRANCH  50  64
ATOM     64  C   UNL A   1      47.364  27.704  25.783  1.00  0.00     0.064 A 
ATOM     65  C   UNL A   1      47.441  27.749  24.382  1.00  0.00     0.173 A 
ATOM     66  C   UNL A   1      48.460  27.185  26.487  1.00  0.00     0.173 A 
ATOM     67  F   UNL A   1      46.404  28.206  23.664  1.00  0.00    -0.203 F 
ATOM     68  C   UNL A   1      48.565  27.274  23.713  1.00  0.00     0.198 A 
ATOM     69  C   UNL A   1      49.592  26.735  25.816  1.00  0.00     0.198 A 
ATOM     70  F   UNL A   1      48.428  27.108  27.826  1.00  0.00    -0.203 F 
ATOM     71  F   UNL A   1      48.598  27.280  22.373  1.00  0.00    -0.200 F 
ATOM     72  C   UNL A   1      49.642  26.774  24.430  1.00  0.00     0.200 A 
ATOM     73  F   UNL A   1      50.634  26.256  26.510  1.00  0.00    -0.200 F 
ATOM     74  F   UNL A   1      50.725  26.320  23.785  1.00  0.00    -0.200 F 
ENDBRANCH  50  64
BRANCH  51  75
ATOM     75  C   UNL A   1      39.059  30.323  30.731  1.00  0.00     0.064 A 
ATOM     76  C   UNL A   1      37.971  30.929  30.086  1.00  0.00     0.173 A 
ATOM     77  C   UNL A   1      38.972  30.141  32.120  1.00  0.00     0.173 A 
ATOM     78  F   UNL A   1      38.015  31.150  28.764  1.00  0.00    -0.203 F 
ATOM     79  C   UNL A   1      36.853  31.353  30.802  1.00  0.00     0.198 A 
ATOM     80  C   UNL A   1      37.841  30.542  32.831  1.00  0.00     0.198 A 
ATOM     81  F   UNL A   1      39.986  29.574  32.788  1.00  0.00    -0.203 F 
ATOM     82  F   UNL A   1      35.848  31.972  30.167  1.00  0.00    -0.200 F 
ATOM     83  C   UNL A   1      36.786  31.154  32.173  1.00  0.00     0.200 A 
ATOM     84  F   UNL A   1      37.779  30.340  34.154  1.00  0.00    -0.200 F 
ATOM     85  F   UNL A   1      35.711  31.562  32.861  1.00  0.00    -0.200 F 
ENDBRANCH  51  75
BRANCH  63  86
ATOM     86  C   UNL A   1      44.812  33.743  28.766  1.00  0.00     0.064 A 
ATOM     87  C   UNL A   1      45.574  34.161  29.866  1.00  0.00     0.173 A 
ATOM     88  C   UNL A   1      44.518  34.686  27.769  1.00  0.00     0.173 A 
ATOM     89  F   UNL A   1      45.870  33.298  30.849  1.00  0.00    -0.203 F 
ATOM     90  C   UNL A   1      46.008  35.479  29.972  1.00  0.00     0.198 A 
ATOM     91  C   UNL A   1      44.980  35.995  27.864  1.00  0.00     0.198 A 
ATOM     92  F   UNL A   1      43.803  34.331  26.691  1.00  0.00    -0.203 F 
ATOM     93  F   UNL A   1      46.700  35.868  31.051  1.00  0.00    -0.200 F 
ATOM     94  C   UNL A   1      45.718  36.392  28.969  1.00  0.00     0.200 A 
ATOM     95  F   UNL A   1      44.714  36.871  26.885  1.00  0.00    -0.200 F 
ATOM     96  F   UNL A   1      46.148  37.658  29.067  1.00  0.00    -0.200 F 
ENDBRANCH  63  86
ENDBRANCH  37  38
ENDBRANCH  30  32
ENDBRANCH  29  30
ENDBRANCH  28  29
ENDBRANCH  27  28
ENDBRANCH  26  27
ENDBRANCH  25  26
ENDBRANCH   1  25
TORSDOF 20
ENDMDL
