MODEL 1
REMARK VINA RESULT:     -10.3      0.000      0.000
REMARK SMILES Cc1ccc(C#N)cc1Nc1cc(C)c(N)c(C(=O)OCCOCCOCCOCCOC(=O)c2ccc(-c3c4nc(c(-c5c(F)c(F)c(F)c(F)c5F)c5ccc([nH]5)c(-c5c(F)c(F)c(F)c(F)c5F)c5nc(c(-c6c(F)c(F)c(F)c(F)c6F)c6ccc3[nH]6)C=C5)C=C4)cc2)c1
REMARK SMILES IDX 25 1 24 2 23 3 22 4 21 5 20 6 18 7 19 8 17 9 11 10 12 11
REMARK SMILES IDX 98 12 13 13 14 14 15 15 10 16 9 18 1 19 2 20 3 21 4 22 8 23
REMARK SMILES IDX 5 24 6 25 7 26 16 27 26 30 27 31 28 32 29 33 30 34 31 35
REMARK SMILES IDX 32 36 33 37 34 38 35 39 36 40 97 41 37 42 96 43 38 44 39 45
REMARK SMILES IDX 40 46 90 47 41 48 95 49 89 50 91 51 42 52 94 53 88 54 87 55
REMARK SMILES IDX 43 57 75 58 55 59 74 60 56 61 59 62 73 63 92 64 57 65 58 66
REMARK SMILES IDX 72 68 93 69 60 70 44 71 45 72 53 73 46 74 47 75 51 76 54 77
REMARK SMILES IDX 48 78 49 79 52 80 50 81 76 82 77 83 85 84 78 85 79 86 83 87
REMARK SMILES IDX 86 88 80 89 81 90 84 91 82 92 61 93 62 94 70 95 63 96 64 97
REMARK SMILES IDX 68 98 71 99 65 100 66 101 69 102 67 103
REMARK H PARENT 10 17 16 28 16 29 91 56 59 67
REMARK Flexibility Score: inf
ROOT
ATOM      1  C   UNL A   1      39.069  20.426  25.445  1.00  0.00     0.188 C 
ENDROOT
BRANCH   1   2
ATOM      2  C   UNL A   1      37.916  21.414  25.748  1.00  0.00     0.188 C 
BRANCH   2   3
ATOM      3  O   UNL A   1      38.218  22.775  25.518  1.00  0.00    -0.376 OA
BRANCH   3   4
ATOM      4  C   UNL A   1      37.343  23.804  25.928  1.00  0.00     0.202 C 
BRANCH   4   5
ATOM      5  C   UNL A   1      35.819  23.649  25.811  1.00  0.00     0.261 C 
BRANCH   5   6
ATOM      6  O   UNL A   1      35.118  23.356  27.020  1.00  0.00    -0.460 OA
BRANCH   6   7
ATOM      7  C   UNL A   1      34.181  22.380  26.954  1.00  0.00     0.340 C 
ATOM      8  O   UNL A   1      34.113  21.399  27.677  1.00  0.00    -0.246 OA
BRANCH   7   9
ATOM      9  C   UNL A   1      33.126  22.804  25.994  1.00  0.00     0.085 A 
ATOM     10  C   UNL A   1      31.327  24.351  25.475  1.00  0.00     0.040 A 
ATOM     11  C   UNL A   1      31.179  23.720  24.238  1.00  0.00     0.031 A 
ATOM     12  C   UNL A   1      32.265  23.841  26.370  1.00  0.00     0.044 A 
ATOM     13  C   UNL A   1      31.980  22.618  23.868  1.00  0.00    -0.025 A 
ATOM     14  C   UNL A   1      31.791  22.080  22.475  1.00  0.00     0.047 C 
ATOM     15  C   UNL A   1      32.992  22.166  24.739  1.00  0.00     0.049 A 
BRANCH  10  16
ATOM     16  N   UNL A   1      30.698  25.590  25.705  1.00  0.00    -0.355 N 
ATOM     17  H   UNL A   1      29.954  25.588  26.349  1.00  0.00     0.167 HD
BRANCH  16  18
ATOM     18  C   UNL A   1      31.016  26.836  25.117  1.00  0.00     0.043 A 
ATOM     19  C   UNL A   1      33.138  27.031  26.512  1.00  0.00     0.046 C 
ATOM     20  C   UNL A   1      32.193  27.531  25.453  1.00  0.00    -0.027 A 
ATOM     21  C   UNL A   1      32.504  28.731  24.783  1.00  0.00     0.007 A 
ATOM     22  C   UNL A   1      31.665  29.250  23.793  1.00  0.00     0.020 A 
ATOM     23  C   UNL A   1      30.175  27.400  24.138  1.00  0.00     0.045 A 
ATOM     24  C   UNL A   1      30.492  28.581  23.471  1.00  0.00     0.054 A 
BRANCH  24  25
ATOM     25  C   UNL A   1      29.597  29.075  22.461  1.00  0.00     0.099 C 
ATOM     26  N   UNL A   1      28.860  29.489  21.673  1.00  0.00    -0.192 NA
ENDBRANCH  24  25
ENDBRANCH  16  18
ENDBRANCH  10  16
BRANCH  15  27
ATOM     27  N   UNL A   1      33.723  21.014  24.449  1.00  0.00    -0.398 N 
ATOM     28  H   UNL A   1      33.386  20.371  23.783  1.00  0.00     0.156 HD
ATOM     29  H   UNL A   1      34.576  20.843  24.909  1.00  0.00     0.156 HD
ENDBRANCH  15  27
ENDBRANCH   7   9
ENDBRANCH   6   7
ENDBRANCH   5   6
ENDBRANCH   4   5
ENDBRANCH   3   4
ENDBRANCH   2   3
ENDBRANCH   1   2
BRANCH   1  30
ATOM     30  O   UNL A   1      40.053  20.117  26.422  1.00  0.00    -0.377 OA
BRANCH  30  31
ATOM     31  C   UNL A   1      41.104  19.212  26.118  1.00  0.00     0.188 C 
BRANCH  31  32
ATOM     32  C   UNL A   1      42.588  19.641  26.219  1.00  0.00     0.188 C 
BRANCH  32  33
ATOM     33  O   UNL A   1      43.019  20.566  25.246  1.00  0.00    -0.376 OA
BRANCH  33  34
ATOM     34  C   UNL A   1      42.786  21.951  25.384  1.00  0.00     0.202 C 
BRANCH  34  35
ATOM     35  C   UNL A   1      43.676  23.019  24.732  1.00  0.00     0.261 C 
BRANCH  35  36
ATOM     36  O   UNL A   1      43.268  24.384  24.834  1.00  0.00    -0.460 OA
BRANCH  36  37
ATOM     37  C   UNL A   1      44.187  25.282  25.257  1.00  0.00     0.338 C 
ATOM     38  O   UNL A   1      45.288  25.493  24.788  1.00  0.00    -0.246 OA
BRANCH  37  39
ATOM     39  C   UNL A   1      43.515  26.114  26.282  1.00  0.00     0.060 A 
ATOM     40  C   UNL A   1      42.676  25.510  27.217  1.00  0.00     0.016 A 
ATOM     41  C   UNL A   1      43.664  27.509  26.256  1.00  0.00     0.016 A 
ATOM     42  C   UNL A   1      42.005  26.302  28.148  1.00  0.00     0.010 A 
ATOM     43  C   UNL A   1      42.978  28.303  27.179  1.00  0.00     0.010 A 
ATOM     44  C   UNL A   1      42.168  27.701  28.151  1.00  0.00    -0.014 A 
BRANCH  44  45
ATOM     45  C   UNL A   1      41.655  28.485  29.301  1.00  0.00     0.031 A 
ATOM     46  C   UNL A   1      40.376  29.257  29.251  1.00  0.00     0.074 A 
ATOM     47  C   UNL A   1      42.395  28.479  30.426  1.00  0.00     0.049 A 
ATOM     48  N   UNL A   1      39.758  29.878  30.225  1.00  0.00    -0.248 NA
ATOM     49  C   UNL A   1      39.712  29.362  27.947  1.00  0.00     0.031 C 
ATOM     50  C   UNL A   1      43.687  27.807  30.565  1.00  0.00     0.029 A 
ATOM     51  N   UNL A   1      42.169  29.034  31.658  1.00  0.00    -0.354 N 
ATOM     52  C   UNL A   1      38.620  30.435  29.659  1.00  0.00     0.074 A 
ATOM     53  C   UNL A   1      38.663  30.121  28.245  1.00  0.00     0.031 C 
ATOM     54  C   UNL A   1      44.117  27.945  31.825  1.00  0.00     0.029 A 
ATOM     55  C   UNL A   1      43.154  28.750  32.571  1.00  0.00     0.049 A 
ATOM     56  H   UNL A   1      41.379  29.583  31.868  1.00  0.00     0.167 HD
ATOM     57  C   UNL A   1      37.631  31.129  30.276  1.00  0.00     0.037 A 
ATOM     58  C   UNL A   1      43.272  29.090  33.867  1.00  0.00     0.037 A 
ATOM     59  C   UNL A   1      37.617  31.448  31.684  1.00  0.00     0.049 A 
ATOM     60  C   UNL A   1      42.176  29.878  34.522  1.00  0.00     0.074 A 
ATOM     61  C   UNL A   1      36.627  32.088  32.411  1.00  0.00     0.029 A 
ATOM     62  N   UNL A   1      38.648  31.178  32.575  1.00  0.00    -0.354 N 
ATOM     63  N   UNL A   1      41.049  30.306  34.008  1.00  0.00    -0.248 NA
ATOM     64  C   UNL A   1      42.360  30.225  35.938  1.00  0.00     0.031 C 
ATOM     65  C   UNL A   1      37.092  32.280  33.715  1.00  0.00     0.029 A 
ATOM     66  C   UNL A   1      38.338  31.686  33.830  1.00  0.00     0.049 A 
ATOM     67  H   UNL A   1      39.477  30.697  32.350  1.00  0.00     0.167 HD
ATOM     68  C   UNL A   1      40.383  30.961  35.034  1.00  0.00     0.074 A 
ATOM     69  C   UNL A   1      41.224  30.855  36.209  1.00  0.00     0.031 C 
ATOM     70  C   UNL A   1      39.184  31.592  34.997  1.00  0.00     0.037 A 
BRANCH  57  71
ATOM     71  C   UNL A   1      36.479  31.608  29.434  1.00  0.00     0.064 A 
ATOM     72  C   UNL A   1      35.504  30.724  28.945  1.00  0.00     0.173 A 
ATOM     73  C   UNL A   1      36.308  32.976  29.170  1.00  0.00     0.173 A 
ATOM     74  F   UNL A   1      35.612  29.406  29.172  1.00  0.00    -0.203 F 
ATOM     75  C   UNL A   1      34.425  31.187  28.196  1.00  0.00     0.198 A 
ATOM     76  C   UNL A   1      35.208  33.440  28.452  1.00  0.00     0.198 A 
ATOM     77  F   UNL A   1      37.197  33.871  29.627  1.00  0.00    -0.203 F 
ATOM     78  F   UNL A   1      33.535  30.316  27.700  1.00  0.00    -0.200 F 
ATOM     79  C   UNL A   1      34.273  32.544  27.956  1.00  0.00     0.200 A 
ATOM     80  F   UNL A   1      35.050  34.754  28.244  1.00  0.00    -0.200 F 
ATOM     81  F   UNL A   1      33.226  32.989  27.247  1.00  0.00    -0.200 F 
ENDBRANCH  57  71
BRANCH  58  82
ATOM     82  C   UNL A   1      44.471  28.636  34.616  1.00  0.00     0.064 A 
ATOM     83  C   UNL A   1      45.610  29.444  34.716  1.00  0.00     0.173 A 
ATOM     84  C   UNL A   1      44.460  27.427  35.329  1.00  0.00     0.173 A 
ATOM     85  F   UNL A   1      45.672  30.601  34.041  1.00  0.00    -0.203 F 
ATOM     86  C   UNL A   1      46.691  29.065  35.509  1.00  0.00     0.198 A 
ATOM     87  C   UNL A   1      45.527  27.065  36.147  1.00  0.00     0.198 A 
ATOM     88  F   UNL A   1      43.387  26.625  35.274  1.00  0.00    -0.203 F 
ATOM     89  F   UNL A   1      47.775  29.849  35.578  1.00  0.00    -0.200 F 
ATOM     90  C   UNL A   1      46.642  27.884  36.236  1.00  0.00     0.200 A 
ATOM     91  F   UNL A   1      45.464  25.937  36.867  1.00  0.00    -0.200 F 
ATOM     92  F   UNL A   1      47.667  27.538  37.026  1.00  0.00    -0.200 F 
ENDBRANCH  58  82
BRANCH  70  93
ATOM     93  C   UNL A   1      38.690  32.232  36.266  1.00  0.00     0.064 A 
ATOM     94  C   UNL A   1      37.969  31.505  37.224  1.00  0.00     0.173 A 
ATOM     95  C   UNL A   1      39.015  33.564  36.567  1.00  0.00     0.173 A 
ATOM     96  F   UNL A   1      37.616  30.233  36.983  1.00  0.00    -0.203 F 
ATOM     97  C   UNL A   1      37.585  32.088  38.430  1.00  0.00     0.198 A 
ATOM     98  C   UNL A   1      38.663  34.133  37.789  1.00  0.00     0.198 A 
ATOM     99  F   UNL A   1      39.708  34.307  35.690  1.00  0.00    -0.203 F 
ATOM    100  F   UNL A   1      36.868  31.383  39.316  1.00  0.00    -0.200 F 
ATOM    101  C   UNL A   1      37.945  33.396  38.717  1.00  0.00     0.200 A 
ATOM    102  F   UNL A   1      39.030  35.391  38.071  1.00  0.00    -0.200 F 
ATOM    103  F   UNL A   1      37.600  33.947  39.889  1.00  0.00    -0.200 F 
ENDBRANCH  70  93
ENDBRANCH  44  45
ENDBRANCH  37  39
ENDBRANCH  36  37
ENDBRANCH  35  36
ENDBRANCH  34  35
ENDBRANCH  33  34
ENDBRANCH  32  33
ENDBRANCH  31  32
ENDBRANCH  30  31
ENDBRANCH   1  30
TORSDOF 24
ENDMDL
MODEL 2
REMARK VINA RESULT:      -9.8      5.562     12.732
REMARK SMILES Cc1ccc(C#N)cc1Nc1cc(C)c(N)c(C(=O)OCCOCCOCCOCCOC(=O)c2ccc(-c3c4nc(c(-c5c(F)c(F)c(F)c(F)c5F)c5ccc([nH]5)c(-c5c(F)c(F)c(F)c(F)c5F)c5nc(c(-c6c(F)c(F)c(F)c(F)c6F)c6ccc3[nH]6)C=C5)C=C4)cc2)c1
REMARK SMILES IDX 25 1 24 2 23 3 22 4 21 5 20 6 18 7 19 8 17 9 11 10 12 11
REMARK SMILES IDX 98 12 13 13 14 14 15 15 10 16 9 18 1 19 2 20 3 21 4 22 8 23
REMARK SMILES IDX 5 24 6 25 7 26 16 27 26 30 27 31 28 32 29 33 30 34 31 35
REMARK SMILES IDX 32 36 33 37 34 38 35 39 36 40 97 41 37 42 96 43 38 44 39 45
REMARK SMILES IDX 40 46 90 47 41 48 95 49 89 50 91 51 42 52 94 53 88 54 87 55
REMARK SMILES IDX 43 57 75 58 55 59 74 60 56 61 59 62 73 63 92 64 57 65 58 66
REMARK SMILES IDX 72 68 93 69 60 70 44 71 45 72 53 73 46 74 47 75 51 76 54 77
REMARK SMILES IDX 48 78 49 79 52 80 50 81 76 82 77 83 85 84 78 85 79 86 83 87
REMARK SMILES IDX 86 88 80 89 81 90 84 91 82 92 61 93 62 94 70 95 63 96 64 97
REMARK SMILES IDX 68 98 71 99 65 100 66 101 69 102 67 103
REMARK H PARENT 10 17 16 28 16 29 91 56 59 67
REMARK Flexibility Score: inf
ROOT
ATOM      1  C   UNL A   1      34.768  32.612  31.239  1.00  0.00     0.188 C 
ENDROOT
BRANCH   1   2
ATOM      2  C   UNL A   1      36.231  32.759  30.757  1.00  0.00     0.188 C 
BRANCH   2   3
ATOM      3  O   UNL A   1      37.209  32.283  31.658  1.00  0.00    -0.376 OA
BRANCH   3   4
ATOM      4  C   UNL A   1      36.855  31.532  32.801  1.00  0.00     0.202 C 
BRANCH   4   5
ATOM      5  C   UNL A   1      37.665  31.630  34.102  1.00  0.00     0.261 C 
BRANCH   5   6
ATOM      6  O   UNL A   1      37.049  32.336  35.180  1.00  0.00    -0.460 OA
BRANCH   6   7
ATOM      7  C   UNL A   1      37.584  33.538  35.500  1.00  0.00     0.340 C 
ATOM      8  O   UNL A   1      37.531  34.552  34.824  1.00  0.00    -0.246 OA
BRANCH   7   9
ATOM      9  C   UNL A   1      38.069  33.477  36.906  1.00  0.00     0.085 A 
ATOM     10  C   UNL A   1      37.925  32.407  39.081  1.00  0.00     0.040 A 
ATOM     11  C   UNL A   1      38.959  33.235  39.525  1.00  0.00     0.031 A 
ATOM     12  C   UNL A   1      37.448  32.583  37.784  1.00  0.00     0.044 A 
ATOM     13  C   UNL A   1      39.546  34.203  38.684  1.00  0.00    -0.025 A 
ATOM     14  C   UNL A   1      40.712  34.972  39.245  1.00  0.00     0.047 C 
ATOM     15  C   UNL A   1      39.124  34.312  37.343  1.00  0.00     0.049 A 
BRANCH  10  16
ATOM     16  N   UNL A   1      37.543  31.293  39.853  1.00  0.00    -0.355 N 
ATOM     17  H   UNL A   1      37.520  30.427  39.388  1.00  0.00     0.167 HD
BRANCH  16  18
ATOM     18  C   UNL A   1      37.187  31.280  41.222  1.00  0.00     0.043 A 
ATOM     19  C   UNL A   1      34.948  32.387  40.722  1.00  0.00     0.046 C 
ATOM     20  C   UNL A   1      35.940  31.760  41.664  1.00  0.00    -0.027 A 
ATOM     21  C   UNL A   1      35.601  31.654  43.029  1.00  0.00     0.007 A 
ATOM     22  C   UNL A   1      36.480  31.085  43.954  1.00  0.00     0.020 A 
ATOM     23  C   UNL A   1      38.064  30.741  42.184  1.00  0.00     0.045 A 
ATOM     24  C   UNL A   1      37.720  30.629  43.529  1.00  0.00     0.054 A 
BRANCH  24  25
ATOM     25  C   UNL A   1      38.658  30.037  44.443  1.00  0.00     0.099 C 
ATOM     26  N   UNL A   1      39.404  29.586  45.201  1.00  0.00    -0.192 NA
ENDBRANCH  24  25
ENDBRANCH  16  18
ENDBRANCH  10  16
BRANCH  15  27
ATOM     27  N   UNL A   1      39.608  35.331  36.522  1.00  0.00    -0.398 N 
ATOM     28  H   UNL A   1      39.193  36.223  36.547  1.00  0.00     0.156 HD
ATOM     29  H   UNL A   1      40.365  35.158  35.917  1.00  0.00     0.156 HD
ENDBRANCH  15  27
ENDBRANCH   7   9
ENDBRANCH   6   7
ENDBRANCH   5   6
ENDBRANCH   4   5
ENDBRANCH   3   4
ENDBRANCH   2   3
ENDBRANCH   1   2
BRANCH   1  30
ATOM     30  O   UNL A   1      33.924  33.746  31.394  1.00  0.00    -0.377 OA
BRANCH  30  31
ATOM     31  C   UNL A   1      34.081  34.876  30.550  1.00  0.00     0.188 C 
BRANCH  31  32
ATOM     32  C   UNL A   1      32.934  35.354  29.626  1.00  0.00     0.188 C 
BRANCH  32  33
ATOM     33  O   UNL A   1      32.652  34.518  28.527  1.00  0.00    -0.376 OA
BRANCH  33  34
ATOM     34  C   UNL A   1      33.648  33.721  27.925  1.00  0.00     0.202 C 
BRANCH  34  35
ATOM     35  C   UNL A   1      33.568  32.189  27.858  1.00  0.00     0.261 C 
BRANCH  35  36
ATOM     36  O   UNL A   1      34.749  31.470  27.501  1.00  0.00    -0.460 OA
BRANCH  36  37
ATOM     37  C   UNL A   1      34.782  30.144  27.770  1.00  0.00     0.338 C 
ATOM     38  O   UNL A   1      33.941  29.312  27.493  1.00  0.00    -0.246 OA
BRANCH  37  39
ATOM     39  C   UNL A   1      36.139  29.857  28.286  1.00  0.00     0.060 A 
ATOM     40  C   UNL A   1      36.291  29.336  29.571  1.00  0.00     0.016 A 
ATOM     41  C   UNL A   1      37.264  30.182  27.513  1.00  0.00     0.016 A 
ATOM     42  C   UNL A   1      37.573  29.114  30.072  1.00  0.00     0.010 A 
ATOM     43  C   UNL A   1      38.548  29.975  28.024  1.00  0.00     0.010 A 
ATOM     44  C   UNL A   1      38.710  29.411  29.296  1.00  0.00    -0.014 A 
BRANCH  44  45
ATOM     45  C   UNL A   1      40.037  28.928  29.747  1.00  0.00     0.031 A 
ATOM     46  C   UNL A   1      40.680  27.693  29.203  1.00  0.00     0.074 A 
ATOM     47  C   UNL A   1      40.668  29.656  30.688  1.00  0.00     0.049 A 
ATOM     48  N   UNL A   1      41.888  27.235  29.423  1.00  0.00    -0.248 NA
ATOM     49  C   UNL A   1      39.868  26.855  28.313  1.00  0.00     0.031 C 
ATOM     50  C   UNL A   1      40.108  30.846  31.328  1.00  0.00     0.029 A 
ATOM     51  N   UNL A   1      41.909  29.520  31.254  1.00  0.00    -0.354 N 
ATOM     52  C   UNL A   1      41.991  26.063  28.686  1.00  0.00     0.074 A 
ATOM     53  C   UNL A   1      40.703  25.856  28.054  1.00  0.00     0.031 C 
ATOM     54  C   UNL A   1      41.018  31.361  32.164  1.00  0.00     0.029 A 
ATOM     55  C   UNL A   1      42.209  30.516  32.149  1.00  0.00     0.049 A 
ATOM     56  H   UNL A   1      42.523  28.781  31.041  1.00  0.00     0.167 HD
ATOM     57  C   UNL A   1      43.070  25.254  28.545  1.00  0.00     0.037 A 
ATOM     58  C   UNL A   1      43.320  30.737  32.876  1.00  0.00     0.037 A 
ATOM     59  C   UNL A   1      44.339  25.469  29.199  1.00  0.00     0.049 A 
ATOM     60  C   UNL A   1      44.493  29.814  32.720  1.00  0.00     0.074 A 
ATOM     61  C   UNL A   1      45.510  24.740  29.065  1.00  0.00     0.029 A 
ATOM     62  N   UNL A   1      44.600  26.467  30.128  1.00  0.00    -0.354 N 
ATOM     63  N   UNL A   1      44.623  28.772  31.936  1.00  0.00    -0.248 NA
ATOM     64  C   UNL A   1      45.677  30.099  33.541  1.00  0.00     0.031 C 
ATOM     65  C   UNL A   1      46.448  25.243  29.971  1.00  0.00     0.029 A 
ATOM     66  C   UNL A   1      45.895  26.340  30.613  1.00  0.00     0.049 A 
ATOM     67  H   UNL A   1      43.961  27.163  30.404  1.00  0.00     0.167 HD
ATOM     68  C   UNL A   1      45.902  28.282  32.158  1.00  0.00     0.074 A 
ATOM     69  C   UNL A   1      46.518  29.156  33.135  1.00  0.00     0.031 C 
ATOM     70  C   UNL A   1      46.504  27.203  31.598  1.00  0.00     0.037 A 
BRANCH  57  71
ATOM     71  C   UNL A   1      42.931  24.046  27.659  1.00  0.00     0.064 A 
ATOM     72  C   UNL A   1      43.237  24.095  26.289  1.00  0.00     0.173 A 
ATOM     73  C   UNL A   1      42.552  22.805  28.196  1.00  0.00     0.173 A 
ATOM     74  F   UNL A   1      43.610  25.253  25.721  1.00  0.00    -0.203 F 
ATOM     75  C   UNL A   1      43.136  22.960  25.488  1.00  0.00     0.198 A 
ATOM     76  C   UNL A   1      42.488  21.664  27.400  1.00  0.00     0.198 A 
ATOM     77  F   UNL A   1      42.265  22.692  29.501  1.00  0.00    -0.203 F 
ATOM     78  F   UNL A   1      43.387  23.046  24.175  1.00  0.00    -0.200 F 
ATOM     79  C   UNL A   1      42.769  21.745  26.045  1.00  0.00     0.200 A 
ATOM     80  F   UNL A   1      42.158  20.485  27.945  1.00  0.00    -0.200 F 
ATOM     81  F   UNL A   1      42.686  20.650  25.275  1.00  0.00    -0.200 F 
ENDBRANCH  57  71
BRANCH  58  82
ATOM     82  C   UNL A   1      43.359  31.914  33.779  1.00  0.00     0.064 A 
ATOM     83  C   UNL A   1      43.825  33.155  33.329  1.00  0.00     0.173 A 
ATOM     84  C   UNL A   1      42.837  31.842  35.080  1.00  0.00     0.173 A 
ATOM     85  F   UNL A   1      44.346  33.269  32.099  1.00  0.00    -0.203 F 
ATOM     86  C   UNL A   1      43.758  34.284  34.143  1.00  0.00     0.198 A 
ATOM     87  C   UNL A   1      42.741  32.977  35.880  1.00  0.00     0.198 A 
ATOM     88  F   UNL A   1      42.368  30.678  35.552  1.00  0.00    -0.203 F 
ATOM     89  F   UNL A   1      44.222  35.458  33.694  1.00  0.00    -0.200 F 
ATOM     90  C   UNL A   1      43.202  34.198  35.411  1.00  0.00     0.200 A 
ATOM     91  F   UNL A   1      42.180  32.893  37.094  1.00  0.00    -0.200 F 
ATOM     92  F   UNL A   1      43.106  35.291  36.179  1.00  0.00    -0.200 F 
ENDBRANCH  58  82
BRANCH  70  93
ATOM     93  C   UNL A   1      47.912  26.887  32.024  1.00  0.00     0.064 A 
ATOM     94  C   UNL A   1      49.018  27.513  31.429  1.00  0.00     0.173 A 
ATOM     95  C   UNL A   1      48.155  26.016  33.097  1.00  0.00     0.173 A 
ATOM     96  F   UNL A   1      48.846  28.344  30.390  1.00  0.00    -0.203 F 
ATOM     97  C   UNL A   1      50.312  27.271  31.886  1.00  0.00     0.198 A 
ATOM     98  C   UNL A   1      49.446  25.805  33.575  1.00  0.00     0.198 A 
ATOM     99  F   UNL A   1      47.135  25.393  33.707  1.00  0.00    -0.203 F 
ATOM    100  F   UNL A   1      51.355  27.855  31.280  1.00  0.00    -0.200 F 
ATOM    101  C   UNL A   1      50.523  26.429  32.967  1.00  0.00     0.200 A 
ATOM    102  F   UNL A   1      49.645  25.006  34.633  1.00  0.00    -0.200 F 
ATOM    103  F   UNL A   1      51.766  26.219  33.422  1.00  0.00    -0.200 F 
ENDBRANCH  70  93
ENDBRANCH  44  45
ENDBRANCH  37  39
ENDBRANCH  36  37
ENDBRANCH  35  36
ENDBRANCH  34  35
ENDBRANCH  33  34
ENDBRANCH  32  33
ENDBRANCH  31  32
ENDBRANCH  30  31
ENDBRANCH   1  30
TORSDOF 24
ENDMDL
MODEL 3
REMARK VINA RESULT:      -9.6      1.538      2.199
REMARK SMILES Cc1ccc(C#N)cc1Nc1cc(C)c(N)c(C(=O)OCCOCCOCCOCCOC(=O)c2ccc(-c3c4nc(c(-c5c(F)c(F)c(F)c(F)c5F)c5ccc([nH]5)c(-c5c(F)c(F)c(F)c(F)c5F)c5nc(c(-c6c(F)c(F)c(F)c(F)c6F)c6ccc3[nH]6)C=C5)C=C4)cc2)c1
REMARK SMILES IDX 25 1 24 2 23 3 22 4 21 5 20 6 18 7 19 8 17 9 11 10 12 11
REMARK SMILES IDX 98 12 13 13 14 14 15 15 10 16 9 18 1 19 2 20 3 21 4 22 8 23
REMARK SMILES IDX 5 24 6 25 7 26 16 27 26 30 27 31 28 32 29 33 30 34 31 35
REMARK SMILES IDX 32 36 33 37 34 38 35 39 36 40 97 41 37 42 96 43 38 44 39 45
REMARK SMILES IDX 40 46 90 47 41 48 95 49 89 50 91 51 42 52 94 53 88 54 87 55
REMARK SMILES IDX 43 57 75 58 55 59 74 60 56 61 59 62 73 63 92 64 57 65 58 66
REMARK SMILES IDX 72 68 93 69 60 70 44 71 45 72 53 73 46 74 47 75 51 76 54 77
REMARK SMILES IDX 48 78 49 79 52 80 50 81 76 82 77 83 85 84 78 85 79 86 83 87
REMARK SMILES IDX 86 88 80 89 81 90 84 91 82 92 61 93 62 94 70 95 63 96 64 97
REMARK SMILES IDX 68 98 71 99 65 100 66 101 69 102 67 103
REMARK H PARENT 10 17 16 28 16 29 91 56 59 67
REMARK Flexibility Score: inf
ROOT
ATOM      1  C   UNL A   1      39.082  20.138  25.416  1.00  0.00     0.188 C 
ENDROOT
BRANCH   1   2
ATOM      2  C   UNL A   1      37.878  21.110  25.458  1.00  0.00     0.188 C 
BRANCH   2   3
ATOM      3  O   UNL A   1      38.217  22.481  25.495  1.00  0.00    -0.376 OA
BRANCH   3   4
ATOM      4  C   UNL A   1      37.225  23.486  25.478  1.00  0.00     0.202 C 
BRANCH   4   5
ATOM      5  C   UNL A   1      35.734  23.134  25.377  1.00  0.00     0.261 C 
BRANCH   5   6
ATOM      6  O   UNL A   1      34.981  23.209  26.588  1.00  0.00    -0.460 OA
BRANCH   6   7
ATOM      7  C   UNL A   1      33.986  22.303  26.739  1.00  0.00     0.340 C 
ATOM      8  O   UNL A   1      33.851  21.533  27.676  1.00  0.00    -0.246 OA
BRANCH   7   9
ATOM      9  C   UNL A   1      32.968  22.542  25.680  1.00  0.00     0.085 A 
ATOM     10  C   UNL A   1      31.094  23.877  24.899  1.00  0.00     0.040 A 
ATOM     11  C   UNL A   1      31.078  23.116  23.728  1.00  0.00     0.031 A 
ATOM     12  C   UNL A   1      32.008  23.537  25.896  1.00  0.00     0.044 A 
ATOM     13  C   UNL A   1      31.982  22.053  23.522  1.00  0.00    -0.025 A 
ATOM     14  C   UNL A   1      31.928  21.366  22.183  1.00  0.00     0.047 C 
ATOM     15  C   UNL A   1      32.966  21.774  24.492  1.00  0.00     0.049 A 
BRANCH  10  16
ATOM     16  N   UNL A   1      30.360  25.076  24.963  1.00  0.00    -0.355 N 
ATOM     17  H   UNL A   1      29.666  25.126  25.659  1.00  0.00     0.167 HD
BRANCH  16  18
ATOM     18  C   UNL A   1      30.507  26.217  24.140  1.00  0.00     0.043 A 
ATOM     19  C   UNL A   1      27.981  26.488  23.950  1.00  0.00     0.046 C 
ATOM     20  C   UNL A   1      29.390  26.936  23.671  1.00  0.00    -0.027 A 
ATOM     21  C   UNL A   1      29.589  28.111  22.918  1.00  0.00     0.007 A 
ATOM     22  C   UNL A   1      30.873  28.576  22.623  1.00  0.00     0.020 A 
ATOM     23  C   UNL A   1      31.787  26.694  23.799  1.00  0.00     0.045 A 
ATOM     24  C   UNL A   1      31.979  27.862  23.064  1.00  0.00     0.054 A 
BRANCH  24  25
ATOM     25  C   UNL A   1      33.318  28.300  22.785  1.00  0.00     0.099 C 
ATOM     26  N   UNL A   1      34.398  28.628  22.536  1.00  0.00    -0.192 NA
ENDBRANCH  24  25
ENDBRANCH  16  18
ENDBRANCH  10  16
BRANCH  15  27
ATOM     27  N   UNL A   1      33.800  20.663  24.367  1.00  0.00    -0.398 N 
ATOM     28  H   UNL A   1      34.755  20.784  24.160  1.00  0.00     0.156 HD
ATOM     29  H   UNL A   1      33.434  19.757  24.485  1.00  0.00     0.156 HD
ENDBRANCH  15  27
ENDBRANCH   7   9
ENDBRANCH   6   7
ENDBRANCH   5   6
ENDBRANCH   4   5
ENDBRANCH   3   4
ENDBRANCH   2   3
ENDBRANCH   1   2
BRANCH   1  30
ATOM     30  O   UNL A   1      40.201  20.310  26.276  1.00  0.00    -0.377 OA
BRANCH  30  31
ATOM     31  C   UNL A   1      41.313  19.432  26.188  1.00  0.00     0.188 C 
BRANCH  31  32
ATOM     32  C   UNL A   1      42.757  19.976  26.069  1.00  0.00     0.188 C 
BRANCH  32  33
ATOM     33  O   UNL A   1      42.977  20.891  25.019  1.00  0.00    -0.376 OA
BRANCH  33  34
ATOM     34  C   UNL A   1      43.280  22.246  25.267  1.00  0.00     0.202 C 
BRANCH  34  35
ATOM     35  C   UNL A   1      44.564  22.922  24.766  1.00  0.00     0.261 C 
BRANCH  35  36
ATOM     36  O   UNL A   1      44.525  24.325  24.505  1.00  0.00    -0.460 OA
BRANCH  36  37
ATOM     37  C   UNL A   1      45.499  25.092  25.049  1.00  0.00     0.338 C 
ATOM     38  O   UNL A   1      46.668  25.146  24.722  1.00  0.00    -0.246 OA
BRANCH  37  39
ATOM     39  C   UNL A   1      44.826  26.013  25.992  1.00  0.00     0.060 A 
ATOM     40  C   UNL A   1      43.994  25.496  26.984  1.00  0.00     0.016 A 
ATOM     41  C   UNL A   1      44.966  27.401  25.833  1.00  0.00     0.016 A 
ATOM     42  C   UNL A   1      43.322  26.369  27.838  1.00  0.00     0.010 A 
ATOM     43  C   UNL A   1      44.278  28.274  26.679  1.00  0.00     0.010 A 
ATOM     44  C   UNL A   1      43.476  27.763  27.707  1.00  0.00    -0.014 A 
BRANCH  44  45
ATOM     45  C   UNL A   1      42.963  28.650  28.779  1.00  0.00     0.031 A 
ATOM     46  C   UNL A   1      41.577  29.210  28.775  1.00  0.00     0.074 A 
ATOM     47  C   UNL A   1      43.804  28.943  29.788  1.00  0.00     0.049 A 
ATOM     48  N   UNL A   1      40.968  29.893  29.713  1.00  0.00    -0.248 NA
ATOM     49  C   UNL A   1      40.774  28.995  27.566  1.00  0.00     0.031 C 
ATOM     50  C   UNL A   1      45.196  28.497  29.864  1.00  0.00     0.029 A 
ATOM     51  N   UNL A   1      43.618  29.662  30.940  1.00  0.00    -0.354 N 
ATOM     52  C   UNL A   1      39.703  30.176  29.218  1.00  0.00     0.074 A 
ATOM     53  C   UNL A   1      39.652  29.634  27.875  1.00  0.00     0.031 C 
ATOM     54  C   UNL A   1      45.724  28.909  31.022  1.00  0.00     0.029 A 
ATOM     55  C   UNL A   1      44.723  29.683  31.753  1.00  0.00     0.049 A 
ATOM     56  H   UNL A   1      42.775  30.119  31.162  1.00  0.00     0.167 HD
ATOM     57  C   UNL A   1      38.683  30.816  29.842  1.00  0.00     0.037 A 
ATOM     58  C   UNL A   1      44.917  30.253  32.956  1.00  0.00     0.037 A 
ATOM     59  C   UNL A   1      38.761  31.366  31.175  1.00  0.00     0.049 A 
ATOM     60  C   UNL A   1      43.779  30.975  33.617  1.00  0.00     0.074 A 
ATOM     61  C   UNL A   1      37.759  31.972  31.916  1.00  0.00     0.029 A 
ATOM     62  N   UNL A   1      39.907  31.402  31.958  1.00  0.00    -0.354 N 
ATOM     63  N   UNL A   1      42.551  31.142  33.191  1.00  0.00    -0.248 NA
ATOM     64  C   UNL A   1      44.048  31.582  34.927  1.00  0.00     0.031 C 
ATOM     65  C   UNL A   1      38.317  32.448  33.105  1.00  0.00     0.029 A 
ATOM     66  C   UNL A   1      39.649  32.067  33.150  1.00  0.00     0.049 A 
ATOM     67  H   UNL A   1      40.776  31.014  31.706  1.00  0.00     0.167 HD
ATOM     68  C   UNL A   1      41.896  31.861  34.181  1.00  0.00     0.074 A 
ATOM     69  C   UNL A   1      42.859  32.079  35.241  1.00  0.00     0.031 C 
ATOM     70  C   UNL A   1      40.613  32.297  34.200  1.00  0.00     0.037 A 
BRANCH  57  71
ATOM     71  C   UNL A   1      37.389  30.973  29.091  1.00  0.00     0.064 A 
ATOM     72  C   UNL A   1      36.482  29.910  28.949  1.00  0.00     0.173 A 
ATOM     73  C   UNL A   1      37.016  32.220  28.563  1.00  0.00     0.173 A 
ATOM     74  F   UNL A   1      36.782  28.697  29.439  1.00  0.00    -0.203 F 
ATOM     75  C   UNL A   1      35.272  30.080  28.280  1.00  0.00     0.198 A 
ATOM     76  C   UNL A   1      35.789  32.396  27.927  1.00  0.00     0.198 A 
ATOM     77  F   UNL A   1      37.832  33.278  28.684  1.00  0.00    -0.203 F 
ATOM     78  F   UNL A   1      34.448  29.037  28.117  1.00  0.00    -0.200 F 
ATOM     79  C   UNL A   1      34.923  31.324  27.776  1.00  0.00     0.200 A 
ATOM     80  F   UNL A   1      35.443  33.605  27.465  1.00  0.00    -0.200 F 
ATOM     81  F   UNL A   1      33.752  31.489  27.145  1.00  0.00    -0.200 F 
ENDBRANCH  57  71
BRANCH  58  82
ATOM     82  C   UNL A   1      46.243  30.110  33.607  1.00  0.00     0.064 A 
ATOM     83  C   UNL A   1      47.253  31.058  33.404  1.00  0.00     0.173 A 
ATOM     84  C   UNL A   1      46.489  29.075  34.523  1.00  0.00     0.173 A 
ATOM     85  F   UNL A   1      47.069  32.056  32.528  1.00  0.00    -0.203 F 
ATOM     86  C   UNL A   1      48.458  30.983  34.100  1.00  0.00     0.198 A 
ATOM     87  C   UNL A   1      47.680  29.020  35.242  1.00  0.00     0.198 A 
ATOM     88  F   UNL A   1      45.548  28.151  34.759  1.00  0.00    -0.203 F 
ATOM     89  F   UNL A   1      49.414  31.895  33.879  1.00  0.00    -0.200 F 
ATOM     90  C   UNL A   1      48.664  29.973  35.030  1.00  0.00     0.200 A 
ATOM     91  F   UNL A   1      47.864  28.058  36.156  1.00  0.00    -0.200 F 
ATOM     92  F   UNL A   1      49.808  29.923  35.725  1.00  0.00    -0.200 F 
ENDBRANCH  58  82
BRANCH  70  93
ATOM     93  C   UNL A   1      40.153  33.067  35.408  1.00  0.00     0.064 A 
ATOM     94  C   UNL A   1      40.184  34.469  35.443  1.00  0.00     0.173 A 
ATOM     95  C   UNL A   1      39.593  32.400  36.510  1.00  0.00     0.173 A 
ATOM     96  F   UNL A   1      40.721  35.159  34.425  1.00  0.00    -0.203 F 
ATOM     97  C   UNL A   1      39.682  35.173  36.536  1.00  0.00     0.198 A 
ATOM     98  C   UNL A   1      39.059  33.107  37.584  1.00  0.00     0.198 A 
ATOM     99  F   UNL A   1      39.533  31.060  36.529  1.00  0.00    -0.203 F 
ATOM    100  F   UNL A   1      39.754  36.510  36.561  1.00  0.00    -0.200 F 
ATOM    101  C   UNL A   1      39.108  34.492  37.599  1.00  0.00     0.200 A 
ATOM    102  F   UNL A   1      38.486  32.446  38.600  1.00  0.00    -0.200 F 
ATOM    103  F   UNL A   1      38.600  35.171  38.636  1.00  0.00    -0.200 F 
ENDBRANCH  70  93
ENDBRANCH  44  45
ENDBRANCH  37  39
ENDBRANCH  36  37
ENDBRANCH  35  36
ENDBRANCH  34  35
ENDBRANCH  33  34
ENDBRANCH  32  33
ENDBRANCH  31  32
ENDBRANCH  30  31
ENDBRANCH   1  30
TORSDOF 24
ENDMDL
