MODEL 1
REMARK VINA RESULT:     -10.3      0.000      0.000
REMARK SMILES COc1ccc(C[N@@H+]2C[C@@H](C(=O)OCCOCCOCCOCCOC(=O)c3ccc(-c4c5nc(c(-c6c(F)c(F)c(F)c(F)c6F)c6ccc([nH]6)c(-c6c(F)c(F)c(F)c(F)c6F)c6nc(c(-c7c(F)c(F)c(F)c(F)c7F)c7ccc4[nH]7)C=C6)C=C5)cc3)[C@H](c3ccccc3OC)C2)c(OC)c1
REMARK SMILES IDX 18 1 17 2 16 3 15 4 14 5 13 6 11 7 12 8 10 9 8 10 9 11
REMARK SMILES IDX 100 12 91 14 7 15 6 16 3 17 4 18 104 19 5 20 101 21 2 22
REMARK SMILES IDX 1 23 102 24 103 25 92 26 93 27 97 28 94 29 96 30 95 31 98 32
REMARK SMILES IDX 99 33 19 34 20 35 21 36 22 37 23 38 24 39 25 40 26 41 27 42
REMARK SMILES IDX 28 43 29 44 90 45 30 46 89 47 31 48 32 49 33 50 83 51 34 52
REMARK SMILES IDX 88 53 82 54 84 55 35 56 87 57 81 58 80 59 36 61 68 62 48 63
REMARK SMILES IDX 67 64 49 65 52 66 66 67 85 68 50 69 51 70 65 72 86 73 53 74
REMARK SMILES IDX 37 75 38 76 46 77 39 78 40 79 44 80 47 81 41 82 42 83 45 84
REMARK SMILES IDX 43 85 69 86 70 87 78 88 71 89 72 90 76 91 79 92 73 93 74 94
REMARK SMILES IDX 77 95 75 96 54 97 55 98 63 99 56 100 57 101 61 102 64 103
REMARK SMILES IDX 58 104 59 105 62 106 60 107
REMARK H PARENT 8 13 84 60 52 71
REMARK Flexibility Score: inf
ROOT
ATOM      1  C   UNL A   1      40.035  23.587  27.935  1.00  0.00     0.188 C 
ENDROOT
BRANCH   1   2
ATOM      2  C   UNL A   1      39.484  24.155  26.621  1.00  0.00     0.188 C 
BRANCH   2   3
ATOM      3  O   UNL A   1      38.071  24.033  26.528  1.00  0.00    -0.376 OA
BRANCH   3   4
ATOM      4  C   UNL A   1      37.561  23.320  25.412  1.00  0.00     0.202 C 
BRANCH   4   5
ATOM      5  C   UNL A   1      37.120  21.866  25.630  1.00  0.00     0.261 C 
BRANCH   5   6
ATOM      6  O   UNL A   1      35.739  21.485  25.425  1.00  0.00    -0.463 OA
BRANCH   6   7
ATOM      7  C   UNL A   1      34.751  21.790  26.306  1.00  0.00     0.315 C 
ATOM      8  O   UNL A   1      34.781  21.572  27.506  1.00  0.00    -0.252 OA
BRANCH   7   9
ATOM      9  C   UNL A   1      33.631  22.503  25.600  1.00  0.00     0.167 C 
ATOM     10  N   UNL A   1      31.969  24.165  25.979  1.00  0.00    -0.330 N 
ATOM     11  C   UNL A   1      33.308  23.769  26.382  1.00  0.00     0.278 C 
ATOM     12  C   UNL A   1      31.257  22.900  25.737  1.00  0.00     0.272 C 
ATOM     13  H   UNL A   1      31.484  24.692  26.705  1.00  0.00     0.348 HD
ATOM     14  C   UNL A   1      32.289  21.745  25.545  1.00  0.00     0.098 C 
BRANCH  10  15
ATOM     15  C   UNL A   1      31.929  25.184  24.903  1.00  0.00     0.303 C 
BRANCH  15  16
ATOM     16  C   UNL A   1      31.632  26.623  25.294  1.00  0.00     0.048 A 
ATOM     17  C   UNL A   1      31.593  29.316  26.101  1.00  0.00     0.122 A 
ATOM     18  C   UNL A   1      31.510  28.303  27.051  1.00  0.00     0.047 A 
ATOM     19  C   UNL A   1      31.581  28.989  24.743  1.00  0.00     0.093 A 
ATOM     20  C   UNL A   1      31.495  26.969  26.652  1.00  0.00     0.017 A 
ATOM     21  C   UNL A   1      31.569  27.646  24.335  1.00  0.00     0.131 A 
BRANCH  17  22
ATOM     22  O   UNL A   1      31.762  30.571  26.616  1.00  0.00    -0.497 OA
ATOM     23  C   UNL A   1      30.960  31.597  26.050  1.00  0.00     0.278 C 
ENDBRANCH  17  22
BRANCH  21  24
ATOM     24  O   UNL A   1      31.557  27.234  23.028  1.00  0.00    -0.496 OA
ATOM     25  C   UNL A   1      32.807  26.915  22.434  1.00  0.00     0.278 C 
ENDBRANCH  21  24
ENDBRANCH  15  16
ENDBRANCH  10  15
BRANCH  14  26
ATOM     26  C   UNL A   1      32.168  20.860  24.302  1.00  0.00     0.004 A 
ATOM     27  C   UNL A   1      31.816  21.370  23.047  1.00  0.00     0.008 A 
ATOM     28  C   UNL A   1      32.424  19.475  24.365  1.00  0.00     0.122 A 
ATOM     29  C   UNL A   1      31.885  20.595  21.889  1.00  0.00     0.001 A 
ATOM     30  C   UNL A   1      32.579  18.709  23.202  1.00  0.00     0.047 A 
ATOM     31  C   UNL A   1      32.335  19.284  21.955  1.00  0.00     0.004 A 
BRANCH  28  32
ATOM     32  O   UNL A   1      32.173  18.856  25.563  1.00  0.00    -0.496 OA
ATOM     33  C   UNL A   1      32.506  17.482  25.647  1.00  0.00     0.278 C 
ENDBRANCH  28  32
ENDBRANCH  14  26
ENDBRANCH   7   9
ENDBRANCH   6   7
ENDBRANCH   5   6
ENDBRANCH   4   5
ENDBRANCH   3   4
ENDBRANCH   2   3
ENDBRANCH   1   2
BRANCH   1  34
ATOM     34  O   UNL A   1      40.916  22.487  27.803  1.00  0.00    -0.377 OA
BRANCH  34  35
ATOM     35  C   UNL A   1      40.506  21.369  27.029  1.00  0.00     0.188 C 
BRANCH  35  36
ATOM     36  C   UNL A   1      41.494  20.583  26.137  1.00  0.00     0.188 C 
BRANCH  36  37
ATOM     37  O   UNL A   1      42.437  21.379  25.443  1.00  0.00    -0.376 OA
BRANCH  37  38
ATOM     38  C   UNL A   1      43.811  21.349  25.757  1.00  0.00     0.202 C 
BRANCH  38  39
ATOM     39  C   UNL A   1      44.716  22.434  25.163  1.00  0.00     0.261 C 
BRANCH  39  40
ATOM     40  O   UNL A   1      45.239  23.391  26.087  1.00  0.00    -0.460 OA
BRANCH  40  41
ATOM     41  C   UNL A   1      45.338  24.668  25.665  1.00  0.00     0.338 C 
ATOM     42  O   UNL A   1      45.888  25.076  24.657  1.00  0.00    -0.246 OA
BRANCH  41  43
ATOM     43  C   UNL A   1      44.469  25.476  26.543  1.00  0.00     0.060 A 
ATOM     44  C   UNL A   1      44.558  26.874  26.477  1.00  0.00     0.016 A 
ATOM     45  C   UNL A   1      43.525  24.858  27.367  1.00  0.00     0.016 A 
ATOM     46  C   UNL A   1      43.718  27.659  27.261  1.00  0.00     0.010 A 
ATOM     47  C   UNL A   1      42.713  25.643  28.184  1.00  0.00     0.010 A 
ATOM     48  C   UNL A   1      42.837  27.044  28.159  1.00  0.00    -0.014 A 
BRANCH  48  49
ATOM     49  C   UNL A   1      42.275  27.850  29.263  1.00  0.00     0.031 A 
ATOM     50  C   UNL A   1      43.016  27.833  30.570  1.00  0.00     0.074 A 
ATOM     51  C   UNL A   1      41.175  28.602  29.103  1.00  0.00     0.049 A 
ATOM     52  N   UNL A   1      42.732  28.427  31.699  1.00  0.00    -0.248 NA
ATOM     53  C   UNL A   1      44.253  27.032  30.605  1.00  0.00     0.031 C 
ATOM     54  C   UNL A   1      40.412  28.736  27.865  1.00  0.00     0.029 A 
ATOM     55  N   UNL A   1      40.510  29.396  30.002  1.00  0.00    -0.354 N 
ATOM     56  C   UNL A   1      43.751  28.071  32.572  1.00  0.00     0.074 A 
ATOM     57  C   UNL A   1      44.642  27.185  31.858  1.00  0.00     0.031 C 
ATOM     58  C   UNL A   1      39.370  29.556  28.087  1.00  0.00     0.029 A 
ATOM     59  C   UNL A   1      39.379  29.977  29.487  1.00  0.00     0.049 A 
ATOM     60  H   UNL A   1      40.815  29.536  30.928  1.00  0.00     0.167 HD
ATOM     61  C   UNL A   1      43.932  28.457  33.856  1.00  0.00     0.037 A 
ATOM     62  C   UNL A   1      38.451  30.740  30.096  1.00  0.00     0.037 A 
ATOM     63  C   UNL A   1      43.032  29.326  34.564  1.00  0.00     0.049 A 
ATOM     64  C   UNL A   1      38.624  31.082  31.555  1.00  0.00     0.074 A 
ATOM     65  C   UNL A   1      43.117  29.782  35.865  1.00  0.00     0.029 A 
ATOM     66  N   UNL A   1      41.869  29.859  34.025  1.00  0.00    -0.354 N 
ATOM     67  N   UNL A   1      39.597  30.762  32.374  1.00  0.00    -0.248 NA
ATOM     68  C   UNL A   1      37.568  31.897  32.173  1.00  0.00     0.031 C 
ATOM     69  C   UNL A   1      41.974  30.543  36.133  1.00  0.00     0.029 A 
ATOM     70  C   UNL A   1      41.211  30.617  34.979  1.00  0.00     0.049 A 
ATOM     71  H   UNL A   1      41.559  29.719  33.101  1.00  0.00     0.167 HD
ATOM     72  C   UNL A   1      39.290  31.359  33.591  1.00  0.00     0.074 A 
ATOM     73  C   UNL A   1      38.044  32.074  33.397  1.00  0.00     0.031 C 
ATOM     74  C   UNL A   1      39.974  31.325  34.761  1.00  0.00     0.037 A 
BRANCH  61  75
ATOM     75  C   UNL A   1      45.124  27.903  34.580  1.00  0.00     0.064 A 
ATOM     76  C   UNL A   1      45.078  26.672  35.251  1.00  0.00     0.173 A 
ATOM     77  C   UNL A   1      46.331  28.618  34.603  1.00  0.00     0.173 A 
ATOM     78  F   UNL A   1      43.941  25.961  35.282  1.00  0.00    -0.203 F 
ATOM     79  C   UNL A   1      46.188  26.191  35.942  1.00  0.00     0.198 A 
ATOM     80  C   UNL A   1      47.448  28.118  35.265  1.00  0.00     0.198 A 
ATOM     81  F   UNL A   1      46.427  29.803  33.981  1.00  0.00    -0.203 F 
ATOM     82  F   UNL A   1      46.104  25.040  36.623  1.00  0.00    -0.200 F 
ATOM     83  C   UNL A   1      47.373  26.910  35.940  1.00  0.00     0.200 A 
ATOM     84  F   UNL A   1      48.596  28.810  35.255  1.00  0.00    -0.200 F 
ATOM     85  F   UNL A   1      48.442  26.443  36.601  1.00  0.00    -0.200 F 
ENDBRANCH  61  75
BRANCH  62  86
ATOM     86  C   UNL A   1      37.267  31.224  29.335  1.00  0.00     0.064 A 
ATOM     87  C   UNL A   1      37.160  32.563  28.936  1.00  0.00     0.173 A 
ATOM     88  C   UNL A   1      36.209  30.361  29.012  1.00  0.00     0.173 A 
ATOM     89  F   UNL A   1      38.132  33.434  29.243  1.00  0.00    -0.203 F 
ATOM     90  C   UNL A   1      36.031  33.026  28.260  1.00  0.00     0.198 A 
ATOM     91  C   UNL A   1      35.094  30.817  28.311  1.00  0.00     0.198 A 
ATOM     92  F   UNL A   1      36.257  29.071  29.376  1.00  0.00    -0.203 F 
ATOM     93  F   UNL A   1      35.932  34.322  27.935  1.00  0.00    -0.200 F 
ATOM     94  C   UNL A   1      35.003  32.151  27.943  1.00  0.00     0.200 A 
ATOM     95  F   UNL A   1      34.108  29.967  27.998  1.00  0.00    -0.200 F 
ATOM     96  F   UNL A   1      33.920  32.596  27.292  1.00  0.00    -0.200 F 
ENDBRANCH  62  86
BRANCH  74  97
ATOM     97  C   UNL A   1      39.416  32.112  35.913  1.00  0.00     0.064 A 
ATOM     98  C   UNL A   1      39.800  33.439  36.159  1.00  0.00     0.173 A 
ATOM     99  C   UNL A   1      38.451  31.542  36.757  1.00  0.00     0.173 A 
ATOM    100  F   UNL A   1      40.727  34.027  35.388  1.00  0.00    -0.203 F 
ATOM    101  C   UNL A   1      39.261  34.153  37.225  1.00  0.00     0.198 A 
ATOM    102  C   UNL A   1      37.888  32.271  37.801  1.00  0.00     0.198 A 
ATOM    103  F   UNL A   1      38.039  30.280  36.560  1.00  0.00    -0.203 F 
ATOM    104  F   UNL A   1      39.684  35.401  37.475  1.00  0.00    -0.200 F 
ATOM    105  C   UNL A   1      38.302  33.573  38.040  1.00  0.00     0.200 A 
ATOM    106  F   UNL A   1      36.946  31.713  38.574  1.00  0.00    -0.200 F 
ATOM    107  F   UNL A   1      37.779  34.264  39.062  1.00  0.00    -0.200 F 
ENDBRANCH  74  97
ENDBRANCH  48  49
ENDBRANCH  41  43
ENDBRANCH  40  41
ENDBRANCH  39  40
ENDBRANCH  38  39
ENDBRANCH  37  38
ENDBRANCH  36  37
ENDBRANCH  35  36
ENDBRANCH  34  35
ENDBRANCH   1  34
TORSDOF 26
ENDMDL
MODEL 2
REMARK VINA RESULT:     -10.2      4.172      7.000
REMARK SMILES COc1ccc(C[N@@H+]2C[C@@H](C(=O)OCCOCCOCCOCCOC(=O)c3ccc(-c4c5nc(c(-c6c(F)c(F)c(F)c(F)c6F)c6ccc([nH]6)c(-c6c(F)c(F)c(F)c(F)c6F)c6nc(c(-c7c(F)c(F)c(F)c(F)c7F)c7ccc4[nH]7)C=C6)C=C5)cc3)[C@H](c3ccccc3OC)C2)c(OC)c1
REMARK SMILES IDX 18 1 17 2 16 3 15 4 14 5 13 6 11 7 12 8 10 9 8 10 9 11
REMARK SMILES IDX 100 12 91 14 7 15 6 16 3 17 4 18 104 19 5 20 101 21 2 22
REMARK SMILES IDX 1 23 102 24 103 25 92 26 93 27 97 28 94 29 96 30 95 31 98 32
REMARK SMILES IDX 99 33 19 34 20 35 21 36 22 37 23 38 24 39 25 40 26 41 27 42
REMARK SMILES IDX 28 43 29 44 90 45 30 46 89 47 31 48 32 49 33 50 83 51 34 52
REMARK SMILES IDX 88 53 82 54 84 55 35 56 87 57 81 58 80 59 36 61 68 62 48 63
REMARK SMILES IDX 67 64 49 65 52 66 66 67 85 68 50 69 51 70 65 72 86 73 53 74
REMARK SMILES IDX 37 75 38 76 46 77 39 78 40 79 44 80 47 81 41 82 42 83 45 84
REMARK SMILES IDX 43 85 69 86 70 87 78 88 71 89 72 90 76 91 79 92 73 93 74 94
REMARK SMILES IDX 77 95 75 96 54 97 55 98 63 99 56 100 57 101 61 102 64 103
REMARK SMILES IDX 58 104 59 105 62 106 60 107
REMARK H PARENT 8 13 84 60 52 71
REMARK Flexibility Score: inf
ROOT
ATOM      1  C   UNL A   1      33.925  17.317  23.951  1.00  0.00     0.188 C 
ENDROOT
BRANCH   1   2
ATOM      2  C   UNL A   1      33.342  17.708  22.586  1.00  0.00     0.188 C 
BRANCH   2   3
ATOM      3  O   UNL A   1      32.085  18.362  22.701  1.00  0.00    -0.376 OA
BRANCH   3   4
ATOM      4  C   UNL A   1      32.089  19.660  23.274  1.00  0.00     0.202 C 
BRANCH   4   5
ATOM      5  C   UNL A   1      32.534  20.833  22.390  1.00  0.00     0.261 C 
BRANCH   5   6
ATOM      6  O   UNL A   1      32.954  22.080  22.991  1.00  0.00    -0.463 OA
BRANCH   6   7
ATOM      7  C   UNL A   1      32.983  23.255  22.309  1.00  0.00     0.315 C 
ATOM      8  O   UNL A   1      33.254  23.381  21.125  1.00  0.00    -0.252 OA
BRANCH   7   9
ATOM      9  C   UNL A   1      32.562  24.385  23.207  1.00  0.00     0.167 C 
ATOM     10  N   UNL A   1      32.335  26.755  23.214  1.00  0.00    -0.330 N 
ATOM     11  C   UNL A   1      32.267  25.599  22.336  1.00  0.00     0.278 C 
ATOM     12  C   UNL A   1      33.385  26.426  24.193  1.00  0.00     0.272 C 
ATOM     13  H   UNL A   1      32.593  27.607  22.716  1.00  0.00     0.348 HD
ATOM     14  C   UNL A   1      33.636  24.886  24.195  1.00  0.00     0.098 C 
BRANCH  10  15
ATOM     15  C   UNL A   1      31.025  27.199  23.747  1.00  0.00     0.303 C 
BRANCH  15  16
ATOM     16  C   UNL A   1      30.560  28.608  23.414  1.00  0.00     0.048 A 
ATOM     17  C   UNL A   1      29.231  31.040  22.941  1.00  0.00     0.122 A 
ATOM     18  C   UNL A   1      29.277  30.067  21.948  1.00  0.00     0.047 A 
ATOM     19  C   UNL A   1      29.944  30.847  24.128  1.00  0.00     0.093 A 
ATOM     20  C   UNL A   1      29.963  28.875  22.167  1.00  0.00     0.017 A 
ATOM     21  C   UNL A   1      30.634  29.646  24.355  1.00  0.00     0.131 A 
BRANCH  17  22
ATOM     22  O   UNL A   1      28.399  32.091  22.674  1.00  0.00    -0.497 OA
ATOM     23  C   UNL A   1      28.103  32.326  21.305  1.00  0.00     0.278 C 
ENDBRANCH  17  22
BRANCH  21  24
ATOM     24  O   UNL A   1      31.356  29.371  25.487  1.00  0.00    -0.496 OA
ATOM     25  C   UNL A   1      32.647  29.956  25.594  1.00  0.00     0.278 C 
ENDBRANCH  21  24
ENDBRANCH  15  16
ENDBRANCH  10  15
BRANCH  14  26
ATOM     26  C   UNL A   1      33.592  24.143  25.533  1.00  0.00     0.004 A 
ATOM     27  C   UNL A   1      32.399  23.913  26.226  1.00  0.00     0.008 A 
ATOM     28  C   UNL A   1      34.768  23.639  26.126  1.00  0.00     0.122 A 
ATOM     29  C   UNL A   1      32.344  23.081  27.345  1.00  0.00     0.001 A 
ATOM     30  C   UNL A   1      34.715  22.737  27.197  1.00  0.00     0.047 A 
ATOM     31  C   UNL A   1      33.488  22.436  27.790  1.00  0.00     0.004 A 
BRANCH  28  32
ATOM     32  O   UNL A   1      35.931  24.314  25.857  1.00  0.00    -0.496 OA
ATOM     33  C   UNL A   1      37.110  23.534  25.769  1.00  0.00     0.278 C 
ENDBRANCH  28  32
ENDBRANCH  14  26
ENDBRANCH   7   9
ENDBRANCH   6   7
ENDBRANCH   5   6
ENDBRANCH   4   5
ENDBRANCH   3   4
ENDBRANCH   2   3
ENDBRANCH   1   2
BRANCH   1  34
ATOM     34  O   UNL A   1      35.131  17.967  24.307  1.00  0.00    -0.377 OA
BRANCH  34  35
ATOM     35  C   UNL A   1      35.067  19.251  24.910  1.00  0.00     0.188 C 
BRANCH  35  36
ATOM     36  C   UNL A   1      36.305  20.170  25.015  1.00  0.00     0.188 C 
BRANCH  36  37
ATOM     37  O   UNL A   1      37.512  19.604  24.539  1.00  0.00    -0.376 OA
BRANCH  37  38
ATOM     38  C   UNL A   1      38.538  19.194  25.415  1.00  0.00     0.202 C 
BRANCH  38  39
ATOM     39  C   UNL A   1      39.516  20.253  25.934  1.00  0.00     0.261 C 
BRANCH  39  40
ATOM     40  O   UNL A   1      40.580  19.775  26.761  1.00  0.00    -0.460 OA
BRANCH  40  41
ATOM     41  C   UNL A   1      41.822  20.226  26.492  1.00  0.00     0.338 C 
ATOM     42  O   UNL A   1      42.718  19.636  25.913  1.00  0.00    -0.246 OA
BRANCH  41  43
ATOM     43  C   UNL A   1      41.841  21.660  26.841  1.00  0.00     0.060 A 
ATOM     44  C   UNL A   1      41.628  22.604  25.827  1.00  0.00     0.016 A 
ATOM     45  C   UNL A   1      41.993  22.062  28.172  1.00  0.00     0.016 A 
ATOM     46  C   UNL A   1      41.595  23.960  26.139  1.00  0.00     0.010 A 
ATOM     47  C   UNL A   1      42.002  23.422  28.477  1.00  0.00     0.010 A 
ATOM     48  C   UNL A   1      41.842  24.373  27.454  1.00  0.00    -0.014 A 
BRANCH  48  49
ATOM     49  C   UNL A   1      42.225  25.780  27.693  1.00  0.00     0.031 A 
ATOM     50  C   UNL A   1      43.562  26.225  27.172  1.00  0.00     0.074 A 
ATOM     51  C   UNL A   1      41.403  26.643  28.311  1.00  0.00     0.049 A 
ATOM     52  N   UNL A   1      44.149  27.389  27.265  1.00  0.00    -0.248 NA
ATOM     53  C   UNL A   1      44.345  25.210  26.444  1.00  0.00     0.031 C 
ATOM     54  C   UNL A   1      40.064  26.333  28.805  1.00  0.00     0.029 A 
ATOM     55  N   UNL A   1      41.586  27.964  28.627  1.00  0.00    -0.354 N 
ATOM     56  C   UNL A   1      45.365  27.245  26.609  1.00  0.00     0.074 A 
ATOM     57  C   UNL A   1      45.449  25.876  26.153  1.00  0.00     0.031 C 
ATOM     58  C   UNL A   1      39.548  27.435  29.377  1.00  0.00     0.029 A 
ATOM     59  C   UNL A   1      40.534  28.514  29.315  1.00  0.00     0.049 A 
ATOM     60  H   UNL A   1      42.395  28.471  28.384  1.00  0.00     0.167 HD
ATOM     61  C   UNL A   1      46.323  28.176  26.400  1.00  0.00     0.037 A 
ATOM     62  C   UNL A   1      40.404  29.743  29.850  1.00  0.00     0.037 A 
ATOM     63  C   UNL A   1      46.238  29.531  26.872  1.00  0.00     0.049 A 
ATOM     64  C   UNL A   1      41.527  30.738  29.684  1.00  0.00     0.074 A 
ATOM     65  C   UNL A   1      47.149  30.557  26.716  1.00  0.00     0.029 A 
ATOM     66  N   UNL A   1      45.177  30.040  27.607  1.00  0.00    -0.354 N 
ATOM     67  N   UNL A   1      42.666  30.607  29.047  1.00  0.00    -0.248 NA
ATOM     68  C   UNL A   1      41.341  32.055  30.310  1.00  0.00     0.031 C 
ATOM     69  C   UNL A   1      46.667  31.673  27.409  1.00  0.00     0.029 A 
ATOM     70  C   UNL A   1      45.424  31.362  27.938  1.00  0.00     0.049 A 
ATOM     71  H   UNL A   1      44.368  29.537  27.855  1.00  0.00     0.167 HD
ATOM     72  C   UNL A   1      43.318  31.829  29.167  1.00  0.00     0.074 A 
ATOM     73  C   UNL A   1      42.437  32.694  29.927  1.00  0.00     0.031 C 
ATOM     74  C   UNL A   1      44.530  32.206  28.691  1.00  0.00     0.037 A 
BRANCH  61  75
ATOM     75  C   UNL A   1      47.557  27.740  25.666  1.00  0.00     0.064 A 
ATOM     76  C   UNL A   1      47.623  27.731  24.265  1.00  0.00     0.173 A 
ATOM     77  C   UNL A   1      48.692  27.323  26.378  1.00  0.00     0.173 A 
ATOM     78  F   UNL A   1      46.557  28.096  23.536  1.00  0.00    -0.203 F 
ATOM     79  C   UNL A   1      48.769  27.295  23.604  1.00  0.00     0.198 A 
ATOM     80  C   UNL A   1      49.848  26.921  25.715  1.00  0.00     0.198 A 
ATOM     81  F   UNL A   1      48.681  27.307  27.720  1.00  0.00    -0.203 F 
ATOM     82  F   UNL A   1      48.789  27.242  22.265  1.00  0.00    -0.200 F 
ATOM     83  C   UNL A   1      49.882  26.899  24.329  1.00  0.00     0.200 A 
ATOM     84  F   UNL A   1      50.926  26.546  26.417  1.00  0.00    -0.200 F 
ATOM     85  F   UNL A   1      50.986  26.484  23.692  1.00  0.00    -0.200 F 
ENDBRANCH  61  75
BRANCH  62  86
ATOM     86  C   UNL A   1      39.173  30.102  30.604  1.00  0.00     0.064 A 
ATOM     87  C   UNL A   1      38.057  30.646  29.953  1.00  0.00     0.173 A 
ATOM     88  C   UNL A   1      39.096  29.930  31.994  1.00  0.00     0.173 A 
ATOM     89  F   UNL A   1      38.089  30.856  28.629  1.00  0.00    -0.203 F 
ATOM     90  C   UNL A   1      36.920  31.022  30.666  1.00  0.00     0.198 A 
ATOM     91  C   UNL A   1      37.948  30.279  32.702  1.00  0.00     0.198 A 
ATOM     92  F   UNL A   1      40.139  29.420  32.667  1.00  0.00    -0.203 F 
ATOM     93  F   UNL A   1      35.886  31.586  30.026  1.00  0.00    -0.200 F 
ATOM     94  C   UNL A   1      36.864  30.832  32.038  1.00  0.00     0.200 A 
ATOM     95  F   UNL A   1      37.895  30.085  34.026  1.00  0.00    -0.200 F 
ATOM     96  F   UNL A   1      35.770  31.192  32.723  1.00  0.00    -0.200 F 
ENDBRANCH  62  86
BRANCH  74  97
ATOM     97  C   UNL A   1      44.962  33.623  28.941  1.00  0.00     0.064 A 
ATOM     98  C   UNL A   1      44.584  34.673  28.092  1.00  0.00     0.173 A 
ATOM     99  C   UNL A   1      45.732  33.939  30.071  1.00  0.00     0.173 A 
ATOM    100  F   UNL A   1      43.857  34.424  26.992  1.00  0.00    -0.203 F 
ATOM    101  C   UNL A   1      44.986  35.981  28.348  1.00  0.00     0.198 A 
ATOM    102  C   UNL A   1      46.103  35.252  30.344  1.00  0.00     0.198 A 
ATOM    103  F   UNL A   1      46.112  32.974  30.922  1.00  0.00    -0.203 F 
ATOM    104  F   UNL A   1      44.659  36.960  27.493  1.00  0.00    -0.200 F 
ATOM    105  C   UNL A   1      45.738  36.271  29.476  1.00  0.00     0.200 A 
ATOM    106  F   UNL A   1      46.813  35.532  31.446  1.00  0.00    -0.200 F 
ATOM    107  F   UNL A   1      46.119  37.531  29.726  1.00  0.00    -0.200 F 
ENDBRANCH  74  97
ENDBRANCH  48  49
ENDBRANCH  41  43
ENDBRANCH  40  41
ENDBRANCH  39  40
ENDBRANCH  38  39
ENDBRANCH  37  38
ENDBRANCH  36  37
ENDBRANCH  35  36
ENDBRANCH  34  35
ENDBRANCH   1  34
TORSDOF 26
ENDMDL
MODEL 3
REMARK VINA RESULT:      -9.9      4.516      6.890
REMARK SMILES COc1ccc(C[N@@H+]2C[C@@H](C(=O)OCCOCCOCCOCCOC(=O)c3ccc(-c4c5nc(c(-c6c(F)c(F)c(F)c(F)c6F)c6ccc([nH]6)c(-c6c(F)c(F)c(F)c(F)c6F)c6nc(c(-c7c(F)c(F)c(F)c(F)c7F)c7ccc4[nH]7)C=C6)C=C5)cc3)[C@H](c3ccccc3OC)C2)c(OC)c1
REMARK SMILES IDX 18 1 17 2 16 3 15 4 14 5 13 6 11 7 12 8 10 9 8 10 9 11
REMARK SMILES IDX 100 12 91 14 7 15 6 16 3 17 4 18 104 19 5 20 101 21 2 22
REMARK SMILES IDX 1 23 102 24 103 25 92 26 93 27 97 28 94 29 96 30 95 31 98 32
REMARK SMILES IDX 99 33 19 34 20 35 21 36 22 37 23 38 24 39 25 40 26 41 27 42
REMARK SMILES IDX 28 43 29 44 90 45 30 46 89 47 31 48 32 49 33 50 83 51 34 52
REMARK SMILES IDX 88 53 82 54 84 55 35 56 87 57 81 58 80 59 36 61 68 62 48 63
REMARK SMILES IDX 67 64 49 65 52 66 66 67 85 68 50 69 51 70 65 72 86 73 53 74
REMARK SMILES IDX 37 75 38 76 46 77 39 78 40 79 44 80 47 81 41 82 42 83 45 84
REMARK SMILES IDX 43 85 69 86 70 87 78 88 71 89 72 90 76 91 79 92 73 93 74 94
REMARK SMILES IDX 77 95 75 96 54 97 55 98 63 99 56 100 57 101 61 102 64 103
REMARK SMILES IDX 58 104 59 105 62 106 60 107
REMARK H PARENT 8 13 84 60 52 71
REMARK Flexibility Score: inf
ROOT
ATOM      1  C   UNL A   1      40.104  23.294  27.560  1.00  0.00     0.188 C 
ENDROOT
BRANCH   1   2
ATOM      2  C   UNL A   1      39.206  23.850  26.446  1.00  0.00     0.188 C 
BRANCH   2   3
ATOM      3  O   UNL A   1      37.842  23.928  26.837  1.00  0.00    -0.376 OA
BRANCH   3   4
ATOM      4  C   UNL A   1      36.874  23.627  25.844  1.00  0.00     0.202 C 
BRANCH   4   5
ATOM      5  C   UNL A   1      36.504  22.154  25.626  1.00  0.00     0.261 C 
BRANCH   5   6
ATOM      6  O   UNL A   1      35.233  21.645  26.097  1.00  0.00    -0.463 OA
BRANCH   6   7
ATOM      7  C   UNL A   1      34.388  22.373  26.871  1.00  0.00     0.315 C 
ATOM      8  O   UNL A   1      34.547  22.620  28.056  1.00  0.00    -0.252 OA
BRANCH   7   9
ATOM      9  C   UNL A   1      33.249  22.898  26.041  1.00  0.00     0.167 C 
ATOM     10  N   UNL A   1      31.293  24.244  26.225  1.00  0.00    -0.330 N 
ATOM     11  C   UNL A   1      32.626  24.075  26.780  1.00  0.00     0.278 C 
ATOM     12  C   UNL A   1      30.842  22.880  25.902  1.00  0.00     0.272 C 
ATOM     13  H   UNL A   1      30.645  24.665  26.890  1.00  0.00     0.348 HD
ATOM     14  C   UNL A   1      32.072  21.923  25.831  1.00  0.00     0.098 C 
BRANCH  10  15
ATOM     15  C   UNL A   1      31.201  25.261  25.151  1.00  0.00     0.303 C 
BRANCH  15  16
ATOM     16  C   UNL A   1      31.224  26.727  25.554  1.00  0.00     0.048 A 
ATOM     17  C   UNL A   1      31.779  29.397  26.240  1.00  0.00     0.122 A 
ATOM     18  C   UNL A   1      31.821  28.405  27.214  1.00  0.00     0.047 A 
ATOM     19  C   UNL A   1      31.350  29.077  24.950  1.00  0.00     0.093 A 
ATOM     20  C   UNL A   1      31.513  27.086  26.885  1.00  0.00     0.017 A 
ATOM     21  C   UNL A   1      31.042  27.750  24.611  1.00  0.00     0.131 A 
BRANCH  17  22
ATOM     22  O   UNL A   1      32.254  30.614  26.644  1.00  0.00    -0.497 OA
ATOM     23  C   UNL A   1      33.470  30.603  27.377  1.00  0.00     0.278 C 
ENDBRANCH  17  22
BRANCH  21  24
ATOM     24  O   UNL A   1      30.616  27.347  23.372  1.00  0.00    -0.496 OA
ATOM     25  C   UNL A   1      31.591  27.265  22.343  1.00  0.00     0.278 C 
ENDBRANCH  21  24
ENDBRANCH  15  16
ENDBRANCH  10  15
BRANCH  14  26
ATOM     26  C   UNL A   1      32.248  21.055  24.582  1.00  0.00     0.004 A 
ATOM     27  C   UNL A   1      32.519  19.684  24.652  1.00  0.00     0.008 A 
ATOM     28  C   UNL A   1      32.128  21.604  23.290  1.00  0.00     0.122 A 
ATOM     29  C   UNL A   1      32.496  18.868  23.520  1.00  0.00     0.001 A 
ATOM     30  C   UNL A   1      32.019  20.785  22.157  1.00  0.00     0.047 A 
ATOM     31  C   UNL A   1      32.177  19.405  22.282  1.00  0.00     0.004 A 
BRANCH  28  32
ATOM     32  O   UNL A   1      32.467  22.926  23.148  1.00  0.00    -0.496 OA
ATOM     33  C   UNL A   1      33.697  23.197  22.501  1.00  0.00     0.278 C 
ENDBRANCH  28  32
ENDBRANCH  14  26
ENDBRANCH   7   9
ENDBRANCH   6   7
ENDBRANCH   5   6
ENDBRANCH   4   5
ENDBRANCH   3   4
ENDBRANCH   2   3
ENDBRANCH   1   2
BRANCH   1  34
ATOM     34  O   UNL A   1      40.649  22.010  27.320  1.00  0.00    -0.377 OA
BRANCH  34  35
ATOM     35  C   UNL A   1      39.966  21.127  26.443  1.00  0.00     0.188 C 
BRANCH  35  36
ATOM     36  C   UNL A   1      40.506  19.716  26.115  1.00  0.00     0.188 C 
BRANCH  36  37
ATOM     37  O   UNL A   1      41.813  19.688  25.571  1.00  0.00    -0.376 OA
BRANCH  37  38
ATOM     38  C   UNL A   1      42.738  18.680  25.909  1.00  0.00     0.202 C 
BRANCH  38  39
ATOM     39  C   UNL A   1      43.951  18.470  24.996  1.00  0.00     0.261 C 
BRANCH  39  40
ATOM     40  O   UNL A   1      45.195  18.984  25.476  1.00  0.00    -0.460 OA
BRANCH  40  41
ATOM     41  C   UNL A   1      45.897  19.782  24.644  1.00  0.00     0.338 C 
ATOM     42  O   UNL A   1      46.498  19.457  23.636  1.00  0.00    -0.246 OA
BRANCH  41  43
ATOM     43  C   UNL A   1      45.630  21.172  25.061  1.00  0.00     0.060 A 
ATOM     44  C   UNL A   1      45.641  22.182  24.088  1.00  0.00     0.016 A 
ATOM     45  C   UNL A   1      45.299  21.462  26.388  1.00  0.00     0.016 A 
ATOM     46  C   UNL A   1      45.348  23.494  24.448  1.00  0.00     0.010 A 
ATOM     47  C   UNL A   1      45.046  22.782  26.756  1.00  0.00     0.010 A 
ATOM     48  C   UNL A   1      45.109  23.805  25.793  1.00  0.00    -0.014 A 
BRANCH  48  49
ATOM     49  C   UNL A   1      45.223  25.214  26.223  1.00  0.00     0.031 A 
ATOM     50  C   UNL A   1      46.585  25.846  26.148  1.00  0.00     0.074 A 
ATOM     51  C   UNL A   1      44.156  25.920  26.626  1.00  0.00     0.049 A 
ATOM     52  N   UNL A   1      46.966  27.050  26.483  1.00  0.00    -0.248 NA
ATOM     53  C   UNL A   1      47.666  24.996  25.618  1.00  0.00     0.031 C 
ATOM     54  C   UNL A   1      42.783  25.424  26.685  1.00  0.00     0.029 A 
ATOM     55  N   UNL A   1      44.069  27.216  27.067  1.00  0.00    -0.354 N 
ATOM     56  C   UNL A   1      48.325  27.100  26.205  1.00  0.00     0.074 A 
ATOM     57  C   UNL A   1      48.712  25.799  25.706  1.00  0.00     0.031 C 
ATOM     58  C   UNL A   1      41.989  26.405  27.150  1.00  0.00     0.029 A 
ATOM     59  C   UNL A   1      42.804  27.581  27.450  1.00  0.00     0.049 A 
ATOM     60  H   UNL A   1      44.842  27.826  27.105  1.00  0.00     0.167 HD
ATOM     61  C   UNL A   1      49.175  28.142  26.346  1.00  0.00     0.037 A 
ATOM     62  C   UNL A   1      42.370  28.731  28.000  1.00  0.00     0.037 A 
ATOM     63  C   UNL A   1      48.785  29.427  26.858  1.00  0.00     0.049 A 
ATOM     64  C   UNL A   1      43.355  29.850  28.235  1.00  0.00     0.074 A 
ATOM     65  C   UNL A   1      49.563  30.554  27.043  1.00  0.00     0.029 A 
ATOM     66  N   UNL A   1      47.503  29.748  27.281  1.00  0.00    -0.354 N 
ATOM     67  N   UNL A   1      44.635  29.903  27.954  1.00  0.00    -0.248 NA
ATOM     68  C   UNL A   1      42.831  31.072  28.862  1.00  0.00     0.031 C 
ATOM     69  C   UNL A   1      48.764  31.539  27.635  1.00  0.00     0.029 A 
ATOM     70  C   UNL A   1      47.474  31.049  27.755  1.00  0.00     0.049 A 
ATOM     71  H   UNL A   1      46.729  29.141  27.248  1.00  0.00     0.167 HD
ATOM     72  C   UNL A   1      45.063  31.168  28.338  1.00  0.00     0.074 A 
ATOM     73  C   UNL A   1      43.899  31.857  28.860  1.00  0.00     0.031 C 
ATOM     74  C   UNL A   1      46.302  31.715  28.265  1.00  0.00     0.037 A 
BRANCH  61  75
ATOM     75  C   UNL A   1      50.612  27.913  25.981  1.00  0.00     0.064 A 
ATOM     76  C   UNL A   1      51.591  27.647  26.950  1.00  0.00     0.173 A 
ATOM     77  C   UNL A   1      51.016  27.962  24.638  1.00  0.00     0.173 A 
ATOM     78  F   UNL A   1      51.263  27.615  28.251  1.00  0.00    -0.203 F 
ATOM     79  C   UNL A   1      52.925  27.466  26.591  1.00  0.00     0.198 A 
ATOM     80  C   UNL A   1      52.344  27.747  24.279  1.00  0.00     0.198 A 
ATOM     81  F   UNL A   1      50.121  28.217  23.672  1.00  0.00    -0.203 F 
ATOM     82  F   UNL A   1      53.852  27.270  27.539  1.00  0.00    -0.200 F 
ATOM     83  C   UNL A   1      53.297  27.508  25.256  1.00  0.00     0.200 A 
ATOM     84  F   UNL A   1      52.701  27.778  22.988  1.00  0.00    -0.200 F 
ATOM     85  F   UNL A   1      54.580  27.329  24.912  1.00  0.00    -0.200 F 
ENDBRANCH  61  75
BRANCH  62  86
ATOM     86  C   UNL A   1      40.940  28.883  28.381  1.00  0.00     0.064 A 
ATOM     87  C   UNL A   1      40.521  28.709  29.707  1.00  0.00     0.173 A 
ATOM     88  C   UNL A   1      39.960  29.181  27.423  1.00  0.00     0.173 A 
ATOM     89  F   UNL A   1      41.414  28.396  30.657  1.00  0.00    -0.203 F 
ATOM     90  C   UNL A   1      39.175  28.809  30.057  1.00  0.00     0.198 A 
ATOM     91  C   UNL A   1      38.619  29.310  27.777  1.00  0.00     0.198 A 
ATOM     92  F   UNL A   1      40.306  29.350  26.138  1.00  0.00    -0.203 F 
ATOM     93  F   UNL A   1      38.795  28.589  31.323  1.00  0.00    -0.200 F 
ATOM     94  C   UNL A   1      38.227  29.116  29.093  1.00  0.00     0.200 A 
ATOM     95  F   UNL A   1      37.708  29.616  26.845  1.00  0.00    -0.200 F 
ATOM     96  F   UNL A   1      36.933  29.213  29.429  1.00  0.00    -0.200 F 
ENDBRANCH  62  86
BRANCH  74  97
ATOM     97  C   UNL A   1      46.458  33.139  28.720  1.00  0.00     0.064 A 
ATOM     98  C   UNL A   1      46.812  33.460  30.038  1.00  0.00     0.173 A 
ATOM     99  C   UNL A   1      46.291  34.195  27.810  1.00  0.00     0.173 A 
ATOM    100  F   UNL A   1      46.973  32.489  30.950  1.00  0.00    -0.203 F 
ATOM    101  C   UNL A   1      46.962  34.786  30.436  1.00  0.00     0.198 A 
ATOM    102  C   UNL A   1      46.476  35.517  28.202  1.00  0.00     0.198 A 
ATOM    103  F   UNL A   1      45.963  33.943  26.534  1.00  0.00    -0.203 F 
ATOM    104  F   UNL A   1      47.246  35.072  31.715  1.00  0.00    -0.200 F 
ATOM    105  C   UNL A   1      46.801  35.812  29.517  1.00  0.00     0.200 A 
ATOM    106  F   UNL A   1      46.340  36.505  27.307  1.00  0.00    -0.200 F 
ATOM    107  F   UNL A   1      46.953  37.087  29.900  1.00  0.00    -0.200 F 
ENDBRANCH  74  97
ENDBRANCH  48  49
ENDBRANCH  41  43
ENDBRANCH  40  41
ENDBRANCH  39  40
ENDBRANCH  38  39
ENDBRANCH  37  38
ENDBRANCH  36  37
ENDBRANCH  35  36
ENDBRANCH  34  35
ENDBRANCH   1  34
TORSDOF 26
ENDMDL
