MODEL 1
REMARK VINA RESULT:      -7.9      0.000      0.000
REMARK SMILES C/C=C/c1cncc(-c2ccc([C@@H](C)C(=O)OCCOCCOCCOCCOC(=O)c3ccc(-c4c5nc(c(-c6c(F)c(F)c(F)c(F)c6F)c6ccc([nH]6)c(-c6c(F)c(F)c(F)c(F)c6F)c6nc(c(-c7c(F)c(F)c(F)c(F)c7F)c7ccc4[nH]7)C=C6)C=C5)cc3)cc2)c1
REMARK SMILES IDX 22 1 21 2 20 3 19 4 18 5 17 6 15 7 16 8 13 9 14 10 12 11
REMARK SMILES IDX 9 12 10 13 96 14 11 15 95 16 8 17 4 18 5 19 97 20 6 21 7 22
REMARK SMILES IDX 3 23 1 24 2 25 23 26 24 27 25 28 26 29 27 30 28 31 29 32
REMARK SMILES IDX 30 33 31 34 32 35 33 36 94 37 34 38 93 39 35 40 36 41 37 42
REMARK SMILES IDX 87 43 38 44 92 45 86 46 88 47 39 48 91 49 85 50 84 51 40 53
REMARK SMILES IDX 72 54 52 55 71 56 53 57 56 58 70 59 89 60 54 61 55 62 69 64
REMARK SMILES IDX 90 65 57 66 41 67 42 68 50 69 43 70 44 71 48 72 51 73 45 74
REMARK SMILES IDX 46 75 49 76 47 77 73 78 74 79 82 80 75 81 76 82 80 83 83 84
REMARK SMILES IDX 77 85 78 86 81 87 79 88 58 89 59 90 67 91 60 92 61 93 65 94
REMARK SMILES IDX 68 95 62 96 63 97 66 98 64 99
REMARK H PARENT 88 52 56 63
REMARK Flexibility Score: inf
ROOT
ATOM      1  C   UNL A   1      32.481  36.388  30.775  1.00  0.00     0.188 C 
ENDROOT
BRANCH   1   2
ATOM      2  C   UNL A   1      33.289  35.729  29.647  1.00  0.00     0.188 C 
BRANCH   2   3
ATOM      3  O   UNL A   1      32.785  34.592  28.964  1.00  0.00    -0.376 OA
BRANCH   3   4
ATOM      4  C   UNL A   1      33.666  33.642  28.382  1.00  0.00     0.202 C 
BRANCH   4   5
ATOM      5  C   UNL A   1      35.171  33.611  28.715  1.00  0.00     0.261 C 
BRANCH   5   6
ATOM      6  O   UNL A   1      35.987  32.653  28.009  1.00  0.00    -0.463 OA
BRANCH   6   7
ATOM      7  C   UNL A   1      36.906  31.989  28.747  1.00  0.00     0.313 C 
ATOM      8  O   UNL A   1      37.645  32.545  29.559  1.00  0.00    -0.252 OA
BRANCH   7   9
ATOM      9  C   UNL A   1      37.007  30.482  28.505  1.00  0.00     0.126 C 
ATOM     10  C   UNL A   1      35.996  29.786  29.409  1.00  0.00     0.025 C 
BRANCH   9  11
ATOM     11  C   UNL A   1      38.356  29.758  28.522  1.00  0.00    -0.034 A 
ATOM     12  C   UNL A   1      40.897  28.431  28.424  1.00  0.00    -0.017 A 
ATOM     13  C   UNL A   1      40.290  28.778  29.644  1.00  0.00     0.009 A 
ATOM     14  C   UNL A   1      40.209  28.754  27.249  1.00  0.00     0.009 A 
ATOM     15  C   UNL A   1      39.042  29.427  29.696  1.00  0.00     0.005 A 
ATOM     16  C   UNL A   1      38.957  29.390  27.298  1.00  0.00     0.005 A 
BRANCH  12  17
ATOM     17  C   UNL A   1      42.181  27.705  28.390  1.00  0.00     0.001 A 
ATOM     18  C   UNL A   1      44.228  26.961  27.286  1.00  0.00    -0.007 A 
ATOM     19  C   UNL A   1      44.562  26.315  28.473  1.00  0.00     0.119 A 
ATOM     20  C   UNL A   1      43.004  27.650  27.252  1.00  0.00     0.020 A 
ATOM     21  N   UNL A   1      43.803  26.331  29.591  1.00  0.00    -0.263 NA
ATOM     22  C   UNL A   1      42.641  27.024  29.519  1.00  0.00     0.119 A 
BRANCH  18  23
ATOM     23  C   UNL A   1      45.147  26.871  26.145  1.00  0.00     0.005 C 
ATOM     24  C   UNL A   1      46.745  27.837  24.477  1.00  0.00     0.035 C 
ATOM     25  C   UNL A   1      45.744  27.934  25.583  1.00  0.00    -0.030 C 
ENDBRANCH  18  23
ENDBRANCH  12  17
ENDBRANCH   9  11
ENDBRANCH   7   9
ENDBRANCH   6   7
ENDBRANCH   5   6
ENDBRANCH   4   5
ENDBRANCH   3   4
ENDBRANCH   2   3
ENDBRANCH   1   2
BRANCH   1  26
ATOM     26  O   UNL A   1      33.135  36.445  32.026  1.00  0.00    -0.377 OA
BRANCH  26  27
ATOM     27  C   UNL A   1      33.677  35.233  32.524  1.00  0.00     0.188 C 
BRANCH  27  28
ATOM     28  C   UNL A   1      35.157  35.232  32.948  1.00  0.00     0.188 C 
BRANCH  28  29
ATOM     29  O   UNL A   1      35.954  34.270  32.270  1.00  0.00    -0.376 OA
BRANCH  29  30
ATOM     30  C   UNL A   1      37.275  34.027  32.731  1.00  0.00     0.202 C 
BRANCH  30  31
ATOM     31  C   UNL A   1      37.487  33.738  34.227  1.00  0.00     0.261 C 
BRANCH  31  32
ATOM     32  O   UNL A   1      37.009  32.477  34.724  1.00  0.00    -0.460 OA
BRANCH  32  33
ATOM     33  C   UNL A   1      37.732  31.839  35.664  1.00  0.00     0.338 C 
ATOM     34  O   UNL A   1      37.435  31.679  36.837  1.00  0.00    -0.246 OA
BRANCH  33  35
ATOM     35  C   UNL A   1      38.877  31.182  34.991  1.00  0.00     0.060 A 
ATOM     36  C   UNL A   1      40.177  31.478  35.423  1.00  0.00     0.016 A 
ATOM     37  C   UNL A   1      38.671  30.274  33.951  1.00  0.00     0.016 A 
ATOM     38  C   UNL A   1      41.277  30.887  34.798  1.00  0.00     0.010 A 
ATOM     39  C   UNL A   1      39.776  29.704  33.306  1.00  0.00     0.010 A 
ATOM     40  C   UNL A   1      41.085  30.028  33.709  1.00  0.00    -0.014 A 
BRANCH  40  41
ATOM     41  C   UNL A   1      42.245  29.609  32.883  1.00  0.00     0.031 A 
ATOM     42  C   UNL A   1      43.014  28.384  33.294  1.00  0.00     0.074 A 
ATOM     43  C   UNL A   1      42.605  30.290  31.781  1.00  0.00     0.049 A 
ATOM     44  N   UNL A   1      44.098  27.863  32.776  1.00  0.00    -0.248 NA
ATOM     45  C   UNL A   1      42.485  27.642  34.450  1.00  0.00     0.031 C 
ATOM     46  C   UNL A   1      41.914  31.460  31.248  1.00  0.00     0.029 A 
ATOM     47  N   UNL A   1      43.657  30.097  30.918  1.00  0.00    -0.354 N 
ATOM     48  C   UNL A   1      44.384  26.744  33.546  1.00  0.00     0.074 A 
ATOM     49  C   UNL A   1      43.379  26.674  34.584  1.00  0.00     0.031 C 
ATOM     50  C   UNL A   1      42.571  31.894  30.158  1.00  0.00     0.029 A 
ATOM     51  C   UNL A   1      43.750  31.056  29.940  1.00  0.00     0.049 A 
ATOM     52  H   UNL A   1      44.285  29.342  30.994  1.00  0.00     0.167 HD
ATOM     53  C   UNL A   1      45.391  25.851  33.396  1.00  0.00     0.037 A 
ATOM     54  C   UNL A   1      44.696  31.251  29.000  1.00  0.00     0.037 A 
ATOM     55  C   UNL A   1      46.395  25.928  32.367  1.00  0.00     0.049 A 
ATOM     56  C   UNL A   1      45.863  30.298  28.914  1.00  0.00     0.074 A 
ATOM     57  C   UNL A   1      47.447  25.063  32.121  1.00  0.00     0.029 A 
ATOM     58  N   UNL A   1      46.481  26.938  31.421  1.00  0.00    -0.354 N 
ATOM     59  N   UNL A   1      46.114  29.225  29.626  1.00  0.00    -0.248 NA
ATOM     60  C   UNL A   1      46.880  30.585  27.891  1.00  0.00     0.031 C 
ATOM     61  C   UNL A   1      48.207  25.586  31.070  1.00  0.00     0.029 A 
ATOM     62  C   UNL A   1      47.589  26.739  30.613  1.00  0.00     0.049 A 
ATOM     63  H   UNL A   1      45.847  27.687  31.335  1.00  0.00     0.167 HD
ATOM     64  C   UNL A   1      47.296  28.696  29.121  1.00  0.00     0.074 A 
ATOM     65  C   UNL A   1      47.704  29.555  28.030  1.00  0.00     0.031 C 
ATOM     66  C   UNL A   1      47.983  27.599  29.526  1.00  0.00     0.037 A 
BRANCH  53  67
ATOM     67  C   UNL A   1      45.481  24.731  34.393  1.00  0.00     0.064 A 
ATOM     68  C   UNL A   1      46.097  24.899  35.643  1.00  0.00     0.173 A 
ATOM     69  C   UNL A   1      44.911  23.481  34.106  1.00  0.00     0.173 A 
ATOM     70  F   UNL A   1      46.670  26.070  35.962  1.00  0.00    -0.203 F 
ATOM     71  C   UNL A   1      46.165  23.848  36.555  1.00  0.00     0.198 A 
ATOM     72  C   UNL A   1      44.951  22.444  35.035  1.00  0.00     0.198 A 
ATOM     73  F   UNL A   1      44.306  23.266  32.929  1.00  0.00    -0.203 F 
ATOM     74  F   UNL A   1      46.805  24.017  37.720  1.00  0.00    -0.200 F 
ATOM     75  C   UNL A   1      45.585  22.625  36.254  1.00  0.00     0.200 A 
ATOM     76  F   UNL A   1      44.377  21.267  34.747  1.00  0.00    -0.200 F 
ATOM     77  F   UNL A   1      45.644  21.618  37.136  1.00  0.00    -0.200 F 
ENDBRANCH  53  67
BRANCH  54  78
ATOM     78  C   UNL A   1      44.600  32.412  28.073  1.00  0.00     0.064 A 
ATOM     79  C   UNL A   1      44.975  33.699  28.482  1.00  0.00     0.173 A 
ATOM     80  C   UNL A   1      44.101  32.263  26.770  1.00  0.00     0.173 A 
ATOM     81  F   UNL A   1      45.429  33.900  29.728  1.00  0.00    -0.203 F 
ATOM     82  C   UNL A   1      44.836  34.796  27.632  1.00  0.00     0.198 A 
ATOM     83  C   UNL A   1      43.994  33.354  25.909  1.00  0.00     0.198 A 
ATOM     84  F   UNL A   1      43.723  31.055  26.329  1.00  0.00    -0.203 F 
ATOM     85  F   UNL A   1      45.149  36.023  28.068  1.00  0.00    -0.200 F 
ATOM     86  C   UNL A   1      44.351  34.621  26.344  1.00  0.00     0.200 A 
ATOM     87  F   UNL A   1      43.538  33.178  24.662  1.00  0.00    -0.200 F 
ATOM     88  F   UNL A   1      44.220  35.674  25.526  1.00  0.00    -0.200 F 
ENDBRANCH  54  78
BRANCH  66  89
ATOM     89  C   UNL A   1      49.228  27.237  28.764  1.00  0.00     0.064 A 
ATOM     90  C   UNL A   1      49.188  26.408  27.632  1.00  0.00     0.173 A 
ATOM     91  C   UNL A   1      50.472  27.766  29.142  1.00  0.00     0.173 A 
ATOM     92  F   UNL A   1      48.027  25.865  27.233  1.00  0.00    -0.203 F 
ATOM     93  C   UNL A   1      50.349  26.102  26.926  1.00  0.00     0.198 A 
ATOM     94  C   UNL A   1      51.625  27.487  28.413  1.00  0.00     0.198 A 
ATOM     95  F   UNL A   1      50.568  28.572  30.210  1.00  0.00    -0.203 F 
ATOM     96  F   UNL A   1      50.293  25.265  25.879  1.00  0.00    -0.200 F 
ATOM     97  C   UNL A   1      51.564  26.648  27.311  1.00  0.00     0.200 A 
ATOM     98  F   UNL A   1      52.794  28.031  28.777  1.00  0.00    -0.200 F 
ATOM     99  F   UNL A   1      52.678  26.360  26.624  1.00  0.00    -0.200 F 
ENDBRANCH  66  89
ENDBRANCH  40  41
ENDBRANCH  33  35
ENDBRANCH  32  33
ENDBRANCH  31  32
ENDBRANCH  30  31
ENDBRANCH  29  30
ENDBRANCH  28  29
ENDBRANCH  27  28
ENDBRANCH  26  27
ENDBRANCH   1  26
TORSDOF 23
ENDMDL
MODEL 2
REMARK VINA RESULT:      -7.3      1.285      2.289
REMARK SMILES C/C=C/c1cncc(-c2ccc([C@@H](C)C(=O)OCCOCCOCCOCCOC(=O)c3ccc(-c4c5nc(c(-c6c(F)c(F)c(F)c(F)c6F)c6ccc([nH]6)c(-c6c(F)c(F)c(F)c(F)c6F)c6nc(c(-c7c(F)c(F)c(F)c(F)c7F)c7ccc4[nH]7)C=C6)C=C5)cc3)cc2)c1
REMARK SMILES IDX 22 1 21 2 20 3 19 4 18 5 17 6 15 7 16 8 13 9 14 10 12 11
REMARK SMILES IDX 9 12 10 13 96 14 11 15 95 16 8 17 4 18 5 19 97 20 6 21 7 22
REMARK SMILES IDX 3 23 1 24 2 25 23 26 24 27 25 28 26 29 27 30 28 31 29 32
REMARK SMILES IDX 30 33 31 34 32 35 33 36 94 37 34 38 93 39 35 40 36 41 37 42
REMARK SMILES IDX 87 43 38 44 92 45 86 46 88 47 39 48 91 49 85 50 84 51 40 53
REMARK SMILES IDX 72 54 52 55 71 56 53 57 56 58 70 59 89 60 54 61 55 62 69 64
REMARK SMILES IDX 90 65 57 66 41 67 42 68 50 69 43 70 44 71 48 72 51 73 45 74
REMARK SMILES IDX 46 75 49 76 47 77 73 78 74 79 82 80 75 81 76 82 80 83 83 84
REMARK SMILES IDX 77 85 78 86 81 87 79 88 58 89 59 90 67 91 60 92 61 93 65 94
REMARK SMILES IDX 68 95 62 96 63 97 66 98 64 99
REMARK H PARENT 88 52 56 63
REMARK Flexibility Score: inf
ROOT
ATOM      1  C   UNL A   1      32.559  36.346  31.066  1.00  0.00     0.188 C 
ENDROOT
BRANCH   1   2
ATOM      2  C   UNL A   1      33.356  35.536  30.033  1.00  0.00     0.188 C 
BRANCH   2   3
ATOM      3  O   UNL A   1      32.692  34.856  28.978  1.00  0.00    -0.376 OA
BRANCH   3   4
ATOM      4  C   UNL A   1      33.411  34.020  28.084  1.00  0.00     0.202 C 
BRANCH   4   5
ATOM      5  C   UNL A   1      34.948  34.072  27.972  1.00  0.00     0.261 C 
BRANCH   5   6
ATOM      6  O   UNL A   1      35.636  32.833  27.700  1.00  0.00    -0.463 OA
BRANCH   6   7
ATOM      7  C   UNL A   1      36.601  32.478  28.579  1.00  0.00     0.313 C 
ATOM      8  O   UNL A   1      37.574  33.187  28.832  1.00  0.00    -0.252 OA
BRANCH   7   9
ATOM      9  C   UNL A   1      36.441  31.110  29.244  1.00  0.00     0.126 C 
ATOM     10  C   UNL A   1      36.145  31.331  30.723  1.00  0.00     0.025 C 
BRANCH   9  11
ATOM     11  C   UNL A   1      37.475  29.998  29.047  1.00  0.00    -0.034 A 
ATOM     12  C   UNL A   1      39.362  27.853  28.787  1.00  0.00    -0.017 A 
ATOM     13  C   UNL A   1      39.108  28.749  27.732  1.00  0.00     0.009 A 
ATOM     14  C   UNL A   1      38.658  28.052  29.980  1.00  0.00     0.009 A 
ATOM     15  C   UNL A   1      38.185  29.804  27.858  1.00  0.00     0.005 A 
ATOM     16  C   UNL A   1      37.745  29.111  30.112  1.00  0.00     0.005 A 
BRANCH  12  17
ATOM     17  C   UNL A   1      40.371  26.786  28.655  1.00  0.00     0.001 A 
ATOM     18  C   UNL A   1      41.056  24.490  28.183  1.00  0.00    -0.007 A 
ATOM     19  C   UNL A   1      42.364  24.891  28.436  1.00  0.00     0.119 A 
ATOM     20  C   UNL A   1      40.048  25.460  28.316  1.00  0.00     0.020 A 
ATOM     21  N   UNL A   1      42.725  26.149  28.774  1.00  0.00    -0.263 NA
ATOM     22  C   UNL A   1      41.723  27.057  28.870  1.00  0.00     0.119 A 
BRANCH  18  23
ATOM     23  C   UNL A   1      40.799  23.091  27.819  1.00  0.00     0.005 C 
ATOM     24  C   UNL A   1      39.911  21.297  26.313  1.00  0.00     0.035 C 
ATOM     25  C   UNL A   1      40.101  22.720  26.733  1.00  0.00    -0.030 C 
ENDBRANCH  18  23
ENDBRANCH  12  17
ENDBRANCH   9  11
ENDBRANCH   7   9
ENDBRANCH   6   7
ENDBRANCH   5   6
ENDBRANCH   4   5
ENDBRANCH   3   4
ENDBRANCH   2   3
ENDBRANCH   1   2
BRANCH   1  26
ATOM     26  O   UNL A   1      32.990  36.198  32.403  1.00  0.00    -0.377 OA
BRANCH  26  27
ATOM     27  C   UNL A   1      33.752  35.042  32.710  1.00  0.00     0.188 C 
BRANCH  27  28
ATOM     28  C   UNL A   1      35.206  35.246  33.175  1.00  0.00     0.188 C 
BRANCH  28  29
ATOM     29  O   UNL A   1      36.164  34.519  32.418  1.00  0.00    -0.376 OA
BRANCH  29  30
ATOM     30  C   UNL A   1      37.500  34.446  32.893  1.00  0.00     0.202 C 
BRANCH  30  31
ATOM     31  C   UNL A   1      37.741  33.941  34.327  1.00  0.00     0.261 C 
BRANCH  31  32
ATOM     32  O   UNL A   1      37.152  32.678  34.683  1.00  0.00    -0.460 OA
BRANCH  32  33
ATOM     33  C   UNL A   1      37.777  31.912  35.597  1.00  0.00     0.338 C 
ATOM     34  O   UNL A   1      37.395  31.657  36.728  1.00  0.00    -0.246 OA
BRANCH  33  35
ATOM     35  C   UNL A   1      38.926  31.255  34.932  1.00  0.00     0.060 A 
ATOM     36  C   UNL A   1      40.212  31.446  35.457  1.00  0.00     0.016 A 
ATOM     37  C   UNL A   1      38.739  30.449  33.807  1.00  0.00     0.016 A 
ATOM     38  C   UNL A   1      41.317  30.853  34.844  1.00  0.00     0.010 A 
ATOM     39  C   UNL A   1      39.852  29.879  33.176  1.00  0.00     0.010 A 
ATOM     40  C   UNL A   1      41.149  30.100  33.676  1.00  0.00    -0.014 A 
BRANCH  40  41
ATOM     41  C   UNL A   1      42.334  29.693  32.880  1.00  0.00     0.031 A 
ATOM     42  C   UNL A   1      43.077  28.449  33.283  1.00  0.00     0.074 A 
ATOM     43  C   UNL A   1      42.740  30.401  31.811  1.00  0.00     0.049 A 
ATOM     44  N   UNL A   1      44.174  27.932  32.790  1.00  0.00    -0.248 NA
ATOM     45  C   UNL A   1      42.499  27.681  34.399  1.00  0.00     0.031 C 
ATOM     46  C   UNL A   1      42.079  31.592  31.287  1.00  0.00     0.029 A 
ATOM     47  N   UNL A   1      43.821  30.221  30.982  1.00  0.00    -0.354 N 
ATOM     48  C   UNL A   1      44.422  26.789  33.538  1.00  0.00     0.074 A 
ATOM     49  C   UNL A   1      43.379  26.700  34.537  1.00  0.00     0.031 C 
ATOM     50  C   UNL A   1      42.779  32.049  30.234  1.00  0.00     0.029 A 
ATOM     51  C   UNL A   1      43.957  31.206  30.035  1.00  0.00     0.049 A 
ATOM     52  H   UNL A   1      44.438  29.458  31.059  1.00  0.00     0.167 HD
ATOM     53  C   UNL A   1      45.425  25.890  33.399  1.00  0.00     0.037 A 
ATOM     54  C   UNL A   1      44.938  31.418  29.135  1.00  0.00     0.037 A 
ATOM     55  C   UNL A   1      46.466  25.986  32.409  1.00  0.00     0.049 A 
ATOM     56  C   UNL A   1      46.099  30.456  29.064  1.00  0.00     0.074 A 
ATOM     57  C   UNL A   1      47.518  25.117  32.177  1.00  0.00     0.029 A 
ATOM     58  N   UNL A   1      46.595  27.021  31.495  1.00  0.00    -0.354 N 
ATOM     59  N   UNL A   1      46.314  29.361  29.754  1.00  0.00    -0.248 NA
ATOM     60  C   UNL A   1      47.155  30.760  28.087  1.00  0.00     0.031 C 
ATOM     61  C   UNL A   1      48.320  25.661  31.168  1.00  0.00     0.029 A 
ATOM     62  C   UNL A   1      47.730  26.833  30.723  1.00  0.00     0.049 A 
ATOM     63  H   UNL A   1      45.972  27.779  31.408  1.00  0.00     0.167 HD
ATOM     64  C   UNL A   1      47.508  28.834  29.277  1.00  0.00     0.074 A 
ATOM     65  C   UNL A   1      47.963  29.719  28.226  1.00  0.00     0.031 C 
ATOM     66  C   UNL A   1      48.171  27.719  29.675  1.00  0.00     0.037 A 
BRANCH  53  67
ATOM     67  C   UNL A   1      45.468  24.742  34.366  1.00  0.00     0.064 A 
ATOM     68  C   UNL A   1      44.870  23.506  34.077  1.00  0.00     0.173 A 
ATOM     69  C   UNL A   1      46.149  24.870  35.587  1.00  0.00     0.173 A 
ATOM     70  F   UNL A   1      44.195  23.334  32.930  1.00  0.00    -0.203 F 
ATOM     71  C   UNL A   1      44.925  22.452  34.986  1.00  0.00     0.198 A 
ATOM     72  C   UNL A   1      46.231  23.803  36.478  1.00  0.00     0.198 A 
ATOM     73  F   UNL A   1      46.742  26.027  35.913  1.00  0.00    -0.203 F 
ATOM     74  F   UNL A   1      44.301  21.299  34.711  1.00  0.00    -0.200 F 
ATOM     75  C   UNL A   1      45.613  22.599  36.182  1.00  0.00     0.200 A 
ATOM     76  F   UNL A   1      46.909  23.943  37.626  1.00  0.00    -0.200 F 
ATOM     77  F   UNL A   1      45.672  21.581  37.052  1.00  0.00    -0.200 F 
ENDBRANCH  53  67
BRANCH  54  78
ATOM     78  C   UNL A   1      44.887  32.605  28.239  1.00  0.00     0.064 A 
ATOM     79  C   UNL A   1      45.438  33.833  28.628  1.00  0.00     0.173 A 
ATOM     80  C   UNL A   1      44.255  32.544  26.987  1.00  0.00     0.173 A 
ATOM     81  F   UNL A   1      46.027  33.952  29.828  1.00  0.00    -0.203 F 
ATOM     82  C   UNL A   1      45.344  34.959  27.812  1.00  0.00     0.198 A 
ATOM     83  C   UNL A   1      44.191  33.662  26.156  1.00  0.00     0.198 A 
ATOM     84  F   UNL A   1      43.705  31.396  26.567  1.00  0.00    -0.203 F 
ATOM     85  F   UNL A   1      45.831  36.133  28.234  1.00  0.00    -0.200 F 
ATOM     86  C   UNL A   1      44.725  34.871  26.574  1.00  0.00     0.200 A 
ATOM     87  F   UNL A   1      43.604  33.568  24.956  1.00  0.00    -0.200 F 
ATOM     88  F   UNL A   1      44.637  35.952  25.788  1.00  0.00    -0.200 F 
ENDBRANCH  54  78
BRANCH  66  89
ATOM     89  C   UNL A   1      49.439  27.365  28.948  1.00  0.00     0.064 A 
ATOM     90  C   UNL A   1      50.702  27.679  29.469  1.00  0.00     0.173 A 
ATOM     91  C   UNL A   1      49.390  26.659  27.735  1.00  0.00     0.173 A 
ATOM     92  F   UNL A   1      50.808  28.364  30.619  1.00  0.00    -0.203 F 
ATOM     93  C   UNL A   1      51.867  27.324  28.792  1.00  0.00     0.198 A 
ATOM     94  C   UNL A   1      50.556  26.274  27.078  1.00  0.00     0.198 A 
ATOM     95  F   UNL A   1      48.208  26.324  27.194  1.00  0.00    -0.203 F 
ATOM     96  F   UNL A   1      53.062  27.681  29.285  1.00  0.00    -0.200 F 
ATOM     97  C   UNL A   1      51.793  26.615  27.603  1.00  0.00     0.200 A 
ATOM     98  F   UNL A   1      50.481  25.573  25.940  1.00  0.00    -0.200 F 
ATOM     99  F   UNL A   1      52.915  26.265  26.959  1.00  0.00    -0.200 F 
ENDBRANCH  66  89
ENDBRANCH  40  41
ENDBRANCH  33  35
ENDBRANCH  32  33
ENDBRANCH  31  32
ENDBRANCH  30  31
ENDBRANCH  29  30
ENDBRANCH  28  29
ENDBRANCH  27  28
ENDBRANCH  26  27
ENDBRANCH   1  26
TORSDOF 23
ENDMDL
MODEL 3
REMARK VINA RESULT:      -7.0      6.022     11.295
REMARK SMILES C/C=C/c1cncc(-c2ccc([C@@H](C)C(=O)OCCOCCOCCOCCOC(=O)c3ccc(-c4c5nc(c(-c6c(F)c(F)c(F)c(F)c6F)c6ccc([nH]6)c(-c6c(F)c(F)c(F)c(F)c6F)c6nc(c(-c7c(F)c(F)c(F)c(F)c7F)c7ccc4[nH]7)C=C6)C=C5)cc3)cc2)c1
REMARK SMILES IDX 22 1 21 2 20 3 19 4 18 5 17 6 15 7 16 8 13 9 14 10 12 11
REMARK SMILES IDX 9 12 10 13 96 14 11 15 95 16 8 17 4 18 5 19 97 20 6 21 7 22
REMARK SMILES IDX 3 23 1 24 2 25 23 26 24 27 25 28 26 29 27 30 28 31 29 32
REMARK SMILES IDX 30 33 31 34 32 35 33 36 94 37 34 38 93 39 35 40 36 41 37 42
REMARK SMILES IDX 87 43 38 44 92 45 86 46 88 47 39 48 91 49 85 50 84 51 40 53
REMARK SMILES IDX 72 54 52 55 71 56 53 57 56 58 70 59 89 60 54 61 55 62 69 64
REMARK SMILES IDX 90 65 57 66 41 67 42 68 50 69 43 70 44 71 48 72 51 73 45 74
REMARK SMILES IDX 46 75 49 76 47 77 73 78 74 79 82 80 75 81 76 82 80 83 83 84
REMARK SMILES IDX 77 85 78 86 81 87 79 88 58 89 59 90 67 91 60 92 61 93 65 94
REMARK SMILES IDX 68 95 62 96 63 97 66 98 64 99
REMARK H PARENT 88 52 56 63
REMARK Flexibility Score: inf
ROOT
ATOM      1  C   UNL A   1      36.188  21.347  25.628  1.00  0.00     0.188 C 
ENDROOT
BRANCH   1   2
ATOM      2  C   UNL A   1      35.195  20.570  24.753  1.00  0.00     0.188 C 
BRANCH   2   3
ATOM      3  O   UNL A   1      33.884  21.067  24.529  1.00  0.00    -0.376 OA
BRANCH   3   4
ATOM      4  C   UNL A   1      32.797  20.645  25.338  1.00  0.00     0.202 C 
BRANCH   4   5
ATOM      5  C   UNL A   1      31.863  21.649  26.043  1.00  0.00     0.261 C 
BRANCH   5   6
ATOM      6  O   UNL A   1      31.821  22.994  25.523  1.00  0.00    -0.463 OA
BRANCH   6   7
ATOM      7  C   UNL A   1      31.019  23.865  26.178  1.00  0.00     0.313 C 
ATOM      8  O   UNL A   1      30.400  23.570  27.200  1.00  0.00    -0.252 OA
BRANCH   7   9
ATOM      9  C   UNL A   1      30.890  25.260  25.565  1.00  0.00     0.126 C 
ATOM     10  C   UNL A   1      30.870  25.112  24.048  1.00  0.00     0.025 C 
BRANCH   9  11
ATOM     11  C   UNL A   1      31.802  26.412  25.996  1.00  0.00    -0.034 A 
ATOM     12  C   UNL A   1      33.422  28.598  26.904  1.00  0.00    -0.017 A 
ATOM     13  C   UNL A   1      33.924  27.617  26.030  1.00  0.00     0.009 A 
ATOM     14  C   UNL A   1      32.090  28.471  27.315  1.00  0.00     0.009 A 
ATOM     15  C   UNL A   1      33.131  26.545  25.581  1.00  0.00     0.005 A 
ATOM     16  C   UNL A   1      31.293  27.409  26.858  1.00  0.00     0.005 A 
BRANCH  12  17
ATOM     17  C   UNL A   1      34.252  29.743  27.324  1.00  0.00     0.001 A 
ATOM     18  C   UNL A   1      34.561  32.058  28.037  1.00  0.00    -0.007 A 
ATOM     19  C   UNL A   1      35.926  31.792  28.104  1.00  0.00     0.119 A 
ATOM     20  C   UNL A   1      33.722  31.011  27.620  1.00  0.00     0.020 A 
ATOM     21  N   UNL A   1      36.485  30.595  27.821  1.00  0.00    -0.263 NA
ATOM     22  C   UNL A   1      35.637  29.609  27.444  1.00  0.00     0.119 A 
BRANCH  18  23
ATOM     23  C   UNL A   1      34.080  33.402  28.377  1.00  0.00     0.005 C 
ATOM     24  C   UNL A   1      34.227  35.902  28.359  1.00  0.00     0.035 C 
ATOM     25  C   UNL A   1      34.753  34.528  28.091  1.00  0.00    -0.030 C 
ENDBRANCH  18  23
ENDBRANCH  12  17
ENDBRANCH   9  11
ENDBRANCH   7   9
ENDBRANCH   6   7
ENDBRANCH   5   6
ENDBRANCH   4   5
ENDBRANCH   3   4
ENDBRANCH   2   3
ENDBRANCH   1   2
BRANCH   1  26
ATOM     26  O   UNL A   1      37.550  21.156  25.304  1.00  0.00    -0.377 OA
BRANCH  26  27
ATOM     27  C   UNL A   1      38.475  22.088  25.836  1.00  0.00     0.188 C 
BRANCH  27  28
ATOM     28  C   UNL A   1      37.931  23.452  26.300  1.00  0.00     0.188 C 
BRANCH  28  29
ATOM     29  O   UNL A   1      38.861  24.520  26.179  1.00  0.00    -0.376 OA
BRANCH  29  30
ATOM     30  C   UNL A   1      40.003  24.533  27.022  1.00  0.00     0.202 C 
BRANCH  30  31
ATOM     31  C   UNL A   1      41.239  25.328  26.567  1.00  0.00     0.261 C 
BRANCH  31  32
ATOM     32  O   UNL A   1      42.232  24.616  25.808  1.00  0.00    -0.460 OA
BRANCH  32  33
ATOM     33  C   UNL A   1      43.286  24.090  26.460  1.00  0.00     0.338 C 
ATOM     34  O   UNL A   1      43.387  22.957  26.902  1.00  0.00    -0.246 OA
BRANCH  33  35
ATOM     35  C   UNL A   1      44.401  25.063  26.383  1.00  0.00     0.060 A 
ATOM     36  C   UNL A   1      45.076  25.414  27.559  1.00  0.00     0.016 A 
ATOM     37  C   UNL A   1      44.786  25.616  25.160  1.00  0.00     0.016 A 
ATOM     38  C   UNL A   1      46.121  26.339  27.521  1.00  0.00     0.010 A 
ATOM     39  C   UNL A   1      45.815  26.566  25.128  1.00  0.00     0.010 A 
ATOM     40  C   UNL A   1      46.470  26.952  26.312  1.00  0.00    -0.014 A 
BRANCH  40  41
ATOM     41  C   UNL A   1      47.390  28.117  26.309  1.00  0.00     0.031 A 
ATOM     42  C   UNL A   1      46.813  29.488  26.534  1.00  0.00     0.074 A 
ATOM     43  C   UNL A   1      48.713  27.967  26.127  1.00  0.00     0.049 A 
ATOM     44  N   UNL A   1      47.400  30.657  26.507  1.00  0.00    -0.248 NA
ATOM     45  C   UNL A   1      45.371  29.545  26.829  1.00  0.00     0.031 C 
ATOM     46  C   UNL A   1      49.402  26.692  25.951  1.00  0.00     0.029 A 
ATOM     47  N   UNL A   1      49.713  28.906  26.047  1.00  0.00    -0.354 N 
ATOM     48  C   UNL A   1      46.403  31.587  26.772  1.00  0.00     0.074 A 
ATOM     49  C   UNL A   1      45.167  30.850  26.929  1.00  0.00     0.031 C 
ATOM     50  C   UNL A   1      50.713  26.928  25.766  1.00  0.00     0.029 A 
ATOM     51  C   UNL A   1      50.947  28.372  25.770  1.00  0.00     0.049 A 
ATOM     52  H   UNL A   1      49.560  29.869  26.177  1.00  0.00     0.167 HD
ATOM     53  C   UNL A   1      46.509  32.932  26.882  1.00  0.00     0.037 A 
ATOM     54  C   UNL A   1      52.123  28.982  25.517  1.00  0.00     0.037 A 
ATOM     55  C   UNL A   1      47.739  33.662  26.717  1.00  0.00     0.049 A 
ATOM     56  C   UNL A   1      52.197  30.489  25.549  1.00  0.00     0.074 A 
ATOM     57  C   UNL A   1      47.955  35.025  26.826  1.00  0.00     0.029 A 
ATOM     58  N   UNL A   1      48.961  33.090  26.395  1.00  0.00    -0.354 N 
ATOM     59  N   UNL A   1      51.258  31.362  25.828  1.00  0.00    -0.248 NA
ATOM     60  C   UNL A   1      53.497  31.097  25.229  1.00  0.00     0.031 C 
ATOM     61  C   UNL A   1      49.290  35.284  26.503  1.00  0.00     0.029 A 
ATOM     62  C   UNL A   1      49.925  34.076  26.263  1.00  0.00     0.049 A 
ATOM     63  H   UNL A   1      49.120  32.126  26.277  1.00  0.00     0.167 HD
ATOM     64  C   UNL A   1      51.858  32.612  25.746  1.00  0.00     0.074 A 
ATOM     65  C   UNL A   1      53.247  32.386  25.409  1.00  0.00     0.031 C 
ATOM     66  C   UNL A   1      51.308  33.839  25.931  1.00  0.00     0.037 A 
BRANCH  53  67
ATOM     67  C   UNL A   1      45.254  33.708  27.159  1.00  0.00     0.064 A 
ATOM     68  C   UNL A   1      44.439  34.193  26.123  1.00  0.00     0.173 A 
ATOM     69  C   UNL A   1      44.842  33.942  28.480  1.00  0.00     0.173 A 
ATOM     70  F   UNL A   1      44.794  34.010  24.842  1.00  0.00    -0.203 F 
ATOM     71  C   UNL A   1      43.276  34.907  26.401  1.00  0.00     0.198 A 
ATOM     72  C   UNL A   1      43.660  34.626  28.753  1.00  0.00     0.198 A 
ATOM     73  F   UNL A   1      45.580  33.498  29.507  1.00  0.00    -0.203 F 
ATOM     74  F   UNL A   1      42.543  35.405  25.397  1.00  0.00    -0.200 F 
ATOM     75  C   UNL A   1      42.883  35.116  27.715  1.00  0.00     0.200 A 
ATOM     76  F   UNL A   1      43.276  34.814  30.023  1.00  0.00    -0.200 F 
ATOM     77  F   UNL A   1      41.759  35.796  27.980  1.00  0.00    -0.200 F 
ENDBRANCH  53  67
BRANCH  54  78
ATOM     78  C   UNL A   1      53.328  28.175  25.185  1.00  0.00     0.064 A 
ATOM     79  C   UNL A   1      54.167  27.675  26.190  1.00  0.00     0.173 A 
ATOM     80  C   UNL A   1      53.683  27.913  23.852  1.00  0.00     0.173 A 
ATOM     81  F   UNL A   1      53.889  27.922  27.478  1.00  0.00    -0.203 F 
ATOM     82  C   UNL A   1      55.324  26.963  25.877  1.00  0.00     0.198 A 
ATOM     83  C   UNL A   1      54.822  27.172  23.541  1.00  0.00     0.198 A 
ATOM     84  F   UNL A   1      52.919  28.372  22.851  1.00  0.00    -0.203 F 
ATOM     85  F   UNL A   1      56.137  26.546  26.856  1.00  0.00    -0.200 F 
ATOM     86  C   UNL A   1      55.647  26.707  24.553  1.00  0.00     0.200 A 
ATOM     87  F   UNL A   1      55.122  26.916  22.261  1.00  0.00    -0.200 F 
ATOM     88  F   UNL A   1      56.758  26.021  24.252  1.00  0.00    -0.200 F 
ENDBRANCH  54  78
BRANCH  66  89
ATOM     89  C   UNL A   1      52.214  35.033  25.813  1.00  0.00     0.064 A 
ATOM     90  C   UNL A   1      52.399  35.704  24.595  1.00  0.00     0.173 A 
ATOM     91  C   UNL A   1      52.868  35.544  26.946  1.00  0.00     0.173 A 
ATOM     92  F   UNL A   1      51.807  35.252  23.479  1.00  0.00    -0.203 F 
ATOM     93  C   UNL A   1      53.225  36.822  24.510  1.00  0.00     0.198 A 
ATOM     94  C   UNL A   1      53.665  36.683  26.864  1.00  0.00     0.198 A 
ATOM     95  F   UNL A   1      52.720  34.948  28.139  1.00  0.00    -0.203 F 
ATOM     96  F   UNL A   1      53.427  37.415  23.324  1.00  0.00    -0.200 F 
ATOM     97  C   UNL A   1      53.850  37.316  25.645  1.00  0.00     0.200 A 
ATOM     98  F   UNL A   1      54.252  37.168  27.966  1.00  0.00    -0.200 F 
ATOM     99  F   UNL A   1      54.635  38.398  25.563  1.00  0.00    -0.200 F 
ENDBRANCH  66  89
ENDBRANCH  40  41
ENDBRANCH  33  35
ENDBRANCH  32  33
ENDBRANCH  31  32
ENDBRANCH  30  31
ENDBRANCH  29  30
ENDBRANCH  28  29
ENDBRANCH  27  28
ENDBRANCH  26  27
ENDBRANCH   1  26
TORSDOF 23
ENDMDL
