MODEL 1
REMARK VINA RESULT:     -11.1      0.000      0.000
REMARK SMILES Cc1ccc([C@H](C)NC(=O)[C@H]2[C@@H]3CC[C@@H](C3)[C@@H]2C(=O)OCCOCCOCCOCCOC(=O)c2ccc(-c3c4nc(c(-c5c(F)c(F)c(F)c(F)c5F)c5ccc([nH]5)c(-c5c(F)c(F)c(F)c(F)c5F)c5nc(c(-c6c(F)c(F)c(F)c(F)c6F)c6ccc3[nH]6)C=C5)C=C4)cc2)cc1
REMARK SMILES IDX 25 1 24 2 23 3 22 4 21 5 20 6 18 7 19 8 17 9 11 10 12 11
REMARK SMILES IDX 13 12 16 13 15 14 14 15 9 16 8 17 10 19 6 20 7 21 5 22 1 23
REMARK SMILES IDX 2 24 3 25 99 26 4 27 98 28 26 29 27 30 28 31 29 32 30 33
REMARK SMILES IDX 31 34 32 35 33 36 34 37 35 38 36 39 97 40 37 41 96 42 38 43
REMARK SMILES IDX 39 44 40 45 90 46 41 47 95 48 89 49 91 50 42 51 94 52 88 53
REMARK SMILES IDX 87 54 43 56 75 57 55 58 74 59 56 60 59 61 73 62 92 63 57 64
REMARK SMILES IDX 58 65 72 67 93 68 60 69 44 70 45 71 53 72 46 73 47 74 51 75
REMARK SMILES IDX 54 76 48 77 49 78 52 79 50 80 76 81 77 82 85 83 78 84 79 85
REMARK SMILES IDX 83 86 86 87 80 88 81 89 84 90 82 91 61 92 62 93 70 94 63 95
REMARK SMILES IDX 64 96 68 97 71 98 65 99 66 100 69 101 67 102
REMARK H PARENT 8 18 91 55 59 66
REMARK Flexibility Score: inf
ROOT
ATOM      1  C   UNL A   1      31.405  31.599  26.499  1.00  0.00     0.188 C 
ENDROOT
BRANCH   1   2
ATOM      2  C   UNL A   1      32.223  30.353  26.089  1.00  0.00     0.188 C 
BRANCH   2   3
ATOM      3  O   UNL A   1      31.411  29.184  25.888  1.00  0.00    -0.376 OA
BRANCH   3   4
ATOM      4  C   UNL A   1      31.448  28.108  26.836  1.00  0.00     0.202 C 
BRANCH   4   5
ATOM      5  C   UNL A   1      30.799  26.806  26.384  1.00  0.00     0.261 C 
BRANCH   5   6
ATOM      6  O   UNL A   1      31.456  25.720  26.965  1.00  0.00    -0.463 OA
BRANCH   6   7
ATOM      7  C   UNL A   1      31.762  24.762  26.060  1.00  0.00     0.310 C 
ATOM      8  O   UNL A   1      31.027  23.890  25.621  1.00  0.00    -0.252 OA
BRANCH   7   9
ATOM      9  C   UNL A   1      33.210  24.838  25.758  1.00  0.00     0.115 C 
ATOM     10  C   UNL A   1      33.499  25.297  24.330  1.00  0.00     0.096 C 
ATOM     11  C   UNL A   1      34.768  24.455  24.030  1.00  0.00     0.002 C 
ATOM     12  C   UNL A   1      34.299  23.022  23.656  1.00  0.00     0.005 C 
ATOM     13  C   UNL A   1      35.364  24.176  25.423  1.00  0.00     0.009 C 
ATOM     14  C   UNL A   1      34.065  23.595  25.982  1.00  0.00     0.004 C 
ATOM     15  C   UNL A   1      33.839  22.442  25.009  1.00  0.00     0.005 C 
BRANCH  10  16
ATOM     16  C   UNL A   1      33.478  26.808  24.005  1.00  0.00     0.224 C 
ATOM     17  N   UNL A   1      33.039  27.341  22.812  1.00  0.00    -0.349 N 
ATOM     18  H   UNL A   1      33.650  27.984  22.385  1.00  0.00     0.164 HD
ATOM     19  O   UNL A   1      34.060  27.588  24.769  1.00  0.00    -0.275 OA
BRANCH  17  20
ATOM     20  C   UNL A   1      31.789  27.081  22.093  1.00  0.00     0.109 C 
ATOM     21  C   UNL A   1      31.455  25.595  22.174  1.00  0.00     0.036 C 
BRANCH  20  22
ATOM     22  C   UNL A   1      30.584  27.956  22.401  1.00  0.00    -0.026 A 
ATOM     23  C   UNL A   1      27.654  30.902  23.606  1.00  0.00     0.044 C 
ATOM     24  C   UNL A   1      28.561  29.841  23.048  1.00  0.00    -0.051 A 
ATOM     25  C   UNL A   1      29.654  30.227  22.271  1.00  0.00     0.004 A 
ATOM     26  C   UNL A   1      28.450  28.495  23.438  1.00  0.00     0.004 A 
ATOM     27  C   UNL A   1      30.643  29.297  21.951  1.00  0.00     0.006 A 
ATOM     28  C   UNL A   1      29.450  27.557  23.113  1.00  0.00     0.006 A 
ENDBRANCH  20  22
ENDBRANCH  17  20
ENDBRANCH  10  16
ENDBRANCH   7   9
ENDBRANCH   6   7
ENDBRANCH   5   6
ENDBRANCH   4   5
ENDBRANCH   3   4
ENDBRANCH   2   3
ENDBRANCH   1   2
BRANCH   1  29
ATOM     29  O   UNL A   1      31.947  32.716  27.191  1.00  0.00    -0.377 OA
BRANCH  29  30
ATOM     30  C   UNL A   1      33.285  32.717  27.658  1.00  0.00     0.188 C 
BRANCH  30  31
ATOM     31  C   UNL A   1      33.704  33.892  28.507  1.00  0.00     0.188 C 
BRANCH  31  32
ATOM     32  O   UNL A   1      34.764  33.441  29.344  1.00  0.00    -0.376 OA
BRANCH  32  33
ATOM     33  C   UNL A   1      34.425  33.373  30.723  1.00  0.00     0.202 C 
BRANCH  33  34
ATOM     34  C   UNL A   1      35.135  32.231  31.460  1.00  0.00     0.261 C 
BRANCH  34  35
ATOM     35  O   UNL A   1      36.387  31.963  30.792  1.00  0.00    -0.460 OA
BRANCH  35  36
ATOM     36  C   UNL A   1      36.585  30.662  30.435  1.00  0.00     0.338 C 
ATOM     37  O   UNL A   1      35.904  29.723  30.798  1.00  0.00    -0.246 OA
BRANCH  36  38
ATOM     38  C   UNL A   1      37.920  30.512  29.775  1.00  0.00     0.060 A 
ATOM     39  C   UNL A   1      38.160  29.416  28.937  1.00  0.00     0.016 A 
ATOM     40  C   UNL A   1      39.002  31.261  30.217  1.00  0.00     0.016 A 
ATOM     41  C   UNL A   1      39.480  29.008  28.646  1.00  0.00     0.010 A 
ATOM     42  C   UNL A   1      40.297  30.781  30.015  1.00  0.00     0.010 A 
ATOM     43  C   UNL A   1      40.584  29.645  29.232  1.00  0.00    -0.014 A 
BRANCH  43  44
ATOM     44  C   UNL A   1      41.972  29.036  29.171  1.00  0.00     0.031 A 
ATOM     45  C   UNL A   1      42.197  27.540  28.796  1.00  0.00     0.074 A 
ATOM     46  C   UNL A   1      42.962  29.846  28.694  1.00  0.00     0.049 A 
ATOM     47  N   UNL A   1      43.334  26.958  28.486  1.00  0.00    -0.248 NA
ATOM     48  C   UNL A   1      41.085  26.586  28.740  1.00  0.00     0.031 C 
ATOM     49  C   UNL A   1      43.034  29.976  27.258  1.00  0.00     0.029 A 
ATOM     50  N   UNL A   1      43.603  31.023  29.071  1.00  0.00    -0.354 N 
ATOM     51  C   UNL A   1      43.063  25.658  28.006  1.00  0.00     0.074 A 
ATOM     52  C   UNL A   1      41.640  25.507  28.186  1.00  0.00     0.031 C 
ATOM     53  C   UNL A   1      43.785  30.982  26.834  1.00  0.00     0.029 A 
ATOM     54  C   UNL A   1      44.262  31.628  28.006  1.00  0.00     0.049 A 
ATOM     55  H   UNL A   1      43.590  31.385  29.986  1.00  0.00     0.167 HD
ATOM     56  C   UNL A   1      43.965  24.845  27.347  1.00  0.00     0.037 A 
ATOM     57  C   UNL A   1      45.406  32.326  27.883  1.00  0.00     0.037 A 
ATOM     58  C   UNL A   1      45.204  25.556  26.949  1.00  0.00     0.049 A 
ATOM     59  C   UNL A   1      46.546  31.355  27.587  1.00  0.00     0.074 A 
ATOM     60  C   UNL A   1      45.880  25.600  25.741  1.00  0.00     0.029 A 
ATOM     61  N   UNL A   1      45.823  26.540  27.740  1.00  0.00    -0.354 N 
ATOM     62  N   UNL A   1      46.441  30.080  27.263  1.00  0.00    -0.248 NA
ATOM     63  C   UNL A   1      47.895  31.724  28.000  1.00  0.00     0.031 C 
ATOM     64  C   UNL A   1      46.917  26.547  25.833  1.00  0.00     0.029 A 
ATOM     65  C   UNL A   1      46.865  27.162  27.059  1.00  0.00     0.049 A 
ATOM     66  H   UNL A   1      45.554  26.762  28.660  1.00  0.00     0.167 HD
ATOM     67  C   UNL A   1      47.613  29.435  27.631  1.00  0.00     0.074 A 
ATOM     68  C   UNL A   1      48.468  30.517  28.104  1.00  0.00     0.031 C 
ATOM     69  C   UNL A   1      47.828  28.075  27.654  1.00  0.00     0.037 A 
BRANCH  56  70
ATOM     70  C   UNL A   1      43.627  23.409  26.749  1.00  0.00     0.064 A 
ATOM     71  C   UNL A   1      42.962  22.391  27.490  1.00  0.00     0.173 A 
ATOM     72  C   UNL A   1      43.908  22.984  25.430  1.00  0.00     0.173 A 
ATOM     73  F   UNL A   1      42.308  22.655  28.627  1.00  0.00    -0.203 F 
ATOM     74  C   UNL A   1      42.823  21.056  27.058  1.00  0.00     0.198 A 
ATOM     75  C   UNL A   1      43.781  21.646  24.990  1.00  0.00     0.198 A 
ATOM     76  F   UNL A   1      44.207  23.861  24.465  1.00  0.00    -0.203 F 
ATOM     77  F   UNL A   1      42.217  20.157  27.849  1.00  0.00    -0.200 F 
ATOM     78  C   UNL A   1      43.270  20.673  25.817  1.00  0.00     0.200 A 
ATOM     79  F   UNL A   1      44.130  21.321  23.736  1.00  0.00    -0.200 F 
ATOM     80  F   UNL A   1      43.129  19.408  25.396  1.00  0.00    -0.200 F 
ENDBRANCH  56  70
BRANCH  57  81
ATOM     81  C   UNL A   1      44.994  33.678  27.351  1.00  0.00     0.064 A 
ATOM     82  C   UNL A   1      44.449  33.914  26.072  1.00  0.00     0.173 A 
ATOM     83  C   UNL A   1      44.541  34.535  28.385  1.00  0.00     0.173 A 
ATOM     84  F   UNL A   1      44.816  33.158  25.029  1.00  0.00    -0.203 F 
ATOM     85  C   UNL A   1      43.385  34.823  25.894  1.00  0.00     0.198 A 
ATOM     86  C   UNL A   1      43.456  35.394  28.215  1.00  0.00     0.198 A 
ATOM     87  F   UNL A   1      45.009  34.359  29.632  1.00  0.00    -0.203 F 
ATOM     88  F   UNL A   1      42.787  34.945  24.698  1.00  0.00    -0.200 F 
ATOM     89  C   UNL A   1      42.858  35.516  26.976  1.00  0.00     0.200 A 
ATOM     90  F   UNL A   1      42.913  35.993  29.286  1.00  0.00    -0.200 F 
ATOM     91  F   UNL A   1      41.731  36.234  26.847  1.00  0.00    -0.200 F 
ENDBRANCH  57  81
BRANCH  69  92
ATOM     92  C   UNL A   1      49.092  27.417  28.195  1.00  0.00     0.064 A 
ATOM     93  C   UNL A   1      50.280  27.251  27.469  1.00  0.00     0.173 A 
ATOM     94  C   UNL A   1      49.100  26.851  29.495  1.00  0.00     0.173 A 
ATOM     95  F   UNL A   1      50.335  27.519  26.157  1.00  0.00    -0.203 F 
ATOM     96  C   UNL A   1      51.444  26.755  28.064  1.00  0.00     0.198 A 
ATOM     97  C   UNL A   1      50.236  26.271  30.055  1.00  0.00     0.198 A 
ATOM     98  F   UNL A   1      48.008  26.846  30.273  1.00  0.00    -0.203 F 
ATOM     99  F   UNL A   1      52.590  26.744  27.368  1.00  0.00    -0.200 F 
ATOM    100  C   UNL A   1      51.425  26.273  29.359  1.00  0.00     0.200 A 
ATOM    101  F   UNL A   1      50.173  25.726  31.278  1.00  0.00    -0.200 F 
ATOM    102  F   UNL A   1      52.540  25.794  29.925  1.00  0.00    -0.200 F 
ENDBRANCH  69  92
ENDBRANCH  43  44
ENDBRANCH  36  38
ENDBRANCH  35  36
ENDBRANCH  34  35
ENDBRANCH  33  34
ENDBRANCH  32  33
ENDBRANCH  31  32
ENDBRANCH  30  31
ENDBRANCH  29  30
ENDBRANCH   1  29
TORSDOF 23
ENDMDL
MODEL 2
REMARK VINA RESULT:     -11.0      5.411     10.687
REMARK SMILES Cc1ccc([C@H](C)NC(=O)[C@H]2[C@@H]3CC[C@@H](C3)[C@@H]2C(=O)OCCOCCOCCOCCOC(=O)c2ccc(-c3c4nc(c(-c5c(F)c(F)c(F)c(F)c5F)c5ccc([nH]5)c(-c5c(F)c(F)c(F)c(F)c5F)c5nc(c(-c6c(F)c(F)c(F)c(F)c6F)c6ccc3[nH]6)C=C5)C=C4)cc2)cc1
REMARK SMILES IDX 25 1 24 2 23 3 22 4 21 5 20 6 18 7 19 8 17 9 11 10 12 11
REMARK SMILES IDX 13 12 16 13 15 14 14 15 9 16 8 17 10 19 6 20 7 21 5 22 1 23
REMARK SMILES IDX 2 24 3 25 99 26 4 27 98 28 26 29 27 30 28 31 29 32 30 33
REMARK SMILES IDX 31 34 32 35 33 36 34 37 35 38 36 39 97 40 37 41 96 42 38 43
REMARK SMILES IDX 39 44 40 45 90 46 41 47 95 48 89 49 91 50 42 51 94 52 88 53
REMARK SMILES IDX 87 54 43 56 75 57 55 58 74 59 56 60 59 61 73 62 92 63 57 64
REMARK SMILES IDX 58 65 72 67 93 68 60 69 44 70 45 71 53 72 46 73 47 74 51 75
REMARK SMILES IDX 54 76 48 77 49 78 52 79 50 80 76 81 77 82 85 83 78 84 79 85
REMARK SMILES IDX 83 86 86 87 80 88 81 89 84 90 82 91 61 92 62 93 70 94 63 95
REMARK SMILES IDX 64 96 68 97 71 98 65 99 66 100 69 101 67 102
REMARK H PARENT 8 18 91 55 59 66
REMARK Flexibility Score: inf
ROOT
ATOM      1  C   UNL A   1      36.914  22.014  24.407  1.00  0.00     0.188 C 
ENDROOT
BRANCH   1   2
ATOM      2  C   UNL A   1      36.642  22.742  23.070  1.00  0.00     0.188 C 
BRANCH   2   3
ATOM      3  O   UNL A   1      35.243  22.946  22.812  1.00  0.00    -0.376 OA
BRANCH   3   4
ATOM      4  C   UNL A   1      34.584  24.126  23.292  1.00  0.00     0.202 C 
BRANCH   4   5
ATOM      5  C   UNL A   1      33.510  24.702  22.379  1.00  0.00     0.261 C 
BRANCH   5   6
ATOM      6  O   UNL A   1      33.703  26.075  22.224  1.00  0.00    -0.463 OA
BRANCH   6   7
ATOM      7  C   UNL A   1      32.618  26.792  22.600  1.00  0.00     0.310 C 
ATOM      8  O   UNL A   1      31.921  27.511  21.900  1.00  0.00    -0.252 OA
BRANCH   7   9
ATOM      9  C   UNL A   1      32.460  26.681  24.069  1.00  0.00     0.115 C 
ATOM     10  C   UNL A   1      31.037  26.972  24.541  1.00  0.00     0.096 C 
ATOM     11  C   UNL A   1      31.342  27.666  25.895  1.00  0.00     0.002 C 
ATOM     12  C   UNL A   1      31.723  29.141  25.588  1.00  0.00     0.005 C 
ATOM     13  C   UNL A   1      32.727  27.118  26.289  1.00  0.00     0.009 C 
ATOM     14  C   UNL A   1      33.379  27.509  24.962  1.00  0.00     0.004 C 
ATOM     15  C   UNL A   1      33.129  29.014  24.967  1.00  0.00     0.005 C 
BRANCH  10  16
ATOM     16  C   UNL A   1      29.975  25.851  24.467  1.00  0.00     0.224 C 
ATOM     17  N   UNL A   1      30.237  24.516  24.688  1.00  0.00    -0.349 N 
ATOM     18  H   UNL A   1      29.903  23.899  23.997  1.00  0.00     0.164 HD
ATOM     19  O   UNL A   1      28.861  26.118  23.999  1.00  0.00    -0.275 OA
BRANCH  17  20
ATOM     20  C   UNL A   1      30.944  23.890  25.807  1.00  0.00     0.109 C 
ATOM     21  C   UNL A   1      29.938  23.475  26.877  1.00  0.00     0.036 C 
BRANCH  20  22
ATOM     22  C   UNL A   1      31.942  22.784  25.502  1.00  0.00    -0.026 A 
ATOM     23  C   UNL A   1      34.179  19.190  24.609  1.00  0.00     0.044 C 
ATOM     24  C   UNL A   1      33.534  20.528  24.833  1.00  0.00    -0.051 A 
ATOM     25  C   UNL A   1      32.500  20.931  23.987  1.00  0.00     0.004 A 
ATOM     26  C   UNL A   1      33.812  21.300  25.975  1.00  0.00     0.004 A 
ATOM     27  C   UNL A   1      31.724  22.042  24.316  1.00  0.00     0.006 A 
ATOM     28  C   UNL A   1      33.027  22.422  26.306  1.00  0.00     0.006 A 
ENDBRANCH  20  22
ENDBRANCH  17  20
ENDBRANCH  10  16
ENDBRANCH   7   9
ENDBRANCH   6   7
ENDBRANCH   5   6
ENDBRANCH   4   5
ENDBRANCH   3   4
ENDBRANCH   2   3
ENDBRANCH   1   2
BRANCH   1  29
ATOM     29  O   UNL A   1      38.083  22.204  25.193  1.00  0.00    -0.377 OA
BRANCH  29  30
ATOM     30  C   UNL A   1      38.096  23.096  26.294  1.00  0.00     0.188 C 
BRANCH  30  31
ATOM     31  C   UNL A   1      39.339  23.931  26.474  1.00  0.00     0.188 C 
BRANCH  31  32
ATOM     32  O   UNL A   1      39.916  23.553  27.720  1.00  0.00    -0.376 OA
BRANCH  32  33
ATOM     33  C   UNL A   1      41.285  23.911  27.857  1.00  0.00     0.202 C 
BRANCH  33  34
ATOM     34  C   UNL A   1      42.019  23.999  26.513  1.00  0.00     0.261 C 
BRANCH  34  35
ATOM     35  O   UNL A   1      42.810  25.207  26.502  1.00  0.00    -0.460 OA
BRANCH  35  36
ATOM     36  C   UNL A   1      42.152  26.325  26.082  1.00  0.00     0.338 C 
ATOM     37  O   UNL A   1      41.713  26.503  24.963  1.00  0.00    -0.246 OA
BRANCH  36  38
ATOM     38  C   UNL A   1      42.301  27.416  27.097  1.00  0.00     0.060 A 
ATOM     39  C   UNL A   1      43.136  27.222  28.205  1.00  0.00     0.016 A 
ATOM     40  C   UNL A   1      41.403  28.474  27.117  1.00  0.00     0.016 A 
ATOM     41  C   UNL A   1      42.984  28.011  29.366  1.00  0.00     0.010 A 
ATOM     42  C   UNL A   1      41.188  29.170  28.308  1.00  0.00     0.010 A 
ATOM     43  C   UNL A   1      41.960  28.965  29.469  1.00  0.00    -0.014 A 
BRANCH  43  44
ATOM     44  C   UNL A   1      41.599  29.596  30.800  1.00  0.00     0.031 A 
ATOM     45  C   UNL A   1      42.688  30.148  31.769  1.00  0.00     0.074 A 
ATOM     46  C   UNL A   1      40.459  30.346  30.819  1.00  0.00     0.049 A 
ATOM     47  N   UNL A   1      42.504  30.912  32.824  1.00  0.00    -0.248 NA
ATOM     48  C   UNL A   1      44.111  29.854  31.575  1.00  0.00     0.031 C 
ATOM     49  C   UNL A   1      40.576  31.687  30.297  1.00  0.00     0.029 A 
ATOM     50  N   UNL A   1      39.091  30.147  30.655  1.00  0.00    -0.354 N 
ATOM     51  C   UNL A   1      43.761  31.355  33.288  1.00  0.00     0.074 A 
ATOM     52  C   UNL A   1      44.709  30.663  32.450  1.00  0.00     0.031 C 
ATOM     53  C   UNL A   1      39.420  32.281  30.043  1.00  0.00     0.029 A 
ATOM     54  C   UNL A   1      38.416  31.330  30.370  1.00  0.00     0.049 A 
ATOM     55  H   UNL A   1      38.651  29.269  30.731  1.00  0.00     0.167 HD
ATOM     56  C   UNL A   1      43.962  32.370  34.203  1.00  0.00     0.037 A 
ATOM     57  C   UNL A   1      37.205  31.821  30.688  1.00  0.00     0.037 A 
ATOM     58  C   UNL A   1      42.733  33.149  34.486  1.00  0.00     0.049 A 
ATOM     59  C   UNL A   1      37.317  32.604  31.993  1.00  0.00     0.074 A 
ATOM     60  C   UNL A   1      42.508  34.516  34.517  1.00  0.00     0.029 A 
ATOM     61  N   UNL A   1      41.451  32.576  34.569  1.00  0.00    -0.354 N 
ATOM     62  N   UNL A   1      38.426  32.965  32.611  1.00  0.00    -0.248 NA
ATOM     63  C   UNL A   1      36.137  32.705  32.845  1.00  0.00     0.031 C 
ATOM     64  C   UNL A   1      41.129  34.748  34.677  1.00  0.00     0.029 A 
ATOM     65  C   UNL A   1      40.462  33.548  34.673  1.00  0.00     0.049 A 
ATOM     66  H   UNL A   1      41.276  31.608  34.556  1.00  0.00     0.167 HD
ATOM     67  C   UNL A   1      38.146  33.122  33.962  1.00  0.00     0.074 A 
ATOM     68  C   UNL A   1      36.703  32.923  34.039  1.00  0.00     0.031 C 
ATOM     69  C   UNL A   1      39.062  33.292  34.975  1.00  0.00     0.037 A 
BRANCH  56  70
ATOM     70  C   UNL A   1      45.387  32.909  34.666  1.00  0.00     0.064 A 
ATOM     71  C   UNL A   1      46.099  32.378  35.779  1.00  0.00     0.173 A 
ATOM     72  C   UNL A   1      46.122  33.935  34.028  1.00  0.00     0.173 A 
ATOM     73  F   UNL A   1      45.776  31.204  36.332  1.00  0.00    -0.203 F 
ATOM     74  C   UNL A   1      47.262  32.957  36.327  1.00  0.00     0.198 A 
ATOM     75  C   UNL A   1      47.284  34.528  34.573  1.00  0.00     0.198 A 
ATOM     76  F   UNL A   1      45.823  34.336  32.787  1.00  0.00    -0.203 F 
ATOM     77  F   UNL A   1      47.838  32.405  37.406  1.00  0.00    -0.200 F 
ATOM     78  C   UNL A   1      47.836  34.060  35.744  1.00  0.00     0.200 A 
ATOM     79  F   UNL A   1      47.882  35.540  33.927  1.00  0.00    -0.200 F 
ATOM     80  F   UNL A   1      48.949  34.607  36.252  1.00  0.00    -0.200 F 
ENDBRANCH  56  70
BRANCH  57  81
ATOM     81  C   UNL A   1      36.506  32.046  29.368  1.00  0.00     0.064 A 
ATOM     82  C   UNL A   1      35.584  31.157  28.777  1.00  0.00     0.173 A 
ATOM     83  C   UNL A   1      36.285  33.424  29.117  1.00  0.00     0.173 A 
ATOM     84  F   UNL A   1      35.710  29.835  28.954  1.00  0.00    -0.203 F 
ATOM     85  C   UNL A   1      34.421  31.636  28.140  1.00  0.00     0.198 A 
ATOM     86  C   UNL A   1      35.109  33.893  28.533  1.00  0.00     0.198 A 
ATOM     87  F   UNL A   1      37.117  34.328  29.661  1.00  0.00    -0.203 F 
ATOM     88  F   UNL A   1      33.487  30.781  27.696  1.00  0.00    -0.200 F 
ATOM     89  C   UNL A   1      34.162  33.000  28.072  1.00  0.00     0.200 A 
ATOM     90  F   UNL A   1      34.843  35.207  28.546  1.00  0.00    -0.200 F 
ATOM     91  F   UNL A   1      32.975  33.450  27.638  1.00  0.00    -0.200 F 
ENDBRANCH  57  81
BRANCH  69  92
ATOM     92  C   UNL A   1      38.706  33.325  36.456  1.00  0.00     0.064 A 
ATOM     93  C   UNL A   1      38.130  32.260  37.163  1.00  0.00     0.173 A 
ATOM     94  C   UNL A   1      38.882  34.515  37.205  1.00  0.00     0.173 A 
ATOM     95  F   UNL A   1      37.688  31.164  36.530  1.00  0.00    -0.203 F 
ATOM     96  C   UNL A   1      37.945  32.308  38.548  1.00  0.00     0.198 A 
ATOM     97  C   UNL A   1      38.609  34.592  38.569  1.00  0.00     0.198 A 
ATOM     98  F   UNL A   1      39.332  35.646  36.643  1.00  0.00    -0.203 F 
ATOM     99  F   UNL A   1      37.520  31.216  39.199  1.00  0.00    -0.200 F 
ATOM    100  C   UNL A   1      38.192  33.471  39.253  1.00  0.00     0.200 A 
ATOM    101  F   UNL A   1      38.767  35.756  39.217  1.00  0.00    -0.200 F 
ATOM    102  F   UNL A   1      38.010  33.517  40.579  1.00  0.00    -0.200 F 
ENDBRANCH  69  92
ENDBRANCH  43  44
ENDBRANCH  36  38
ENDBRANCH  35  36
ENDBRANCH  34  35
ENDBRANCH  33  34
ENDBRANCH  32  33
ENDBRANCH  31  32
ENDBRANCH  30  31
ENDBRANCH  29  30
ENDBRANCH   1  29
TORSDOF 23
ENDMDL
MODEL 3
REMARK VINA RESULT:     -10.7      4.628      6.900
REMARK SMILES Cc1ccc([C@H](C)NC(=O)[C@H]2[C@@H]3CC[C@@H](C3)[C@@H]2C(=O)OCCOCCOCCOCCOC(=O)c2ccc(-c3c4nc(c(-c5c(F)c(F)c(F)c(F)c5F)c5ccc([nH]5)c(-c5c(F)c(F)c(F)c(F)c5F)c5nc(c(-c6c(F)c(F)c(F)c(F)c6F)c6ccc3[nH]6)C=C5)C=C4)cc2)cc1
REMARK SMILES IDX 25 1 24 2 23 3 22 4 21 5 20 6 18 7 19 8 17 9 11 10 12 11
REMARK SMILES IDX 13 12 16 13 15 14 14 15 9 16 8 17 10 19 6 20 7 21 5 22 1 23
REMARK SMILES IDX 2 24 3 25 99 26 4 27 98 28 26 29 27 30 28 31 29 32 30 33
REMARK SMILES IDX 31 34 32 35 33 36 34 37 35 38 36 39 97 40 37 41 96 42 38 43
REMARK SMILES IDX 39 44 40 45 90 46 41 47 95 48 89 49 91 50 42 51 94 52 88 53
REMARK SMILES IDX 87 54 43 56 75 57 55 58 74 59 56 60 59 61 73 62 92 63 57 64
REMARK SMILES IDX 58 65 72 67 93 68 60 69 44 70 45 71 53 72 46 73 47 74 51 75
REMARK SMILES IDX 54 76 48 77 49 78 52 79 50 80 76 81 77 82 85 83 78 84 79 85
REMARK SMILES IDX 83 86 86 87 80 88 81 89 84 90 82 91 61 92 62 93 70 94 63 95
REMARK SMILES IDX 64 96 68 97 71 98 65 99 66 100 69 101 67 102
REMARK H PARENT 8 18 91 55 59 66
REMARK Flexibility Score: inf
ROOT
ATOM      1  C   UNL A   1      34.134  33.752  27.936  1.00  0.00     0.188 C 
ENDROOT
BRANCH   1   2
ATOM      2  C   UNL A   1      34.261  32.382  28.643  1.00  0.00     0.188 C 
BRANCH   2   3
ATOM      3  O   UNL A   1      34.889  31.380  27.826  1.00  0.00    -0.376 OA
BRANCH   3   4
ATOM      4  C   UNL A   1      34.114  30.630  26.881  1.00  0.00     0.202 C 
BRANCH   4   5
ATOM      5  C   UNL A   1      32.981  29.797  27.467  1.00  0.00     0.261 C 
BRANCH   5   6
ATOM      6  O   UNL A   1      32.042  29.506  26.476  1.00  0.00    -0.463 OA
BRANCH   6   7
ATOM      7  C   UNL A   1      31.576  28.239  26.567  1.00  0.00     0.310 C 
ATOM      8  O   UNL A   1      31.580  27.512  27.549  1.00  0.00    -0.252 OA
BRANCH   7   9
ATOM      9  C   UNL A   1      31.158  27.788  25.219  1.00  0.00     0.115 C 
ATOM     10  C   UNL A   1      31.537  26.337  24.930  1.00  0.00     0.096 C 
ATOM     11  C   UNL A   1      31.854  26.440  23.414  1.00  0.00     0.002 C 
ATOM     12  C   UNL A   1      33.289  27.020  23.276  1.00  0.00     0.005 C 
ATOM     13  C   UNL A   1      31.037  27.660  22.948  1.00  0.00     0.009 C 
ATOM     14  C   UNL A   1      31.621  28.594  24.009  1.00  0.00     0.004 C 
ATOM     15  C   UNL A   1      33.105  28.500  23.670  1.00  0.00     0.005 C 
BRANCH  10  16
ATOM     16  C   UNL A   1      30.627  25.202  25.455  1.00  0.00     0.224 C 
ATOM     17  N   UNL A   1      30.565  23.939  24.906  1.00  0.00    -0.349 N 
ATOM     18  H   UNL A   1      29.659  23.607  24.710  1.00  0.00     0.164 HD
ATOM     19  O   UNL A   1      29.759  25.476  26.293  1.00  0.00    -0.275 OA
BRANCH  17  20
ATOM     20  C   UNL A   1      31.660  23.025  24.574  1.00  0.00     0.109 C 
ATOM     21  C   UNL A   1      31.610  22.689  23.087  1.00  0.00     0.036 C 
BRANCH  20  22
ATOM     22  C   UNL A   1      33.065  23.385  25.033  1.00  0.00    -0.026 A 
ATOM     23  C   UNL A   1      37.275  23.814  25.929  1.00  0.00     0.044 C 
ATOM     24  C   UNL A   1      35.801  23.845  25.638  1.00  0.00    -0.051 A 
ATOM     25  C   UNL A   1      35.374  23.816  24.310  1.00  0.00     0.004 A 
ATOM     26  C   UNL A   1      34.844  23.714  26.659  1.00  0.00     0.004 A 
ATOM     27  C   UNL A   1      34.028  23.595  24.017  1.00  0.00     0.006 A 
ATOM     28  C   UNL A   1      33.485  23.491  26.361  1.00  0.00     0.006 A 
ENDBRANCH  20  22
ENDBRANCH  17  20
ENDBRANCH  10  16
ENDBRANCH   7   9
ENDBRANCH   6   7
ENDBRANCH   5   6
ENDBRANCH   4   5
ENDBRANCH   3   4
ENDBRANCH   2   3
ENDBRANCH   1   2
BRANCH   1  29
ATOM     29  O   UNL A   1      33.865  34.974  28.610  1.00  0.00    -0.377 OA
BRANCH  29  30
ATOM     30  C   UNL A   1      33.317  34.993  29.916  1.00  0.00     0.188 C 
BRANCH  30  31
ATOM     31  C   UNL A   1      32.563  36.236  30.316  1.00  0.00     0.188 C 
BRANCH  31  32
ATOM     32  O   UNL A   1      32.963  36.556  31.645  1.00  0.00    -0.376 OA
BRANCH  32  33
ATOM     33  C   UNL A   1      34.127  35.866  32.081  1.00  0.00     0.202 C 
BRANCH  33  34
ATOM     34  C   UNL A   1      34.411  36.055  33.576  1.00  0.00     0.261 C 
BRANCH  34  35
ATOM     35  O   UNL A   1      34.627  34.756  34.169  1.00  0.00    -0.460 OA
BRANCH  35  36
ATOM     36  C   UNL A   1      34.344  33.697  33.360  1.00  0.00     0.338 C 
ATOM     37  O   UNL A   1      33.241  33.213  33.197  1.00  0.00    -0.246 OA
BRANCH  36  38
ATOM     38  C   UNL A   1      35.613  33.029  32.930  1.00  0.00     0.060 A 
ATOM     39  C   UNL A   1      35.557  31.805  32.251  1.00  0.00     0.016 A 
ATOM     40  C   UNL A   1      36.829  33.444  33.455  1.00  0.00     0.016 A 
ATOM     41  C   UNL A   1      36.683  30.955  32.208  1.00  0.00     0.010 A 
ATOM     42  C   UNL A   1      37.898  32.547  33.502  1.00  0.00     0.010 A 
ATOM     43  C   UNL A   1      37.866  31.278  32.889  1.00  0.00    -0.014 A 
BRANCH  43  44
ATOM     44  C   UNL A   1      38.962  30.252  33.101  1.00  0.00     0.031 A 
ATOM     45  C   UNL A   1      39.465  29.337  31.944  1.00  0.00     0.074 A 
ATOM     46  C   UNL A   1      39.967  30.613  33.952  1.00  0.00     0.049 A 
ATOM     47  N   UNL A   1      40.544  28.585  31.934  1.00  0.00    -0.248 NA
ATOM     48  C   UNL A   1      38.739  29.233  30.675  1.00  0.00     0.031 C 
ATOM     49  C   UNL A   1      40.982  31.477  33.398  1.00  0.00     0.029 A 
ATOM     50  N   UNL A   1      40.117  30.907  35.304  1.00  0.00    -0.354 N 
ATOM     51  C   UNL A   1      40.741  28.093  30.625  1.00  0.00     0.074 A 
ATOM     52  C   UNL A   1      39.582  28.550  29.899  1.00  0.00     0.031 C 
ATOM     53  C   UNL A   1      41.764  32.054  34.299  1.00  0.00     0.029 A 
ATOM     54  C   UNL A   1      41.288  31.614  35.563  1.00  0.00     0.049 A 
ATOM     55  H   UNL A   1      39.469  30.646  35.998  1.00  0.00     0.167 HD
ATOM     56  C   UNL A   1      41.895  27.489  30.164  1.00  0.00     0.037 A 
ATOM     57  C   UNL A   1      42.172  31.628  36.576  1.00  0.00     0.037 A 
ATOM     58  C   UNL A   1      43.035  27.622  31.102  1.00  0.00     0.049 A 
ATOM     59  C   UNL A   1      43.265  30.602  36.291  1.00  0.00     0.074 A 
ATOM     60  C   UNL A   1      44.346  28.018  30.893  1.00  0.00     0.029 A 
ATOM     61  N   UNL A   1      42.901  27.562  32.501  1.00  0.00    -0.354 N 
ATOM     62  N   UNL A   1      43.478  29.962  35.156  1.00  0.00    -0.248 NA
ATOM     63  C   UNL A   1      43.957  29.994  37.421  1.00  0.00     0.031 C 
ATOM     64  C   UNL A   1      44.992  28.131  32.138  1.00  0.00     0.029 A 
ATOM     65  C   UNL A   1      44.091  27.886  33.144  1.00  0.00     0.049 A 
ATOM     66  H   UNL A   1      42.069  27.321  32.968  1.00  0.00     0.167 HD
ATOM     67  C   UNL A   1      44.128  28.768  35.440  1.00  0.00     0.074 A 
ATOM     68  C   UNL A   1      44.376  28.844  36.875  1.00  0.00     0.031 C 
ATOM     69  C   UNL A   1      44.347  27.726  34.567  1.00  0.00     0.037 A 
BRANCH  56  70
ATOM     70  C   UNL A   1      42.131  27.002  28.667  1.00  0.00     0.064 A 
ATOM     71  C   UNL A   1      42.142  27.885  27.550  1.00  0.00     0.173 A 
ATOM     72  C   UNL A   1      42.383  25.668  28.270  1.00  0.00     0.173 A 
ATOM     73  F   UNL A   1      42.257  29.209  27.696  1.00  0.00    -0.203 F 
ATOM     74  C   UNL A   1      42.154  27.464  26.205  1.00  0.00     0.198 A 
ATOM     75  C   UNL A   1      42.388  25.234  26.924  1.00  0.00     0.198 A 
ATOM     76  F   UNL A   1      42.757  24.737  29.156  1.00  0.00    -0.203 F 
ATOM     77  F   UNL A   1      42.119  28.374  25.219  1.00  0.00    -0.200 F 
ATOM     78  C   UNL A   1      42.238  26.130  25.890  1.00  0.00     0.200 A 
ATOM     79  F   UNL A   1      42.575  23.936  26.642  1.00  0.00    -0.200 F 
ATOM     80  F   UNL A   1      42.262  25.724  24.613  1.00  0.00    -0.200 F 
ENDBRANCH  56  70
BRANCH  57  81
ATOM     81  C   UNL A   1      42.153  33.043  37.104  1.00  0.00     0.064 A 
ATOM     82  C   UNL A   1      42.913  34.112  36.586  1.00  0.00     0.173 A 
ATOM     83  C   UNL A   1      40.888  33.387  37.643  1.00  0.00     0.173 A 
ATOM     84  F   UNL A   1      44.123  33.889  36.057  1.00  0.00    -0.203 F 
ATOM     85  C   UNL A   1      42.354  35.400  36.451  1.00  0.00     0.198 A 
ATOM     86  C   UNL A   1      40.321  34.648  37.461  1.00  0.00     0.198 A 
ATOM     87  F   UNL A   1      40.104  32.415  38.142  1.00  0.00    -0.203 F 
ATOM     88  F   UNL A   1      43.040  36.378  35.838  1.00  0.00    -0.200 F 
ATOM     89  C   UNL A   1      41.043  35.646  36.837  1.00  0.00     0.200 A 
ATOM     90  F   UNL A   1      39.030  34.843  37.768  1.00  0.00    -0.200 F 
ATOM     91  F   UNL A   1      40.449  36.813  36.539  1.00  0.00    -0.200 F 
ENDBRANCH  57  81
BRANCH  69  92
ATOM     92  C   UNL A   1      44.947  26.385  34.968  1.00  0.00     0.064 A 
ATOM     93  C   UNL A   1      44.204  25.242  35.295  1.00  0.00     0.173 A 
ATOM     94  C   UNL A   1      46.352  26.244  35.105  1.00  0.00     0.173 A 
ATOM     95  F   UNL A   1      42.873  25.299  35.443  1.00  0.00    -0.203 F 
ATOM     96  C   UNL A   1      44.814  24.006  35.531  1.00  0.00     0.198 A 
ATOM     97  C   UNL A   1      46.958  25.034  35.432  1.00  0.00     0.198 A 
ATOM     98  F   UNL A   1      47.188  27.276  34.920  1.00  0.00    -0.203 F 
ATOM     99  F   UNL A   1      44.056  22.915  35.703  1.00  0.00    -0.200 F 
ATOM    100  C   UNL A   1      46.191  23.900  35.591  1.00  0.00     0.200 A 
ATOM    101  F   UNL A   1      48.289  24.971  35.576  1.00  0.00    -0.200 F 
ATOM    102  F   UNL A   1      46.775  22.716  35.820  1.00  0.00    -0.200 F 
ENDBRANCH  69  92
ENDBRANCH  43  44
ENDBRANCH  36  38
ENDBRANCH  35  36
ENDBRANCH  34  35
ENDBRANCH  33  34
ENDBRANCH  32  33
ENDBRANCH  31  32
ENDBRANCH  30  31
ENDBRANCH  29  30
ENDBRANCH   1  29
TORSDOF 23
ENDMDL
