MODEL 1
REMARK VINA RESULT:      -9.8      0.000      0.000
REMARK SMILES Cc1ccc([C@H](C)Nc2ccc(C(=O)OCCOCCOCCOCCOC(=O)c3ccc(-c4c5nc(c(-c6c(F)c(F)c(F)c(F)c6F)c6ccc([nH]6)c(-c6c(F)c(F)c(F)c(F)c6F)c6nc(c(-c7c(F)c(F)c(F)c(F)c7F)c7ccc4[nH]7)C=C6)C=C5)cc3)cc2Cl)cc1F
REMARK SMILES IDX 20 1 19 2 18 3 17 4 16 5 15 6 13 7 14 8 12 9 9 10 10 11
REMARK SMILES IDX 94 12 11 13 93 14 95 15 8 16 6 18 7 19 5 20 1 21 2 22 3 23
REMARK SMILES IDX 97 24 4 25 96 26 98 27 21 28 22 29 23 30 24 31 25 32 26 33
REMARK SMILES IDX 27 34 28 35 29 36 30 37 31 38 92 39 32 40 91 41 33 42 34 43
REMARK SMILES IDX 35 44 85 45 36 46 90 47 84 48 86 49 37 50 89 51 83 52 82 53
REMARK SMILES IDX 38 55 70 56 50 57 69 58 51 59 54 60 68 61 87 62 52 63 53 64
REMARK SMILES IDX 67 66 88 67 55 68 39 69 40 70 48 71 41 72 42 73 46 74 49 75
REMARK SMILES IDX 43 76 44 77 47 78 45 79 71 80 72 81 80 82 73 83 74 84 78 85
REMARK SMILES IDX 81 86 75 87 76 88 79 89 77 90 56 91 57 92 65 93 58 94 59 95
REMARK SMILES IDX 63 96 66 97 60 98 61 99 64 100 62 101
REMARK H PARENT 8 17 86 54 54 65
REMARK Flexibility Score: inf
ROOT
ATOM      1  C   UNL A   1      41.349  32.622  35.288  1.00  0.00     0.188 C 
ENDROOT
BRANCH   1   2
ATOM      2  C   UNL A   1      40.340  31.456  35.331  1.00  0.00     0.188 C 
BRANCH   2   3
ATOM      3  O   UNL A   1      39.553  31.385  36.503  1.00  0.00    -0.376 OA
BRANCH   3   4
ATOM      4  C   UNL A   1      39.153  32.565  37.176  1.00  0.00     0.202 C 
BRANCH   4   5
ATOM      5  C   UNL A   1      37.725  33.114  37.028  1.00  0.00     0.261 C 
BRANCH   5   6
ATOM      6  O   UNL A   1      37.091  32.926  35.759  1.00  0.00    -0.460 OA
BRANCH   6   7
ATOM      7  C   UNL A   1      37.287  33.875  34.816  1.00  0.00     0.338 C 
ATOM      8  O   UNL A   1      38.071  34.795  34.850  1.00  0.00    -0.246 OA
BRANCH   7   9
ATOM      9  C   UNL A   1      36.524  33.452  33.618  1.00  0.00     0.061 A 
ATOM     10  C   UNL A   1      35.132  32.717  31.279  1.00  0.00     0.053 A 
ATOM     11  C   UNL A   1      35.036  34.018  31.800  1.00  0.00     0.028 A 
ATOM     12  C   UNL A   1      35.983  31.803  31.943  1.00  0.00     0.065 A 
ATOM     13  C   UNL A   1      35.708  34.382  32.968  1.00  0.00     0.018 A 
ATOM     14  C   UNL A   1      36.687  32.175  33.089  1.00  0.00     0.038 A 
ATOM     15  Cl  UNL A   1      36.292  30.202  31.364  1.00  0.00    -0.082 Cl
BRANCH  10  16
ATOM     16  N   UNL A   1      34.313  32.400  30.201  1.00  0.00    -0.377 N 
ATOM     17  H   UNL A   1      33.418  32.023  30.365  1.00  0.00     0.161 HD
BRANCH  16  18
ATOM     18  C   UNL A   1      34.768  32.621  28.824  1.00  0.00     0.106 C 
ATOM     19  C   UNL A   1      36.302  32.718  28.851  1.00  0.00     0.036 C 
BRANCH  18  20
ATOM     20  C   UNL A   1      34.143  31.562  27.921  1.00  0.00    -0.023 A 
ATOM     21  C   UNL A   1      32.314  28.159  25.947  1.00  0.00     0.047 C 
ATOM     22  C   UNL A   1      32.945  29.360  26.580  1.00  0.00    -0.015 A 
ATOM     23  C   UNL A   1      32.252  30.563  26.738  1.00  0.00     0.007 A 
ATOM     24  C   UNL A   1      34.243  29.275  27.071  1.00  0.00     0.126 A 
ATOM     25  C   UNL A   1      32.841  31.649  27.405  1.00  0.00     0.006 A 
ATOM     26  C   UNL A   1      34.836  30.353  27.717  1.00  0.00     0.045 A 
ATOM     27  F   UNL A   1      34.932  28.131  26.953  1.00  0.00    -0.207 F 
ENDBRANCH  18  20
ENDBRANCH  16  18
ENDBRANCH  10  16
ENDBRANCH   7   9
ENDBRANCH   6   7
ENDBRANCH   5   6
ENDBRANCH   4   5
ENDBRANCH   3   4
ENDBRANCH   2   3
ENDBRANCH   1   2
BRANCH   1  28
ATOM     28  O   UNL A   1      41.197  33.656  34.324  1.00  0.00    -0.377 OA
BRANCH  28  29
ATOM     29  C   UNL A   1      40.503  33.403  33.105  1.00  0.00     0.188 C 
BRANCH  29  30
ATOM     30  C   UNL A   1      41.261  33.184  31.764  1.00  0.00     0.188 C 
BRANCH  30  31
ATOM     31  O   UNL A   1      40.499  32.914  30.608  1.00  0.00    -0.376 OA
BRANCH  31  32
ATOM     32  C   UNL A   1      39.648  31.806  30.436  1.00  0.00     0.202 C 
BRANCH  32  33
ATOM     33  C   UNL A   1      40.103  30.392  30.122  1.00  0.00     0.261 C 
BRANCH  33  34
ATOM     34  O   UNL A   1      39.136  29.381  29.841  1.00  0.00    -0.460 OA
BRANCH  34  35
ATOM     35  C   UNL A   1      38.986  29.168  28.511  1.00  0.00     0.338 C 
ATOM     36  O   UNL A   1      38.348  29.895  27.761  1.00  0.00    -0.246 OA
BRANCH  35  37
ATOM     37  C   UNL A   1      39.468  27.861  28.017  1.00  0.00     0.060 A 
ATOM     38  C   UNL A   1      39.738  26.969  29.072  1.00  0.00     0.016 A 
ATOM     39  C   UNL A   1      40.292  27.930  26.897  1.00  0.00     0.016 A 
ATOM     40  C   UNL A   1      41.040  26.546  29.232  1.00  0.00     0.010 A 
ATOM     41  C   UNL A   1      41.589  27.492  27.051  1.00  0.00     0.010 A 
ATOM     42  C   UNL A   1      41.974  26.937  28.273  1.00  0.00    -0.014 A 
BRANCH  42  43
ATOM     43  C   UNL A   1      43.389  26.734  28.499  1.00  0.00     0.031 A 
ATOM     44  C   UNL A   1      44.180  27.965  28.626  1.00  0.00     0.074 A 
ATOM     45  C   UNL A   1      43.944  25.499  28.484  1.00  0.00     0.049 A 
ATOM     46  N   UNL A   1      45.340  28.136  28.099  1.00  0.00    -0.248 NA
ATOM     47  C   UNL A   1      43.637  29.174  29.248  1.00  0.00     0.031 C 
ATOM     48  C   UNL A   1      45.288  25.139  28.903  1.00  0.00     0.029 A 
ATOM     49  N   UNL A   1      43.410  24.290  28.006  1.00  0.00    -0.354 N 
ATOM     50  C   UNL A   1      45.830  29.311  28.619  1.00  0.00     0.074 A 
ATOM     51  C   UNL A   1      44.685  29.999  29.167  1.00  0.00     0.031 C 
ATOM     52  C   UNL A   1      45.564  23.888  28.494  1.00  0.00     0.029 A 
ATOM     53  C   UNL A   1      44.466  23.415  27.662  1.00  0.00     0.049 A 
ATOM     54  H   UNL A   1      42.451  24.085  27.922  1.00  0.00     0.167 HD
ATOM     55  C   UNL A   1      47.178  29.455  28.745  1.00  0.00     0.037 A 
ATOM     56  C   UNL A   1      44.642  22.855  26.415  1.00  0.00     0.037 A 
ATOM     57  C   UNL A   1      47.863  28.272  28.226  1.00  0.00     0.049 A 
ATOM     58  C   UNL A   1      45.790  23.496  25.678  1.00  0.00     0.074 A 
ATOM     59  C   UNL A   1      48.290  27.118  28.866  1.00  0.00     0.029 A 
ATOM     60  N   UNL A   1      47.788  27.962  26.871  1.00  0.00    -0.354 N 
ATOM     61  N   UNL A   1      46.396  24.571  26.082  1.00  0.00    -0.248 NA
ATOM     62  C   UNL A   1      46.270  23.019  24.387  1.00  0.00     0.031 C 
ATOM     63  C   UNL A   1      48.420  26.096  27.896  1.00  0.00     0.029 A 
ATOM     64  C   UNL A   1      48.093  26.627  26.661  1.00  0.00     0.049 A 
ATOM     65  H   UNL A   1      47.552  28.602  26.162  1.00  0.00     0.167 HD
ATOM     66  C   UNL A   1      47.322  24.939  25.153  1.00  0.00     0.074 A 
ATOM     67  C   UNL A   1      47.220  23.928  24.118  1.00  0.00     0.031 C 
ATOM     68  C   UNL A   1      48.093  26.051  25.324  1.00  0.00     0.037 A 
BRANCH  55  69
ATOM     69  C   UNL A   1      47.786  30.451  29.704  1.00  0.00     0.064 A 
ATOM     70  C   UNL A   1      48.199  31.725  29.258  1.00  0.00     0.173 A 
ATOM     71  C   UNL A   1      48.042  30.183  31.062  1.00  0.00     0.173 A 
ATOM     72  F   UNL A   1      47.951  32.149  28.014  1.00  0.00    -0.203 F 
ATOM     73  C   UNL A   1      48.898  32.615  30.075  1.00  0.00     0.198 A 
ATOM     74  C   UNL A   1      48.782  31.057  31.867  1.00  0.00     0.198 A 
ATOM     75  F   UNL A   1      47.558  29.081  31.651  1.00  0.00    -0.203 F 
ATOM     76  F   UNL A   1      49.273  33.807  29.588  1.00  0.00    -0.200 F 
ATOM     77  C   UNL A   1      49.217  32.270  31.371  1.00  0.00     0.200 A 
ATOM     78  F   UNL A   1      49.077  30.712  33.129  1.00  0.00    -0.200 F 
ATOM     79  F   UNL A   1      49.918  33.111  32.142  1.00  0.00    -0.200 F 
ENDBRANCH  55  69
BRANCH  56  80
ATOM     80  C   UNL A   1      43.437  22.383  25.629  1.00  0.00     0.064 A 
ATOM     81  C   UNL A   1      43.103  21.046  25.877  1.00  0.00     0.173 A 
ATOM     82  C   UNL A   1      42.403  23.313  25.620  1.00  0.00     0.173 A 
ATOM     83  F   UNL A   1      43.974  20.065  25.607  1.00  0.00    -0.203 F 
ATOM     84  C   UNL A   1      42.036  20.793  26.709  1.00  0.00     0.198 A 
ATOM     85  C   UNL A   1      41.375  23.105  26.503  1.00  0.00     0.198 A 
ATOM     86  F   UNL A   1      42.577  24.530  25.086  1.00  0.00    -0.203 F 
ATOM     87  F   UNL A   1      41.885  19.590  27.284  1.00  0.00    -0.200 F 
ATOM     88  C   UNL A   1      41.302  21.876  27.153  1.00  0.00     0.200 A 
ATOM     89  F   UNL A   1      40.658  24.166  26.881  1.00  0.00    -0.200 F 
ATOM     90  F   UNL A   1      40.784  21.783  28.382  1.00  0.00    -0.200 F 
ENDBRANCH  56  80
BRANCH  68  91
ATOM     91  C   UNL A   1      49.038  26.589  24.293  1.00  0.00     0.064 A 
ATOM     92  C   UNL A   1      48.639  27.338  23.177  1.00  0.00     0.173 A 
ATOM     93  C   UNL A   1      50.430  26.421  24.463  1.00  0.00     0.173 A 
ATOM     94  F   UNL A   1      47.361  27.698  22.997  1.00  0.00    -0.203 F 
ATOM     95  C   UNL A   1      49.560  27.781  22.230  1.00  0.00     0.198 A 
ATOM     96  C   UNL A   1      51.352  26.937  23.560  1.00  0.00     0.198 A 
ATOM     97  F   UNL A   1      50.939  25.763  25.515  1.00  0.00    -0.203 F 
ATOM     98  F   UNL A   1      49.127  28.412  21.130  1.00  0.00    -0.200 F 
ATOM     99  C   UNL A   1      50.915  27.587  22.425  1.00  0.00     0.200 A 
ATOM    100  F   UNL A   1      52.662  26.804  23.803  1.00  0.00    -0.200 F 
ATOM    101  F   UNL A   1      51.800  28.043  21.531  1.00  0.00    -0.200 F 
ENDBRANCH  68  91
ENDBRANCH  42  43
ENDBRANCH  35  37
ENDBRANCH  34  35
ENDBRANCH  33  34
ENDBRANCH  32  33
ENDBRANCH  31  32
ENDBRANCH  30  31
ENDBRANCH  29  30
ENDBRANCH  28  29
ENDBRANCH   1  28
TORSDOF 23
ENDMDL
MODEL 2
REMARK VINA RESULT:      -9.3      4.604      9.323
REMARK SMILES Cc1ccc([C@H](C)Nc2ccc(C(=O)OCCOCCOCCOCCOC(=O)c3ccc(-c4c5nc(c(-c6c(F)c(F)c(F)c(F)c6F)c6ccc([nH]6)c(-c6c(F)c(F)c(F)c(F)c6F)c6nc(c(-c7c(F)c(F)c(F)c(F)c7F)c7ccc4[nH]7)C=C6)C=C5)cc3)cc2Cl)cc1F
REMARK SMILES IDX 20 1 19 2 18 3 17 4 16 5 15 6 13 7 14 8 12 9 9 10 10 11
REMARK SMILES IDX 94 12 11 13 93 14 95 15 8 16 6 18 7 19 5 20 1 21 2 22 3 23
REMARK SMILES IDX 97 24 4 25 96 26 98 27 21 28 22 29 23 30 24 31 25 32 26 33
REMARK SMILES IDX 27 34 28 35 29 36 30 37 31 38 92 39 32 40 91 41 33 42 34 43
REMARK SMILES IDX 35 44 85 45 36 46 90 47 84 48 86 49 37 50 89 51 83 52 82 53
REMARK SMILES IDX 38 55 70 56 50 57 69 58 51 59 54 60 68 61 87 62 52 63 53 64
REMARK SMILES IDX 67 66 88 67 55 68 39 69 40 70 48 71 41 72 42 73 46 74 49 75
REMARK SMILES IDX 43 76 44 77 47 78 45 79 71 80 72 81 80 82 73 83 74 84 78 85
REMARK SMILES IDX 81 86 75 87 76 88 79 89 77 90 56 91 57 92 65 93 58 94 59 95
REMARK SMILES IDX 63 96 66 97 60 98 61 99 64 100 62 101
REMARK H PARENT 8 17 86 54 54 65
REMARK Flexibility Score: inf
ROOT
ATOM      1  C   UNL A   1      35.616  23.794  24.543  1.00  0.00     0.188 C 
ENDROOT
BRANCH   1   2
ATOM      2  C   UNL A   1      34.819  23.408  23.280  1.00  0.00     0.188 C 
BRANCH   2   3
ATOM      3  O   UNL A   1      33.453  23.115  23.497  1.00  0.00    -0.376 OA
BRANCH   3   4
ATOM      4  C   UNL A   1      33.038  21.796  23.801  1.00  0.00     0.202 C 
BRANCH   4   5
ATOM      5  C   UNL A   1      32.638  21.403  25.233  1.00  0.00     0.261 C 
BRANCH   5   6
ATOM      6  O   UNL A   1      33.400  21.982  26.296  1.00  0.00    -0.460 OA
BRANCH   6   7
ATOM      7  C   UNL A   1      32.720  22.613  27.281  1.00  0.00     0.338 C 
ATOM      8  O   UNL A   1      32.742  22.368  28.464  1.00  0.00    -0.246 OA
BRANCH   7   9
ATOM      9  C   UNL A   1      32.110  23.820  26.673  1.00  0.00     0.061 A 
ATOM     10  C   UNL A   1      30.897  26.132  25.611  1.00  0.00     0.053 A 
ATOM     11  C   UNL A   1      30.135  24.994  25.925  1.00  0.00     0.028 A 
ATOM     12  C   UNL A   1      32.283  26.093  25.885  1.00  0.00     0.065 A 
ATOM     13  C   UNL A   1      30.734  23.839  26.434  1.00  0.00     0.018 A 
ATOM     14  C   UNL A   1      32.879  24.955  26.431  1.00  0.00     0.038 A 
ATOM     15  Cl  UNL A   1      33.333  27.449  25.657  1.00  0.00    -0.082 Cl
BRANCH  10  16
ATOM     16  N   UNL A   1      30.243  27.178  24.970  1.00  0.00    -0.377 N 
ATOM     17  H   UNL A   1      29.397  27.521  25.337  1.00  0.00     0.161 HD
BRANCH  16  18
ATOM     18  C   UNL A   1      30.802  27.778  23.753  1.00  0.00     0.106 C 
ATOM     19  C   UNL A   1      30.989  26.651  22.724  1.00  0.00     0.036 C 
BRANCH  18  20
ATOM     20  C   UNL A   1      29.939  28.968  23.347  1.00  0.00    -0.023 A 
ATOM     21  C   UNL A   1      28.100  32.662  22.007  1.00  0.00     0.047 C 
ATOM     22  C   UNL A   1      28.684  31.368  22.480  1.00  0.00    -0.015 A 
ATOM     23  C   UNL A   1      28.519  30.178  21.767  1.00  0.00     0.007 A 
ATOM     24  C   UNL A   1      29.455  31.344  23.637  1.00  0.00     0.126 A 
ATOM     25  C   UNL A   1      29.143  28.994  22.191  1.00  0.00     0.006 A 
ATOM     26  C   UNL A   1      30.060  30.171  24.069  1.00  0.00     0.045 A 
ATOM     27  F   UNL A   1      29.650  32.471  24.337  1.00  0.00    -0.207 F 
ENDBRANCH  18  20
ENDBRANCH  16  18
ENDBRANCH  10  16
ENDBRANCH   7   9
ENDBRANCH   6   7
ENDBRANCH   5   6
ENDBRANCH   4   5
ENDBRANCH   3   4
ENDBRANCH   2   3
ENDBRANCH   1   2
BRANCH   1  28
ATOM     28  O   UNL A   1      36.633  22.929  25.032  1.00  0.00    -0.377 OA
BRANCH  28  29
ATOM     29  C   UNL A   1      36.873  21.676  24.398  1.00  0.00     0.188 C 
BRANCH  29  30
ATOM     30  C   UNL A   1      36.189  20.368  24.890  1.00  0.00     0.188 C 
BRANCH  30  31
ATOM     31  O   UNL A   1      37.012  19.260  25.187  1.00  0.00    -0.376 OA
BRANCH  31  32
ATOM     32  C   UNL A   1      38.379  19.154  24.865  1.00  0.00     0.202 C 
BRANCH  32  33
ATOM     33  C   UNL A   1      39.520  19.725  25.689  1.00  0.00     0.261 C 
BRANCH  33  34
ATOM     34  O   UNL A   1      40.216  20.882  25.228  1.00  0.00    -0.460 OA
BRANCH  34  35
ATOM     35  C   UNL A   1      40.486  21.753  26.230  1.00  0.00     0.338 C 
ATOM     36  O   UNL A   1      39.648  22.447  26.790  1.00  0.00    -0.246 OA
BRANCH  35  37
ATOM     37  C   UNL A   1      41.920  21.996  26.493  1.00  0.00     0.060 A 
ATOM     38  C   UNL A   1      42.271  21.682  27.819  1.00  0.00     0.016 A 
ATOM     39  C   UNL A   1      42.450  23.111  25.848  1.00  0.00     0.016 A 
ATOM     40  C   UNL A   1      42.717  22.710  28.623  1.00  0.00     0.010 A 
ATOM     41  C   UNL A   1      42.912  24.132  26.648  1.00  0.00     0.010 A 
ATOM     42  C   UNL A   1      42.901  23.962  28.035  1.00  0.00    -0.014 A 
BRANCH  42  43
ATOM     43  C   UNL A   1      43.134  25.132  28.854  1.00  0.00     0.031 A 
ATOM     44  C   UNL A   1      42.022  26.090  28.901  1.00  0.00     0.074 A 
ATOM     45  C   UNL A   1      44.334  25.364  29.440  1.00  0.00     0.049 A 
ATOM     46  N   UNL A   1      42.166  27.366  28.852  1.00  0.00    -0.248 NA
ATOM     47  C   UNL A   1      40.625  25.656  28.852  1.00  0.00     0.031 C 
ATOM     48  C   UNL A   1      44.635  26.368  30.446  1.00  0.00     0.029 A 
ATOM     49  N   UNL A   1      45.579  24.765  29.185  1.00  0.00    -0.354 N 
ATOM     50  C   UNL A   1      40.932  27.903  29.137  1.00  0.00     0.074 A 
ATOM     51  C   UNL A   1      39.988  26.828  28.945  1.00  0.00     0.031 C 
ATOM     52  C   UNL A   1      45.968  26.476  30.585  1.00  0.00     0.029 A 
ATOM     53  C   UNL A   1      46.612  25.648  29.575  1.00  0.00     0.049 A 
ATOM     54  H   UNL A   1      45.712  23.871  28.795  1.00  0.00     0.167 HD
ATOM     55  C   UNL A   1      40.876  29.124  29.736  1.00  0.00     0.037 A 
ATOM     56  C   UNL A   1      47.607  26.105  28.737  1.00  0.00     0.037 A 
ATOM     57  C   UNL A   1      42.225  29.658  29.922  1.00  0.00     0.049 A 
ATOM     58  C   UNL A   1      47.392  27.547  28.359  1.00  0.00     0.074 A 
ATOM     59  C   UNL A   1      43.094  29.571  30.999  1.00  0.00     0.029 A 
ATOM     60  N   UNL A   1      43.006  29.978  28.815  1.00  0.00    -0.354 N 
ATOM     61  N   UNL A   1      46.305  28.208  28.620  1.00  0.00    -0.248 NA
ATOM     62  C   UNL A   1      48.355  28.316  27.579  1.00  0.00     0.031 C 
ATOM     63  C   UNL A   1      44.410  29.787  30.524  1.00  0.00     0.029 A 
ATOM     64  C   UNL A   1      44.345  30.026  29.163  1.00  0.00     0.049 A 
ATOM     65  H   UNL A   1      42.654  30.148  27.911  1.00  0.00     0.167 HD
ATOM     66  C   UNL A   1      46.392  29.452  28.070  1.00  0.00     0.074 A 
ATOM     67  C   UNL A   1      47.701  29.480  27.444  1.00  0.00     0.031 C 
ATOM     68  C   UNL A   1      45.372  30.348  28.183  1.00  0.00     0.037 A 
BRANCH  55  69
ATOM     69  C   UNL A   1      39.656  29.579  30.502  1.00  0.00     0.064 A 
ATOM     70  C   UNL A   1      39.186  30.905  30.392  1.00  0.00     0.173 A 
ATOM     71  C   UNL A   1      38.945  28.769  31.407  1.00  0.00     0.173 A 
ATOM     72  F   UNL A   1      39.713  31.767  29.515  1.00  0.00    -0.203 F 
ATOM     73  C   UNL A   1      38.158  31.406  31.192  1.00  0.00     0.198 A 
ATOM     74  C   UNL A   1      37.945  29.283  32.241  1.00  0.00     0.198 A 
ATOM     75  F   UNL A   1      39.182  27.452  31.487  1.00  0.00    -0.203 F 
ATOM     76  F   UNL A   1      37.765  32.680  31.047  1.00  0.00    -0.200 F 
ATOM     77  C   UNL A   1      37.557  30.604  32.138  1.00  0.00     0.200 A 
ATOM     78  F   UNL A   1      37.362  28.488  33.151  1.00  0.00    -0.200 F 
ATOM     79  F   UNL A   1      36.594  31.096  32.929  1.00  0.00    -0.200 F 
ENDBRANCH  55  69
BRANCH  56  80
ATOM     80  C   UNL A   1      48.224  25.164  27.724  1.00  0.00     0.064 A 
ATOM     81  C   UNL A   1      47.831  25.432  26.408  1.00  0.00     0.173 A 
ATOM     82  C   UNL A   1      49.575  24.931  27.959  1.00  0.00     0.173 A 
ATOM     83  F   UNL A   1      46.541  25.365  26.054  1.00  0.00    -0.203 F 
ATOM     84  C   UNL A   1      48.723  26.093  25.593  1.00  0.00     0.198 A 
ATOM     85  C   UNL A   1      50.467  25.646  27.201  1.00  0.00     0.198 A 
ATOM     86  F   UNL A   1      49.988  24.362  29.100  1.00  0.00    -0.203 F 
ATOM     87  F   UNL A   1      48.306  26.705  24.475  1.00  0.00    -0.200 F 
ATOM     88  C   UNL A   1      49.983  26.346  26.099  1.00  0.00     0.200 A 
ATOM     89  F   UNL A   1      51.690  25.840  27.700  1.00  0.00    -0.200 F 
ATOM     90  F   UNL A   1      50.571  27.479  25.698  1.00  0.00    -0.200 F 
ENDBRANCH  56  80
BRANCH  68  91
ATOM     91  C   UNL A   1      45.342  31.683  27.502  1.00  0.00     0.064 A 
ATOM     92  C   UNL A   1      44.436  32.026  26.488  1.00  0.00     0.173 A 
ATOM     93  C   UNL A   1      46.211  32.710  27.932  1.00  0.00     0.173 A 
ATOM     94  F   UNL A   1      43.461  31.190  26.109  1.00  0.00    -0.203 F 
ATOM     95  C   UNL A   1      44.480  33.271  25.863  1.00  0.00     0.198 A 
ATOM     96  C   UNL A   1      46.195  33.978  27.364  1.00  0.00     0.198 A 
ATOM     97  F   UNL A   1      47.093  32.519  28.925  1.00  0.00    -0.203 F 
ATOM     98  F   UNL A   1      43.657  33.525  24.837  1.00  0.00    -0.200 F 
ATOM     99  C   UNL A   1      45.354  34.248  26.306  1.00  0.00     0.200 A 
ATOM    100  F   UNL A   1      46.996  34.932  27.853  1.00  0.00    -0.200 F 
ATOM    101  F   UNL A   1      45.370  35.454  25.726  1.00  0.00    -0.200 F 
ENDBRANCH  68  91
ENDBRANCH  42  43
ENDBRANCH  35  37
ENDBRANCH  34  35
ENDBRANCH  33  34
ENDBRANCH  32  33
ENDBRANCH  31  32
ENDBRANCH  30  31
ENDBRANCH  29  30
ENDBRANCH  28  29
ENDBRANCH   1  28
TORSDOF 23
ENDMDL
MODEL 3
REMARK VINA RESULT:      -9.3      4.826      8.649
REMARK SMILES Cc1ccc([C@H](C)Nc2ccc(C(=O)OCCOCCOCCOCCOC(=O)c3ccc(-c4c5nc(c(-c6c(F)c(F)c(F)c(F)c6F)c6ccc([nH]6)c(-c6c(F)c(F)c(F)c(F)c6F)c6nc(c(-c7c(F)c(F)c(F)c(F)c7F)c7ccc4[nH]7)C=C6)C=C5)cc3)cc2Cl)cc1F
REMARK SMILES IDX 20 1 19 2 18 3 17 4 16 5 15 6 13 7 14 8 12 9 9 10 10 11
REMARK SMILES IDX 94 12 11 13 93 14 95 15 8 16 6 18 7 19 5 20 1 21 2 22 3 23
REMARK SMILES IDX 97 24 4 25 96 26 98 27 21 28 22 29 23 30 24 31 25 32 26 33
REMARK SMILES IDX 27 34 28 35 29 36 30 37 31 38 92 39 32 40 91 41 33 42 34 43
REMARK SMILES IDX 35 44 85 45 36 46 90 47 84 48 86 49 37 50 89 51 83 52 82 53
REMARK SMILES IDX 38 55 70 56 50 57 69 58 51 59 54 60 68 61 87 62 52 63 53 64
REMARK SMILES IDX 67 66 88 67 55 68 39 69 40 70 48 71 41 72 42 73 46 74 49 75
REMARK SMILES IDX 43 76 44 77 47 78 45 79 71 80 72 81 80 82 73 83 74 84 78 85
REMARK SMILES IDX 81 86 75 87 76 88 79 89 77 90 56 91 57 92 65 93 58 94 59 95
REMARK SMILES IDX 63 96 66 97 60 98 61 99 64 100 62 101
REMARK H PARENT 8 17 86 54 54 65
REMARK Flexibility Score: inf
ROOT
ATOM      1  C   UNL A   1      36.745  30.781  29.183  1.00  0.00     0.188 C 
ENDROOT
BRANCH   1   2
ATOM      2  C   UNL A   1      35.976  30.601  27.858  1.00  0.00     0.188 C 
BRANCH   2   3
ATOM      3  O   UNL A   1      34.877  31.472  27.678  1.00  0.00    -0.376 OA
BRANCH   3   4
ATOM      4  C   UNL A   1      33.575  30.957  27.471  1.00  0.00     0.202 C 
BRANCH   4   5
ATOM      5  C   UNL A   1      33.339  29.447  27.300  1.00  0.00     0.261 C 
BRANCH   5   6
ATOM      6  O   UNL A   1      33.380  28.935  25.965  1.00  0.00    -0.460 OA
BRANCH   6   7
ATOM      7  C   UNL A   1      32.236  28.419  25.459  1.00  0.00     0.338 C 
ATOM      8  O   UNL A   1      31.278  29.024  25.040  1.00  0.00    -0.246 OA
BRANCH   7   9
ATOM      9  C   UNL A   1      32.461  26.962  25.294  1.00  0.00     0.061 A 
ATOM     10  C   UNL A   1      32.970  24.200  25.056  1.00  0.00     0.053 A 
ATOM     11  C   UNL A   1      33.920  25.150  24.644  1.00  0.00     0.028 A 
ATOM     12  C   UNL A   1      31.770  24.677  25.633  1.00  0.00     0.065 A 
ATOM     13  C   UNL A   1      33.665  26.519  24.743  1.00  0.00     0.018 A 
ATOM     14  C   UNL A   1      31.529  26.044  25.769  1.00  0.00     0.038 A 
ATOM     15  Cl  UNL A   1      30.553  23.635  26.287  1.00  0.00    -0.082 Cl
BRANCH  10  16
ATOM     16  N   UNL A   1      33.244  22.865  24.782  1.00  0.00    -0.377 N 
ATOM     17  H   UNL A   1      33.909  22.384  25.325  1.00  0.00     0.161 HD
BRANCH  16  18
ATOM     18  C   UNL A   1      32.551  22.166  23.694  1.00  0.00     0.106 C 
ATOM     19  C   UNL A   1      32.943  22.853  22.376  1.00  0.00     0.036 C 
BRANCH  18  20
ATOM     20  C   UNL A   1      32.822  20.669  23.817  1.00  0.00    -0.023 A 
ATOM     21  C   UNL A   1      33.923  16.482  23.538  1.00  0.00     0.047 C 
ATOM     22  C   UNL A   1      33.520  17.916  23.684  1.00  0.00    -0.015 A 
ATOM     23  C   UNL A   1      34.115  18.759  24.627  1.00  0.00     0.007 A 
ATOM     24  C   UNL A   1      32.561  18.451  22.831  1.00  0.00     0.126 A 
ATOM     25  C   UNL A   1      33.775  20.120  24.689  1.00  0.00     0.006 A 
ATOM     26  C   UNL A   1      32.209  19.792  22.901  1.00  0.00     0.045 A 
ATOM     27  F   UNL A   1      31.983  17.676  21.902  1.00  0.00    -0.207 F 
ENDBRANCH  18  20
ENDBRANCH  16  18
ENDBRANCH  10  16
ENDBRANCH   7   9
ENDBRANCH   6   7
ENDBRANCH   5   6
ENDBRANCH   4   5
ENDBRANCH   3   4
ENDBRANCH   2   3
ENDBRANCH   1   2
BRANCH   1  28
ATOM     28  O   UNL A   1      38.130  30.463  29.249  1.00  0.00    -0.377 OA
BRANCH  28  29
ATOM     29  C   UNL A   1      39.015  31.271  30.020  1.00  0.00     0.188 C 
BRANCH  29  30
ATOM     30  C   UNL A   1      38.961  32.825  29.963  1.00  0.00     0.188 C 
BRANCH  30  31
ATOM     31  O   UNL A   1      38.993  33.535  31.182  1.00  0.00    -0.376 OA
BRANCH  31  32
ATOM     32  C   UNL A   1      39.776  33.193  32.302  1.00  0.00     0.202 C 
BRANCH  32  33
ATOM     33  C   UNL A   1      39.450  33.550  33.741  1.00  0.00     0.261 C 
BRANCH  33  34
ATOM     34  O   UNL A   1      39.124  32.517  34.671  1.00  0.00    -0.460 OA
BRANCH  34  35
ATOM     35  C   UNL A   1      40.041  32.412  35.663  1.00  0.00     0.338 C 
ATOM     36  O   UNL A   1      40.561  33.364  36.230  1.00  0.00    -0.246 OA
BRANCH  35  37
ATOM     37  C   UNL A   1      40.564  31.051  35.905  1.00  0.00     0.060 A 
ATOM     38  C   UNL A   1      41.852  31.077  36.471  1.00  0.00     0.016 A 
ATOM     39  C   UNL A   1      40.217  30.113  34.936  1.00  0.00     0.016 A 
ATOM     40  C   UNL A   1      42.884  30.534  35.735  1.00  0.00     0.010 A 
ATOM     41  C   UNL A   1      41.248  29.556  34.212  1.00  0.00     0.010 A 
ATOM     42  C   UNL A   1      42.563  29.894  34.538  1.00  0.00    -0.014 A 
BRANCH  42  43
ATOM     43  C   UNL A   1      43.603  29.515  33.606  1.00  0.00     0.031 A 
ATOM     44  C   UNL A   1      43.530  30.171  32.294  1.00  0.00     0.074 A 
ATOM     45  C   UNL A   1      44.503  28.545  33.897  1.00  0.00     0.049 A 
ATOM     46  N   UNL A   1      43.738  29.574  31.175  1.00  0.00    -0.248 NA
ATOM     47  C   UNL A   1      43.058  31.548  32.142  1.00  0.00     0.031 C 
ATOM     48  C   UNL A   1      45.709  28.221  33.155  1.00  0.00     0.029 A 
ATOM     49  N   UNL A   1      44.471  27.580  34.918  1.00  0.00    -0.354 N 
ATOM     50  C   UNL A   1      43.790  30.560  30.217  1.00  0.00     0.074 A 
ATOM     51  C   UNL A   1      43.186  31.722  30.823  1.00  0.00     0.031 C 
ATOM     52  C   UNL A   1      46.196  27.043  33.585  1.00  0.00     0.029 A 
ATOM     53  C   UNL A   1      45.254  26.467  34.535  1.00  0.00     0.049 A 
ATOM     54  H   UNL A   1      43.980  27.666  35.767  1.00  0.00     0.167 HD
ATOM     55  C   UNL A   1      44.556  30.352  29.110  1.00  0.00     0.037 A 
ATOM     56  C   UNL A   1      44.785  25.173  34.453  1.00  0.00     0.037 A 
ATOM     57  C   UNL A   1      45.165  29.023  29.159  1.00  0.00     0.049 A 
ATOM     58  C   UNL A   1      44.618  24.736  33.021  1.00  0.00     0.074 A 
ATOM     59  C   UNL A   1      46.394  28.606  29.645  1.00  0.00     0.029 A 
ATOM     60  N   UNL A   1      44.362  27.887  29.102  1.00  0.00    -0.354 N 
ATOM     61  N   UNL A   1      44.705  25.541  32.006  1.00  0.00    -0.248 NA
ATOM     62  C   UNL A   1      44.249  23.377  32.644  1.00  0.00     0.031 C 
ATOM     63  C   UNL A   1      46.311  27.223  29.932  1.00  0.00     0.029 A 
ATOM     64  C   UNL A   1      45.039  26.788  29.603  1.00  0.00     0.049 A 
ATOM     65  H   UNL A   1      43.441  27.868  28.753  1.00  0.00     0.167 HD
ATOM     66  C   UNL A   1      44.416  24.855  30.864  1.00  0.00     0.074 A 
ATOM     67  C   UNL A   1      44.155  23.500  31.311  1.00  0.00     0.031 C 
ATOM     68  C   UNL A   1      44.420  25.472  29.648  1.00  0.00     0.037 A 
BRANCH  55  69
ATOM     69  C   UNL A   1      45.055  31.498  28.263  1.00  0.00     0.064 A 
ATOM     70  C   UNL A   1      44.480  31.770  27.003  1.00  0.00     0.173 A 
ATOM     71  C   UNL A   1      46.140  32.324  28.613  1.00  0.00     0.173 A 
ATOM     72  F   UNL A   1      43.395  31.119  26.570  1.00  0.00    -0.203 F 
ATOM     73  C   UNL A   1      45.007  32.720  26.126  1.00  0.00     0.198 A 
ATOM     74  C   UNL A   1      46.696  33.245  27.717  1.00  0.00     0.198 A 
ATOM     75  F   UNL A   1      46.671  32.281  29.843  1.00  0.00    -0.203 F 
ATOM     76  F   UNL A   1      44.421  32.924  24.938  1.00  0.00    -0.200 F 
ATOM     77  C   UNL A   1      46.134  33.437  26.470  1.00  0.00     0.200 A 
ATOM     78  F   UNL A   1      47.786  33.943  28.068  1.00  0.00    -0.200 F 
ATOM     79  F   UNL A   1      46.659  34.324  25.614  1.00  0.00    -0.200 F 
ENDBRANCH  55  69
BRANCH  56  80
ATOM     80  C   UNL A   1      43.815  24.661  35.496  1.00  0.00     0.064 A 
ATOM     81  C   UNL A   1      44.446  24.159  36.641  1.00  0.00     0.173 A 
ATOM     82  C   UNL A   1      42.727  25.508  35.680  1.00  0.00     0.173 A 
ATOM     83  F   UNL A   1      45.287  23.121  36.555  1.00  0.00    -0.203 F 
ATOM     84  C   UNL A   1      44.462  24.951  37.766  1.00  0.00     0.198 A 
ATOM     85  C   UNL A   1      42.776  26.354  36.758  1.00  0.00     0.198 A 
ATOM     86  F   UNL A   1      41.882  25.772  34.674  1.00  0.00    -0.203 F 
ATOM     87  F   UNL A   1      45.339  24.721  38.755  1.00  0.00    -0.200 F 
ATOM     88  C   UNL A   1      43.759  26.140  37.720  1.00  0.00     0.200 A 
ATOM     89  F   UNL A   1      42.054  27.475  36.700  1.00  0.00    -0.200 F 
ATOM     90  F   UNL A   1      44.271  27.164  38.413  1.00  0.00    -0.200 F 
ENDBRANCH  56  80
BRANCH  68  91
ATOM     91  C   UNL A   1      43.992  24.819  28.369  1.00  0.00     0.064 A 
ATOM     92  C   UNL A   1      44.867  24.165  27.490  1.00  0.00     0.173 A 
ATOM     93  C   UNL A   1      42.621  24.769  28.032  1.00  0.00     0.173 A 
ATOM     94  F   UNL A   1      46.165  24.007  27.784  1.00  0.00    -0.203 F 
ATOM     95  C   UNL A   1      44.417  23.608  26.295  1.00  0.00     0.198 A 
ATOM     96  C   UNL A   1      42.166  24.139  26.880  1.00  0.00     0.198 A 
ATOM     97  F   UNL A   1      41.680  25.318  28.815  1.00  0.00    -0.203 F 
ATOM     98  F   UNL A   1      45.300  23.074  25.440  1.00  0.00    -0.200 F 
ATOM     99  C   UNL A   1      43.067  23.589  25.994  1.00  0.00     0.200 A 
ATOM    100  F   UNL A   1      40.850  24.066  26.642  1.00  0.00    -0.200 F 
ATOM    101  F   UNL A   1      42.634  23.023  24.861  1.00  0.00    -0.200 F 
ENDBRANCH  68  91
ENDBRANCH  42  43
ENDBRANCH  35  37
ENDBRANCH  34  35
ENDBRANCH  33  34
ENDBRANCH  32  33
ENDBRANCH  31  32
ENDBRANCH  30  31
ENDBRANCH  29  30
ENDBRANCH  28  29
ENDBRANCH   1  28
TORSDOF 23
ENDMDL
