MODEL 1
REMARK VINA RESULT:      -9.4      0.000      0.000
REMARK SMILES Cc1ccc(S(=O)(=O)n2cc(C(=O)C(=O)NCC(=O)NCC(=O)OCCOCCOCCOCCOC(=O)c3ccc(-c4c5nc(c(-c6c(F)c(F)c(F)c(F)c6F)c6ccc([nH]6)c(-c6c(F)c(F)c(F)c(F)c6F)c6nc(c(-c7c(F)c(F)c(F)c(F)c7F)c7ccc4[nH]7)C=C6)C=C5)cc3)c3ccccc32)cc1
REMARK SMILES IDX 28 1 27 2 26 3 25 4 24 5 22 6 23 7 21 8 20 9 18 10 19 11
REMARK SMILES IDX 17 13 16 14 14 15 15 16 12 18 13 19 11 20 9 21 10 22 107 23
REMARK SMILES IDX 102 24 106 25 103 26 105 27 104 28 6 29 7 30 8 31 5 32 1 33
REMARK SMILES IDX 2 34 3 35 109 36 4 37 108 38 29 39 30 40 31 41 32 42 33 43
REMARK SMILES IDX 34 44 35 45 36 46 37 47 38 48 39 49 40 50 101 51 41 52
REMARK SMILES IDX 100 53 42 54 43 55 44 56 94 57 45 58 99 59 93 60 95 61 46 62
REMARK SMILES IDX 98 63 92 64 91 65 47 67 79 68 59 69 78 70 60 71 63 72 77 73
REMARK SMILES IDX 96 74 61 75 62 76 76 78 97 79 64 80 48 81 49 82 57 83 50 84
REMARK SMILES IDX 51 85 55 86 58 87 52 88 53 89 56 90 54 91 80 92 81 93 89 94
REMARK SMILES IDX 82 95 83 96 87 97 90 98 84 99 85 100 88 101 86 102 65 103
REMARK SMILES IDX 66 104 74 105 67 106 68 107 72 108 75 109 69 110 70 111
REMARK SMILES IDX 73 112 71 113
REMARK H PARENT 20 12 16 17 95 66 63 77
REMARK Flexibility Score: inf
ROOT
ATOM      1  C   UNL A   1      38.402  31.177  32.413  1.00  0.00     0.188 C 
ENDROOT
BRANCH   1   2
ATOM      2  O   UNL A   1      37.262  31.664  31.725  1.00  0.00    -0.376 OA
BRANCH   2   3
ATOM      3  C   UNL A   1      36.116  31.960  32.539  1.00  0.00     0.202 C 
BRANCH   3   4
ATOM      4  C   UNL A   1      34.981  32.783  31.905  1.00  0.00     0.261 C 
BRANCH   4   5
ATOM      5  O   UNL A   1      34.578  32.201  30.642  1.00  0.00    -0.462 OA
BRANCH   5   6
ATOM      6  C   UNL A   1      34.472  33.060  29.596  1.00  0.00     0.325 C 
ATOM      7  O   UNL A   1      34.263  34.262  29.704  1.00  0.00    -0.250 OA
BRANCH   6   8
ATOM      8  C   UNL A   1      34.820  32.393  28.251  1.00  0.00     0.238 C 
BRANCH   8   9
ATOM      9  N   UNL A   1      35.359  31.030  28.228  1.00  0.00    -0.344 N 
ATOM     10  C   UNL A   1      34.997  29.963  27.466  1.00  0.00     0.239 C 
ATOM     11  O   UNL A   1      35.710  28.958  27.460  1.00  0.00    -0.273 OA
ATOM     12  H   UNL A   1      36.095  30.863  28.859  1.00  0.00     0.164 HD
BRANCH  10  13
ATOM     13  C   UNL A   1      33.652  29.972  26.767  1.00  0.00     0.216 C 
BRANCH  13  14
ATOM     14  N   UNL A   1      32.750  29.188  27.596  1.00  0.00    -0.340 N 
ATOM     15  C   UNL A   1      31.773  28.285  27.257  1.00  0.00     0.292 C 
ATOM     16  O   UNL A   1      31.089  27.791  28.145  1.00  0.00    -0.265 OA
ATOM     17  H   UNL A   1      32.857  29.330  28.565  1.00  0.00     0.164 HD
BRANCH  15  18
ATOM     18  C   UNL A   1      31.532  27.901  25.778  1.00  0.00     0.252 C 
ATOM     19  O   UNL A   1      31.060  28.752  25.028  1.00  0.00    -0.283 OA
BRANCH  18  20
ATOM     20  C   UNL A   1      31.824  26.552  25.279  1.00  0.00     0.054 A 
ATOM     21  N   UNL A   1      32.675  24.857  24.100  1.00  0.00    -0.240 N 
ATOM     22  C   UNL A   1      32.604  26.222  24.188  1.00  0.00     0.117 A 
ATOM     23  C   UNL A   1      31.779  24.269  24.970  1.00  0.00     0.065 A 
ATOM     24  C   UNL A   1      31.274  25.313  25.762  1.00  0.00     0.012 A 
ATOM     25  C   UNL A   1      31.331  22.945  25.120  1.00  0.00     0.028 A 
ATOM     26  C   UNL A   1      30.351  24.996  26.783  1.00  0.00     0.011 A 
ATOM     27  C   UNL A   1      30.365  22.677  26.093  1.00  0.00     0.002 A 
ATOM     28  C   UNL A   1      29.894  23.683  26.928  1.00  0.00     0.001 A 
BRANCH  21  29
ATOM     29  S   UNL A   1      33.488  24.043  22.840  1.00  0.00     0.268 S 
ATOM     30  O   UNL A   1      34.059  25.060  22.000  1.00  0.00    -0.201 OA
ATOM     31  O   UNL A   1      32.560  23.031  22.336  1.00  0.00    -0.201 OA
BRANCH  29  32
ATOM     32  C   UNL A   1      34.814  23.152  23.597  1.00  0.00     0.088 A 
ATOM     33  C   UNL A   1      37.915  20.756  25.336  1.00  0.00     0.044 C 
ATOM     34  C   UNL A   1      36.830  21.605  24.746  1.00  0.00    -0.051 A 
ATOM     35  C   UNL A   1      35.509  21.139  24.728  1.00  0.00     0.005 A 
ATOM     36  C   UNL A   1      37.125  22.863  24.210  1.00  0.00     0.005 A 
ATOM     37  C   UNL A   1      34.501  21.907  24.151  1.00  0.00     0.022 A 
ATOM     38  C   UNL A   1      36.119  23.642  23.644  1.00  0.00     0.022 A 
ENDBRANCH  29  32
ENDBRANCH  21  29
ENDBRANCH  18  20
ENDBRANCH  15  18
ENDBRANCH  13  14
ENDBRANCH  10  13
ENDBRANCH   8   9
ENDBRANCH   6   8
ENDBRANCH   5   6
ENDBRANCH   4   5
ENDBRANCH   3   4
ENDBRANCH   2   3
ENDBRANCH   1   2
BRANCH   1  39
ATOM     39  C   UNL A   1      38.221  29.994  33.356  1.00  0.00     0.188 C 
BRANCH  39  40
ATOM     40  O   UNL A   1      38.252  30.304  34.752  1.00  0.00    -0.377 OA
BRANCH  40  41
ATOM     41  C   UNL A   1      39.451  30.049  35.477  1.00  0.00     0.188 C 
BRANCH  41  42
ATOM     42  C   UNL A   1      40.436  31.215  35.536  1.00  0.00     0.188 C 
BRANCH  42  43
ATOM     43  O   UNL A   1      39.944  32.296  36.317  1.00  0.00    -0.376 OA
BRANCH  43  44
ATOM     44  C   UNL A   1      40.869  33.318  36.695  1.00  0.00     0.202 C 
BRANCH  44  45
ATOM     45  C   UNL A   1      40.867  34.606  35.860  1.00  0.00     0.261 C 
BRANCH  45  46
ATOM     46  O   UNL A   1      41.393  34.351  34.544  1.00  0.00    -0.460 OA
BRANCH  46  47
ATOM     47  C   UNL A   1      40.483  34.441  33.539  1.00  0.00     0.338 C 
ATOM     48  O   UNL A   1      39.275  34.452  33.692  1.00  0.00    -0.246 OA
BRANCH  47  49
ATOM     49  C   UNL A   1      41.168  34.329  32.222  1.00  0.00     0.060 A 
ATOM     50  C   UNL A   1      40.446  33.910  31.097  1.00  0.00     0.016 A 
ATOM     51  C   UNL A   1      42.559  34.358  32.177  1.00  0.00     0.016 A 
ATOM     52  C   UNL A   1      41.118  33.327  30.015  1.00  0.00     0.010 A 
ATOM     53  C   UNL A   1      43.203  33.670  31.168  1.00  0.00     0.010 A 
ATOM     54  C   UNL A   1      42.487  33.092  30.110  1.00  0.00    -0.014 A 
BRANCH  54  55
ATOM     55  C   UNL A   1      43.233  32.102  29.313  1.00  0.00     0.031 A 
ATOM     56  C   UNL A   1      42.970  30.646  29.523  1.00  0.00     0.074 A 
ATOM     57  C   UNL A   1      43.869  32.524  28.188  1.00  0.00     0.049 A 
ATOM     58  N   UNL A   1      43.387  29.718  28.738  1.00  0.00    -0.248 NA
ATOM     59  C   UNL A   1      42.196  30.102  30.635  1.00  0.00     0.031 C 
ATOM     60  C   UNL A   1      44.147  31.745  26.984  1.00  0.00     0.029 A 
ATOM     61  N   UNL A   1      44.396  33.780  27.869  1.00  0.00    -0.354 N 
ATOM     62  C   UNL A   1      42.796  28.522  29.073  1.00  0.00     0.074 A 
ATOM     63  C   UNL A   1      42.088  28.810  30.293  1.00  0.00     0.031 C 
ATOM     64  C   UNL A   1      44.871  32.454  26.109  1.00  0.00     0.029 A 
ATOM     65  C   UNL A   1      45.333  33.616  26.820  1.00  0.00     0.049 A 
ATOM     66  H   UNL A   1      44.156  34.632  28.300  1.00  0.00     0.167 HD
ATOM     67  C   UNL A   1      42.943  27.476  28.204  1.00  0.00     0.037 A 
ATOM     68  C   UNL A   1      46.661  33.833  27.074  1.00  0.00     0.037 A 
ATOM     69  C   UNL A   1      44.033  27.765  27.254  1.00  0.00     0.049 A 
ATOM     70  C   UNL A   1      47.446  32.535  27.238  1.00  0.00     0.074 A 
ATOM     71  C   UNL A   1      44.133  27.978  25.891  1.00  0.00     0.029 A 
ATOM     72  N   UNL A   1      45.265  28.152  27.782  1.00  0.00    -0.354 N 
ATOM     73  N   UNL A   1      46.886  31.352  27.187  1.00  0.00    -0.248 NA
ATOM     74  C   UNL A   1      48.882  32.427  27.469  1.00  0.00     0.031 C 
ATOM     75  C   UNL A   1      45.355  28.683  25.666  1.00  0.00     0.029 A 
ATOM     76  C   UNL A   1      46.103  28.680  26.826  1.00  0.00     0.049 A 
ATOM     77  H   UNL A   1      45.508  28.056  28.731  1.00  0.00     0.167 HD
ATOM     78  C   UNL A   1      47.807  30.358  27.301  1.00  0.00     0.074 A 
ATOM     79  C   UNL A   1      49.042  31.090  27.552  1.00  0.00     0.031 C 
ATOM     80  C   UNL A   1      47.478  29.031  27.170  1.00  0.00     0.037 A 
BRANCH  67  81
ATOM     81  C   UNL A   1      42.060  26.238  28.116  1.00  0.00     0.064 A 
ATOM     82  C   UNL A   1      42.523  24.986  28.590  1.00  0.00     0.173 A 
ATOM     83  C   UNL A   1      40.800  26.178  27.478  1.00  0.00     0.173 A 
ATOM     84  F   UNL A   1      43.707  24.875  29.204  1.00  0.00    -0.203 F 
ATOM     85  C   UNL A   1      41.799  23.795  28.432  1.00  0.00     0.198 A 
ATOM     86  C   UNL A   1      40.059  24.995  27.358  1.00  0.00     0.198 A 
ATOM     87  F   UNL A   1      40.250  27.243  26.891  1.00  0.00    -0.203 F 
ATOM     88  F   UNL A   1      42.317  22.634  28.859  1.00  0.00    -0.200 F 
ATOM     89  C   UNL A   1      40.561  23.800  27.824  1.00  0.00     0.200 A 
ATOM     90  F   UNL A   1      38.859  25.025  26.757  1.00  0.00    -0.200 F 
ATOM     91  F   UNL A   1      39.866  22.665  27.671  1.00  0.00    -0.200 F 
ENDBRANCH  67  81
BRANCH  68  92
ATOM     92  C   UNL A   1      46.820  35.185  27.702  1.00  0.00     0.064 A 
ATOM     93  C   UNL A   1      46.322  36.233  26.886  1.00  0.00     0.173 A 
ATOM     94  C   UNL A   1      46.668  35.328  29.088  1.00  0.00     0.173 A 
ATOM     95  F   UNL A   1      46.490  36.172  25.555  1.00  0.00    -0.203 F 
ATOM     96  C   UNL A   1      45.417  37.162  27.395  1.00  0.00     0.198 A 
ATOM     97  C   UNL A   1      45.810  36.310  29.600  1.00  0.00     0.198 A 
ATOM     98  F   UNL A   1      47.162  34.401  29.920  1.00  0.00    -0.203 F 
ATOM     99  F   UNL A   1      44.721  37.945  26.558  1.00  0.00    -0.200 F 
ATOM    100  C   UNL A   1      45.120  37.161  28.745  1.00  0.00     0.200 A 
ATOM    101  F   UNL A   1      45.528  36.331  30.911  1.00  0.00    -0.200 F 
ATOM    102  F   UNL A   1      44.112  37.913  29.210  1.00  0.00    -0.200 F 
ENDBRANCH  68  92
BRANCH  80 103
ATOM    103  C   UNL A   1      48.459  27.902  27.370  1.00  0.00     0.064 A 
ATOM    104  C   UNL A   1      49.064  27.223  26.309  1.00  0.00     0.173 A 
ATOM    105  C   UNL A   1      48.817  27.447  28.664  1.00  0.00     0.173 A 
ATOM    106  F   UNL A   1      48.645  27.394  25.047  1.00  0.00    -0.203 F 
ATOM    107  C   UNL A   1      50.119  26.334  26.520  1.00  0.00     0.198 A 
ATOM    108  C   UNL A   1      49.818  26.507  28.873  1.00  0.00     0.198 A 
ATOM    109  F   UNL A   1      48.248  27.917  29.781  1.00  0.00    -0.203 F 
ATOM    110  F   UNL A   1      50.772  25.822  25.468  1.00  0.00    -0.200 F 
ATOM    111  C   UNL A   1      50.512  25.996  27.801  1.00  0.00     0.200 A 
ATOM    112  F   UNL A   1      50.134  26.142  30.124  1.00  0.00    -0.200 F 
ATOM    113  F   UNL A   1      51.556  25.183  28.004  1.00  0.00    -0.200 F 
ENDBRANCH  80 103
ENDBRANCH  54  55
ENDBRANCH  47  49
ENDBRANCH  46  47
ENDBRANCH  45  46
ENDBRANCH  44  45
ENDBRANCH  43  44
ENDBRANCH  42  43
ENDBRANCH  41  42
ENDBRANCH  40  41
ENDBRANCH  39  40
ENDBRANCH   1  39
TORSDOF 27
ENDMDL
MODEL 2
REMARK VINA RESULT:      -8.8      1.300      2.226
REMARK SMILES Cc1ccc(S(=O)(=O)n2cc(C(=O)C(=O)NCC(=O)NCC(=O)OCCOCCOCCOCCOC(=O)c3ccc(-c4c5nc(c(-c6c(F)c(F)c(F)c(F)c6F)c6ccc([nH]6)c(-c6c(F)c(F)c(F)c(F)c6F)c6nc(c(-c7c(F)c(F)c(F)c(F)c7F)c7ccc4[nH]7)C=C6)C=C5)cc3)c3ccccc32)cc1
REMARK SMILES IDX 28 1 27 2 26 3 25 4 24 5 22 6 23 7 21 8 20 9 18 10 19 11
REMARK SMILES IDX 17 13 16 14 14 15 15 16 12 18 13 19 11 20 9 21 10 22 107 23
REMARK SMILES IDX 102 24 106 25 103 26 105 27 104 28 6 29 7 30 8 31 5 32 1 33
REMARK SMILES IDX 2 34 3 35 109 36 4 37 108 38 29 39 30 40 31 41 32 42 33 43
REMARK SMILES IDX 34 44 35 45 36 46 37 47 38 48 39 49 40 50 101 51 41 52
REMARK SMILES IDX 100 53 42 54 43 55 44 56 94 57 45 58 99 59 93 60 95 61 46 62
REMARK SMILES IDX 98 63 92 64 91 65 47 67 79 68 59 69 78 70 60 71 63 72 77 73
REMARK SMILES IDX 96 74 61 75 62 76 76 78 97 79 64 80 48 81 49 82 57 83 50 84
REMARK SMILES IDX 51 85 55 86 58 87 52 88 53 89 56 90 54 91 80 92 81 93 89 94
REMARK SMILES IDX 82 95 83 96 87 97 90 98 84 99 85 100 88 101 86 102 65 103
REMARK SMILES IDX 66 104 74 105 67 106 68 107 72 108 75 109 69 110 70 111
REMARK SMILES IDX 73 112 71 113
REMARK H PARENT 20 12 16 17 95 66 63 77
REMARK Flexibility Score: inf
ROOT
ATOM      1  C   UNL A   1      38.352  31.207  32.797  1.00  0.00     0.188 C 
ENDROOT
BRANCH   1   2
ATOM      2  O   UNL A   1      37.330  31.773  31.994  1.00  0.00    -0.376 OA
BRANCH   2   3
ATOM      3  C   UNL A   1      36.328  32.528  32.694  1.00  0.00     0.202 C 
BRANCH   3   4
ATOM      4  C   UNL A   1      35.305  33.312  31.853  1.00  0.00     0.261 C 
BRANCH   4   5
ATOM      5  O   UNL A   1      34.749  32.469  30.817  1.00  0.00    -0.462 OA
BRANCH   5   6
ATOM      6  C   UNL A   1      34.281  33.108  29.715  1.00  0.00     0.325 C 
ATOM      7  O   UNL A   1      33.675  34.172  29.735  1.00  0.00    -0.250 OA
BRANCH   6   8
ATOM      8  C   UNL A   1      34.746  32.440  28.406  1.00  0.00     0.238 C 
BRANCH   8   9
ATOM      9  N   UNL A   1      35.348  31.103  28.441  1.00  0.00    -0.344 N 
ATOM     10  C   UNL A   1      35.165  30.043  27.610  1.00  0.00     0.239 C 
ATOM     11  O   UNL A   1      35.919  29.072  27.697  1.00  0.00    -0.273 OA
ATOM     12  H   UNL A   1      35.982  30.951  29.178  1.00  0.00     0.164 HD
BRANCH  10  13
ATOM     13  C   UNL A   1      33.949  30.011  26.704  1.00  0.00     0.216 C 
BRANCH  13  14
ATOM     14  N   UNL A   1      32.850  29.497  27.507  1.00  0.00    -0.340 N 
ATOM     15  C   UNL A   1      31.948  28.493  27.258  1.00  0.00     0.292 C 
ATOM     16  O   UNL A   1      31.057  28.281  28.073  1.00  0.00    -0.265 OA
ATOM     17  H   UNL A   1      32.733  29.946  28.376  1.00  0.00     0.164 HD
BRANCH  15  18
ATOM     18  C   UNL A   1      32.046  27.646  25.967  1.00  0.00     0.252 C 
ATOM     19  O   UNL A   1      31.795  28.192  24.895  1.00  0.00    -0.283 OA
BRANCH  18  20
ATOM     20  C   UNL A   1      32.395  26.221  26.010  1.00  0.00     0.054 A 
ATOM     21  N   UNL A   1      33.536  24.305  25.887  1.00  0.00    -0.240 N 
ATOM     22  C   UNL A   1      33.594  25.649  25.632  1.00  0.00     0.117 A 
ATOM     23  C   UNL A   1      32.248  23.931  26.216  1.00  0.00     0.065 A 
ATOM     24  C   UNL A   1      31.527  25.127  26.355  1.00  0.00     0.012 A 
ATOM     25  C   UNL A   1      31.634  22.675  26.366  1.00  0.00     0.028 A 
ATOM     26  C   UNL A   1      30.167  25.051  26.733  1.00  0.00     0.011 A 
ATOM     27  C   UNL A   1      30.271  22.635  26.672  1.00  0.00     0.002 A 
ATOM     28  C   UNL A   1      29.550  23.806  26.873  1.00  0.00     0.001 A 
BRANCH  21  29
ATOM     29  S   UNL A   1      34.796  23.224  25.493  1.00  0.00     0.268 S 
ATOM     30  O   UNL A   1      35.325  22.743  26.739  1.00  0.00    -0.201 OA
ATOM     31  O   UNL A   1      35.621  23.900  24.491  1.00  0.00    -0.201 OA
BRANCH  29  32
ATOM     32  C   UNL A   1      34.039  21.861  24.658  1.00  0.00     0.088 A 
ATOM     33  C   UNL A   1      32.180  18.431  22.882  1.00  0.00     0.044 C 
ATOM     34  C   UNL A   1      32.845  19.630  23.487  1.00  0.00    -0.051 A 
ATOM     35  C   UNL A   1      33.741  19.471  24.551  1.00  0.00     0.005 A 
ATOM     36  C   UNL A   1      32.575  20.913  22.998  1.00  0.00     0.005 A 
ATOM     37  C   UNL A   1      34.335  20.584  25.142  1.00  0.00     0.022 A 
ATOM     38  C   UNL A   1      33.177  22.029  23.574  1.00  0.00     0.022 A 
ENDBRANCH  29  32
ENDBRANCH  21  29
ENDBRANCH  18  20
ENDBRANCH  15  18
ENDBRANCH  13  14
ENDBRANCH  10  13
ENDBRANCH   8   9
ENDBRANCH   6   8
ENDBRANCH   5   6
ENDBRANCH   4   5
ENDBRANCH   3   4
ENDBRANCH   2   3
ENDBRANCH   1   2
BRANCH   1  39
ATOM     39  C   UNL A   1      37.960  30.143  33.815  1.00  0.00     0.188 C 
BRANCH  39  40
ATOM     40  O   UNL A   1      37.682  30.622  35.135  1.00  0.00    -0.377 OA
BRANCH  40  41
ATOM     41  C   UNL A   1      38.672  30.443  36.143  1.00  0.00     0.188 C 
BRANCH  41  42
ATOM     42  C   UNL A   1      39.992  31.170  35.894  1.00  0.00     0.188 C 
BRANCH  42  43
ATOM     43  O   UNL A   1      39.811  32.567  35.713  1.00  0.00    -0.376 OA
BRANCH  43  44
ATOM     44  C   UNL A   1      40.801  33.442  36.260  1.00  0.00     0.202 C 
BRANCH  44  45
ATOM     45  C   UNL A   1      40.850  34.873  35.708  1.00  0.00     0.261 C 
BRANCH  45  46
ATOM     46  O   UNL A   1      41.483  34.891  34.415  1.00  0.00    -0.460 OA
BRANCH  46  47
ATOM     47  C   UNL A   1      40.632  34.785  33.362  1.00  0.00     0.338 C 
ATOM     48  O   UNL A   1      39.425  34.659  33.452  1.00  0.00    -0.246 OA
BRANCH  47  49
ATOM     49  C   UNL A   1      41.405  34.652  32.097  1.00  0.00     0.060 A 
ATOM     50  C   UNL A   1      40.735  34.352  30.902  1.00  0.00     0.016 A 
ATOM     51  C   UNL A   1      42.791  34.538  32.157  1.00  0.00     0.016 A 
ATOM     52  C   UNL A   1      41.428  33.743  29.849  1.00  0.00     0.010 A 
ATOM     53  C   UNL A   1      43.440  33.825  31.169  1.00  0.00     0.010 A 
ATOM     54  C   UNL A   1      42.755  33.364  30.036  1.00  0.00    -0.014 A 
BRANCH  54  55
ATOM     55  C   UNL A   1      43.459  32.333  29.253  1.00  0.00     0.031 A 
ATOM     56  C   UNL A   1      43.151  30.892  29.499  1.00  0.00     0.074 A 
ATOM     57  C   UNL A   1      44.094  32.708  28.111  1.00  0.00     0.049 A 
ATOM     58  N   UNL A   1      43.528  29.933  28.730  1.00  0.00    -0.248 NA
ATOM     59  C   UNL A   1      42.373  30.398  30.633  1.00  0.00     0.031 C 
ATOM     60  C   UNL A   1      44.330  31.893  26.922  1.00  0.00     0.029 A 
ATOM     61  N   UNL A   1      44.656  33.938  27.757  1.00  0.00    -0.354 N 
ATOM     62  C   UNL A   1      42.902  28.764  29.100  1.00  0.00     0.074 A 
ATOM     63  C   UNL A   1      42.219  29.103  30.322  1.00  0.00     0.031 C 
ATOM     64  C   UNL A   1      45.066  32.558  26.022  1.00  0.00     0.029 A 
ATOM     65  C   UNL A   1      45.575  33.720  26.700  1.00  0.00     0.049 A 
ATOM     66  H   UNL A   1      44.450  34.807  28.171  1.00  0.00     0.167 HD
ATOM     67  C   UNL A   1      43.005  27.694  28.255  1.00  0.00     0.037 A 
ATOM     68  C   UNL A   1      46.912  33.899  26.934  1.00  0.00     0.037 A 
ATOM     69  C   UNL A   1      44.091  27.926  27.285  1.00  0.00     0.049 A 
ATOM     70  C   UNL A   1      47.657  32.580  27.118  1.00  0.00     0.074 A 
ATOM     71  C   UNL A   1      44.181  28.105  25.916  1.00  0.00     0.029 A 
ATOM     72  N   UNL A   1      45.341  28.284  27.788  1.00  0.00    -0.354 N 
ATOM     73  N   UNL A   1      47.058  31.415  27.101  1.00  0.00    -0.248 NA
ATOM     74  C   UNL A   1      49.091  32.430  27.334  1.00  0.00     0.031 C 
ATOM     75  C   UNL A   1      45.422  28.764  25.660  1.00  0.00     0.029 A 
ATOM     76  C   UNL A   1      46.184  28.763  26.811  1.00  0.00     0.049 A 
ATOM     77  H   UNL A   1      45.594  28.202  28.737  1.00  0.00     0.167 HD
ATOM     78  C   UNL A   1      47.948  30.394  27.227  1.00  0.00     0.074 A 
ATOM     79  C   UNL A   1      49.209  31.091  27.446  1.00  0.00     0.031 C 
ATOM     80  C   UNL A   1      47.573  29.077  27.130  1.00  0.00     0.037 A 
BRANCH  67  81
ATOM     81  C   UNL A   1      42.081  26.484  28.205  1.00  0.00     0.064 A 
ATOM     82  C   UNL A   1      42.601  25.174  28.332  1.00  0.00     0.173 A 
ATOM     83  C   UNL A   1      40.696  26.525  27.923  1.00  0.00     0.173 A 
ATOM     84  F   UNL A   1      43.900  24.967  28.584  1.00  0.00    -0.203 F 
ATOM     85  C   UNL A   1      41.814  24.022  28.181  1.00  0.00     0.198 A 
ATOM     86  C   UNL A   1      39.903  25.375  27.814  1.00  0.00     0.198 A 
ATOM     87  F   UNL A   1      40.054  27.671  27.682  1.00  0.00    -0.203 F 
ATOM     88  F   UNL A   1      42.380  22.809  28.264  1.00  0.00    -0.200 F 
ATOM     89  C   UNL A   1      40.462  24.122  27.932  1.00  0.00     0.200 A 
ATOM     90  F   UNL A   1      38.590  25.499  27.566  1.00  0.00    -0.200 F 
ATOM     91  F   UNL A   1      39.706  23.026  27.788  1.00  0.00    -0.200 F 
ENDBRANCH  67  81
BRANCH  68  92
ATOM     92  C   UNL A   1      47.123  35.259  27.529  1.00  0.00     0.064 A 
ATOM     93  C   UNL A   1      47.612  35.208  28.859  1.00  0.00     0.173 A 
ATOM     94  C   UNL A   1      47.584  36.306  26.719  1.00  0.00     0.173 A 
ATOM     95  F   UNL A   1      47.162  34.257  29.694  1.00  0.00    -0.203 F 
ATOM     96  C   UNL A   1      48.751  35.923  29.227  1.00  0.00     0.198 A 
ATOM     97  C   UNL A   1      48.686  37.069  27.123  1.00  0.00     0.198 A 
ATOM     98  F   UNL A   1      47.124  36.445  25.468  1.00  0.00    -0.203 F 
ATOM     99  F   UNL A   1      49.380  35.633  30.375  1.00  0.00    -0.200 F 
ATOM    100  C   UNL A   1      49.319  36.813  28.334  1.00  0.00     0.200 A 
ATOM    101  F   UNL A   1      49.237  37.950  26.274  1.00  0.00    -0.200 F 
ATOM    102  F   UNL A   1      50.516  37.355  28.599  1.00  0.00    -0.200 F 
ENDBRANCH  68  92
BRANCH  80 103
ATOM    103  C   UNL A   1      48.520  27.921  27.345  1.00  0.00     0.064 A 
ATOM    104  C   UNL A   1      48.737  27.338  28.597  1.00  0.00     0.173 A 
ATOM    105  C   UNL A   1      49.267  27.360  26.279  1.00  0.00     0.173 A 
ATOM    106  F   UNL A   1      48.277  27.912  29.718  1.00  0.00    -0.203 F 
ATOM    107  C   UNL A   1      49.447  26.145  28.733  1.00  0.00     0.198 A 
ATOM    108  C   UNL A   1      50.033  26.212  26.428  1.00  0.00     0.198 A 
ATOM    109  F   UNL A   1      49.255  27.869  25.040  1.00  0.00    -0.203 F 
ATOM    110  F   UNL A   1      49.501  25.540  29.927  1.00  0.00    -0.200 F 
ATOM    111  C   UNL A   1      50.074  25.569  27.643  1.00  0.00     0.200 A 
ATOM    112  F   UNL A   1      50.690  25.711  25.372  1.00  0.00    -0.200 F 
ATOM    113  F   UNL A   1      50.712  24.399  27.762  1.00  0.00    -0.200 F 
ENDBRANCH  80 103
ENDBRANCH  54  55
ENDBRANCH  47  49
ENDBRANCH  46  47
ENDBRANCH  45  46
ENDBRANCH  44  45
ENDBRANCH  43  44
ENDBRANCH  42  43
ENDBRANCH  41  42
ENDBRANCH  40  41
ENDBRANCH  39  40
ENDBRANCH   1  39
TORSDOF 27
ENDMDL
MODEL 3
REMARK VINA RESULT:      -8.4      6.475     13.369
REMARK SMILES Cc1ccc(S(=O)(=O)n2cc(C(=O)C(=O)NCC(=O)NCC(=O)OCCOCCOCCOCCOC(=O)c3ccc(-c4c5nc(c(-c6c(F)c(F)c(F)c(F)c6F)c6ccc([nH]6)c(-c6c(F)c(F)c(F)c(F)c6F)c6nc(c(-c7c(F)c(F)c(F)c(F)c7F)c7ccc4[nH]7)C=C6)C=C5)cc3)c3ccccc32)cc1
REMARK SMILES IDX 28 1 27 2 26 3 25 4 24 5 22 6 23 7 21 8 20 9 18 10 19 11
REMARK SMILES IDX 17 13 16 14 14 15 15 16 12 18 13 19 11 20 9 21 10 22 107 23
REMARK SMILES IDX 102 24 106 25 103 26 105 27 104 28 6 29 7 30 8 31 5 32 1 33
REMARK SMILES IDX 2 34 3 35 109 36 4 37 108 38 29 39 30 40 31 41 32 42 33 43
REMARK SMILES IDX 34 44 35 45 36 46 37 47 38 48 39 49 40 50 101 51 41 52
REMARK SMILES IDX 100 53 42 54 43 55 44 56 94 57 45 58 99 59 93 60 95 61 46 62
REMARK SMILES IDX 98 63 92 64 91 65 47 67 79 68 59 69 78 70 60 71 63 72 77 73
REMARK SMILES IDX 96 74 61 75 62 76 76 78 97 79 64 80 48 81 49 82 57 83 50 84
REMARK SMILES IDX 51 85 55 86 58 87 52 88 53 89 56 90 54 91 80 92 81 93 89 94
REMARK SMILES IDX 82 95 83 96 87 97 90 98 84 99 85 100 88 101 86 102 65 103
REMARK SMILES IDX 66 104 74 105 67 106 68 107 72 108 75 109 69 110 70 111
REMARK SMILES IDX 73 112 71 113
REMARK H PARENT 20 12 16 17 95 66 63 77
REMARK Flexibility Score: inf
ROOT
ATOM      1  C   UNL A   1      49.139  26.327  26.033  1.00  0.00     0.188 C 
ENDROOT
BRANCH   1   2
ATOM      2  O   UNL A   1      48.510  26.557  27.283  1.00  0.00    -0.376 OA
BRANCH   2   3
ATOM      3  C   UNL A   1      48.135  25.384  28.022  1.00  0.00     0.202 C 
BRANCH   3   4
ATOM      4  C   UNL A   1      47.099  24.439  27.389  1.00  0.00     0.261 C 
BRANCH   4   5
ATOM      5  O   UNL A   1      46.000  24.207  28.303  1.00  0.00    -0.462 OA
BRANCH   5   6
ATOM      6  C   UNL A   1      45.013  23.391  27.854  1.00  0.00     0.325 C 
ATOM      7  O   UNL A   1      45.107  22.663  26.874  1.00  0.00    -0.250 OA
BRANCH   6   8
ATOM      8  C   UNL A   1      43.809  23.341  28.815  1.00  0.00     0.238 C 
BRANCH   8   9
ATOM      9  N   UNL A   1      44.011  22.984  30.223  1.00  0.00    -0.344 N 
ATOM     10  C   UNL A   1      44.044  23.777  31.327  1.00  0.00     0.239 C 
ATOM     11  O   UNL A   1      44.028  23.256  32.443  1.00  0.00    -0.273 OA
ATOM     12  H   UNL A   1      44.142  22.024  30.394  1.00  0.00     0.164 HD
BRANCH  10  13
ATOM     13  C   UNL A   1      44.256  25.270  31.163  1.00  0.00     0.216 C 
BRANCH  13  14
ATOM     14  N   UNL A   1      45.695  25.483  31.142  1.00  0.00    -0.340 N 
ATOM     15  C   UNL A   1      46.500  26.257  31.941  1.00  0.00     0.292 C 
ATOM     16  O   UNL A   1      47.697  26.326  31.685  1.00  0.00    -0.265 OA
ATOM     17  H   UNL A   1      46.172  24.989  30.437  1.00  0.00     0.164 HD
BRANCH  15  18
ATOM     18  C   UNL A   1      45.910  27.036  33.140  1.00  0.00     0.252 C 
ATOM     19  O   UNL A   1      45.856  28.261  33.065  1.00  0.00    -0.283 OA
BRANCH  18  20
ATOM     20  C   UNL A   1      45.452  26.346  34.351  1.00  0.00     0.054 A 
ATOM     21  N   UNL A   1      45.430  25.183  36.259  1.00  0.00    -0.240 N 
ATOM     22  C   UNL A   1      46.223  25.604  35.225  1.00  0.00     0.117 A 
ATOM     23  C   UNL A   1      44.101  25.435  35.980  1.00  0.00     0.065 A 
ATOM     24  C   UNL A   1      44.096  26.216  34.814  1.00  0.00     0.012 A 
ATOM     25  C   UNL A   1      42.908  25.030  36.604  1.00  0.00     0.028 A 
ATOM     26  C   UNL A   1      42.854  26.663  34.310  1.00  0.00     0.011 A 
ATOM     27  C   UNL A   1      41.694  25.432  36.039  1.00  0.00     0.002 A 
ATOM     28  C   UNL A   1      41.665  26.254  34.920  1.00  0.00     0.001 A 
BRANCH  21  29
ATOM     29  S   UNL A   1      45.989  24.175  37.516  1.00  0.00     0.268 S 
ATOM     30  O   UNL A   1      45.067  24.334  38.607  1.00  0.00    -0.201 OA
ATOM     31  O   UNL A   1      47.423  24.438  37.648  1.00  0.00    -0.201 OA
BRANCH  29  32
ATOM     32  C   UNL A   1      45.853  22.516  36.921  1.00  0.00     0.088 A 
ATOM     33  C   UNL A   1      45.598  18.586  35.228  1.00  0.00     0.044 C 
ATOM     34  C   UNL A   1      45.668  19.956  35.831  1.00  0.00    -0.051 A 
ATOM     35  C   UNL A   1      45.263  21.070  35.084  1.00  0.00     0.005 A 
ATOM     36  C   UNL A   1      46.140  20.134  37.136  1.00  0.00     0.005 A 
ATOM     37  C   UNL A   1      45.358  22.350  35.625  1.00  0.00     0.022 A 
ATOM     38  C   UNL A   1      46.224  21.410  37.687  1.00  0.00     0.022 A 
ENDBRANCH  29  32
ENDBRANCH  21  29
ENDBRANCH  18  20
ENDBRANCH  15  18
ENDBRANCH  13  14
ENDBRANCH  10  13
ENDBRANCH   8   9
ENDBRANCH   6   8
ENDBRANCH   5   6
ENDBRANCH   4   5
ENDBRANCH   3   4
ENDBRANCH   2   3
ENDBRANCH   1   2
BRANCH   1  39
ATOM     39  C   UNL A   1      48.753  27.220  24.860  1.00  0.00     0.188 C 
BRANCH  39  40
ATOM     40  O   UNL A   1      47.900  28.324  25.176  1.00  0.00    -0.377 OA
BRANCH  40  41
ATOM     41  C   UNL A   1      46.533  28.258  24.782  1.00  0.00     0.188 C 
BRANCH  41  42
ATOM     42  C   UNL A   1      45.836  26.930  25.070  1.00  0.00     0.188 C 
BRANCH  42  43
ATOM     43  O   UNL A   1      44.675  27.095  25.872  1.00  0.00    -0.376 OA
BRANCH  43  44
ATOM     44  C   UNL A   1      43.557  27.772  25.292  1.00  0.00     0.202 C 
BRANCH  44  45
ATOM     45  C   UNL A   1      42.179  27.118  25.462  1.00  0.00     0.261 C 
BRANCH  45  46
ATOM     46  O   UNL A   1      41.408  27.822  26.454  1.00  0.00    -0.460 OA
BRANCH  46  47
ATOM     47  C   UNL A   1      41.353  27.215  27.668  1.00  0.00     0.338 C 
ATOM     48  O   UNL A   1      41.800  26.110  27.916  1.00  0.00    -0.246 OA
BRANCH  47  49
ATOM     49  C   UNL A   1      40.501  28.011  28.594  1.00  0.00     0.060 A 
ATOM     50  C   UNL A   1      39.979  29.242  28.174  1.00  0.00     0.016 A 
ATOM     51  C   UNL A   1      40.470  27.674  29.944  1.00  0.00     0.016 A 
ATOM     52  C   UNL A   1      39.625  30.209  29.123  1.00  0.00     0.010 A 
ATOM     53  C   UNL A   1      40.241  28.672  30.870  1.00  0.00     0.010 A 
ATOM     54  C   UNL A   1      39.878  29.965  30.471  1.00  0.00    -0.014 A 
BRANCH  54  55
ATOM     55  C   UNL A   1      40.013  31.004  31.507  1.00  0.00     0.031 A 
ATOM     56  C   UNL A   1      41.152  30.932  32.471  1.00  0.00     0.074 A 
ATOM     57  C   UNL A   1      39.325  32.167  31.351  1.00  0.00     0.049 A 
ATOM     58  N   UNL A   1      41.493  31.891  33.257  1.00  0.00    -0.248 NA
ATOM     59  C   UNL A   1      42.025  29.772  32.629  1.00  0.00     0.031 C 
ATOM     60  C   UNL A   1      39.699  33.489  31.847  1.00  0.00     0.029 A 
ATOM     61  N   UNL A   1      38.126  32.419  30.679  1.00  0.00    -0.354 N 
ATOM     62  C   UNL A   1      42.702  31.603  33.848  1.00  0.00     0.074 A 
ATOM     63  C   UNL A   1      42.973  30.245  33.449  1.00  0.00     0.031 C 
ATOM     64  C   UNL A   1      38.742  34.388  31.587  1.00  0.00     0.029 A 
ATOM     65  C   UNL A   1      37.590  33.637  31.166  1.00  0.00     0.049 A 
ATOM     66  H   UNL A   1      37.722  31.849  29.986  1.00  0.00     0.167 HD
ATOM     67  C   UNL A   1      43.329  32.607  34.533  1.00  0.00     0.037 A 
ATOM     68  C   UNL A   1      36.432  33.609  31.897  1.00  0.00     0.037 A 
ATOM     69  C   UNL A   1      42.376  33.700  34.800  1.00  0.00     0.049 A 
ATOM     70  C   UNL A   1      36.681  33.758  33.395  1.00  0.00     0.074 A 
ATOM     71  C   UNL A   1      42.243  35.021  34.410  1.00  0.00     0.029 A 
ATOM     72  N   UNL A   1      41.163  33.367  35.402  1.00  0.00    -0.354 N 
ATOM     73  N   UNL A   1      37.882  33.850  33.912  1.00  0.00    -0.248 NA
ATOM     74  C   UNL A   1      35.657  33.813  34.431  1.00  0.00     0.031 C 
ATOM     75  C   UNL A   1      40.875  35.380  34.607  1.00  0.00     0.029 A 
ATOM     76  C   UNL A   1      40.243  34.389  35.331  1.00  0.00     0.049 A 
ATOM     77  H   UNL A   1      40.985  32.499  35.832  1.00  0.00     0.167 HD
ATOM     78  C   UNL A   1      37.832  34.034  35.259  1.00  0.00     0.074 A 
ATOM     79  C   UNL A   1      36.407  33.929  35.547  1.00  0.00     0.031 C 
ATOM     80  C   UNL A   1      38.957  34.266  36.011  1.00  0.00     0.037 A 
BRANCH  67  81
ATOM     81  C   UNL A   1      44.810  32.683  34.879  1.00  0.00     0.064 A 
ATOM     82  C   UNL A   1      45.332  31.957  35.977  1.00  0.00     0.173 A 
ATOM     83  C   UNL A   1      45.752  33.530  34.253  1.00  0.00     0.173 A 
ATOM     84  F   UNL A   1      44.560  31.123  36.685  1.00  0.00    -0.203 F 
ATOM     85  C   UNL A   1      46.662  32.078  36.409  1.00  0.00     0.198 A 
ATOM     86  C   UNL A   1      47.091  33.618  34.659  1.00  0.00     0.198 A 
ATOM     87  F   UNL A   1      45.416  34.355  33.259  1.00  0.00    -0.203 F 
ATOM     88  F   UNL A   1      47.080  31.401  37.488  1.00  0.00    -0.200 F 
ATOM     89  C   UNL A   1      47.545  32.901  35.743  1.00  0.00     0.200 A 
ATOM     90  F   UNL A   1      47.930  34.431  33.998  1.00  0.00    -0.200 F 
ATOM     91  F   UNL A   1      48.816  33.020  36.151  1.00  0.00    -0.200 F 
ENDBRANCH  67  81
BRANCH  68  92
ATOM     92  C   UNL A   1      35.389  32.858  31.125  1.00  0.00     0.064 A 
ATOM     93  C   UNL A   1      34.810  33.632  30.087  1.00  0.00     0.173 A 
ATOM     94  C   UNL A   1      35.558  31.489  30.883  1.00  0.00     0.173 A 
ATOM     95  F   UNL A   1      34.576  34.940  30.287  1.00  0.00    -0.203 F 
ATOM     96  C   UNL A   1      34.753  33.144  28.783  1.00  0.00     0.198 A 
ATOM     97  C   UNL A   1      35.432  30.989  29.581  1.00  0.00     0.198 A 
ATOM     98  F   UNL A   1      36.050  30.690  31.838  1.00  0.00    -0.203 F 
ATOM     99  F   UNL A   1      34.499  33.981  27.766  1.00  0.00    -0.200 F 
ATOM    100  C   UNL A   1      35.119  31.836  28.524  1.00  0.00     0.200 A 
ATOM    101  F   UNL A   1      35.766  29.716  29.319  1.00  0.00    -0.200 F 
ATOM    102  F   UNL A   1      35.257  31.417  27.258  1.00  0.00    -0.200 F 
ENDBRANCH  68  92
BRANCH  80 103
ATOM    103  C   UNL A   1      38.946  34.394  37.515  1.00  0.00     0.064 A 
ATOM    104  C   UNL A   1      39.301  35.571  38.181  1.00  0.00     0.173 A 
ATOM    105  C   UNL A   1      38.585  33.309  38.352  1.00  0.00     0.173 A 
ATOM    106  F   UNL A   1      39.879  36.590  37.528  1.00  0.00    -0.203 F 
ATOM    107  C   UNL A   1      39.080  35.728  39.550  1.00  0.00     0.198 A 
ATOM    108  C   UNL A   1      38.434  33.446  39.726  1.00  0.00     0.198 A 
ATOM    109  F   UNL A   1      38.322  32.084  37.879  1.00  0.00    -0.203 F 
ATOM    110  F   UNL A   1      39.291  36.923  40.120  1.00  0.00    -0.200 F 
ATOM    111  C   UNL A   1      38.622  34.674  40.317  1.00  0.00     0.200 A 
ATOM    112  F   UNL A   1      38.057  32.389  40.460  1.00  0.00    -0.200 F 
ATOM    113  F   UNL A   1      38.362  34.839  41.619  1.00  0.00    -0.200 F 
ENDBRANCH  80 103
ENDBRANCH  54  55
ENDBRANCH  47  49
ENDBRANCH  46  47
ENDBRANCH  45  46
ENDBRANCH  44  45
ENDBRANCH  43  44
ENDBRANCH  42  43
ENDBRANCH  41  42
ENDBRANCH  40  41
ENDBRANCH  39  40
ENDBRANCH   1  39
TORSDOF 27
ENDMDL
