MODEL 1
REMARK VINA RESULT:     -10.8      0.000      0.000
REMARK SMILES CN(C)S(=O)(=O)c1ccc(-n2c(CCC(=O)OCCOCCOCCOCCOC(=O)c3ccc(-c4c5nc(c(-c6c(F)c(F)c(F)c(F)c6F)c6ccc([nH]6)c(-c6c(F)c(F)c(F)c(F)c6F)c6nc(c(-c7c(F)c(F)c(F)c(F)c7F)c7ccc4[nH]7)C=C6)C=C5)cc3)ccc2-c2ccc(F)cc2)cc1
REMARK SMILES IDX 21 1 20 2 19 3 18 4 17 5 15 6 16 7 14 8 13 9 12 10 11 11
REMARK SMILES IDX 97 12 95 13 96 14 10 15 7 16 8 17 106 18 9 19 105 20 4 21
REMARK SMILES IDX 5 22 6 23 2 24 1 25 3 26 98 27 99 28 104 29 100 30 103 31
REMARK SMILES IDX 101 32 102 33 22 34 23 35 24 36 25 37 26 38 27 39 28 40
REMARK SMILES IDX 29 41 30 42 31 43 32 44 33 45 94 46 34 47 93 48 35 49 36 50
REMARK SMILES IDX 37 51 87 52 38 53 92 54 86 55 88 56 39 57 91 58 85 59 84 60
REMARK SMILES IDX 40 62 72 63 52 64 71 65 53 66 56 67 70 68 89 69 54 70 55 71
REMARK SMILES IDX 69 73 90 74 57 75 41 76 42 77 50 78 43 79 44 80 48 81 51 82
REMARK SMILES IDX 45 83 46 84 49 85 47 86 73 87 74 88 82 89 75 90 76 91 80 92
REMARK SMILES IDX 83 93 77 94 78 95 81 96 79 97 58 98 59 99 67 100 60 101
REMARK SMILES IDX 61 102 65 103 68 104 62 105 63 106 66 107 64 108
REMARK H PARENT 88 61 56 72
REMARK Flexibility Score: inf
ROOT
ATOM      1  C   UNL A   1      35.095  21.978  24.619  1.00  0.00     0.188 C 
ENDROOT
BRANCH   1   2
ATOM      2  O   UNL A   1      33.984  22.821  25.294  1.00  0.00    -0.376 OA
BRANCH   2   3
ATOM      3  C   UNL A   1      32.954  24.530  25.351  1.00  0.00     0.202 C 
BRANCH   3   4
ATOM      4  C   UNL A   1      33.368  26.105  25.954  1.00  0.00     0.261 C 
BRANCH   4   5
ATOM      5  O   UNL A   1      32.419  26.819  26.803  1.00  0.00    -0.463 OA
BRANCH   5   6
ATOM      6  C   UNL A   1      32.618  28.162  26.949  1.00  0.00     0.306 C 
ATOM      7  O   UNL A   1      31.705  28.966  27.107  1.00  0.00    -0.252 OA
BRANCH   6   8
ATOM      8  C   UNL A   1      34.086  28.594  27.001  1.00  0.00     0.129 C 
BRANCH   8   9
ATOM      9  C   UNL A   1      34.466  30.040  27.352  1.00  0.00     0.066 C 
BRANCH   9  10
ATOM     10  C   UNL A   1      35.876  30.196  27.791  1.00  0.00     0.024 A 
ATOM     11  N   UNL A   1      36.355  31.216  28.607  1.00  0.00    -0.314 N 
ATOM     12  C   UNL A   1      37.671  30.853  28.981  1.00  0.00     0.053 A 
ATOM     13  C   UNL A   1      36.938  29.387  27.436  1.00  0.00     0.024 A 
ATOM     14  C   UNL A   1      38.057  29.797  28.173  1.00  0.00     0.029 A 
BRANCH  11  15
ATOM     15  C   UNL A   1      35.639  32.381  29.052  1.00  0.00     0.046 A 
ATOM     16  C   UNL A   1      33.630  35.069  30.399  1.00  0.00     0.082 A 
ATOM     17  C   UNL A   1      34.018  33.642  31.392  1.00  0.00     0.024 A 
ATOM     18  C   UNL A   1      34.200  35.189  28.690  1.00  0.00     0.024 A 
ATOM     19  C   UNL A   1      35.038  32.328  30.749  1.00  0.00     0.028 A 
ATOM     20  C   UNL A   1      35.245  33.849  28.010  1.00  0.00     0.028 A 
BRANCH  16  21
ATOM     21  S   UNL A   1      32.959  36.505  31.176  1.00  0.00     0.242 S 
ATOM     22  O   UNL A   1      31.793  36.107  31.895  1.00  0.00    -0.207 OA
ATOM     23  O   UNL A   1      32.910  37.526  30.127  1.00  0.00    -0.207 OA
BRANCH  21  24
ATOM     24  N   UNL A   1      34.147  37.014  32.322  1.00  0.00    -0.204 NA
ATOM     25  C   UNL A   1      33.818  38.323  32.949  1.00  0.00     0.124 C 
ATOM     26  C   UNL A   1      34.473  36.015  33.371  1.00  0.00     0.124 C 
ENDBRANCH  21  24
ENDBRANCH  16  21
ENDBRANCH  11  15
BRANCH  12  27
ATOM     27  C   UNL A   1      38.482  31.406  30.081  1.00  0.00    -0.001 A 
ATOM     28  C   UNL A   1      37.986  31.404  31.396  1.00  0.00     0.013 A 
ATOM     29  C   UNL A   1      39.761  31.933  29.840  1.00  0.00     0.013 A 
ATOM     30  C   UNL A   1      38.785  31.844  32.456  1.00  0.00     0.040 A 
ATOM     31  C   UNL A   1      40.565  32.360  30.902  1.00  0.00     0.040 A 
ATOM     32  C   UNL A   1      40.073  32.302  32.200  1.00  0.00     0.123 A 
ATOM     33  F   UNL A   1      40.851  32.686  33.219  1.00  0.00    -0.207 F 
ENDBRANCH  12  27
ENDBRANCH   9  10
ENDBRANCH   8   9
ENDBRANCH   6   8
ENDBRANCH   5   6
ENDBRANCH   4   5
ENDBRANCH   3   4
ENDBRANCH   2   3
ENDBRANCH   1   2
BRANCH   1  34
ATOM     34  C   UNL A   1      36.458  22.624  24.893  1.00  0.00     0.188 C 
BRANCH  34  35
ATOM     35  O   UNL A   1      37.555  21.764  25.190  1.00  0.00    -0.377 OA
BRANCH  35  36
ATOM     36  C   UNL A   1      37.539  20.449  24.674  1.00  0.00     0.188 C 
BRANCH  36  37
ATOM     37  C   UNL A   1      38.476  19.417  25.309  1.00  0.00     0.188 C 
BRANCH  37  38
ATOM     38  O   UNL A   1      39.874  19.615  25.450  1.00  0.00    -0.376 OA
BRANCH  38  39
ATOM     39  C   UNL A   1      40.448  20.269  26.568  1.00  0.00     0.202 C 
BRANCH  39  40
ATOM     40  C   UNL A   1      41.933  20.096  26.912  1.00  0.00     0.261 C 
BRANCH  40  41
ATOM     41  O   UNL A   1      42.703  21.277  26.737  1.00  0.00    -0.460 OA
BRANCH  41  42
ATOM     42  C   UNL A   1      43.429  21.234  25.608  1.00  0.00     0.338 C 
ATOM     43  O   UNL A   1      43.699  20.254  24.928  1.00  0.00    -0.246 OA
BRANCH  42  44
ATOM     44  C   UNL A   1      43.999  22.553  25.305  1.00  0.00     0.060 A 
ATOM     45  C   UNL A   1      45.362  22.633  25.638  1.00  0.00     0.016 A 
ATOM     46  C   UNL A   1      43.089  23.540  25.678  1.00  0.00     0.016 A 
ATOM     47  C   UNL A   1      45.728  23.463  26.673  1.00  0.00     0.010 A 
ATOM     48  C   UNL A   1      43.432  24.327  26.752  1.00  0.00     0.010 A 
ATOM     49  C   UNL A   1      44.735  24.236  27.277  1.00  0.00    -0.014 A 
BRANCH  49  50
ATOM     50  C   UNL A   1      45.121  25.174  28.333  1.00  0.00     0.031 A 
ATOM     51  C   UNL A   1      45.658  26.464  27.696  1.00  0.00     0.074 A 
ATOM     52  C   UNL A   1      44.875  24.780  29.622  1.00  0.00     0.049 A 
ATOM     53  N   UNL A   1      46.077  27.549  28.260  1.00  0.00    -0.248 NA
ATOM     54  C   UNL A   1      45.701  26.593  26.204  1.00  0.00     0.031 C 
ATOM     55  C   UNL A   1      44.337  23.459  30.034  1.00  0.00     0.029 A 
ATOM     56  N   UNL A   1      45.021  25.402  30.846  1.00  0.00    -0.354 N 
ATOM     57  C   UNL A   1      46.156  28.533  27.254  1.00  0.00     0.074 A 
ATOM     58  C   UNL A   1      45.999  27.874  25.999  1.00  0.00     0.031 C 
ATOM     59  C   UNL A   1      44.275  23.357  31.383  1.00  0.00     0.029 A 
ATOM     60  C   UNL A   1      44.701  24.607  31.984  1.00  0.00     0.049 A 
ATOM     61  H   UNL A   1      45.324  26.335  30.927  1.00  0.00     0.167 HD
ATOM     62  C   UNL A   1      46.195  29.862  27.543  1.00  0.00     0.037 A 
ATOM     63  C   UNL A   1      44.767  24.947  33.311  1.00  0.00     0.037 A 
ATOM     64  C   UNL A   1      46.347  30.046  28.943  1.00  0.00     0.049 A 
ATOM     65  C   UNL A   1      44.899  26.403  33.299  1.00  0.00     0.074 A 
ATOM     66  C   UNL A   1      47.411  29.783  29.766  1.00  0.00     0.029 A 
ATOM     67  N   UNL A   1      45.204  30.169  29.692  1.00  0.00    -0.354 N 
ATOM     68  N   UNL A   1      43.910  27.203  33.035  1.00  0.00    -0.248 NA
ATOM     69  C   UNL A   1      46.194  27.020  33.592  1.00  0.00     0.031 C 
ATOM     70  C   UNL A   1      46.802  29.304  30.937  1.00  0.00     0.029 A 
ATOM     71  C   UNL A   1      45.418  29.505  30.872  1.00  0.00     0.049 A 
ATOM     72  H   UNL A   1      44.383  30.645  29.431  1.00  0.00     0.167 HD
ATOM     73  C   UNL A   1      44.562  28.378  32.772  1.00  0.00     0.074 A 
ATOM     74  C   UNL A   1      45.844  28.297  33.440  1.00  0.00     0.031 C 
ATOM     75  C   UNL A   1      44.277  29.020  31.610  1.00  0.00     0.037 A 
BRANCH  62  76
ATOM     76  C   UNL A   1      45.896  31.067  26.712  1.00  0.00     0.064 A 
ATOM     77  C   UNL A   1      46.947  31.989  26.495  1.00  0.00     0.173 A 
ATOM     78  C   UNL A   1      44.595  31.531  26.481  1.00  0.00     0.173 A 
ATOM     79  F   UNL A   1      48.229  31.618  26.649  1.00  0.00    -0.203 F 
ATOM     80  C   UNL A   1      46.701  33.329  26.216  1.00  0.00     0.198 A 
ATOM     81  C   UNL A   1      44.355  32.866  26.151  1.00  0.00     0.198 A 
ATOM     82  F   UNL A   1      43.532  30.738  26.674  1.00  0.00    -0.203 F 
ATOM     83  F   UNL A   1      47.719  34.199  26.173  1.00  0.00    -0.200 F 
ATOM     84  C   UNL A   1      45.402  33.772  26.064  1.00  0.00     0.200 A 
ATOM     85  F   UNL A   1      43.094  33.294  25.997  1.00  0.00    -0.200 F 
ATOM     86  F   UNL A   1      45.154  35.074  25.872  1.00  0.00    -0.200 F 
ENDBRANCH  62  76
BRANCH  63  87
ATOM     87  C   UNL A   1      44.688  24.349  34.702  1.00  0.00     0.064 A 
ATOM     88  C   UNL A   1      45.342  23.196  35.141  1.00  0.00     0.173 A 
ATOM     89  C   UNL A   1      44.021  25.073  35.743  1.00  0.00     0.173 A 
ATOM     90  F   UNL A   1      45.946  22.378  34.272  1.00  0.00    -0.203 F 
ATOM     91  C   UNL A   1      45.411  22.859  36.510  1.00  0.00     0.198 A 
ATOM     92  C   UNL A   1      44.143  24.776  37.097  1.00  0.00     0.198 A 
ATOM     93  F   UNL A   1      43.235  26.128  35.484  1.00  0.00    -0.203 F 
ATOM     94  F   UNL A   1      46.057  21.747  36.889  1.00  0.00    -0.200 F 
ATOM     95  C   UNL A   1      44.853  23.672  37.486  1.00  0.00     0.200 A 
ATOM     96  F   UNL A   1      43.593  25.593  38.009  1.00  0.00    -0.200 F 
ATOM     97  F   UNL A   1      45.000  23.393  38.789  1.00  0.00    -0.200 F 
ENDBRANCH  63  87
BRANCH  75  98
ATOM     98  C   UNL A   1      42.885  28.712  31.075  1.00  0.00     0.064 A 
ATOM     99  C   UNL A   1      41.757  29.010  31.865  1.00  0.00     0.173 A 
ATOM    100  C   UNL A   1      42.631  27.989  29.898  1.00  0.00     0.173 A 
ATOM    101  F   UNL A   1      41.899  29.730  32.987  1.00  0.00    -0.203 F 
ATOM    102  C   UNL A   1      40.477  28.560  31.526  1.00  0.00     0.198 A 
ATOM    103  C   UNL A   1      41.350  27.542  29.555  1.00  0.00     0.198 A 
ATOM    104  F   UNL A   1      43.612  27.708  29.043  1.00  0.00    -0.203 F 
ATOM    105  F   UNL A   1      39.436  28.850  32.321  1.00  0.00    -0.200 F 
ATOM    106  C   UNL A   1      40.275  27.817  30.377  1.00  0.00     0.200 A 
ATOM    107  F   UNL A   1      41.164  26.848  28.421  1.00  0.00    -0.200 F 
ATOM    108  F   UNL A   1      39.046  27.389  30.051  1.00  0.00    -0.200 F 
ENDBRANCH  75  98
ENDBRANCH  49  50
ENDBRANCH  42  44
ENDBRANCH  41  42
ENDBRANCH  40  41
ENDBRANCH  39  40
ENDBRANCH  38  39
ENDBRANCH  37  38
ENDBRANCH  36  37
ENDBRANCH  35  36
ENDBRANCH  34  35
ENDBRANCH   1  34
TORSDOF 26
ENDMDL
MODEL 2
REMARK VINA RESULT:      -9.8      3.062      8.039
REMARK SMILES CN(C)S(=O)(=O)c1ccc(-n2c(CCC(=O)OCCOCCOCCOCCOC(=O)c3ccc(-c4c5nc(c(-c6c(F)c(F)c(F)c(F)c6F)c6ccc([nH]6)c(-c6c(F)c(F)c(F)c(F)c6F)c6nc(c(-c7c(F)c(F)c(F)c(F)c7F)c7ccc4[nH]7)C=C6)C=C5)cc3)ccc2-c2ccc(F)cc2)cc1
REMARK SMILES IDX 21 1 20 2 19 3 18 4 17 5 15 6 16 7 14 8 13 9 12 10 11 11
REMARK SMILES IDX 97 12 95 13 96 14 10 15 7 16 8 17 106 18 9 19 105 20 4 21
REMARK SMILES IDX 5 22 6 23 2 24 1 25 3 26 98 27 99 28 104 29 100 30 103 31
REMARK SMILES IDX 101 32 102 33 22 34 23 35 24 36 25 37 26 38 27 39 28 40
REMARK SMILES IDX 29 41 30 42 31 43 32 44 33 45 94 46 34 47 93 48 35 49 36 50
REMARK SMILES IDX 37 51 87 52 38 53 92 54 86 55 88 56 39 57 91 58 85 59 84 60
REMARK SMILES IDX 40 62 72 63 52 64 71 65 53 66 56 67 70 68 89 69 54 70 55 71
REMARK SMILES IDX 69 73 90 74 57 75 41 76 42 77 50 78 43 79 44 80 48 81 51 82
REMARK SMILES IDX 45 83 46 84 49 85 47 86 73 87 74 88 82 89 75 90 76 91 80 92
REMARK SMILES IDX 83 93 77 94 78 95 81 96 79 97 58 98 59 99 67 100 60 101
REMARK SMILES IDX 61 102 65 103 68 104 62 105 63 106 66 107 64 108
REMARK H PARENT 88 61 56 72
REMARK Flexibility Score: inf
ROOT
ATOM      1  C   UNL A   1      38.555  23.762  26.101  1.00  0.00     0.188 C 
ENDROOT
BRANCH   1   2
ATOM      2  O   UNL A   1      39.468  24.965  26.450  1.00  0.00    -0.376 OA
BRANCH   2   3
ATOM      3  C   UNL A   1      41.246  25.612  27.087  1.00  0.00     0.202 C 
BRANCH   3   4
ATOM      4  C   UNL A   1      41.717  26.448  28.534  1.00  0.00     0.261 C 
BRANCH   4   5
ATOM      5  O   UNL A   1      40.703  27.141  29.323  1.00  0.00    -0.463 OA
BRANCH   5   6
ATOM      6  C   UNL A   1      40.681  28.503  29.231  1.00  0.00     0.306 C 
ATOM      7  O   UNL A   1      40.463  29.106  28.185  1.00  0.00    -0.252 OA
BRANCH   6   8
ATOM      8  C   UNL A   1      40.852  29.242  30.561  1.00  0.00     0.129 C 
BRANCH   8   9
ATOM      9  C   UNL A   1      40.056  30.521  30.857  1.00  0.00     0.066 C 
BRANCH   9  10
ATOM     10  C   UNL A   1      40.693  31.399  31.871  1.00  0.00     0.024 A 
ATOM     11  N   UNL A   1      40.059  32.437  32.546  1.00  0.00    -0.314 N 
ATOM     12  C   UNL A   1      40.933  32.841  33.583  1.00  0.00     0.053 A 
ATOM     13  C   UNL A   1      42.013  31.355  32.278  1.00  0.00     0.024 A 
ATOM     14  C   UNL A   1      42.164  32.254  33.342  1.00  0.00     0.029 A 
BRANCH  11  15
ATOM     15  C   UNL A   1      38.743  32.960  32.295  1.00  0.00     0.046 A 
ATOM     16  C   UNL A   1      35.296  33.952  31.839  1.00  0.00     0.082 A 
ATOM     17  C   UNL A   1      35.781  32.985  33.254  1.00  0.00     0.024 A 
ATOM     18  C   UNL A   1      36.505  34.427  30.585  1.00  0.00     0.024 A 
ATOM     19  C   UNL A   1      37.485  32.522  33.507  1.00  0.00     0.028 A 
ATOM     20  C   UNL A   1      38.258  33.959  30.824  1.00  0.00     0.028 A 
BRANCH  16  21
ATOM     21  S   UNL A   1      33.703  34.712  31.819  1.00  0.00     0.242 S 
ATOM     22  O   UNL A   1      32.960  34.198  32.922  1.00  0.00    -0.207 OA
ATOM     23  O   UNL A   1      33.228  34.580  30.439  1.00  0.00    -0.207 OA
BRANCH  21  24
ATOM     24  N   UNL A   1      33.984  36.393  32.098  1.00  0.00    -0.204 NA
ATOM     25  C   UNL A   1      33.259  37.266  31.135  1.00  0.00     0.124 C 
ATOM     26  C   UNL A   1      33.726  36.848  33.489  1.00  0.00     0.124 C 
ENDBRANCH  21  24
ENDBRANCH  16  21
ENDBRANCH  11  15
BRANCH  12  27
ATOM     27  C   UNL A   1      40.611  33.655  34.769  1.00  0.00    -0.001 A 
ATOM     28  C   UNL A   1      40.714  33.101  36.057  1.00  0.00     0.013 A 
ATOM     29  C   UNL A   1      40.206  34.993  34.638  1.00  0.00     0.013 A 
ATOM     30  C   UNL A   1      40.497  33.894  37.189  1.00  0.00     0.040 A 
ATOM     31  C   UNL A   1      40.003  35.788  35.770  1.00  0.00     0.040 A 
ATOM     32  C   UNL A   1      40.160  35.234  37.033  1.00  0.00     0.123 A 
ATOM     33  F   UNL A   1      39.990  36.001  38.117  1.00  0.00    -0.207 F 
ENDBRANCH  12  27
ENDBRANCH   9  10
ENDBRANCH   8   9
ENDBRANCH   6   8
ENDBRANCH   5   6
ENDBRANCH   4   5
ENDBRANCH   3   4
ENDBRANCH   2   3
ENDBRANCH   1   2
BRANCH   1  34
ATOM     34  C   UNL A   1      39.232  22.464  26.554  1.00  0.00     0.188 C 
BRANCH  34  35
ATOM     35  O   UNL A   1      40.657  22.429  26.577  1.00  0.00    -0.377 OA
BRANCH  35  36
ATOM     36  C   UNL A   1      41.294  21.277  27.092  1.00  0.00     0.188 C 
BRANCH  36  37
ATOM     37  C   UNL A   1      41.084  19.951  26.358  1.00  0.00     0.188 C 
BRANCH  37  38
ATOM     38  O   UNL A   1      41.869  19.540  25.250  1.00  0.00    -0.376 OA
BRANCH  38  39
ATOM     39  C   UNL A   1      43.128  18.905  25.392  1.00  0.00     0.202 C 
BRANCH  39  40
ATOM     40  C   UNL A   1      44.354  19.677  25.896  1.00  0.00     0.261 C 
BRANCH  40  41
ATOM     41  O   UNL A   1      44.427  21.012  25.416  1.00  0.00    -0.460 OA
BRANCH  41  42
ATOM     42  C   UNL A   1      45.634  21.289  24.897  1.00  0.00     0.338 C 
ATOM     43  O   UNL A   1      46.596  20.539  24.798  1.00  0.00    -0.246 OA
BRANCH  42  44
ATOM     44  C   UNL A   1      45.731  22.708  24.534  1.00  0.00     0.060 A 
ATOM     45  C   UNL A   1      46.881  23.315  25.066  1.00  0.00     0.016 A 
ATOM     46  C   UNL A   1      44.471  23.293  24.638  1.00  0.00     0.016 A 
ATOM     47  C   UNL A   1      46.716  24.274  26.040  1.00  0.00     0.010 A 
ATOM     48  C   UNL A   1      44.293  24.206  25.652  1.00  0.00     0.010 A 
ATOM     49  C   UNL A   1      45.414  24.643  26.383  1.00  0.00    -0.014 A 
BRANCH  49  50
ATOM     50  C   UNL A   1      45.222  25.709  27.368  1.00  0.00     0.031 A 
ATOM     51  C   UNL A   1      44.838  25.089  28.720  1.00  0.00     0.074 A 
ATOM     52  C   UNL A   1      45.481  26.986  26.946  1.00  0.00     0.049 A 
ATOM     53  N   UNL A   1      44.606  25.663  29.854  1.00  0.00    -0.248 NA
ATOM     54  C   UNL A   1      44.731  23.600  28.850  1.00  0.00     0.031 C 
ATOM     55  C   UNL A   1      45.850  27.381  25.564  1.00  0.00     0.029 A 
ATOM     56  N   UNL A   1      45.492  28.210  27.586  1.00  0.00    -0.354 N 
ATOM     57  C   UNL A   1      44.611  24.653  30.837  1.00  0.00     0.074 A 
ATOM     58  C   UNL A   1      44.605  23.399  30.159  1.00  0.00     0.031 C 
ATOM     59  C   UNL A   1      45.972  28.726  25.458  1.00  0.00     0.029 A 
ATOM     60  C   UNL A   1      45.759  29.337  26.757  1.00  0.00     0.049 A 
ATOM     61  H   UNL A   1      45.327  28.298  28.553  1.00  0.00     0.167 HD
ATOM     62  C   UNL A   1      44.776  24.930  32.159  1.00  0.00     0.037 A 
ATOM     63  C   UNL A   1      45.814  30.662  27.106  1.00  0.00     0.037 A 
ATOM     64  C   UNL A   1      44.728  26.335  32.366  1.00  0.00     0.049 A 
ATOM     65  C   UNL A   1      45.888  30.642  28.566  1.00  0.00     0.074 A 
ATOM     66  C   UNL A   1      43.685  27.216  32.258  1.00  0.00     0.029 A 
ATOM     67  N   UNL A   1      45.917  27.019  32.328  1.00  0.00    -0.354 N 
ATOM     68  N   UNL A   1      46.963  30.317  29.218  1.00  0.00    -0.248 NA
ATOM     69  C   UNL A   1      44.711  30.999  29.360  1.00  0.00     0.031 C 
ATOM     70  C   UNL A   1      44.284  28.358  31.700  1.00  0.00     0.029 A 
ATOM     71  C   UNL A   1      45.677  28.215  31.704  1.00  0.00     0.049 A 
ATOM     72  H   UNL A   1      46.781  26.709  32.684  1.00  0.00     0.167 HD
ATOM     73  C   UNL A   1      46.469  30.078  30.472  1.00  0.00     0.074 A 
ATOM     74  C   UNL A   1      45.227  30.816  30.574  1.00  0.00     0.031 C 
ATOM     75  C   UNL A   1      46.777  28.896  31.065  1.00  0.00     0.037 A 
BRANCH  62  76
ATOM     76  C   UNL A   1      45.195  24.073  33.308  1.00  0.00     0.064 A 
ATOM     77  C   UNL A   1      46.558  24.102  33.685  1.00  0.00     0.173 A 
ATOM     78  C   UNL A   1      44.440  22.983  33.761  1.00  0.00     0.173 A 
ATOM     79  F   UNL A   1      47.345  25.131  33.333  1.00  0.00    -0.203 F 
ATOM     80  C   UNL A   1      47.161  23.032  34.337  1.00  0.00     0.198 A 
ATOM     81  C   UNL A   1      45.040  21.934  34.461  1.00  0.00     0.198 A 
ATOM     82  F   UNL A   1      43.144  22.857  33.445  1.00  0.00    -0.203 F 
ATOM     83  F   UNL A   1      48.486  23.034  34.535  1.00  0.00    -0.200 F 
ATOM     84  C   UNL A   1      46.405  21.938  34.708  1.00  0.00     0.200 A 
ATOM     85  F   UNL A   1      44.304  20.876  34.826  1.00  0.00    -0.200 F 
ATOM     86  F   UNL A   1      46.993  20.873  35.268  1.00  0.00    -0.200 F 
ENDBRANCH  62  76
BRANCH  63  87
ATOM     87  C   UNL A   1      45.885  32.052  26.506  1.00  0.00     0.064 A 
ATOM     88  C   UNL A   1      44.806  32.800  26.030  1.00  0.00     0.173 A 
ATOM     89  C   UNL A   1      47.122  32.775  26.548  1.00  0.00     0.173 A 
ATOM     90  F   UNL A   1      43.604  32.237  25.863  1.00  0.00    -0.203 F 
ATOM     91  C   UNL A   1      44.932  34.172  25.725  1.00  0.00     0.198 A 
ATOM     92  C   UNL A   1      47.231  34.142  26.310  1.00  0.00     0.198 A 
ATOM     93  F   UNL A   1      48.283  32.179  26.853  1.00  0.00    -0.203 F 
ATOM     94  F   UNL A   1      43.867  34.854  25.278  1.00  0.00    -0.200 F 
ATOM     95  C   UNL A   1      46.128  34.850  25.910  1.00  0.00     0.200 A 
ATOM     96  F   UNL A   1      48.406  34.760  26.508  1.00  0.00    -0.200 F 
ATOM     97  F   UNL A   1      46.217  36.171  25.705  1.00  0.00    -0.200 F 
ENDBRANCH  63  87
BRANCH  75  98
ATOM     98  C   UNL A   1      48.080  28.289  30.563  1.00  0.00     0.064 A 
ATOM     99  C   UNL A   1      49.287  28.993  30.742  1.00  0.00     0.173 A 
ATOM    100  C   UNL A   1      48.163  27.132  29.772  1.00  0.00     0.173 A 
ATOM    101  F   UNL A   1      49.313  30.090  31.515  1.00  0.00    -0.203 F 
ATOM    102  C   UNL A   1      50.476  28.596  30.121  1.00  0.00     0.198 A 
ATOM    103  C   UNL A   1      49.351  26.730  29.152  1.00  0.00     0.198 A 
ATOM    104  F   UNL A   1      47.098  26.353  29.587  1.00  0.00    -0.203 F 
ATOM    105  F   UNL A   1      51.596  29.311  30.303  1.00  0.00    -0.200 F 
ATOM    106  C   UNL A   1      50.505  27.470  29.318  1.00  0.00     0.200 A 
ATOM    107  F   UNL A   1      49.372  25.618  28.400  1.00  0.00    -0.200 F 
ATOM    108  F   UNL A   1      51.646  27.088  28.724  1.00  0.00    -0.200 F 
ENDBRANCH  75  98
ENDBRANCH  49  50
ENDBRANCH  42  44
ENDBRANCH  41  42
ENDBRANCH  40  41
ENDBRANCH  39  40
ENDBRANCH  38  39
ENDBRANCH  37  38
ENDBRANCH  36  37
ENDBRANCH  35  36
ENDBRANCH  34  35
ENDBRANCH   1  34
TORSDOF 26
ENDMDL
MODEL 3
REMARK VINA RESULT:      -9.7      4.104      8.641
REMARK SMILES CN(C)S(=O)(=O)c1ccc(-n2c(CCC(=O)OCCOCCOCCOCCOC(=O)c3ccc(-c4c5nc(c(-c6c(F)c(F)c(F)c(F)c6F)c6ccc([nH]6)c(-c6c(F)c(F)c(F)c(F)c6F)c6nc(c(-c7c(F)c(F)c(F)c(F)c7F)c7ccc4[nH]7)C=C6)C=C5)cc3)ccc2-c2ccc(F)cc2)cc1
REMARK SMILES IDX 21 1 20 2 19 3 18 4 17 5 15 6 16 7 14 8 13 9 12 10 11 11
REMARK SMILES IDX 97 12 95 13 96 14 10 15 7 16 8 17 106 18 9 19 105 20 4 21
REMARK SMILES IDX 5 22 6 23 2 24 1 25 3 26 98 27 99 28 104 29 100 30 103 31
REMARK SMILES IDX 101 32 102 33 22 34 23 35 24 36 25 37 26 38 27 39 28 40
REMARK SMILES IDX 29 41 30 42 31 43 32 44 33 45 94 46 34 47 93 48 35 49 36 50
REMARK SMILES IDX 37 51 87 52 38 53 92 54 86 55 88 56 39 57 91 58 85 59 84 60
REMARK SMILES IDX 40 62 72 63 52 64 71 65 53 66 56 67 70 68 89 69 54 70 55 71
REMARK SMILES IDX 69 73 90 74 57 75 41 76 42 77 50 78 43 79 44 80 48 81 51 82
REMARK SMILES IDX 45 83 46 84 49 85 47 86 73 87 74 88 82 89 75 90 76 91 80 92
REMARK SMILES IDX 83 93 77 94 78 95 81 96 79 97 58 98 59 99 67 100 60 101
REMARK SMILES IDX 61 102 65 103 68 104 62 105 63 106 66 107 64 108
REMARK H PARENT 88 61 56 72
REMARK Flexibility Score: inf
ROOT
ATOM      1  C   UNL A   1      38.488  23.846  26.217  1.00  0.00     0.188 C 
ENDROOT
BRANCH   1   2
ATOM      2  O   UNL A   1      39.460  25.020  26.501  1.00  0.00    -0.376 OA
BRANCH   2   3
ATOM      3  C   UNL A   1      41.103  25.671  27.430  1.00  0.00     0.202 C 
BRANCH   3   4
ATOM      4  C   UNL A   1      41.314  26.739  28.783  1.00  0.00     0.261 C 
BRANCH   4   5
ATOM      5  O   UNL A   1      40.141  27.327  29.421  1.00  0.00    -0.463 OA
BRANCH   5   6
ATOM      6  C   UNL A   1      40.070  28.691  29.433  1.00  0.00     0.306 C 
ATOM      7  O   UNL A   1      39.510  29.346  28.559  1.00  0.00    -0.252 OA
BRANCH   6   8
ATOM      8  C   UNL A   1      40.657  29.356  30.681  1.00  0.00     0.129 C 
BRANCH   8   9
ATOM      9  C   UNL A   1      41.151  30.809  30.637  1.00  0.00     0.066 C 
BRANCH   9  10
ATOM     10  C   UNL A   1      41.683  31.298  31.935  1.00  0.00     0.024 A 
ATOM     11  N   UNL A   1      42.200  32.569  32.163  1.00  0.00    -0.314 N 
ATOM     12  C   UNL A   1      42.354  32.700  33.564  1.00  0.00     0.053 A 
ATOM     13  C   UNL A   1      41.786  30.569  33.104  1.00  0.00     0.024 A 
ATOM     14  C   UNL A   1      42.206  31.439  34.118  1.00  0.00     0.029 A 
BRANCH  11  15
ATOM     15  C   UNL A   1      42.463  33.589  31.183  1.00  0.00     0.046 A 
ATOM     16  C   UNL A   1      42.806  36.024  28.532  1.00  0.00     0.082 A 
ATOM     17  C   UNL A   1      41.195  35.458  29.041  1.00  0.00     0.024 A 
ATOM     18  C   UNL A   1      44.301  35.369  29.303  1.00  0.00     0.024 A 
ATOM     19  C   UNL A   1      41.014  34.285  30.372  1.00  0.00     0.028 A 
ATOM     20  C   UNL A   1      44.137  34.162  30.669  1.00  0.00     0.028 A 
BRANCH  16  21
ATOM     21  S   UNL A   1      42.933  37.449  27.498  1.00  0.00     0.242 S 
ATOM     22  O   UNL A   1      41.921  37.354  26.498  1.00  0.00    -0.207 OA
ATOM     23  O   UNL A   1      44.353  37.551  27.153  1.00  0.00    -0.207 OA
BRANCH  21  24
ATOM     24  N   UNL A   1      42.561  38.796  28.512  1.00  0.00    -0.204 NA
ATOM     25  C   UNL A   1      43.460  38.893  29.694  1.00  0.00     0.124 C 
ATOM     26  C   UNL A   1      42.498  40.106  27.814  1.00  0.00     0.124 C 
ENDBRANCH  21  24
ENDBRANCH  16  21
ENDBRANCH  11  15
BRANCH  12  27
ATOM     27  C   UNL A   1      42.541  33.939  34.339  1.00  0.00    -0.001 A 
ATOM     28  C   UNL A   1      43.167  35.053  33.754  1.00  0.00     0.013 A 
ATOM     29  C   UNL A   1      42.092  34.035  35.667  1.00  0.00     0.013 A 
ATOM     30  C   UNL A   1      43.267  36.260  34.454  1.00  0.00     0.040 A 
ATOM     31  C   UNL A   1      42.180  35.246  36.361  1.00  0.00     0.040 A 
ATOM     32  C   UNL A   1      42.757  36.348  35.744  1.00  0.00     0.123 A 
ATOM     33  F   UNL A   1      42.818  37.515  36.399  1.00  0.00    -0.207 F 
ENDBRANCH  12  27
ENDBRANCH   9  10
ENDBRANCH   8   9
ENDBRANCH   6   8
ENDBRANCH   5   6
ENDBRANCH   4   5
ENDBRANCH   3   4
ENDBRANCH   2   3
ENDBRANCH   1   2
BRANCH   1  34
ATOM     34  C   UNL A   1      39.192  22.520  26.528  1.00  0.00     0.188 C 
BRANCH  34  35
ATOM     35  O   UNL A   1      40.611  22.477  26.415  1.00  0.00    -0.377 OA
BRANCH  35  36
ATOM     36  C   UNL A   1      41.312  21.459  27.102  1.00  0.00     0.188 C 
BRANCH  36  37
ATOM     37  C   UNL A   1      40.938  20.004  26.806  1.00  0.00     0.188 C 
BRANCH  37  38
ATOM     38  O   UNL A   1      41.442  19.280  25.696  1.00  0.00    -0.376 OA
BRANCH  38  39
ATOM     39  C   UNL A   1      42.652  18.543  25.745  1.00  0.00     0.202 C 
BRANCH  39  40
ATOM     40  C   UNL A   1      44.012  19.251  25.779  1.00  0.00     0.261 C 
BRANCH  40  41
ATOM     41  O   UNL A   1      44.023  20.503  25.108  1.00  0.00    -0.460 OA
BRANCH  41  42
ATOM     42  C   UNL A   1      45.266  20.999  25.001  1.00  0.00     0.338 C 
ATOM     43  O   UNL A   1      46.321  20.440  25.267  1.00  0.00    -0.246 OA
BRANCH  42  44
ATOM     44  C   UNL A   1      45.229  22.414  24.608  1.00  0.00     0.060 A 
ATOM     45  C   UNL A   1      46.400  23.098  24.977  1.00  0.00     0.016 A 
ATOM     46  C   UNL A   1      43.961  22.927  24.870  1.00  0.00     0.016 A 
ATOM     47  C   UNL A   1      46.306  24.066  25.951  1.00  0.00     0.010 A 
ATOM     48  C   UNL A   1      43.862  23.849  25.886  1.00  0.00     0.010 A 
ATOM     49  C   UNL A   1      45.040  24.366  26.458  1.00  0.00    -0.014 A 
BRANCH  49  50
ATOM     50  C   UNL A   1      44.915  25.439  27.445  1.00  0.00     0.031 A 
ATOM     51  C   UNL A   1      44.565  24.834  28.812  1.00  0.00     0.074 A 
ATOM     52  C   UNL A   1      45.192  26.707  27.009  1.00  0.00     0.049 A 
ATOM     53  N   UNL A   1      44.392  25.418  29.953  1.00  0.00    -0.248 NA
ATOM     54  C   UNL A   1      44.422  23.349  28.952  1.00  0.00     0.031 C 
ATOM     55  C   UNL A   1      45.519  27.089  25.612  1.00  0.00     0.029 A 
ATOM     56  N   UNL A   1      45.261  27.932  27.643  1.00  0.00    -0.354 N 
ATOM     57  C   UNL A   1      44.406  24.411  30.939  1.00  0.00     0.074 A 
ATOM     58  C   UNL A   1      44.340  23.155  30.266  1.00  0.00     0.031 C 
ATOM     59  C   UNL A   1      45.674  28.429  25.496  1.00  0.00     0.029 A 
ATOM     60  C   UNL A   1      45.527  29.050  26.800  1.00  0.00     0.049 A 
ATOM     61  H   UNL A   1      45.135  28.028  28.615  1.00  0.00     0.167 HD
ATOM     62  C   UNL A   1      44.628  24.687  32.252  1.00  0.00     0.037 A 
ATOM     63  C   UNL A   1      45.631  30.373  27.141  1.00  0.00     0.037 A 
ATOM     64  C   UNL A   1      44.626  26.093  32.456  1.00  0.00     0.049 A 
ATOM     65  C   UNL A   1      45.760  30.356  28.598  1.00  0.00     0.074 A 
ATOM     66  C   UNL A   1      43.604  27.002  32.383  1.00  0.00     0.029 A 
ATOM     67  N   UNL A   1      45.831  26.744  32.371  1.00  0.00    -0.354 N 
ATOM     68  N   UNL A   1      46.850  30.003  29.210  1.00  0.00    -0.248 NA
ATOM     69  C   UNL A   1      44.623  30.747  29.434  1.00  0.00     0.031 C 
ATOM     70  C   UNL A   1      44.213  28.125  31.799  1.00  0.00     0.029 A 
ATOM     71  C   UNL A   1      45.600  27.945  31.751  1.00  0.00     0.049 A 
ATOM     72  H   UNL A   1      46.699  26.412  32.695  1.00  0.00     0.167 HD
ATOM     73  C   UNL A   1      46.397  29.781  30.483  1.00  0.00     0.074 A 
ATOM     74  C   UNL A   1      45.180  30.553  30.628  1.00  0.00     0.031 C 
ATOM     75  C   UNL A   1      46.694  28.593  31.068  1.00  0.00     0.037 A 
BRANCH  62  76
ATOM     76  C   UNL A   1      45.066  23.822  33.388  1.00  0.00     0.064 A 
ATOM     77  C   UNL A   1      46.442  23.820  33.718  1.00  0.00     0.173 A 
ATOM     78  C   UNL A   1      44.302  22.750  33.869  1.00  0.00     0.173 A 
ATOM     79  F   UNL A   1      47.240  24.829  33.337  1.00  0.00    -0.203 F 
ATOM     80  C   UNL A   1      47.042  22.737  34.351  1.00  0.00     0.198 A 
ATOM     81  C   UNL A   1      44.901  21.689  34.551  1.00  0.00     0.198 A 
ATOM     82  F   UNL A   1      42.994  22.654  33.598  1.00  0.00    -0.203 F 
ATOM     83  F   UNL A   1      48.372  22.708  34.503  1.00  0.00    -0.200 F 
ATOM     84  C   UNL A   1      46.274  21.662  34.750  1.00  0.00     0.200 A 
ATOM     85  F   UNL A   1      44.153  20.648  34.943  1.00  0.00    -0.200 F 
ATOM     86  F   UNL A   1      46.856  20.584  35.292  1.00  0.00    -0.200 F 
ENDBRANCH  62  76
BRANCH  63  87
ATOM     87  C   UNL A   1      45.718  31.759  26.534  1.00  0.00     0.064 A 
ATOM     88  C   UNL A   1      44.641  32.545  26.117  1.00  0.00     0.173 A 
ATOM     89  C   UNL A   1      46.980  32.438  26.503  1.00  0.00     0.173 A 
ATOM     90  F   UNL A   1      43.412  32.026  26.022  1.00  0.00    -0.203 F 
ATOM     91  C   UNL A   1      44.799  33.912  25.802  1.00  0.00     0.198 A 
ATOM     92  C   UNL A   1      47.125  33.800  26.255  1.00  0.00     0.198 A 
ATOM     93  F   UNL A   1      48.135  31.801  26.743  1.00  0.00    -0.203 F 
ATOM     94  F   UNL A   1      43.735  34.631  25.414  1.00  0.00    -0.200 F 
ATOM     95  C   UNL A   1      46.027  34.546  25.916  1.00  0.00     0.200 A 
ATOM     96  F   UNL A   1      48.330  34.375  26.383  1.00  0.00    -0.200 F 
ATOM     97  F   UNL A   1      46.151  35.863  25.702  1.00  0.00    -0.200 F 
ENDBRANCH  63  87
BRANCH  75  98
ATOM     98  C   UNL A   1      47.961  27.949  30.521  1.00  0.00     0.064 A 
ATOM     99  C   UNL A   1      49.190  28.625  30.642  1.00  0.00     0.173 A 
ATOM    100  C   UNL A   1      47.982  26.782  29.740  1.00  0.00     0.173 A 
ATOM    101  F   UNL A   1      49.274  29.729  31.401  1.00  0.00    -0.203 F 
ATOM    102  C   UNL A   1      50.342  28.193  29.977  1.00  0.00     0.198 A 
ATOM    103  C   UNL A   1      49.134  26.345  29.077  1.00  0.00     0.198 A 
ATOM    104  F   UNL A   1      46.892  26.028  29.608  1.00  0.00    -0.203 F 
ATOM    105  F   UNL A   1      51.486  28.881  30.105  1.00  0.00    -0.200 F 
ATOM    106  C   UNL A   1      50.311  27.058  29.186  1.00  0.00     0.200 A 
ATOM    107  F   UNL A   1      49.097  25.225  28.337  1.00  0.00    -0.200 F 
ATOM    108  F   UNL A   1      51.417  26.642  28.551  1.00  0.00    -0.200 F 
ENDBRANCH  75  98
ENDBRANCH  49  50
ENDBRANCH  42  44
ENDBRANCH  41  42
ENDBRANCH  40  41
ENDBRANCH  39  40
ENDBRANCH  38  39
ENDBRANCH  37  38
ENDBRANCH  36  37
ENDBRANCH  35  36
ENDBRANCH  34  35
ENDBRANCH   1  34
TORSDOF 26
ENDMDL
