MODEL 1
REMARK VINA RESULT:      -7.3      0.000      0.000
REMARK SMILES COc1ccccc1C(=O)N/C(=C/c1ccc2c(c1)OCO2)C(=O)Nc1ccc(C(=O)OCCOCCOCCOCCOC(=O)c2ccc(-c3c4nc(c(-c5c(F)c(F)c(F)c(F)c5F)c5ccc([nH]5)c(-c5c(F)c(F)c(F)c(F)c5F)c5nc(c(-c6c(F)c(F)c(F)c(F)c6F)c6ccc3[nH]6)C=C5)C=C4)cc2)cc1
REMARK SMILES IDX 36 1 35 2 34 3 33 4 32 5 30 6 31 7 29 8 26 9 27 10 111 11
REMARK SMILES IDX 28 12 110 13 25 14 23 15 24 16 12 18 13 19 11 20 9 21 10 22
REMARK SMILES IDX 8 24 3 25 4 26 5 27 7 28 6 29 2 30 1 31 14 32 15 33 19 34
REMARK SMILES IDX 16 35 18 36 17 37 20 38 22 39 21 40 37 41 38 42 39 43 40 44
REMARK SMILES IDX 41 45 42 46 43 47 44 48 45 49 46 50 47 51 48 52 109 53 49 54
REMARK SMILES IDX 108 55 50 56 51 57 52 58 102 59 53 60 107 61 101 62 103 63
REMARK SMILES IDX 54 64 106 65 100 66 99 67 55 69 87 70 67 71 86 72 68 73
REMARK SMILES IDX 71 74 85 75 104 76 69 77 70 78 84 80 105 81 72 82 56 83
REMARK SMILES IDX 57 84 65 85 58 86 59 87 63 88 66 89 60 90 61 91 64 92 62 93
REMARK SMILES IDX 88 94 89 95 97 96 90 97 91 98 95 99 98 100 92 101 93 102
REMARK SMILES IDX 96 103 94 104 73 105 74 106 82 107 75 108 76 109 80 110
REMARK SMILES IDX 83 111 77 112 78 113 81 114 79 115
REMARK H PARENT 25 17 11 23 103 68 71 79
REMARK Flexibility Score: inf
ROOT
ATOM      1  C   UNL A   1      47.201  32.465  40.516  1.00  0.00     0.188 C 
ENDROOT
BRANCH   1   2
ATOM      2  O   UNL A   1      45.914  32.140  40.024  1.00  0.00    -0.376 OA
BRANCH   2   3
ATOM      3  C   UNL A   1      45.262  32.760  38.920  1.00  0.00     0.202 C 
BRANCH   3   4
ATOM      4  C   UNL A   1      44.468  32.065  37.798  1.00  0.00     0.261 C 
BRANCH   4   5
ATOM      5  O   UNL A   1      43.873  30.826  38.134  1.00  0.00    -0.460 OA
BRANCH   5   6
ATOM      6  C   UNL A   1      43.000  30.361  37.217  1.00  0.00     0.338 C 
ATOM      7  O   UNL A   1      41.944  30.853  36.867  1.00  0.00    -0.246 OA
BRANCH   6   8
ATOM      8  C   UNL A   1      43.645  29.200  36.566  1.00  0.00     0.060 A 
ATOM      9  C   UNL A   1      44.200  25.614  36.108  1.00  0.00     0.041 A 
ATOM     10  C   UNL A   1      43.006  26.361  35.219  1.00  0.00     0.027 A 
ATOM     11  C   UNL A   1      45.176  26.559  37.067  1.00  0.00     0.027 A 
ATOM     12  C   UNL A   1      42.648  28.387  35.421  1.00  0.00     0.018 A 
ATOM     13  C   UNL A   1      44.909  28.262  37.310  1.00  0.00     0.018 A 
BRANCH   9  14
ATOM     14  N   UNL A   1      44.011  24.234  36.337  1.00  0.00    -0.321 N 
ATOM     15  C   UNL A   1      45.058  23.341  36.581  1.00  0.00     0.272 C 
ATOM     16  O   UNL A   1      45.399  23.070  37.734  1.00  0.00    -0.267 OA
ATOM     17  H   UNL A   1      43.092  23.881  36.324  1.00  0.00     0.170 HD
BRANCH  15  18
ATOM     18  C   UNL A   1      45.625  22.507  35.422  1.00  0.00     0.108 C 
ATOM     19  C   UNL A   1      46.445  22.997  34.455  1.00  0.00     0.040 C 
BRANCH  18  20
ATOM     20  N   UNL A   1      45.449  21.134  35.332  1.00  0.00    -0.317 N 
ATOM     21  C   UNL A   1      46.202  20.004  35.164  1.00  0.00     0.259 C 
ATOM     22  O   UNL A   1      45.586  18.944  35.025  1.00  0.00    -0.269 OA
ATOM     23  H   UNL A   1      44.495  20.903  35.414  1.00  0.00     0.170 HD
BRANCH  21  24
ATOM     24  C   UNL A   1      47.663  19.976  35.067  1.00  0.00     0.082 A 
ATOM     25  C   UNL A   1      48.563  20.089  36.121  1.00  0.00     0.131 A 
ATOM     26  C   UNL A   1      49.887  20.435  35.807  1.00  0.00     0.047 A 
ATOM     27  C   UNL A   1      50.349  20.435  34.491  1.00  0.00     0.004 A 
ATOM     28  C   UNL A   1      48.154  19.838  33.753  1.00  0.00     0.018 A 
ATOM     29  C   UNL A   1      49.500  20.042  33.469  1.00  0.00     0.001 A 
BRANCH  25  30
ATOM     30  O   UNL A   1      48.376  19.929  37.462  1.00  0.00    -0.496 OA
ATOM     31  C   UNL A   1      49.405  19.451  38.323  1.00  0.00     0.278 C 
ENDBRANCH  25  30
ENDBRANCH  21  24
ENDBRANCH  18  20
BRANCH  19  32
ATOM     32  C   UNL A   1      46.668  24.408  34.122  1.00  0.00    -0.019 A 
ATOM     33  C   UNL A   1      48.018  24.693  34.638  1.00  0.00     0.012 A 
ATOM     34  C   UNL A   1      45.938  25.016  33.039  1.00  0.00     0.058 A 
ATOM     35  C   UNL A   1      49.030  25.060  33.802  1.00  0.00     0.051 A 
ATOM     36  C   UNL A   1      46.793  25.698  32.248  1.00  0.00     0.166 A 
ATOM     37  C   UNL A   1      48.499  25.333  32.552  1.00  0.00     0.165 A 
ATOM     38  O   UNL A   1      46.480  25.956  30.478  1.00  0.00    -0.454 OA
ATOM     39  O   UNL A   1      49.406  25.278  30.742  1.00  0.00    -0.454 OA
ATOM     40  C   UNL A   1      48.051  25.730  29.417  1.00  0.00     0.468 C 
ENDBRANCH  19  32
ENDBRANCH  15  18
ENDBRANCH   9  14
ENDBRANCH   6   8
ENDBRANCH   5   6
ENDBRANCH   4   5
ENDBRANCH   3   4
ENDBRANCH   2   3
ENDBRANCH   1   2
BRANCH   1  41
ATOM     41  C   UNL A   1      48.430  31.645  40.094  1.00  0.00     0.188 C 
BRANCH  41  42
ATOM     42  O   UNL A   1      48.145  30.407  39.503  1.00  0.00    -0.377 OA
BRANCH  42  43
ATOM     43  C   UNL A   1      48.336  29.327  40.404  1.00  0.00     0.188 C 
BRANCH  43  44
ATOM     44  C   UNL A   1      49.549  28.313  40.299  1.00  0.00     0.188 C 
BRANCH  44  45
ATOM     45  O   UNL A   1      50.571  28.354  39.315  1.00  0.00    -0.376 OA
BRANCH  45  46
ATOM     46  C   UNL A   1      50.489  27.864  37.982  1.00  0.00     0.202 C 
BRANCH  46  47
ATOM     47  C   UNL A   1      49.800  28.603  36.811  1.00  0.00     0.261 C 
BRANCH  47  48
ATOM     48  O   UNL A   1      49.696  27.906  35.563  1.00  0.00    -0.460 OA
BRANCH  48  49
ATOM     49  C   UNL A   1      49.783  28.693  34.462  1.00  0.00     0.338 C 
ATOM     50  O   UNL A   1      50.807  29.047  33.906  1.00  0.00    -0.246 OA
BRANCH  49  51
ATOM     51  C   UNL A   1      48.431  28.880  33.881  1.00  0.00     0.060 A 
ATOM     52  C   UNL A   1      48.282  29.618  32.690  1.00  0.00     0.016 A 
ATOM     53  C   UNL A   1      47.311  28.358  34.519  1.00  0.00     0.016 A 
ATOM     54  C   UNL A   1      47.028  29.838  32.137  1.00  0.00     0.010 A 
ATOM     55  C   UNL A   1      46.043  28.649  34.007  1.00  0.00     0.010 A 
ATOM     56  C   UNL A   1      45.897  29.418  32.836  1.00  0.00    -0.014 A 
BRANCH  56  57
ATOM     57  C   UNL A   1      44.579  29.978  32.465  1.00  0.00     0.031 A 
ATOM     58  C   UNL A   1      44.126  31.239  33.147  1.00  0.00     0.074 A 
ATOM     59  C   UNL A   1      43.818  29.408  31.517  1.00  0.00     0.049 A 
ATOM     60  N   UNL A   1      42.985  31.870  33.052  1.00  0.00    -0.248 NA
ATOM     61  C   UNL A   1      45.089  31.867  34.067  1.00  0.00     0.031 C 
ATOM     62  C   UNL A   1      44.183  28.228  30.737  1.00  0.00     0.029 A 
ATOM     63  N   UNL A   1      42.569  29.743  31.061  1.00  0.00    -0.354 N 
ATOM     64  C   UNL A   1      43.085  32.954  33.913  1.00  0.00     0.074 A 
ATOM     65  C   UNL A   1      44.381  32.875  34.551  1.00  0.00     0.031 C 
ATOM     66  C   UNL A   1      43.169  27.927  29.908  1.00  0.00     0.029 A 
ATOM     67  C   UNL A   1      42.070  28.863  30.133  1.00  0.00     0.049 A 
ATOM     68  H   UNL A   1      42.077  30.539  31.369  1.00  0.00     0.167 HD
ATOM     69  C   UNL A   1      42.178  33.932  34.144  1.00  0.00     0.037 A 
ATOM     70  C   UNL A   1      40.851  28.803  29.561  1.00  0.00     0.037 A 
ATOM     71  C   UNL A   1      40.886  33.996  33.512  1.00  0.00     0.049 A 
ATOM     72  C   UNL A   1      39.817  29.842  29.921  1.00  0.00     0.074 A 
ATOM     73  C   UNL A   1      39.897  34.951  33.671  1.00  0.00     0.029 A 
ATOM     74  N   UNL A   1      40.397  33.060  32.612  1.00  0.00    -0.354 N 
ATOM     75  N   UNL A   1      39.919  30.876  30.721  1.00  0.00    -0.248 NA
ATOM     76  C   UNL A   1      38.497  29.707  29.289  1.00  0.00     0.031 C 
ATOM     77  C   UNL A   1      38.777  34.545  32.942  1.00  0.00     0.029 A 
ATOM     78  C   UNL A   1      39.103  33.393  32.243  1.00  0.00     0.049 A 
ATOM     79  H   UNL A   1      40.893  32.275  32.286  1.00  0.00     0.167 HD
ATOM     80  C   UNL A   1      38.697  31.535  30.656  1.00  0.00     0.074 A 
ATOM     81  C   UNL A   1      37.875  30.794  29.724  1.00  0.00     0.031 C 
ATOM     82  C   UNL A   1      38.294  32.654  31.306  1.00  0.00     0.037 A 
BRANCH  69  83
ATOM     83  C   UNL A   1      42.531  34.989  35.151  1.00  0.00     0.064 A 
ATOM     84  C   UNL A   1      43.169  36.184  34.783  1.00  0.00     0.173 A 
ATOM     85  C   UNL A   1      42.191  34.819  36.503  1.00  0.00     0.173 A 
ATOM     86  F   UNL A   1      43.521  36.397  33.506  1.00  0.00    -0.203 F 
ATOM     87  C   UNL A   1      43.489  37.148  35.736  1.00  0.00     0.198 A 
ATOM     88  C   UNL A   1      42.472  35.805  37.444  1.00  0.00     0.198 A 
ATOM     89  F   UNL A   1      41.572  33.702  36.911  1.00  0.00    -0.203 F 
ATOM     90  F   UNL A   1      44.157  38.251  35.370  1.00  0.00    -0.200 F 
ATOM     91  C   UNL A   1      43.132  36.963  37.062  1.00  0.00     0.200 A 
ATOM     92  F   UNL A   1      42.102  35.634  38.721  1.00  0.00    -0.200 F 
ATOM     93  F   UNL A   1      43.430  37.897  37.975  1.00  0.00    -0.200 F 
ENDBRANCH  69  83
BRANCH  70  94
ATOM     94  C   UNL A   1      40.523  27.710  28.606  1.00  0.00     0.064 A 
ATOM     95  C   UNL A   1      39.691  26.646  28.985  1.00  0.00     0.173 A 
ATOM     96  C   UNL A   1      41.069  27.679  27.315  1.00  0.00     0.173 A 
ATOM     97  F   UNL A   1      39.160  26.616  30.215  1.00  0.00    -0.203 F 
ATOM     98  C   UNL A   1      39.452  25.576  28.124  1.00  0.00     0.198 A 
ATOM     99  C   UNL A   1      40.792  26.633  26.439  1.00  0.00     0.198 A 
ATOM    100  F   UNL A   1      41.871  28.670  26.898  1.00  0.00    -0.203 F 
ATOM    101  F   UNL A   1      38.717  24.537  28.541  1.00  0.00    -0.200 F 
ATOM    102  C   UNL A   1      39.998  25.574  26.850  1.00  0.00     0.200 A 
ATOM    103  F   UNL A   1      41.304  26.645  25.201  1.00  0.00    -0.200 F 
ATOM    104  F   UNL A   1      39.768  24.546  26.022  1.00  0.00    -0.200 F 
ENDBRANCH  70  94
BRANCH  82 105
ATOM    105  C   UNL A   1      36.924  33.191  30.991  1.00  0.00     0.064 A 
ATOM    106  C   UNL A   1      36.635  33.843  29.783  1.00  0.00     0.173 A 
ATOM    107  C   UNL A   1      35.870  33.014  31.903  1.00  0.00     0.173 A 
ATOM    108  F   UNL A   1      37.603  34.043  28.875  1.00  0.00    -0.203 F 
ATOM    109  C   UNL A   1      35.359  34.336  29.521  1.00  0.00     0.198 A 
ATOM    110  C   UNL A   1      34.584  33.464  31.616  1.00  0.00     0.198 A 
ATOM    111  F   UNL A   1      36.082  32.387  33.070  1.00  0.00    -0.203 F 
ATOM    112  F   UNL A   1      35.127  35.019  28.391  1.00  0.00    -0.200 F 
ATOM    113  C   UNL A   1      34.334  34.138  30.432  1.00  0.00     0.200 A 
ATOM    114  F   UNL A   1      33.589  33.244  32.487  1.00  0.00    -0.200 F 
ATOM    115  F   UNL A   1      33.104  34.604  30.173  1.00  0.00    -0.200 F 
ENDBRANCH  82 105
ENDBRANCH  56  57
ENDBRANCH  49  51
ENDBRANCH  48  49
ENDBRANCH  47  48
ENDBRANCH  46  47
ENDBRANCH  45  46
ENDBRANCH  44  45
ENDBRANCH  43  44
ENDBRANCH  42  43
ENDBRANCH  41  42
ENDBRANCH   1  41
TORSDOF 26
ENDMDL
MODEL 2
REMARK VINA RESULT:      -7.2      5.171     11.558
REMARK SMILES COc1ccccc1C(=O)N/C(=C/c1ccc2c(c1)OCO2)C(=O)Nc1ccc(C(=O)OCCOCCOCCOCCOC(=O)c2ccc(-c3c4nc(c(-c5c(F)c(F)c(F)c(F)c5F)c5ccc([nH]5)c(-c5c(F)c(F)c(F)c(F)c5F)c5nc(c(-c6c(F)c(F)c(F)c(F)c6F)c6ccc3[nH]6)C=C5)C=C4)cc2)cc1
REMARK SMILES IDX 36 1 35 2 34 3 33 4 32 5 30 6 31 7 29 8 26 9 27 10 111 11
REMARK SMILES IDX 28 12 110 13 25 14 23 15 24 16 12 18 13 19 11 20 9 21 10 22
REMARK SMILES IDX 8 24 3 25 4 26 5 27 7 28 6 29 2 30 1 31 14 32 15 33 19 34
REMARK SMILES IDX 16 35 18 36 17 37 20 38 22 39 21 40 37 41 38 42 39 43 40 44
REMARK SMILES IDX 41 45 42 46 43 47 44 48 45 49 46 50 47 51 48 52 109 53 49 54
REMARK SMILES IDX 108 55 50 56 51 57 52 58 102 59 53 60 107 61 101 62 103 63
REMARK SMILES IDX 54 64 106 65 100 66 99 67 55 69 87 70 67 71 86 72 68 73
REMARK SMILES IDX 71 74 85 75 104 76 69 77 70 78 84 80 105 81 72 82 56 83
REMARK SMILES IDX 57 84 65 85 58 86 59 87 63 88 66 89 60 90 61 91 64 92 62 93
REMARK SMILES IDX 88 94 89 95 97 96 90 97 91 98 95 99 98 100 92 101 93 102
REMARK SMILES IDX 96 103 94 104 73 105 74 106 82 107 75 108 76 109 80 110
REMARK SMILES IDX 83 111 77 112 78 113 81 114 79 115
REMARK H PARENT 25 17 11 23 103 68 71 79
REMARK Flexibility Score: inf
ROOT
ATOM      1  C   UNL A   1      52.054  29.227  23.441  1.00  0.00     0.188 C 
ENDROOT
BRANCH   1   2
ATOM      2  O   UNL A   1      51.630  30.545  23.736  1.00  0.00    -0.376 OA
BRANCH   2   3
ATOM      3  C   UNL A   1      51.724  31.187  25.004  1.00  0.00     0.202 C 
BRANCH   3   4
ATOM      4  C   UNL A   1      51.521  32.684  25.306  1.00  0.00     0.261 C 
BRANCH   4   5
ATOM      5  O   UNL A   1      50.217  33.190  25.092  1.00  0.00    -0.460 OA
BRANCH   5   6
ATOM      6  C   UNL A   1      49.562  33.535  26.219  1.00  0.00     0.338 C 
ATOM      7  O   UNL A   1      49.524  32.939  27.279  1.00  0.00    -0.246 OA
BRANCH   6   8
ATOM      8  C   UNL A   1      49.015  34.891  25.995  1.00  0.00     0.060 A 
ATOM      9  C   UNL A   1      47.205  37.889  27.050  1.00  0.00     0.041 A 
ATOM     10  C   UNL A   1      48.850  37.814  27.304  1.00  0.00     0.027 A 
ATOM     11  C   UNL A   1      46.481  36.653  26.207  1.00  0.00     0.027 A 
ATOM     12  C   UNL A   1      49.934  36.154  26.721  1.00  0.00     0.018 A 
ATOM     13  C   UNL A   1      47.326  35.212  25.718  1.00  0.00     0.018 A 
BRANCH   9  14
ATOM     14  N   UNL A   1      46.493  38.730  27.933  1.00  0.00    -0.321 N 
ATOM     15  C   UNL A   1      46.125  38.356  29.228  1.00  0.00     0.272 C 
ATOM     16  O   UNL A   1      46.842  38.634  30.191  1.00  0.00    -0.267 OA
ATOM     17  H   UNL A   1      46.243  39.630  27.619  1.00  0.00     0.170 HD
BRANCH  15  18
ATOM     18  C   UNL A   1      44.710  37.817  29.484  1.00  0.00     0.108 C 
ATOM     19  C   UNL A   1      44.094  37.828  30.696  1.00  0.00     0.040 C 
BRANCH  18  20
ATOM     20  N   UNL A   1      43.877  37.383  28.462  1.00  0.00    -0.317 N 
ATOM     21  C   UNL A   1      43.277  36.230  28.038  1.00  0.00     0.259 C 
ATOM     22  O   UNL A   1      42.680  36.281  26.959  1.00  0.00    -0.269 OA
ATOM     23  H   UNL A   1      43.650  38.130  27.863  1.00  0.00     0.170 HD
BRANCH  21  24
ATOM     24  C   UNL A   1      43.355  34.939  28.728  1.00  0.00     0.082 A 
ATOM     25  C   UNL A   1      43.893  33.763  28.220  1.00  0.00     0.131 A 
ATOM     26  C   UNL A   1      43.530  32.561  28.847  1.00  0.00     0.047 A 
ATOM     27  C   UNL A   1      42.854  32.550  30.068  1.00  0.00     0.004 A 
ATOM     28  C   UNL A   1      42.798  34.940  30.023  1.00  0.00     0.018 A 
ATOM     29  C   UNL A   1      42.572  33.748  30.703  1.00  0.00     0.001 A 
BRANCH  25  30
ATOM     30  O   UNL A   1      44.736  33.560  27.167  1.00  0.00    -0.496 OA
ATOM     31  C   UNL A   1      44.294  33.006  25.933  1.00  0.00     0.278 C 
ENDBRANCH  25  30
ENDBRANCH  21  24
ENDBRANCH  18  20
BRANCH  19  32
ATOM     32  C   UNL A   1      44.730  38.014  32.005  1.00  0.00    -0.019 A 
ATOM     33  C   UNL A   1      44.079  39.214  32.556  1.00  0.00     0.012 A 
ATOM     34  C   UNL A   1      45.339  36.893  32.675  1.00  0.00     0.058 A 
ATOM     35  C   UNL A   1      43.344  39.153  33.704  1.00  0.00     0.051 A 
ATOM     36  C   UNL A   1      44.930  36.862  33.961  1.00  0.00     0.166 A 
ATOM     37  C   UNL A   1      43.551  37.921  34.301  1.00  0.00     0.165 A 
ATOM     38  O   UNL A   1      44.821  35.316  34.908  1.00  0.00    -0.454 OA
ATOM     39  O   UNL A   1      42.352  36.909  35.583  1.00  0.00    -0.454 OA
ATOM     40  C   UNL A   1      43.246  35.225  35.981  1.00  0.00     0.468 C 
ENDBRANCH  19  32
ENDBRANCH  15  18
ENDBRANCH   9  14
ENDBRANCH   6   8
ENDBRANCH   5   6
ENDBRANCH   4   5
ENDBRANCH   3   4
ENDBRANCH   2   3
ENDBRANCH   1   2
BRANCH   1  41
ATOM     41  C   UNL A   1      51.348  28.403  22.353  1.00  0.00     0.188 C 
BRANCH  41  42
ATOM     42  O   UNL A   1      50.765  27.208  22.796  1.00  0.00    -0.377 OA
BRANCH  42  43
ATOM     43  C   UNL A   1      49.392  27.369  23.117  1.00  0.00     0.188 C 
BRANCH  43  44
ATOM     44  C   UNL A   1      48.658  26.525  24.239  1.00  0.00     0.188 C 
BRANCH  44  45
ATOM     45  O   UNL A   1      47.687  25.516  24.005  1.00  0.00    -0.376 OA
BRANCH  45  46
ATOM     46  C   UNL A   1      46.808  24.943  24.964  1.00  0.00     0.202 C 
BRANCH  46  47
ATOM     47  C   UNL A   1      45.996  23.643  24.752  1.00  0.00     0.261 C 
BRANCH  47  48
ATOM     48  O   UNL A   1      44.907  23.394  25.649  1.00  0.00    -0.460 OA
BRANCH  48  49
ATOM     49  C   UNL A   1      43.677  23.641  25.133  1.00  0.00     0.338 C 
ATOM     50  O   UNL A   1      43.136  23.027  24.230  1.00  0.00    -0.246 OA
BRANCH  49  51
ATOM     51  C   UNL A   1      42.973  24.629  25.985  1.00  0.00     0.060 A 
ATOM     52  C   UNL A   1      43.350  25.985  25.935  1.00  0.00     0.016 A 
ATOM     53  C   UNL A   1      41.965  24.220  26.852  1.00  0.00     0.016 A 
ATOM     54  C   UNL A   1      42.732  26.930  26.743  1.00  0.00     0.010 A 
ATOM     55  C   UNL A   1      41.401  25.157  27.723  1.00  0.00     0.010 A 
ATOM     56  C   UNL A   1      41.807  26.505  27.695  1.00  0.00    -0.014 A 
BRANCH  56  57
ATOM     57  C   UNL A   1      41.444  27.422  28.798  1.00  0.00     0.031 A 
ATOM     58  C   UNL A   1      42.265  27.379  30.056  1.00  0.00     0.074 A 
ATOM     59  C   UNL A   1      40.437  28.303  28.674  1.00  0.00     0.049 A 
ATOM     60  N   UNL A   1      42.093  28.021  31.183  1.00  0.00    -0.248 NA
ATOM     61  C   UNL A   1      43.433  26.482  30.045  1.00  0.00     0.031 C 
ATOM     62  C   UNL A   1      39.620  28.488  27.478  1.00  0.00     0.029 A 
ATOM     63  N   UNL A   1      39.926  29.198  29.578  1.00  0.00    -0.354 N 
ATOM     64  C   UNL A   1      43.115  27.591  32.017  1.00  0.00     0.074 A 
ATOM     65  C   UNL A   1      43.880  26.606  31.285  1.00  0.00     0.031 C 
ATOM     66  C   UNL A   1      38.694  29.429  27.728  1.00  0.00     0.029 A 
ATOM     67  C   UNL A   1      38.826  29.877  29.113  1.00  0.00     0.049 A 
ATOM     68  H   UNL A   1      40.310  29.341  30.473  1.00  0.00     0.167 HD
ATOM     69  C   UNL A   1      43.394  27.990  33.281  1.00  0.00     0.037 A 
ATOM     70  C   UNL A   1      38.002  30.732  29.749  1.00  0.00     0.037 A 
ATOM     71  C   UNL A   1      42.620  28.963  34.006  1.00  0.00     0.049 A 
ATOM     72  C   UNL A   1      38.269  31.076  31.194  1.00  0.00     0.074 A 
ATOM     73  C   UNL A   1      42.825  29.443  35.287  1.00  0.00     0.029 A 
ATOM     74  N   UNL A   1      41.484  29.594  33.519  1.00  0.00    -0.354 N 
ATOM     75  N   UNL A   1      39.246  30.682  31.976  1.00  0.00    -0.248 NA
ATOM     76  C   UNL A   1      37.319  31.990  31.844  1.00  0.00     0.031 C 
ATOM     77  C   UNL A   1      41.764  30.292  35.610  1.00  0.00     0.029 A 
ATOM     78  C   UNL A   1      40.954  30.426  34.493  1.00  0.00     0.049 A 
ATOM     79  H   UNL A   1      41.110  29.470  32.617  1.00  0.00     0.167 HD
ATOM     80  C   UNL A   1      39.052  31.332  33.190  1.00  0.00     0.074 A 
ATOM     81  C   UNL A   1      37.875  32.158  33.035  1.00  0.00     0.031 C 
ATOM     82  C   UNL A   1      39.785  31.253  34.328  1.00  0.00     0.037 A 
BRANCH  69  83
ATOM     83  C   UNL A   1      44.558  27.345  33.976  1.00  0.00     0.064 A 
ATOM     84  C   UNL A   1      45.844  27.908  33.952  1.00  0.00     0.173 A 
ATOM     85  C   UNL A   1      44.377  26.162  34.710  1.00  0.00     0.173 A 
ATOM     86  F   UNL A   1      46.076  29.034  33.262  1.00  0.00    -0.203 F 
ATOM     87  C   UNL A   1      46.910  27.289  34.602  1.00  0.00     0.198 A 
ATOM     88  C   UNL A   1      45.434  25.572  35.397  1.00  0.00     0.198 A 
ATOM     89  F   UNL A   1      43.168  25.584  34.777  1.00  0.00    -0.203 F 
ATOM     90  F   UNL A   1      48.141  27.811  34.510  1.00  0.00    -0.200 F 
ATOM     91  C   UNL A   1      46.702  26.129  35.331  1.00  0.00     0.200 A 
ATOM     92  F   UNL A   1      45.224  24.464  36.122  1.00  0.00    -0.200 F 
ATOM     93  F   UNL A   1      47.725  25.542  35.966  1.00  0.00    -0.200 F 
ENDBRANCH  69  83
BRANCH  70  94
ATOM     94  C   UNL A   1      36.829  31.311  29.040  1.00  0.00     0.064 A 
ATOM     95  C   UNL A   1      36.811  32.660  28.655  1.00  0.00     0.173 A 
ATOM     96  C   UNL A   1      35.684  30.545  28.774  1.00  0.00     0.173 A 
ATOM     97  F   UNL A   1      37.871  33.442  28.904  1.00  0.00    -0.203 F 
ATOM     98  C   UNL A   1      35.681  33.228  28.069  1.00  0.00     0.198 A 
ATOM     99  C   UNL A   1      34.573  31.102  28.147  1.00  0.00     0.198 A 
ATOM    100  F   UNL A   1      35.645  29.249  29.118  1.00  0.00    -0.203 F 
ATOM    101  F   UNL A   1      35.664  34.536  27.784  1.00  0.00    -0.200 F 
ATOM    102  C   UNL A   1      34.565  32.446  27.810  1.00  0.00     0.200 A 
ATOM    103  F   UNL A   1      33.505  30.338  27.878  1.00  0.00    -0.200 F 
ATOM    104  F   UNL A   1      33.479  32.992  27.247  1.00  0.00    -0.200 F 
ENDBRANCH  70  94
BRANCH  82 105
ATOM    105  C   UNL A   1      39.379  32.128  35.483  1.00  0.00     0.064 A 
ATOM    106  C   UNL A   1      39.796  33.463  35.593  1.00  0.00     0.173 A 
ATOM    107  C   UNL A   1      38.524  31.629  36.480  1.00  0.00     0.173 A 
ATOM    108  F   UNL A   1      40.616  33.994  34.672  1.00  0.00    -0.203 F 
ATOM    109  C   UNL A   1      39.411  34.248  36.677  1.00  0.00     0.198 A 
ATOM    110  C   UNL A   1      38.101  32.432  37.535  1.00  0.00     0.198 A 
ATOM    111  F   UNL A   1      38.082  30.364  36.422  1.00  0.00    -0.203 F 
ATOM    112  F   UNL A   1      39.881  35.498  36.797  1.00  0.00    -0.200 F 
ATOM    113  C   UNL A   1      38.556  33.736  37.641  1.00  0.00     0.200 A 
ATOM    114  F   UNL A   1      37.251  31.941  38.449  1.00  0.00    -0.200 F 
ATOM    115  F   UNL A   1      38.178  34.496  38.678  1.00  0.00    -0.200 F 
ENDBRANCH  82 105
ENDBRANCH  56  57
ENDBRANCH  49  51
ENDBRANCH  48  49
ENDBRANCH  47  48
ENDBRANCH  46  47
ENDBRANCH  45  46
ENDBRANCH  44  45
ENDBRANCH  43  44
ENDBRANCH  42  43
ENDBRANCH  41  42
ENDBRANCH   1  41
TORSDOF 26
ENDMDL
MODEL 3
REMARK VINA RESULT:      -7.2      3.842     10.372
REMARK SMILES COc1ccccc1C(=O)N/C(=C/c1ccc2c(c1)OCO2)C(=O)Nc1ccc(C(=O)OCCOCCOCCOCCOC(=O)c2ccc(-c3c4nc(c(-c5c(F)c(F)c(F)c(F)c5F)c5ccc([nH]5)c(-c5c(F)c(F)c(F)c(F)c5F)c5nc(c(-c6c(F)c(F)c(F)c(F)c6F)c6ccc3[nH]6)C=C5)C=C4)cc2)cc1
REMARK SMILES IDX 36 1 35 2 34 3 33 4 32 5 30 6 31 7 29 8 26 9 27 10 111 11
REMARK SMILES IDX 28 12 110 13 25 14 23 15 24 16 12 18 13 19 11 20 9 21 10 22
REMARK SMILES IDX 8 24 3 25 4 26 5 27 7 28 6 29 2 30 1 31 14 32 15 33 19 34
REMARK SMILES IDX 16 35 18 36 17 37 20 38 22 39 21 40 37 41 38 42 39 43 40 44
REMARK SMILES IDX 41 45 42 46 43 47 44 48 45 49 46 50 47 51 48 52 109 53 49 54
REMARK SMILES IDX 108 55 50 56 51 57 52 58 102 59 53 60 107 61 101 62 103 63
REMARK SMILES IDX 54 64 106 65 100 66 99 67 55 69 87 70 67 71 86 72 68 73
REMARK SMILES IDX 71 74 85 75 104 76 69 77 70 78 84 80 105 81 72 82 56 83
REMARK SMILES IDX 57 84 65 85 58 86 59 87 63 88 66 89 60 90 61 91 64 92 62 93
REMARK SMILES IDX 88 94 89 95 97 96 90 97 91 98 95 99 98 100 92 101 93 102
REMARK SMILES IDX 96 103 94 104 73 105 74 106 82 107 75 108 76 109 80 110
REMARK SMILES IDX 83 111 77 112 78 113 81 114 79 115
REMARK H PARENT 25 17 11 23 103 68 71 79
REMARK Flexibility Score: inf
ROOT
ATOM      1  C   UNL A   1      49.566  22.738  36.567  1.00  0.00     0.188 C 
ENDROOT
BRANCH   1   2
ATOM      2  O   UNL A   1      48.293  23.044  37.104  1.00  0.00    -0.376 OA
BRANCH   2   3
ATOM      3  C   UNL A   1      47.354  22.102  37.614  1.00  0.00     0.202 C 
BRANCH   3   4
ATOM      4  C   UNL A   1      45.982  21.739  37.015  1.00  0.00     0.261 C 
BRANCH   4   5
ATOM      5  O   UNL A   1      45.311  22.775  36.325  1.00  0.00    -0.460 OA
BRANCH   5   6
ATOM      6  C   UNL A   1      45.366  22.675  34.981  1.00  0.00     0.338 C 
ATOM      7  O   UNL A   1      46.025  21.903  34.311  1.00  0.00    -0.246 OA
BRANCH   6   8
ATOM      8  C   UNL A   1      44.329  23.583  34.444  1.00  0.00     0.060 A 
ATOM      9  C   UNL A   1      42.934  26.894  33.759  1.00  0.00     0.041 A 
ATOM     10  C   UNL A   1      43.928  26.191  32.621  1.00  0.00     0.027 A 
ATOM     11  C   UNL A   1      42.514  26.001  35.096  1.00  0.00     0.027 A 
ATOM     12  C   UNL A   1      44.740  24.317  32.941  1.00  0.00     0.018 A 
ATOM     13  C   UNL A   1      43.186  24.435  35.445  1.00  0.00     0.018 A 
BRANCH   9  14
ATOM     14  N   UNL A   1      42.895  28.305  33.739  1.00  0.00    -0.321 N 
ATOM     15  C   UNL A   1      41.853  29.056  34.288  1.00  0.00     0.272 C 
ATOM     16  O   UNL A   1      41.924  29.481  35.442  1.00  0.00    -0.267 OA
ATOM     17  H   UNL A   1      43.643  28.786  33.315  1.00  0.00     0.170 HD
BRANCH  15  18
ATOM     18  C   UNL A   1      40.726  29.565  33.375  1.00  0.00     0.108 C 
ATOM     19  C   UNL A   1      40.898  30.473  32.379  1.00  0.00     0.040 C 
BRANCH  18  20
ATOM     20  N   UNL A   1      39.443  29.038  33.406  1.00  0.00    -0.317 N 
ATOM     21  C   UNL A   1      38.422  28.751  32.542  1.00  0.00     0.259 C 
ATOM     22  O   UNL A   1      37.360  28.375  33.045  1.00  0.00    -0.269 OA
ATOM     23  H   UNL A   1      39.191  28.800  34.328  1.00  0.00     0.170 HD
BRANCH  21  24
ATOM     24  C   UNL A   1      38.478  28.927  31.089  1.00  0.00     0.082 A 
ATOM     25  C   UNL A   1      37.914  29.968  30.361  1.00  0.00     0.131 A 
ATOM     26  C   UNL A   1      37.727  29.769  28.984  1.00  0.00     0.047 A 
ATOM     27  C   UNL A   1      38.292  28.679  28.321  1.00  0.00     0.004 A 
ATOM     28  C   UNL A   1      39.167  27.903  30.408  1.00  0.00     0.018 A 
ATOM     29  C   UNL A   1      39.095  27.794  29.023  1.00  0.00     0.001 A 
BRANCH  25  30
ATOM     30  O   UNL A   1      37.481  31.196  30.767  1.00  0.00    -0.496 OA
ATOM     31  C   UNL A   1      36.970  32.163  29.855  1.00  0.00     0.278 C 
ENDBRANCH  25  30
ENDBRANCH  21  24
ENDBRANCH  18  20
BRANCH  19  32
ATOM     32  C   UNL A   1      42.042  31.374  32.197  1.00  0.00    -0.019 A 
ATOM     33  C   UNL A   1      41.769  32.495  33.112  1.00  0.00     0.012 A 
ATOM     34  C   UNL A   1      43.294  30.856  31.706  1.00  0.00     0.058 A 
ATOM     35  C   UNL A   1      42.605  32.778  34.151  1.00  0.00     0.051 A 
ATOM     36  C   UNL A   1      44.302  31.306  32.482  1.00  0.00     0.166 A 
ATOM     37  C   UNL A   1      43.765  32.034  34.005  1.00  0.00     0.165 A 
ATOM     38  O   UNL A   1      45.844  30.373  32.707  1.00  0.00    -0.454 OA
ATOM     39  O   UNL A   1      45.088  31.445  35.421  1.00  0.00    -0.454 OA
ATOM     40  C   UNL A   1      46.453  30.391  34.516  1.00  0.00     0.468 C 
ENDBRANCH  19  32
ENDBRANCH  15  18
ENDBRANCH   9  14
ENDBRANCH   6   8
ENDBRANCH   5   6
ENDBRANCH   4   5
ENDBRANCH   3   4
ENDBRANCH   2   3
ENDBRANCH   1   2
BRANCH   1  41
ATOM     41  C   UNL A   1      50.469  21.693  37.241  1.00  0.00     0.188 C 
BRANCH  41  42
ATOM     42  O   UNL A   1      50.317  20.383  36.770  1.00  0.00    -0.377 OA
BRANCH  42  43
ATOM     43  C   UNL A   1      51.564  19.730  36.589  1.00  0.00     0.188 C 
BRANCH  43  44
ATOM     44  C   UNL A   1      52.717  20.301  35.665  1.00  0.00     0.188 C 
BRANCH  44  45
ATOM     45  O   UNL A   1      53.817  21.079  36.111  1.00  0.00    -0.376 OA
BRANCH  45  46
ATOM     46  C   UNL A   1      54.080  22.440  35.795  1.00  0.00     0.202 C 
BRANCH  46  47
ATOM     47  C   UNL A   1      54.015  23.045  34.372  1.00  0.00     0.261 C 
BRANCH  47  48
ATOM     48  O   UNL A   1      52.792  23.683  33.983  1.00  0.00    -0.460 OA
BRANCH  48  49
ATOM     49  C   UNL A   1      52.020  22.963  33.133  1.00  0.00     0.338 C 
ATOM     50  O   UNL A   1      52.015  21.751  33.012  1.00  0.00    -0.246 OA
BRANCH  49  51
ATOM     51  C   UNL A   1      50.998  23.848  32.523  1.00  0.00     0.060 A 
ATOM     52  C   UNL A   1      51.260  24.462  31.283  1.00  0.00     0.016 A 
ATOM     53  C   UNL A   1      49.798  24.097  33.182  1.00  0.00     0.016 A 
ATOM     54  C   UNL A   1      50.338  25.320  30.700  1.00  0.00     0.010 A 
ATOM     55  C   UNL A   1      48.906  25.024  32.635  1.00  0.00     0.010 A 
ATOM     56  C   UNL A   1      49.189  25.663  31.412  1.00  0.00    -0.014 A 
BRANCH  56  57
ATOM     57  C   UNL A   1      48.413  26.849  30.986  1.00  0.00     0.031 A 
ATOM     58  C   UNL A   1      47.149  26.626  30.203  1.00  0.00     0.074 A 
ATOM     59  C   UNL A   1      48.794  28.092  31.321  1.00  0.00     0.049 A 
ATOM     60  N   UNL A   1      46.348  27.500  29.652  1.00  0.00    -0.248 NA
ATOM     61  C   UNL A   1      46.739  25.225  30.007  1.00  0.00     0.031 C 
ATOM     62  C   UNL A   1      49.957  28.428  32.138  1.00  0.00     0.029 A 
ATOM     63  N   UNL A   1      48.243  29.306  30.997  1.00  0.00    -0.354 N 
ATOM     64  C   UNL A   1      45.355  26.758  29.030  1.00  0.00     0.074 A 
ATOM     65  C   UNL A   1      45.672  25.362  29.236  1.00  0.00     0.031 C 
ATOM     66  C   UNL A   1      50.043  29.766  32.238  1.00  0.00     0.029 A 
ATOM     67  C   UNL A   1      48.971  30.376  31.455  1.00  0.00     0.049 A 
ATOM     68  H   UNL A   1      47.406  29.401  30.487  1.00  0.00     0.167 HD
ATOM     69  C   UNL A   1      44.271  27.203  28.352  1.00  0.00     0.037 A 
ATOM     70  C   UNL A   1      48.807  31.695  31.235  1.00  0.00     0.037 A 
ATOM     71  C   UNL A   1      43.969  28.595  28.143  1.00  0.00     0.049 A 
ATOM     72  C   UNL A   1      47.652  32.161  30.382  1.00  0.00     0.074 A 
ATOM     73  C   UNL A   1      42.890  29.150  27.479  1.00  0.00     0.029 A 
ATOM     74  N   UNL A   1      44.755  29.651  28.581  1.00  0.00    -0.354 N 
ATOM     75  N   UNL A   1      46.704  31.459  29.809  1.00  0.00    -0.248 NA
ATOM     76  C   UNL A   1      47.542  33.609  30.150  1.00  0.00     0.031 C 
ATOM     77  C   UNL A   1      43.070  30.535  27.434  1.00  0.00     0.029 A 
ATOM     78  C   UNL A   1      44.206  30.852  28.162  1.00  0.00     0.049 A 
ATOM     79  H   UNL A   1      45.581  29.560  29.110  1.00  0.00     0.167 HD
ATOM     80  C   UNL A   1      45.866  32.378  29.189  1.00  0.00     0.074 A 
ATOM     81  C   UNL A   1      46.408  33.690  29.470  1.00  0.00     0.031 C 
ATOM     82  C   UNL A   1      44.747  32.156  28.455  1.00  0.00     0.037 A 
BRANCH  69  83
ATOM     83  C   UNL A   1      43.352  26.177  27.752  1.00  0.00     0.064 A 
ATOM     84  C   UNL A   1      42.183  25.754  28.403  1.00  0.00     0.173 A 
ATOM     85  C   UNL A   1      43.628  25.636  26.486  1.00  0.00     0.173 A 
ATOM     86  F   UNL A   1      41.873  26.234  29.616  1.00  0.00    -0.203 F 
ATOM     87  C   UNL A   1      41.348  24.799  27.827  1.00  0.00     0.198 A 
ATOM     88  C   UNL A   1      42.767  24.716  25.895  1.00  0.00     0.198 A 
ATOM     89  F   UNL A   1      44.726  26.010  25.814  1.00  0.00    -0.203 F 
ATOM     90  F   UNL A   1      40.272  24.363  28.497  1.00  0.00    -0.200 F 
ATOM     91  C   UNL A   1      41.635  24.289  26.570  1.00  0.00     0.200 A 
ATOM     92  F   UNL A   1      43.035  24.245  24.668  1.00  0.00    -0.200 F 
ATOM     93  F   UNL A   1      40.825  23.379  26.013  1.00  0.00    -0.200 F 
ENDBRANCH  69  83
BRANCH  70  94
ATOM     94  C   UNL A   1      49.769  32.677  31.805  1.00  0.00     0.064 A 
ATOM     95  C   UNL A   1      49.528  33.286  33.046  1.00  0.00     0.173 A 
ATOM     96  C   UNL A   1      50.921  33.064  31.105  1.00  0.00     0.173 A 
ATOM     97  F   UNL A   1      48.430  32.967  33.747  1.00  0.00    -0.203 F 
ATOM     98  C   UNL A   1      50.380  34.270  33.544  1.00  0.00     0.198 A 
ATOM     99  C   UNL A   1      51.796  34.014  31.625  1.00  0.00     0.198 A 
ATOM    100  F   UNL A   1      51.202  32.515  29.914  1.00  0.00    -0.203 F 
ATOM    101  F   UNL A   1      50.083  34.889  34.694  1.00  0.00    -0.200 F 
ATOM    102  C   UNL A   1      51.517  34.628  32.835  1.00  0.00     0.200 A 
ATOM    103  F   UNL A   1      52.905  34.341  30.947  1.00  0.00    -0.200 F 
ATOM    104  F   UNL A   1      52.336  35.574  33.314  1.00  0.00    -0.200 F 
ENDBRANCH  70  94
BRANCH  82 105
ATOM    105  C   UNL A   1      43.990  33.356  27.953  1.00  0.00     0.064 A 
ATOM    106  C   UNL A   1      43.224  34.166  28.805  1.00  0.00     0.173 A 
ATOM    107  C   UNL A   1      44.064  33.721  26.599  1.00  0.00     0.173 A 
ATOM    108  F   UNL A   1      43.113  33.864  30.108  1.00  0.00    -0.203 F 
ATOM    109  C   UNL A   1      42.527  35.267  28.311  1.00  0.00     0.198 A 
ATOM    110  C   UNL A   1      43.408  34.851  26.120  1.00  0.00     0.198 A 
ATOM    111  F   UNL A   1      44.792  32.992  25.740  1.00  0.00    -0.203 F 
ATOM    112  F   UNL A   1      41.744  35.983  29.131  1.00  0.00    -0.200 F 
ATOM    113  C   UNL A   1      42.628  35.614  26.973  1.00  0.00     0.200 A 
ATOM    114  F   UNL A   1      43.531  35.199  24.831  1.00  0.00    -0.200 F 
ATOM    115  F   UNL A   1      41.965  36.680  26.503  1.00  0.00    -0.200 F 
ENDBRANCH  82 105
ENDBRANCH  56  57
ENDBRANCH  49  51
ENDBRANCH  48  49
ENDBRANCH  47  48
ENDBRANCH  46  47
ENDBRANCH  45  46
ENDBRANCH  44  45
ENDBRANCH  43  44
ENDBRANCH  42  43
ENDBRANCH  41  42
ENDBRANCH   1  41
TORSDOF 26
ENDMDL
