MODEL 1
REMARK VINA RESULT:     -10.7      0.000      0.000
REMARK SMILES Cc1nc(S(=O)(=O)N[C@H]2C=C[C@H](C(=O)OCCOCCOCCOCCOC(=O)c3ccc(-c4c5nc(c(-c6c(F)c(F)c(F)c(F)c6F)c6ccc([nH]6)c(-c6c(F)c(F)c(F)c(F)c6F)c6nc(c(-c7c(F)c(F)c(F)c(F)c7F)c7ccc4[nH]7)C=C6)C=C5)cc3)C2)cn1C
REMARK SMILES IDX 20 1 19 2 18 3 17 4 16 5 15 6 13 7 14 8 12 9 9 10 10 11
REMARK SMILES IDX 93 12 11 13 8 14 5 16 6 17 7 18 4 19 1 20 2 21 3 22 95 23
REMARK SMILES IDX 94 24 96 25 21 26 22 27 23 28 24 29 25 30 26 31 27 32 28 33
REMARK SMILES IDX 29 34 30 35 31 36 92 37 32 38 91 39 33 40 34 41 35 42 85 43
REMARK SMILES IDX 36 44 90 45 84 46 86 47 37 48 89 49 83 50 82 51 38 53 70 54
REMARK SMILES IDX 50 55 69 56 51 57 54 58 68 59 87 60 52 61 53 62 67 64 88 65
REMARK SMILES IDX 55 66 39 67 40 68 48 69 41 70 42 71 46 72 49 73 43 74 44 75
REMARK SMILES IDX 47 76 45 77 71 78 72 79 80 80 73 81 74 82 78 83 81 84 75 85
REMARK SMILES IDX 76 86 79 87 77 88 56 89 57 90 65 91 58 92 59 93 63 94 66 95
REMARK SMILES IDX 60 96 61 97 64 98 62 99
REMARK H PARENT 8 15 86 52 54 63
REMARK Flexibility Score: inf
ROOT
ATOM      1  C   UNL A   1      33.874  19.919  24.929  1.00  0.00     0.188 C 
ENDROOT
BRANCH   1   2
ATOM      2  C   UNL A   1      32.382  20.273  25.090  1.00  0.00     0.188 C 
BRANCH   2   3
ATOM      3  O   UNL A   1      31.879  21.587  24.863  1.00  0.00    -0.376 OA
BRANCH   3   4
ATOM      4  C   UNL A   1      31.168  22.264  25.880  1.00  0.00     0.202 C 
BRANCH   4   5
ATOM      5  C   UNL A   1      32.004  23.100  26.861  1.00  0.00     0.261 C 
BRANCH   5   6
ATOM      6  O   UNL A   1      33.389  23.296  26.511  1.00  0.00    -0.463 OA
BRANCH   6   7
ATOM      7  C   UNL A   1      33.653  24.410  25.779  1.00  0.00     0.312 C 
ATOM      8  O   UNL A   1      34.581  24.496  24.978  1.00  0.00    -0.252 OA
BRANCH   7   9
ATOM      9  C   UNL A   1      32.753  25.604  26.127  1.00  0.00     0.123 C 
ATOM     10  C   UNL A   1      32.075  27.225  24.358  1.00  0.00     0.093 C 
ATOM     11  C   UNL A   1      33.237  27.703  25.159  1.00  0.00    -0.011 C 
ATOM     12  C   UNL A   1      31.589  26.026  25.211  1.00  0.00     0.043 C 
ATOM     13  C   UNL A   1      33.594  26.846  26.121  1.00  0.00    -0.015 C 
BRANCH  10  14
ATOM     14  N   UNL A   1      31.029  28.251  24.305  1.00  0.00    -0.203 NA
ATOM     15  H   UNL A   1      30.514  28.199  25.183  1.00  0.00     0.142 HD
BRANCH  14  16
ATOM     16  S   UNL A   1      29.884  28.192  23.050  1.00  0.00     0.260 S 
ATOM     17  O   UNL A   1      28.742  27.434  23.496  1.00  0.00    -0.205 OA
ATOM     18  O   UNL A   1      30.644  27.823  21.869  1.00  0.00    -0.205 OA
BRANCH  16  19
ATOM     19  C   UNL A   1      29.265  29.780  22.671  1.00  0.00     0.188 A 
ATOM     20  C   UNL A   1      28.026  32.200  20.294  1.00  0.00     0.088 C 
ATOM     21  C   UNL A   1      28.513  31.400  21.449  1.00  0.00     0.106 A 
ATOM     22  N   UNL A   1      28.746  30.105  21.427  1.00  0.00    -0.221 NA
ATOM     23  N   UNL A   1      28.833  31.923  22.681  1.00  0.00    -0.337 N 
ATOM     24  C   UNL A   1      29.294  30.902  23.474  1.00  0.00     0.129 A 
ATOM     25  C   UNL A   1      28.738  33.308  23.073  1.00  0.00     0.151 C 
ENDBRANCH  16  19
ENDBRANCH  14  16
ENDBRANCH  10  14
ENDBRANCH   7   9
ENDBRANCH   6   7
ENDBRANCH   5   6
ENDBRANCH   4   5
ENDBRANCH   3   4
ENDBRANCH   2   3
ENDBRANCH   1   2
BRANCH   1  26
ATOM     26  O   UNL A   1      34.727  21.002  24.600  1.00  0.00    -0.377 OA
BRANCH  26  27
ATOM     27  C   UNL A   1      35.906  21.100  25.379  1.00  0.00     0.188 C 
BRANCH  27  28
ATOM     28  C   UNL A   1      37.155  21.511  24.593  1.00  0.00     0.188 C 
BRANCH  28  29
ATOM     29  O   UNL A   1      37.972  22.435  25.310  1.00  0.00    -0.376 OA
BRANCH  29  30
ATOM     30  C   UNL A   1      38.988  21.877  26.136  1.00  0.00     0.202 C 
BRANCH  30  31
ATOM     31  C   UNL A   1      39.401  20.459  25.724  1.00  0.00     0.261 C 
BRANCH  31  32
ATOM     32  O   UNL A   1      40.244  19.764  26.663  1.00  0.00    -0.460 OA
BRANCH  32  33
ATOM     33  C   UNL A   1      41.529  19.561  26.295  1.00  0.00     0.338 C 
ATOM     34  O   UNL A   1      41.984  18.573  25.751  1.00  0.00    -0.246 OA
BRANCH  33  35
ATOM     35  C   UNL A   1      42.277  20.827  26.474  1.00  0.00     0.060 A 
ATOM     36  C   UNL A   1      42.444  21.314  27.776  1.00  0.00     0.016 A 
ATOM     37  C   UNL A   1      42.810  21.526  25.387  1.00  0.00     0.016 A 
ATOM     38  C   UNL A   1      43.124  22.515  27.993  1.00  0.00     0.010 A 
ATOM     39  C   UNL A   1      43.467  22.745  25.605  1.00  0.00     0.010 A 
ATOM     40  C   UNL A   1      43.604  23.259  26.908  1.00  0.00    -0.014 A 
BRANCH  40  41
ATOM     41  C   UNL A   1      44.064  24.656  27.125  1.00  0.00     0.031 A 
ATOM     42  C   UNL A   1      43.058  25.674  27.591  1.00  0.00     0.074 A 
ATOM     43  C   UNL A   1      45.350  25.014  26.956  1.00  0.00     0.049 A 
ATOM     44  N   UNL A   1      43.216  26.949  27.839  1.00  0.00    -0.248 NA
ATOM     45  C   UNL A   1      41.688  25.183  27.813  1.00  0.00     0.031 C 
ATOM     46  C   UNL A   1      46.433  24.120  26.554  1.00  0.00     0.029 A 
ATOM     47  N   UNL A   1      45.960  26.238  27.101  1.00  0.00    -0.354 N 
ATOM     48  C   UNL A   1      41.974  27.409  28.256  1.00  0.00     0.074 A 
ATOM     49  C   UNL A   1      41.062  26.286  28.196  1.00  0.00     0.031 C 
ATOM     50  C   UNL A   1      47.575  24.828  26.474  1.00  0.00     0.029 A 
ATOM     51  C   UNL A   1      47.297  26.230  26.793  1.00  0.00     0.049 A 
ATOM     52  H   UNL A   1      45.480  27.045  27.399  1.00  0.00     0.167 HD
ATOM     53  C   UNL A   1      41.623  28.650  28.667  1.00  0.00     0.037 A 
ATOM     54  C   UNL A   1      48.189  27.241  26.754  1.00  0.00     0.037 A 
ATOM     55  C   UNL A   1      42.518  29.774  28.716  1.00  0.00     0.049 A 
ATOM     56  C   UNL A   1      47.746  28.638  27.120  1.00  0.00     0.074 A 
ATOM     57  C   UNL A   1      42.249  31.074  29.112  1.00  0.00     0.029 A 
ATOM     58  N   UNL A   1      43.854  29.735  28.351  1.00  0.00    -0.354 N 
ATOM     59  N   UNL A   1      46.576  29.056  27.536  1.00  0.00    -0.248 NA
ATOM     60  C   UNL A   1      48.753  29.706  27.007  1.00  0.00     0.031 C 
ATOM     61  C   UNL A   1      43.412  31.831  28.944  1.00  0.00     0.029 A 
ATOM     62  C   UNL A   1      44.417  30.993  28.489  1.00  0.00     0.049 A 
ATOM     63  H   UNL A   1      44.332  28.933  28.039  1.00  0.00     0.167 HD
ATOM     64  C   UNL A   1      46.715  30.421  27.764  1.00  0.00     0.074 A 
ATOM     65  C   UNL A   1      48.086  30.761  27.452  1.00  0.00     0.031 C 
ATOM     66  C   UNL A   1      45.788  31.314  28.192  1.00  0.00     0.037 A 
BRANCH  53  67
ATOM     67  C   UNL A   1      40.199  28.865  29.084  1.00  0.00     0.064 A 
ATOM     68  C   UNL A   1      39.202  29.172  28.147  1.00  0.00     0.173 A 
ATOM     69  C   UNL A   1      39.821  28.714  30.426  1.00  0.00     0.173 A 
ATOM     70  F   UNL A   1      39.519  29.344  26.855  1.00  0.00    -0.203 F 
ATOM     71  C   UNL A   1      37.877  29.335  28.543  1.00  0.00     0.198 A 
ATOM     72  C   UNL A   1      38.491  28.853  30.813  1.00  0.00     0.198 A 
ATOM     73  F   UNL A   1      40.739  28.420  31.358  1.00  0.00    -0.203 F 
ATOM     74  F   UNL A   1      36.945  29.663  27.637  1.00  0.00    -0.200 F 
ATOM     75  C   UNL A   1      37.522  29.167  29.873  1.00  0.00     0.200 A 
ATOM     76  F   UNL A   1      38.148  28.682  32.097  1.00  0.00    -0.200 F 
ATOM     77  F   UNL A   1      36.244  29.314  30.250  1.00  0.00    -0.200 F 
ENDBRANCH  53  67
BRANCH  54  78
ATOM     78  C   UNL A   1      49.594  26.993  26.331  1.00  0.00     0.064 A 
ATOM     79  C   UNL A   1      50.589  26.675  27.267  1.00  0.00     0.173 A 
ATOM     80  C   UNL A   1      49.983  27.134  24.991  1.00  0.00     0.173 A 
ATOM     81  F   UNL A   1      50.275  26.562  28.565  1.00  0.00    -0.203 F 
ATOM     82  C   UNL A   1      51.922  26.533  26.882  1.00  0.00     0.198 A 
ATOM     83  C   UNL A   1      51.310  26.964  24.603  1.00  0.00     0.198 A 
ATOM     84  F   UNL A   1      49.073  27.448  24.058  1.00  0.00    -0.203 F 
ATOM     85  F   UNL A   1      52.861  26.289  27.806  1.00  0.00    -0.200 F 
ATOM     86  C   UNL A   1      52.280  26.674  25.550  1.00  0.00     0.200 A 
ATOM     87  F   UNL A   1      51.651  27.094  23.314  1.00  0.00    -0.200 F 
ATOM     88  F   UNL A   1      53.562  26.545  25.182  1.00  0.00    -0.200 F 
ENDBRANCH  54  78
BRANCH  66  89
ATOM     89  C   UNL A   1      46.229  32.736  28.387  1.00  0.00     0.064 A 
ATOM     90  C   UNL A   1      46.204  33.664  27.337  1.00  0.00     0.173 A 
ATOM     91  C   UNL A   1      46.628  33.186  29.655  1.00  0.00     0.173 A 
ATOM     92  F   UNL A   1      45.842  33.279  26.105  1.00  0.00    -0.203 F 
ATOM     93  C   UNL A   1      46.582  34.989  27.544  1.00  0.00     0.198 A 
ATOM     94  C   UNL A   1      46.979  34.518  29.865  1.00  0.00     0.198 A 
ATOM     95  F   UNL A   1      46.661  32.340  30.695  1.00  0.00    -0.203 F 
ATOM     96  F   UNL A   1      46.588  35.850  26.518  1.00  0.00    -0.200 F 
ATOM     97  C   UNL A   1      46.961  35.416  28.808  1.00  0.00     0.200 A 
ATOM     98  F   UNL A   1      47.331  34.932  31.090  1.00  0.00    -0.200 F 
ATOM     99  F   UNL A   1      47.314  36.693  29.008  1.00  0.00    -0.200 F 
ENDBRANCH  66  89
ENDBRANCH  40  41
ENDBRANCH  33  35
ENDBRANCH  32  33
ENDBRANCH  31  32
ENDBRANCH  30  31
ENDBRANCH  29  30
ENDBRANCH  28  29
ENDBRANCH  27  28
ENDBRANCH  26  27
ENDBRANCH   1  26
TORSDOF 23
ENDMDL
MODEL 2
REMARK VINA RESULT:     -10.5      0.770      7.216
REMARK SMILES Cc1nc(S(=O)(=O)N[C@H]2C=C[C@H](C(=O)OCCOCCOCCOCCOC(=O)c3ccc(-c4c5nc(c(-c6c(F)c(F)c(F)c(F)c6F)c6ccc([nH]6)c(-c6c(F)c(F)c(F)c(F)c6F)c6nc(c(-c7c(F)c(F)c(F)c(F)c7F)c7ccc4[nH]7)C=C6)C=C5)cc3)C2)cn1C
REMARK SMILES IDX 20 1 19 2 18 3 17 4 16 5 15 6 13 7 14 8 12 9 9 10 10 11
REMARK SMILES IDX 93 12 11 13 8 14 5 16 6 17 7 18 4 19 1 20 2 21 3 22 95 23
REMARK SMILES IDX 94 24 96 25 21 26 22 27 23 28 24 29 25 30 26 31 27 32 28 33
REMARK SMILES IDX 29 34 30 35 31 36 92 37 32 38 91 39 33 40 34 41 35 42 85 43
REMARK SMILES IDX 36 44 90 45 84 46 86 47 37 48 89 49 83 50 82 51 38 53 70 54
REMARK SMILES IDX 50 55 69 56 51 57 54 58 68 59 87 60 52 61 53 62 67 64 88 65
REMARK SMILES IDX 55 66 39 67 40 68 48 69 41 70 42 71 46 72 49 73 43 74 44 75
REMARK SMILES IDX 47 76 45 77 71 78 72 79 80 80 73 81 74 82 78 83 81 84 75 85
REMARK SMILES IDX 76 86 79 87 77 88 56 89 57 90 65 91 58 92 59 93 63 94 66 95
REMARK SMILES IDX 60 96 61 97 64 98 62 99
REMARK H PARENT 8 15 86 52 54 63
REMARK Flexibility Score: inf
ROOT
ATOM      1  C   UNL A   1      33.962  19.862  24.817  1.00  0.00     0.188 C 
ENDROOT
BRANCH   1   2
ATOM      2  C   UNL A   1      32.645  20.269  25.509  1.00  0.00     0.188 C 
BRANCH   2   3
ATOM      3  O   UNL A   1      31.792  21.286  24.992  1.00  0.00    -0.376 OA
BRANCH   3   4
ATOM      4  C   UNL A   1      31.394  22.368  25.811  1.00  0.00     0.202 C 
BRANCH   4   5
ATOM      5  C   UNL A   1      32.406  22.837  26.867  1.00  0.00     0.261 C 
BRANCH   5   6
ATOM      6  O   UNL A   1      33.669  23.322  26.367  1.00  0.00    -0.463 OA
BRANCH   6   7
ATOM      7  C   UNL A   1      33.592  24.372  25.508  1.00  0.00     0.312 C 
ATOM      8  O   UNL A   1      34.305  24.494  24.515  1.00  0.00    -0.252 OA
BRANCH   7   9
ATOM      9  C   UNL A   1      32.604  25.460  25.951  1.00  0.00     0.123 C 
ATOM     10  C   UNL A   1      31.886  27.233  24.351  1.00  0.00     0.093 C 
ATOM     11  C   UNL A   1      32.986  27.683  25.251  1.00  0.00    -0.011 C 
ATOM     12  C   UNL A   1      31.448  25.915  25.041  1.00  0.00     0.043 C 
ATOM     13  C   UNL A   1      33.364  26.742  26.122  1.00  0.00    -0.015 C 
BRANCH  10  14
ATOM     14  N   UNL A   1      30.778  28.194  24.371  1.00  0.00    -0.203 NA
ATOM     15  H   UNL A   1      30.250  28.023  25.227  1.00  0.00     0.142 HD
BRANCH  14  16
ATOM     16  S   UNL A   1      29.666  28.190  23.087  1.00  0.00     0.260 S 
ATOM     17  O   UNL A   1      28.480  27.481  23.499  1.00  0.00    -0.205 OA
ATOM     18  O   UNL A   1      30.439  27.793  21.924  1.00  0.00    -0.205 OA
BRANCH  16  19
ATOM     19  C   UNL A   1      29.128  29.805  22.699  1.00  0.00     0.188 A 
ATOM     20  C   UNL A   1      28.030  32.278  20.307  1.00  0.00     0.088 C 
ATOM     21  C   UNL A   1      28.467  31.458  21.468  1.00  0.00     0.106 A 
ATOM     22  N   UNL A   1      28.637  30.153  21.450  1.00  0.00    -0.221 NA
ATOM     23  N   UNL A   1      28.799  31.967  22.702  1.00  0.00    -0.337 N 
ATOM     24  C   UNL A   1      29.203  30.926  23.501  1.00  0.00     0.129 A 
ATOM     25  C   UNL A   1      28.768  33.355  23.092  1.00  0.00     0.151 C 
ENDBRANCH  16  19
ENDBRANCH  14  16
ENDBRANCH  10  14
ENDBRANCH   7   9
ENDBRANCH   6   7
ENDBRANCH   5   6
ENDBRANCH   4   5
ENDBRANCH   3   4
ENDBRANCH   2   3
ENDBRANCH   1   2
BRANCH   1  26
ATOM     26  O   UNL A   1      34.900  20.908  24.626  1.00  0.00    -0.377 OA
BRANCH  26  27
ATOM     27  C   UNL A   1      36.104  20.779  25.360  1.00  0.00     0.188 C 
BRANCH  27  28
ATOM     28  C   UNL A   1      37.365  21.180  24.587  1.00  0.00     0.188 C 
BRANCH  28  29
ATOM     29  O   UNL A   1      38.195  22.076  25.323  1.00  0.00    -0.376 OA
BRANCH  29  30
ATOM     30  C   UNL A   1      39.163  21.484  26.184  1.00  0.00     0.202 C 
BRANCH  30  31
ATOM     31  C   UNL A   1      39.620  20.095  25.726  1.00  0.00     0.261 C 
BRANCH  31  32
ATOM     32  O   UNL A   1      40.581  19.447  26.583  1.00  0.00    -0.460 OA
BRANCH  32  33
ATOM     33  C   UNL A   1      41.874  19.489  26.189  1.00  0.00     0.338 C 
ATOM     34  O   UNL A   1      42.481  18.624  25.588  1.00  0.00    -0.246 OA
BRANCH  33  35
ATOM     35  C   UNL A   1      42.395  20.855  26.428  1.00  0.00     0.060 A 
ATOM     36  C   UNL A   1      42.527  21.287  27.753  1.00  0.00     0.016 A 
ATOM     37  C   UNL A   1      42.753  21.700  25.374  1.00  0.00     0.016 A 
ATOM     38  C   UNL A   1      42.994  22.575  28.028  1.00  0.00     0.010 A 
ATOM     39  C   UNL A   1      43.195  23.001  25.651  1.00  0.00     0.010 A 
ATOM     40  C   UNL A   1      43.293  23.454  26.980  1.00  0.00    -0.014 A 
BRANCH  40  41
ATOM     41  C   UNL A   1      43.510  24.895  27.273  1.00  0.00     0.031 A 
ATOM     42  C   UNL A   1      44.862  25.487  26.980  1.00  0.00     0.074 A 
ATOM     43  C   UNL A   1      42.525  25.679  27.748  1.00  0.00     0.049 A 
ATOM     44  N   UNL A   1      45.294  26.710  27.158  1.00  0.00    -0.248 NA
ATOM     45  C   UNL A   1      45.862  24.575  26.401  1.00  0.00     0.031 C 
ATOM     46  C   UNL A   1      41.158  25.246  28.030  1.00  0.00     0.029 A 
ATOM     47  N   UNL A   1      42.530  27.013  28.080  1.00  0.00    -0.354 N 
ATOM     48  C   UNL A   1      46.605  26.717  26.704  1.00  0.00     0.074 A 
ATOM     49  C   UNL A   1      46.914  25.370  26.274  1.00  0.00     0.031 C 
ATOM     50  C   UNL A   1      40.459  26.293  28.504  1.00  0.00     0.029 A 
ATOM     51  C   UNL A   1      41.335  27.463  28.584  1.00  0.00     0.049 A 
ATOM     52  H   UNL A   1      43.319  27.591  27.967  1.00  0.00     0.167 HD
ATOM     53  C   UNL A   1      47.474  27.753  26.637  1.00  0.00     0.037 A 
ATOM     54  C   UNL A   1      40.995  28.674  29.070  1.00  0.00     0.037 A 
ATOM     55  C   UNL A   1      47.181  29.090  27.075  1.00  0.00     0.049 A 
ATOM     56  C   UNL A   1      42.016  29.787  29.078  1.00  0.00     0.074 A 
ATOM     57  C   UNL A   1      48.003  30.204  27.052  1.00  0.00     0.029 A 
ATOM     58  N   UNL A   1      45.974  29.494  27.623  1.00  0.00    -0.354 N 
ATOM     59  N   UNL A   1      43.245  29.789  28.624  1.00  0.00    -0.248 NA
ATOM     60  C   UNL A   1      41.599  31.069  29.669  1.00  0.00     0.031 C 
ATOM     61  C   UNL A   1      47.308  31.272  27.628  1.00  0.00     0.029 A 
ATOM     62  C   UNL A   1      46.037  30.835  27.964  1.00  0.00     0.049 A 
ATOM     63  H   UNL A   1      45.189  28.914  27.750  1.00  0.00     0.167 HD
ATOM     64  C   UNL A   1      43.734  31.072  28.845  1.00  0.00     0.074 A 
ATOM     65  C   UNL A   1      42.666  31.827  29.462  1.00  0.00     0.031 C 
ATOM     66  C   UNL A   1      44.960  31.579  28.562  1.00  0.00     0.037 A 
BRANCH  53  67
ATOM     67  C   UNL A   1      48.838  27.477  26.079  1.00  0.00     0.064 A 
ATOM     68  C   UNL A   1      49.926  27.189  26.917  1.00  0.00     0.173 A 
ATOM     69  C   UNL A   1      49.049  27.454  24.693  1.00  0.00     0.173 A 
ATOM     70  F   UNL A   1      49.777  27.219  28.250  1.00  0.00    -0.203 F 
ATOM     71  C   UNL A   1      51.179  26.901  26.386  1.00  0.00     0.198 A 
ATOM     72  C   UNL A   1      50.298  27.140  24.166  1.00  0.00     0.198 A 
ATOM     73  F   UNL A   1      48.039  27.722  23.852  1.00  0.00    -0.203 F 
ATOM     74  F   UNL A   1      52.213  26.664  27.205  1.00  0.00    -0.200 F 
ATOM     75  C   UNL A   1      51.363  26.869  25.011  1.00  0.00     0.200 A 
ATOM     76  F   UNL A   1      50.472  27.101  22.837  1.00  0.00    -0.200 F 
ATOM     77  F   UNL A   1      52.568  26.581  24.501  1.00  0.00    -0.200 F 
ENDBRANCH  53  67
BRANCH  54  78
ATOM     78  C   UNL A   1      39.633  28.912  29.620  1.00  0.00     0.064 A 
ATOM     79  C   UNL A   1      38.604  29.425  28.816  1.00  0.00     0.173 A 
ATOM     80  C   UNL A   1      39.350  28.692  30.977  1.00  0.00     0.173 A 
ATOM     81  F   UNL A   1      38.833  29.683  27.521  1.00  0.00    -0.203 F 
ATOM     82  C   UNL A   1      37.355  29.733  29.354  1.00  0.00     0.198 A 
ATOM     83  C   UNL A   1      38.093  28.974  31.507  1.00  0.00     0.198 A 
ATOM     84  F   UNL A   1      40.301  28.213  31.791  1.00  0.00    -0.203 F 
ATOM     85  F   UNL A   1      36.410  30.279  28.576  1.00  0.00    -0.200 F 
ATOM     86  C   UNL A   1      37.099  29.504  30.697  1.00  0.00     0.200 A 
ATOM     87  F   UNL A   1      37.848  28.744  32.803  1.00  0.00    -0.200 F 
ATOM     88  F   UNL A   1      35.901  29.807  31.215  1.00  0.00    -0.200 F 
ENDBRANCH  54  78
BRANCH  66  89
ATOM     89  C   UNL A   1      45.205  33.026  28.880  1.00  0.00     0.064 A 
ATOM     90  C   UNL A   1      45.833  33.421  30.070  1.00  0.00     0.173 A 
ATOM     91  C   UNL A   1      44.857  34.023  27.957  1.00  0.00     0.173 A 
ATOM     92  F   UNL A   1      46.173  32.506  30.989  1.00  0.00    -0.203 F 
ATOM     93  C   UNL A   1      46.086  34.766  30.333  1.00  0.00     0.198 A 
ATOM     94  C   UNL A   1      45.136  35.364  28.211  1.00  0.00     0.198 A 
ATOM     95  F   UNL A   1      44.262  33.697  26.800  1.00  0.00    -0.203 F 
ATOM     96  F   UNL A   1      46.651  35.124  31.493  1.00  0.00    -0.200 F 
ATOM     97  C   UNL A   1      45.745  35.734  29.400  1.00  0.00     0.200 A 
ATOM     98  F   UNL A   1      44.819  36.297  27.302  1.00  0.00    -0.200 F 
ATOM     99  F   UNL A   1      45.998  37.026  29.650  1.00  0.00    -0.200 F 
ENDBRANCH  66  89
ENDBRANCH  40  41
ENDBRANCH  33  35
ENDBRANCH  32  33
ENDBRANCH  31  32
ENDBRANCH  30  31
ENDBRANCH  29  30
ENDBRANCH  28  29
ENDBRANCH  27  28
ENDBRANCH  26  27
ENDBRANCH   1  26
TORSDOF 23
ENDMDL
MODEL 3
REMARK VINA RESULT:     -10.2      4.661      9.087
REMARK SMILES Cc1nc(S(=O)(=O)N[C@H]2C=C[C@H](C(=O)OCCOCCOCCOCCOC(=O)c3ccc(-c4c5nc(c(-c6c(F)c(F)c(F)c(F)c6F)c6ccc([nH]6)c(-c6c(F)c(F)c(F)c(F)c6F)c6nc(c(-c7c(F)c(F)c(F)c(F)c7F)c7ccc4[nH]7)C=C6)C=C5)cc3)C2)cn1C
REMARK SMILES IDX 20 1 19 2 18 3 17 4 16 5 15 6 13 7 14 8 12 9 9 10 10 11
REMARK SMILES IDX 93 12 11 13 8 14 5 16 6 17 7 18 4 19 1 20 2 21 3 22 95 23
REMARK SMILES IDX 94 24 96 25 21 26 22 27 23 28 24 29 25 30 26 31 27 32 28 33
REMARK SMILES IDX 29 34 30 35 31 36 92 37 32 38 91 39 33 40 34 41 35 42 85 43
REMARK SMILES IDX 36 44 90 45 84 46 86 47 37 48 89 49 83 50 82 51 38 53 70 54
REMARK SMILES IDX 50 55 69 56 51 57 54 58 68 59 87 60 52 61 53 62 67 64 88 65
REMARK SMILES IDX 55 66 39 67 40 68 48 69 41 70 42 71 46 72 49 73 43 74 44 75
REMARK SMILES IDX 47 76 45 77 71 78 72 79 80 80 73 81 74 82 78 83 81 84 75 85
REMARK SMILES IDX 76 86 79 87 77 88 56 89 57 90 65 91 58 92 59 93 63 94 66 95
REMARK SMILES IDX 60 96 61 97 64 98 62 99
REMARK H PARENT 8 15 86 52 54 63
REMARK Flexibility Score: inf
ROOT
ATOM      1  C   UNL A   1      41.006  19.842  26.363  1.00  0.00     0.188 C 
ENDROOT
BRANCH   1   2
ATOM      2  C   UNL A   1      40.364  21.187  25.970  1.00  0.00     0.188 C 
BRANCH   2   3
ATOM      3  O   UNL A   1      39.230  21.720  26.647  1.00  0.00    -0.376 OA
BRANCH   3   4
ATOM      4  C   UNL A   1      38.931  23.100  26.561  1.00  0.00     0.202 C 
BRANCH   4   5
ATOM      5  C   UNL A   1      37.661  23.478  25.783  1.00  0.00     0.261 C 
BRANCH   5   6
ATOM      6  O   UNL A   1      36.570  22.536  25.849  1.00  0.00    -0.463 OA
BRANCH   6   7
ATOM      7  C   UNL A   1      36.251  21.931  24.674  1.00  0.00     0.312 C 
ATOM      8  O   UNL A   1      37.076  21.398  23.936  1.00  0.00    -0.252 OA
BRANCH   7   9
ATOM      9  C   UNL A   1      34.771  22.072  24.290  1.00  0.00     0.123 C 
ATOM     10  C   UNL A   1      33.801  24.323  23.831  1.00  0.00     0.093 C 
ATOM     11  C   UNL A   1      33.529  23.853  25.219  1.00  0.00    -0.011 C 
ATOM     12  C   UNL A   1      34.321  23.023  23.165  1.00  0.00     0.043 C 
ATOM     13  C   UNL A   1      34.032  22.639  25.466  1.00  0.00    -0.015 C 
BRANCH  10  14
ATOM     14  N   UNL A   1      32.559  24.750  23.179  1.00  0.00    -0.203 NA
ATOM     15  H   UNL A   1      32.203  23.949  22.658  1.00  0.00     0.142 HD
BRANCH  14  16
ATOM     16  S   UNL A   1      32.608  26.065  22.104  1.00  0.00     0.260 S 
ATOM     17  O   UNL A   1      31.783  25.763  20.961  1.00  0.00    -0.205 OA
ATOM     18  O   UNL A   1      34.016  26.392  21.977  1.00  0.00    -0.205 OA
BRANCH  16  19
ATOM     19  C   UNL A   1      31.907  27.499  22.812  1.00  0.00     0.188 A 
ATOM     20  C   UNL A   1      31.539  29.800  25.572  1.00  0.00     0.088 C 
ATOM     21  C   UNL A   1      31.507  29.002  24.318  1.00  0.00     0.106 A 
ATOM     22  N   UNL A   1      32.338  28.025  24.022  1.00  0.00    -0.221 NA
ATOM     23  N   UNL A   1      30.570  29.152  23.321  1.00  0.00    -0.337 N 
ATOM     24  C   UNL A   1      30.823  28.216  22.350  1.00  0.00     0.129 A 
ATOM     25  C   UNL A   1      29.482  30.099  23.305  1.00  0.00     0.151 C 
ENDBRANCH  16  19
ENDBRANCH  14  16
ENDBRANCH  10  14
ENDBRANCH   7   9
ENDBRANCH   6   7
ENDBRANCH   5   6
ENDBRANCH   4   5
ENDBRANCH   3   4
ENDBRANCH   2   3
ENDBRANCH   1   2
BRANCH   1  26
ATOM     26  O   UNL A   1      41.825  19.243  25.373  1.00  0.00    -0.377 OA
BRANCH  26  27
ATOM     27  C   UNL A   1      43.204  19.181  25.688  1.00  0.00     0.188 C 
BRANCH  27  28
ATOM     28  C   UNL A   1      44.140  19.476  24.510  1.00  0.00     0.188 C 
BRANCH  28  29
ATOM     29  O   UNL A   1      45.516  19.404  24.875  1.00  0.00    -0.376 OA
BRANCH  29  30
ATOM     30  C   UNL A   1      46.086  20.580  25.439  1.00  0.00     0.202 C 
BRANCH  30  31
ATOM     31  C   UNL A   1      45.694  21.865  24.700  1.00  0.00     0.261 C 
BRANCH  31  32
ATOM     32  O   UNL A   1      44.961  22.828  25.482  1.00  0.00    -0.460 OA
BRANCH  32  33
ATOM     33  C   UNL A   1      43.848  23.351  24.918  1.00  0.00     0.338 C 
ATOM     34  O   UNL A   1      43.342  23.021  23.863  1.00  0.00    -0.246 OA
BRANCH  33  35
ATOM     35  C   UNL A   1      43.211  24.265  25.894  1.00  0.00     0.060 A 
ATOM     36  C   UNL A   1      43.376  25.644  25.709  1.00  0.00     0.016 A 
ATOM     37  C   UNL A   1      42.461  23.785  26.971  1.00  0.00     0.016 A 
ATOM     38  C   UNL A   1      42.812  26.545  26.614  1.00  0.00     0.010 A 
ATOM     39  C   UNL A   1      41.920  24.691  27.894  1.00  0.00     0.010 A 
ATOM     40  C   UNL A   1      42.115  26.075  27.735  1.00  0.00    -0.014 A 
BRANCH  40  41
ATOM     41  C   UNL A   1      41.771  27.018  28.831  1.00  0.00     0.031 A 
ATOM     42  C   UNL A   1      42.652  27.045  30.051  1.00  0.00     0.074 A 
ATOM     43  C   UNL A   1      40.729  27.864  28.739  1.00  0.00     0.049 A 
ATOM     44  N   UNL A   1      42.552  27.770  31.136  1.00  0.00    -0.248 NA
ATOM     45  C   UNL A   1      43.808  26.133  30.042  1.00  0.00     0.031 C 
ATOM     46  C   UNL A   1      39.826  27.976  27.596  1.00  0.00     0.029 A 
ATOM     47  N   UNL A   1      40.255  28.795  29.633  1.00  0.00    -0.354 N 
ATOM     48  C   UNL A   1      43.633  27.412  31.930  1.00  0.00     0.074 A 
ATOM     49  C   UNL A   1      44.359  26.380  31.221  1.00  0.00     0.031 C 
ATOM     50  C   UNL A   1      38.899  28.914  27.863  1.00  0.00     0.029 A 
ATOM     51  C   UNL A   1      39.127  29.450  29.206  1.00  0.00     0.049 A 
ATOM     52  H   UNL A   1      40.686  28.973  30.501  1.00  0.00     0.167 HD
ATOM     53  C   UNL A   1      44.000  27.905  33.136  1.00  0.00     0.037 A 
ATOM     54  C   UNL A   1      38.359  30.362  29.835  1.00  0.00     0.037 A 
ATOM     55  C   UNL A   1      43.277  28.920  33.855  1.00  0.00     0.049 A 
ATOM     56  C   UNL A   1      38.734  30.821  31.224  1.00  0.00     0.074 A 
ATOM     57  C   UNL A   1      43.570  29.477  35.088  1.00  0.00     0.029 A 
ATOM     58  N   UNL A   1      42.113  29.524  33.408  1.00  0.00    -0.354 N 
ATOM     59  N   UNL A   1      39.771  30.494  31.955  1.00  0.00    -0.248 NA
ATOM     60  C   UNL A   1      37.826  31.779  31.876  1.00  0.00     0.031 C 
ATOM     61  C   UNL A   1      42.558  30.387  35.407  1.00  0.00     0.029 A 
ATOM     62  C   UNL A   1      41.661  30.432  34.352  1.00  0.00     0.049 A 
ATOM     63  H   UNL A   1      41.672  29.337  32.548  1.00  0.00     0.167 HD
ATOM     64  C   UNL A   1      39.657  31.226  33.133  1.00  0.00     0.074 A 
ATOM     65  C   UNL A   1      38.457  32.024  33.015  1.00  0.00     0.031 C 
ATOM     66  C   UNL A   1      40.474  31.233  34.215  1.00  0.00     0.037 A 
BRANCH  53  67
ATOM     67  C   UNL A   1      45.237  27.342  33.768  1.00  0.00     0.064 A 
ATOM     68  C   UNL A   1      45.188  26.199  34.579  1.00  0.00     0.173 A 
ATOM     69  C   UNL A   1      46.489  27.922  33.520  1.00  0.00     0.173 A 
ATOM     70  F   UNL A   1      44.010  25.620  34.860  1.00  0.00    -0.203 F 
ATOM     71  C   UNL A   1      46.348  25.665  35.131  1.00  0.00     0.198 A 
ATOM     72  C   UNL A   1      47.650  27.370  34.054  1.00  0.00     0.198 A 
ATOM     73  F   UNL A   1      46.587  29.016  32.750  1.00  0.00    -0.203 F 
ATOM     74  F   UNL A   1      46.275  24.593  35.933  1.00  0.00    -0.200 F 
ATOM     75  C   UNL A   1      47.579  26.245  34.862  1.00  0.00     0.200 A 
ATOM     76  F   UNL A   1      48.839  27.927  33.786  1.00  0.00    -0.200 F 
ATOM     77  F   UNL A   1      48.697  25.724  35.386  1.00  0.00    -0.200 F 
ENDBRANCH  53  67
BRANCH  54  78
ATOM     78  C   UNL A   1      37.135  30.898  29.180  1.00  0.00     0.064 A 
ATOM     79  C   UNL A   1      36.002  30.093  28.986  1.00  0.00     0.173 A 
ATOM     80  C   UNL A   1      37.096  32.207  28.677  1.00  0.00     0.173 A 
ATOM     81  F   UNL A   1      36.002  28.824  29.418  1.00  0.00    -0.203 F 
ATOM     82  C   UNL A   1      34.891  30.567  28.291  1.00  0.00     0.198 A 
ATOM     83  C   UNL A   1      35.973  32.690  28.008  1.00  0.00     0.198 A 
ATOM     84  F   UNL A   1      38.154  33.015  28.827  1.00  0.00    -0.203 F 
ATOM     85  F   UNL A   1      33.848  29.757  28.066  1.00  0.00    -0.200 F 
ATOM     86  C   UNL A   1      34.876  31.866  27.806  1.00  0.00     0.200 A 
ATOM     87  F   UNL A   1      35.960  33.948  27.548  1.00  0.00    -0.200 F 
ATOM     88  F   UNL A   1      33.810  32.320  27.132  1.00  0.00    -0.200 F 
ENDBRANCH  54  78
BRANCH  66  89
ATOM     89  C   UNL A   1      40.124  32.159  35.345  1.00  0.00     0.064 A 
ATOM     90  C   UNL A   1      39.151  31.822  36.297  1.00  0.00     0.173 A 
ATOM     91  C   UNL A   1      40.811  33.372  35.506  1.00  0.00     0.173 A 
ATOM     92  F   UNL A   1      38.459  30.680  36.179  1.00  0.00    -0.203 F 
ATOM     93  C   UNL A   1      38.865  32.676  37.359  1.00  0.00     0.198 A 
ATOM     94  C   UNL A   1      40.541  34.210  36.585  1.00  0.00     0.198 A 
ATOM     95  F   UNL A   1      41.757  33.736  34.627  1.00  0.00    -0.203 F 
ATOM     96  F   UNL A   1      37.904  32.353  38.235  1.00  0.00    -0.200 F 
ATOM     97  C   UNL A   1      39.565  33.864  37.507  1.00  0.00     0.200 A 
ATOM     98  F   UNL A   1      41.229  35.351  36.735  1.00  0.00    -0.200 F 
ATOM     99  F   UNL A   1      39.295  34.680  38.535  1.00  0.00    -0.200 F 
ENDBRANCH  66  89
ENDBRANCH  40  41
ENDBRANCH  33  35
ENDBRANCH  32  33
ENDBRANCH  31  32
ENDBRANCH  30  31
ENDBRANCH  29  30
ENDBRANCH  28  29
ENDBRANCH  27  28
ENDBRANCH  26  27
ENDBRANCH   1  26
TORSDOF 23
ENDMDL
