MODEL 1
REMARK VINA RESULT:     -10.7      0.000      0.000
REMARK SMILES CC1=C(C)C[C@@H](C(=O)OCCOCCOCCOCCOC(=O)c2ccc(-c3c4nc(c(-c5c(F)c(F)c(F)c(F)c5F)c5ccc([nH]5)c(-c5c(F)c(F)c(F)c(F)c5F)c5nc(c(-c6c(F)c(F)c(F)c(F)c6F)c6ccc3[nH]6)C=C5)C=C4)cc2)[C@@H](C(=O)NCC[NH+]2CCOCC2)C1
REMARK SMILES IDX 14 1 13 2 12 3 11 4 10 5 9 6 7 7 8 8 6 9 1 10 2 11 3 12
REMARK SMILES IDX 99 13 4 14 5 15 87 16 88 17 89 18 90 19 91 21 92 22 93 23
REMARK SMILES IDX 94 24 98 25 95 27 97 28 96 29 15 30 16 31 17 32 18 33 19 34
REMARK SMILES IDX 20 35 21 36 22 37 23 38 24 39 25 40 86 41 26 42 85 43 27 44
REMARK SMILES IDX 28 45 29 46 79 47 30 48 84 49 78 50 80 51 31 52 83 53 77 54
REMARK SMILES IDX 76 55 32 57 64 58 44 59 63 60 45 61 48 62 62 63 81 64 46 65
REMARK SMILES IDX 47 66 61 68 82 69 49 70 33 71 34 72 42 73 35 74 36 75 40 76
REMARK SMILES IDX 43 77 37 78 38 79 41 80 39 81 65 82 66 83 74 84 67 85 68 86
REMARK SMILES IDX 72 87 75 88 69 89 70 90 73 91 71 92 50 93 51 94 59 95 52 96
REMARK SMILES IDX 53 97 57 98 60 99 54 100 55 101 58 102 56 103
REMARK H PARENT 90 20 93 26 80 56 48 67
REMARK Flexibility Score: inf
ROOT
ATOM      1  C   UNL A   1      33.403  32.266  27.533  1.00  0.00     0.188 C 
ENDROOT
BRANCH   1   2
ATOM      2  C   UNL A   1      34.080  30.955  27.960  1.00  0.00     0.188 C 
BRANCH   2   3
ATOM      3  O   UNL A   1      33.538  29.837  27.289  1.00  0.00    -0.376 OA
BRANCH   3   4
ATOM      4  C   UNL A   1      34.393  28.855  26.752  1.00  0.00     0.202 C 
BRANCH   4   5
ATOM      5  C   UNL A   1      33.783  27.567  26.181  1.00  0.00     0.261 C 
BRANCH   5   6
ATOM      6  O   UNL A   1      32.440  27.640  25.685  1.00  0.00    -0.463 OA
BRANCH   6   7
ATOM      7  C   UNL A   1      31.500  27.012  26.410  1.00  0.00     0.310 C 
ATOM      8  O   UNL A   1      31.123  27.438  27.502  1.00  0.00    -0.252 OA
BRANCH   7   9
ATOM      9  C   UNL A   1      30.880  25.748  25.799  1.00  0.00     0.116 C 
ATOM     10  C   UNL A   1      33.024  22.604  23.535  1.00  0.00     0.039 C 
ATOM     11  C   UNL A   1      32.190  23.465  24.443  1.00  0.00    -0.074 C 
ATOM     12  C   UNL A   1      32.452  23.699  25.740  1.00  0.00    -0.073 C 
ATOM     13  C   UNL A   1      30.939  24.039  23.845  1.00  0.00     0.045 C 
ATOM     14  C   UNL A   1      33.613  23.130  26.505  1.00  0.00     0.039 C 
ATOM     15  C   UNL A   1      31.497  24.541  26.548  1.00  0.00     0.046 C 
ATOM     16  C   UNL A   1      30.635  25.484  24.281  1.00  0.00     0.097 C 
BRANCH  16  17
ATOM     17  C   UNL A   1      31.214  26.420  23.228  1.00  0.00     0.224 C 
ATOM     18  O   UNL A   1      31.881  26.077  22.259  1.00  0.00    -0.275 OA
ATOM     19  N   UNL A   1      30.872  27.753  23.400  1.00  0.00    -0.350 N 
ATOM     20  H   UNL A   1      31.484  28.359  23.875  1.00  0.00     0.163 HD
BRANCH  19  21
ATOM     21  C   UNL A   1      29.601  28.261  22.877  1.00  0.00     0.177 C 
BRANCH  21  22
ATOM     22  C   UNL A   1      29.563  29.756  22.502  1.00  0.00     0.283 C 
BRANCH  22  23
ATOM     23  N   UNL A   1      28.320  30.526  22.572  1.00  0.00    -0.330 N 
ATOM     24  C   UNL A   1      27.704  30.919  21.295  1.00  0.00     0.291 C 
ATOM     25  C   UNL A   1      28.314  31.652  23.502  1.00  0.00     0.291 C 
ATOM     26  H   UNL A   1      27.719  29.802  22.965  1.00  0.00     0.348 HD
ATOM     27  C   UNL A   1      28.161  32.277  20.739  1.00  0.00     0.221 C 
ATOM     28  C   UNL A   1      28.780  32.988  22.892  1.00  0.00     0.221 C 
ATOM     29  O   UNL A   1      28.025  33.311  21.719  1.00  0.00    -0.370 OA
ENDBRANCH  22  23
ENDBRANCH  21  22
ENDBRANCH  19  21
ENDBRANCH  16  17
ENDBRANCH   7   9
ENDBRANCH   6   7
ENDBRANCH   5   6
ENDBRANCH   4   5
ENDBRANCH   3   4
ENDBRANCH   2   3
ENDBRANCH   1   2
BRANCH   1  30
ATOM     30  O   UNL A   1      32.865  33.164  28.497  1.00  0.00    -0.377 OA
BRANCH  30  31
ATOM     31  C   UNL A   1      33.295  34.518  28.506  1.00  0.00     0.188 C 
BRANCH  31  32
ATOM     32  C   UNL A   1      34.378  34.856  29.556  1.00  0.00     0.188 C 
BRANCH  32  33
ATOM     33  O   UNL A   1      34.069  35.580  30.745  1.00  0.00    -0.376 OA
BRANCH  33  34
ATOM     34  C   UNL A   1      34.039  34.919  31.994  1.00  0.00     0.202 C 
BRANCH  34  35
ATOM     35  C   UNL A   1      35.241  35.103  32.927  1.00  0.00     0.261 C 
BRANCH  35  36
ATOM     36  O   UNL A   1      36.374  34.274  32.648  1.00  0.00    -0.460 OA
BRANCH  36  37
ATOM     37  C   UNL A   1      36.313  33.000  33.118  1.00  0.00     0.338 C 
ATOM     38  O   UNL A   1      35.604  32.553  33.985  1.00  0.00    -0.246 OA
BRANCH  37  39
ATOM     39  C   UNL A   1      37.311  32.216  32.361  1.00  0.00     0.060 A 
ATOM     40  C   UNL A   1      38.332  31.531  33.025  1.00  0.00     0.016 A 
ATOM     41  C   UNL A   1      37.223  32.170  30.971  1.00  0.00     0.016 A 
ATOM     42  C   UNL A   1      39.276  30.804  32.290  1.00  0.00     0.010 A 
ATOM     43  C   UNL A   1      38.124  31.392  30.245  1.00  0.00     0.010 A 
ATOM     44  C   UNL A   1      39.195  30.748  30.889  1.00  0.00    -0.014 A 
BRANCH  44  45
ATOM     45  C   UNL A   1      40.336  30.238  30.075  1.00  0.00     0.031 A 
ATOM     46  C   UNL A   1      41.480  31.184  29.797  1.00  0.00     0.074 A 
ATOM     47  C   UNL A   1      40.389  28.980  29.598  1.00  0.00     0.049 A 
ATOM     48  N   UNL A   1      42.561  31.005  29.078  1.00  0.00    -0.248 NA
ATOM     49  C   UNL A   1      41.373  32.532  30.381  1.00  0.00     0.031 C 
ATOM     50  C   UNL A   1      39.356  27.959  29.764  1.00  0.00     0.029 A 
ATOM     51  N   UNL A   1      41.370  28.346  28.870  1.00  0.00    -0.354 N 
ATOM     52  C   UNL A   1      43.229  32.223  29.101  1.00  0.00     0.074 A 
ATOM     53  C   UNL A   1      42.403  33.152  29.834  1.00  0.00     0.031 C 
ATOM     54  C   UNL A   1      39.770  26.819  29.180  1.00  0.00     0.029 A 
ATOM     55  C   UNL A   1      41.084  27.034  28.575  1.00  0.00     0.049 A 
ATOM     56  H   UNL A   1      42.201  28.792  28.587  1.00  0.00     0.167 HD
ATOM     57  C   UNL A   1      44.444  32.541  28.597  1.00  0.00     0.037 A 
ATOM     58  C   UNL A   1      41.804  26.119  27.894  1.00  0.00     0.037 A 
ATOM     59  C   UNL A   1      45.308  31.612  27.926  1.00  0.00     0.049 A 
ATOM     60  C   UNL A   1      43.158  26.494  27.336  1.00  0.00     0.074 A 
ATOM     61  C   UNL A   1      46.584  31.822  27.436  1.00  0.00     0.029 A 
ATOM     62  N   UNL A   1      44.985  30.291  27.661  1.00  0.00    -0.354 N 
ATOM     63  N   UNL A   1      43.806  27.630  27.415  1.00  0.00    -0.248 NA
ATOM     64  C   UNL A   1      43.885  25.448  26.598  1.00  0.00     0.031 C 
ATOM     65  C   UNL A   1      47.019  30.636  26.838  1.00  0.00     0.029 A 
ATOM     66  C   UNL A   1      46.034  29.676  26.999  1.00  0.00     0.049 A 
ATOM     67  H   UNL A   1      44.137  29.855  27.907  1.00  0.00     0.167 HD
ATOM     68  C   UNL A   1      45.022  27.427  26.774  1.00  0.00     0.074 A 
ATOM     69  C   UNL A   1      45.030  26.054  26.319  1.00  0.00     0.031 C 
ATOM     70  C   UNL A   1      46.041  28.299  26.578  1.00  0.00     0.037 A 
BRANCH  57  71
ATOM     71  C   UNL A   1      44.909  33.957  28.770  1.00  0.00     0.064 A 
ATOM     72  C   UNL A   1      44.555  34.965  27.861  1.00  0.00     0.173 A 
ATOM     73  C   UNL A   1      45.722  34.307  29.858  1.00  0.00     0.173 A 
ATOM     74  F   UNL A   1      43.794  34.676  26.794  1.00  0.00    -0.203 F 
ATOM     75  C   UNL A   1      45.034  36.263  28.009  1.00  0.00     0.198 A 
ATOM     76  C   UNL A   1      46.170  35.615  30.022  1.00  0.00     0.198 A 
ATOM     77  F   UNL A   1      46.086  33.383  30.758  1.00  0.00    -0.203 F 
ATOM     78  F   UNL A   1      44.740  37.192  27.089  1.00  0.00    -0.200 F 
ATOM     79  C   UNL A   1      45.836  36.589  29.092  1.00  0.00     0.200 A 
ATOM     80  F   UNL A   1      46.934  35.932  31.076  1.00  0.00    -0.200 F 
ATOM     81  F   UNL A   1      46.296  37.839  29.234  1.00  0.00    -0.200 F 
ENDBRANCH  57  71
BRANCH  58  82
ATOM     82  C   UNL A   1      41.286  24.735  27.712  1.00  0.00     0.064 A 
ATOM     83  C   UNL A   1      41.881  23.651  28.375  1.00  0.00     0.173 A 
ATOM     84  C   UNL A   1      40.230  24.458  26.833  1.00  0.00     0.173 A 
ATOM     85  F   UNL A   1      42.918  23.859  29.201  1.00  0.00    -0.203 F 
ATOM     86  C   UNL A   1      41.459  22.343  28.145  1.00  0.00     0.198 A 
ATOM     87  C   UNL A   1      39.789  23.152  26.624  1.00  0.00     0.198 A 
ATOM     88  F   UNL A   1      39.632  25.456  26.165  1.00  0.00    -0.203 F 
ATOM     89  F   UNL A   1      42.086  21.322  28.744  1.00  0.00    -0.200 F 
ATOM     90  C   UNL A   1      40.410  22.094  27.272  1.00  0.00     0.200 A 
ATOM     91  F   UNL A   1      38.773  22.915  25.783  1.00  0.00    -0.200 F 
ATOM     92  F   UNL A   1      40.009  20.837  27.043  1.00  0.00    -0.200 F 
ENDBRANCH  58  82
BRANCH  70  93
ATOM     93  C   UNL A   1      47.277  27.796  25.890  1.00  0.00     0.064 A 
ATOM     94  C   UNL A   1      48.356  27.260  26.607  1.00  0.00     0.173 A 
ATOM     95  C   UNL A   1      47.349  27.782  24.488  1.00  0.00     0.173 A 
ATOM     96  F   UNL A   1      48.341  27.259  27.948  1.00  0.00    -0.203 F 
ATOM     97  C   UNL A   1      49.469  26.745  25.947  1.00  0.00     0.198 A 
ATOM     98  C   UNL A   1      48.450  27.239  23.831  1.00  0.00     0.198 A 
ATOM     99  F   UNL A   1      46.339  28.273  23.754  1.00  0.00    -0.203 F 
ATOM    100  F   UNL A   1      50.504  26.272  26.654  1.00  0.00    -0.200 F 
ATOM    101  C   UNL A   1      49.510  26.726  24.561  1.00  0.00     0.200 A 
ATOM    102  F   UNL A   1      48.480  27.206  22.491  1.00  0.00    -0.200 F 
ATOM    103  F   UNL A   1      50.576  26.216  23.928  1.00  0.00    -0.200 F 
ENDBRANCH  70  93
ENDBRANCH  44  45
ENDBRANCH  37  39
ENDBRANCH  36  37
ENDBRANCH  35  36
ENDBRANCH  34  35
ENDBRANCH  33  34
ENDBRANCH  32  33
ENDBRANCH  31  32
ENDBRANCH  30  31
ENDBRANCH   1  30
TORSDOF 24
ENDMDL
MODEL 2
REMARK VINA RESULT:     -10.6      5.482     10.672
REMARK SMILES CC1=C(C)C[C@@H](C(=O)OCCOCCOCCOCCOC(=O)c2ccc(-c3c4nc(c(-c5c(F)c(F)c(F)c(F)c5F)c5ccc([nH]5)c(-c5c(F)c(F)c(F)c(F)c5F)c5nc(c(-c6c(F)c(F)c(F)c(F)c6F)c6ccc3[nH]6)C=C5)C=C4)cc2)[C@@H](C(=O)NCC[NH+]2CCOCC2)C1
REMARK SMILES IDX 14 1 13 2 12 3 11 4 10 5 9 6 7 7 8 8 6 9 1 10 2 11 3 12
REMARK SMILES IDX 99 13 4 14 5 15 87 16 88 17 89 18 90 19 91 21 92 22 93 23
REMARK SMILES IDX 94 24 98 25 95 27 97 28 96 29 15 30 16 31 17 32 18 33 19 34
REMARK SMILES IDX 20 35 21 36 22 37 23 38 24 39 25 40 86 41 26 42 85 43 27 44
REMARK SMILES IDX 28 45 29 46 79 47 30 48 84 49 78 50 80 51 31 52 83 53 77 54
REMARK SMILES IDX 76 55 32 57 64 58 44 59 63 60 45 61 48 62 62 63 81 64 46 65
REMARK SMILES IDX 47 66 61 68 82 69 49 70 33 71 34 72 42 73 35 74 36 75 40 76
REMARK SMILES IDX 43 77 37 78 38 79 41 80 39 81 65 82 66 83 74 84 67 85 68 86
REMARK SMILES IDX 72 87 75 88 69 89 70 90 73 91 71 92 50 93 51 94 59 95 52 96
REMARK SMILES IDX 53 97 57 98 60 99 54 100 55 101 58 102 56 103
REMARK H PARENT 90 20 93 26 80 56 48 67
REMARK Flexibility Score: inf
ROOT
ATOM      1  C   UNL A   1      40.931  21.813  27.310  1.00  0.00     0.188 C 
ENDROOT
BRANCH   1   2
ATOM      2  C   UNL A   1      39.701  22.723  27.170  1.00  0.00     0.188 C 
BRANCH   2   3
ATOM      3  O   UNL A   1      38.952  22.426  26.011  1.00  0.00    -0.376 OA
BRANCH   3   4
ATOM      4  C   UNL A   1      37.920  23.292  25.598  1.00  0.00     0.202 C 
BRANCH   4   5
ATOM      5  C   UNL A   1      36.917  22.807  24.543  1.00  0.00     0.261 C 
BRANCH   5   6
ATOM      6  O   UNL A   1      35.524  23.001  24.823  1.00  0.00    -0.463 OA
BRANCH   6   7
ATOM      7  C   UNL A   1      34.914  22.029  25.523  1.00  0.00     0.310 C 
ATOM      8  O   UNL A   1      35.446  21.491  26.493  1.00  0.00    -0.252 OA
BRANCH   7   9
ATOM      9  C   UNL A   1      33.497  21.641  25.081  1.00  0.00     0.116 C 
ATOM     10  C   UNL A   1      30.397  24.379  23.498  1.00  0.00     0.039 C 
ATOM     11  C   UNL A   1      31.388  23.296  23.821  1.00  0.00    -0.074 C 
ATOM     12  C   UNL A   1      32.537  23.077  23.159  1.00  0.00    -0.073 C 
ATOM     13  C   UNL A   1      31.006  22.359  24.930  1.00  0.00     0.045 C 
ATOM     14  C   UNL A   1      33.019  23.869  21.977  1.00  0.00     0.039 C 
ATOM     15  C   UNL A   1      33.413  21.916  23.559  1.00  0.00     0.046 C 
ATOM     16  C   UNL A   1      32.174  21.953  25.847  1.00  0.00     0.097 C 
BRANCH  16  17
ATOM     17  C   UNL A   1      32.176  22.897  27.044  1.00  0.00     0.224 C 
ATOM     18  O   UNL A   1      32.463  22.587  28.193  1.00  0.00    -0.275 OA
ATOM     19  N   UNL A   1      31.881  24.215  26.730  1.00  0.00    -0.350 N 
ATOM     20  H   UNL A   1      30.959  24.546  26.823  1.00  0.00     0.163 HD
BRANCH  19  21
ATOM     21  C   UNL A   1      32.936  25.116  26.260  1.00  0.00     0.177 C 
BRANCH  21  22
ATOM     22  C   UNL A   1      32.638  26.626  26.350  1.00  0.00     0.283 C 
BRANCH  22  23
ATOM     23  N   UNL A   1      32.011  27.343  25.238  1.00  0.00    -0.330 N 
ATOM     24  C   UNL A   1      32.586  27.136  23.900  1.00  0.00     0.291 C 
ATOM     25  C   UNL A   1      31.744  28.761  25.458  1.00  0.00     0.291 C 
ATOM     26  H   UNL A   1      31.113  26.859  25.237  1.00  0.00     0.348 HD
ATOM     27  C   UNL A   1      33.703  28.118  23.510  1.00  0.00     0.221 C 
ATOM     28  C   UNL A   1      32.896  29.700  25.048  1.00  0.00     0.221 C 
ATOM     29  O   UNL A   1      33.286  29.475  23.689  1.00  0.00    -0.370 OA
ENDBRANCH  22  23
ENDBRANCH  21  22
ENDBRANCH  19  21
ENDBRANCH  16  17
ENDBRANCH   7   9
ENDBRANCH   6   7
ENDBRANCH   5   6
ENDBRANCH   4   5
ENDBRANCH   3   4
ENDBRANCH   2   3
ENDBRANCH   1   2
BRANCH   1  30
ATOM     30  O   UNL A   1      40.794  20.399  27.389  1.00  0.00    -0.377 OA
BRANCH  30  31
ATOM     31  C   UNL A   1      41.135  19.601  26.265  1.00  0.00     0.188 C 
BRANCH  31  32
ATOM     32  C   UNL A   1      42.651  19.414  26.028  1.00  0.00     0.188 C 
BRANCH  32  33
ATOM     33  O   UNL A   1      43.346  20.138  25.016  1.00  0.00    -0.376 OA
BRANCH  33  34
ATOM     34  C   UNL A   1      44.064  21.310  25.345  1.00  0.00     0.202 C 
BRANCH  34  35
ATOM     35  C   UNL A   1      44.027  22.472  24.346  1.00  0.00     0.261 C 
BRANCH  35  36
ATOM     36  O   UNL A   1      43.523  23.711  24.856  1.00  0.00    -0.460 OA
BRANCH  36  37
ATOM     37  C   UNL A   1      44.454  24.643  25.189  1.00  0.00     0.338 C 
ATOM     38  O   UNL A   1      45.479  24.919  24.617  1.00  0.00    -0.246 OA
BRANCH  37  39
ATOM     39  C   UNL A   1      43.986  25.291  26.433  1.00  0.00     0.060 A 
ATOM     40  C   UNL A   1      43.059  24.654  27.262  1.00  0.00     0.016 A 
ATOM     41  C   UNL A   1      44.480  26.550  26.768  1.00  0.00     0.016 A 
ATOM     42  C   UNL A   1      42.617  25.289  28.429  1.00  0.00     0.010 A 
ATOM     43  C   UNL A   1      44.090  27.152  27.964  1.00  0.00     0.010 A 
ATOM     44  C   UNL A   1      43.111  26.556  28.779  1.00  0.00    -0.014 A 
BRANCH  44  45
ATOM     45  C   UNL A   1      42.449  27.371  29.838  1.00  0.00     0.031 A 
ATOM     46  C   UNL A   1      43.066  27.369  31.217  1.00  0.00     0.074 A 
ATOM     47  C   UNL A   1      41.346  28.109  29.610  1.00  0.00     0.049 A 
ATOM     48  N   UNL A   1      42.660  27.950  32.319  1.00  0.00    -0.248 NA
ATOM     49  C   UNL A   1      44.292  26.570  31.385  1.00  0.00     0.031 C 
ATOM     50  C   UNL A   1      40.624  28.197  28.343  1.00  0.00     0.029 A 
ATOM     51  N   UNL A   1      40.639  28.935  30.454  1.00  0.00    -0.354 N 
ATOM     52  C   UNL A   1      43.559  27.554  33.301  1.00  0.00     0.074 A 
ATOM     53  C   UNL A   1      44.482  26.628  32.691  1.00  0.00     0.031 C 
ATOM     54  C   UNL A   1      39.593  29.052  28.484  1.00  0.00     0.029 A 
ATOM     55  C   UNL A   1      39.564  29.551  29.859  1.00  0.00     0.049 A 
ATOM     56  H   UNL A   1      40.881  29.071  31.398  1.00  0.00     0.167 HD
ATOM     57  C   UNL A   1      43.646  27.954  34.591  1.00  0.00     0.037 A 
ATOM     58  C   UNL A   1      38.664  30.416  30.370  1.00  0.00     0.037 A 
ATOM     59  C   UNL A   1      42.779  28.925  35.196  1.00  0.00     0.049 A 
ATOM     60  C   UNL A   1      38.776  30.848  31.813  1.00  0.00     0.074 A 
ATOM     61  C   UNL A   1      42.826  29.442  36.478  1.00  0.00     0.029 A 
ATOM     62  N   UNL A   1      41.713  29.534  34.553  1.00  0.00    -0.354 N 
ATOM     63  N   UNL A   1      39.664  30.514  32.717  1.00  0.00    -0.248 NA
ATOM     64  C   UNL A   1      37.756  31.788  32.307  1.00  0.00     0.031 C 
ATOM     65  C   UNL A   1      41.762  30.336  36.624  1.00  0.00     0.029 A 
ATOM     66  C   UNL A   1      41.083  30.412  35.418  1.00  0.00     0.049 A 
ATOM     67  H   UNL A   1      41.444  29.366  33.621  1.00  0.00     0.167 HD
ATOM     68  C   UNL A   1      39.335  31.225  33.865  1.00  0.00     0.074 A 
ATOM     69  C   UNL A   1      38.170  32.020  33.544  1.00  0.00     0.031 C 
ATOM     70  C   UNL A   1      39.943  31.220  35.076  1.00  0.00     0.037 A 
BRANCH  57  71
ATOM     71  C   UNL A   1      44.730  27.341  35.427  1.00  0.00     0.064 A 
ATOM     72  C   UNL A   1      44.528  26.147  36.137  1.00  0.00     0.173 A 
ATOM     73  C   UNL A   1      45.985  27.959  35.523  1.00  0.00     0.173 A 
ATOM     74  F   UNL A   1      43.338  25.528  36.093  1.00  0.00    -0.203 F 
ATOM     75  C   UNL A   1      45.528  25.618  36.946  1.00  0.00     0.198 A 
ATOM     76  C   UNL A   1      46.996  27.406  36.305  1.00  0.00     0.198 A 
ATOM     77  F   UNL A   1      46.231  29.099  34.862  1.00  0.00    -0.203 F 
ATOM     78  F   UNL A   1      45.289  24.515  37.669  1.00  0.00    -0.200 F 
ATOM     79  C   UNL A   1      46.763  26.243  37.025  1.00  0.00     0.200 A 
ATOM     80  F   UNL A   1      48.192  28.004  36.370  1.00  0.00    -0.200 F 
ATOM     81  F   UNL A   1      47.726  25.732  37.803  1.00  0.00    -0.200 F 
ENDBRANCH  57  71
BRANCH  58  82
ATOM     82  C   UNL A   1      37.579  30.970  29.513  1.00  0.00     0.064 A 
ATOM     83  C   UNL A   1      37.590  32.316  29.118  1.00  0.00     0.173 A 
ATOM     84  C   UNL A   1      36.484  30.188  29.121  1.00  0.00     0.173 A 
ATOM     85  F   UNL A   1      38.599  33.117  29.496  1.00  0.00    -0.203 F 
ATOM     86  C   UNL A   1      36.537  32.865  28.390  1.00  0.00     0.198 A 
ATOM     87  C   UNL A   1      35.443  30.729  28.368  1.00  0.00     0.198 A 
ATOM     88  F   UNL A   1      36.417  28.897  29.480  1.00  0.00    -0.203 F 
ATOM     89  F   UNL A   1      36.544  34.168  28.079  1.00  0.00    -0.200 F 
ATOM     90  C   UNL A   1      35.465  32.069  28.011  1.00  0.00     0.200 A 
ATOM     91  F   UNL A   1      34.411  29.958  28.001  1.00  0.00    -0.200 F 
ATOM     92  F   UNL A   1      34.447  32.597  27.319  1.00  0.00    -0.200 F 
ENDBRANCH  58  82
BRANCH  70  93
ATOM     93  C   UNL A   1      39.403  32.134  36.138  1.00  0.00     0.064 A 
ATOM     94  C   UNL A   1      38.369  31.737  36.999  1.00  0.00     0.173 A 
ATOM     95  C   UNL A   1      39.980  33.396  36.346  1.00  0.00     0.173 A 
ATOM     96  F   UNL A   1      37.777  30.544  36.838  1.00  0.00    -0.203 F 
ATOM     97  C   UNL A   1      37.921  32.577  38.015  1.00  0.00     0.198 A 
ATOM     98  C   UNL A   1      39.551  34.222  37.381  1.00  0.00     0.198 A 
ATOM     99  F   UNL A   1      40.979  33.820  35.557  1.00  0.00    -0.203 F 
ATOM    100  F   UNL A   1      36.907  32.192  38.802  1.00  0.00    -0.200 F 
ATOM    101  C   UNL A   1      38.519  33.814  38.211  1.00  0.00     0.200 A 
ATOM    102  F   UNL A   1      40.142  35.408  37.580  1.00  0.00    -0.200 F 
ATOM    103  F   UNL A   1      38.096  34.614  39.200  1.00  0.00    -0.200 F 
ENDBRANCH  70  93
ENDBRANCH  44  45
ENDBRANCH  37  39
ENDBRANCH  36  37
ENDBRANCH  35  36
ENDBRANCH  34  35
ENDBRANCH  33  34
ENDBRANCH  32  33
ENDBRANCH  31  32
ENDBRANCH  30  31
ENDBRANCH   1  30
TORSDOF 24
ENDMDL
MODEL 3
REMARK VINA RESULT:     -10.6      5.730     11.256
REMARK SMILES CC1=C(C)C[C@@H](C(=O)OCCOCCOCCOCCOC(=O)c2ccc(-c3c4nc(c(-c5c(F)c(F)c(F)c(F)c5F)c5ccc([nH]5)c(-c5c(F)c(F)c(F)c(F)c5F)c5nc(c(-c6c(F)c(F)c(F)c(F)c6F)c6ccc3[nH]6)C=C5)C=C4)cc2)[C@@H](C(=O)NCC[NH+]2CCOCC2)C1
REMARK SMILES IDX 14 1 13 2 12 3 11 4 10 5 9 6 7 7 8 8 6 9 1 10 2 11 3 12
REMARK SMILES IDX 99 13 4 14 5 15 87 16 88 17 89 18 90 19 91 21 92 22 93 23
REMARK SMILES IDX 94 24 98 25 95 27 97 28 96 29 15 30 16 31 17 32 18 33 19 34
REMARK SMILES IDX 20 35 21 36 22 37 23 38 24 39 25 40 86 41 26 42 85 43 27 44
REMARK SMILES IDX 28 45 29 46 79 47 30 48 84 49 78 50 80 51 31 52 83 53 77 54
REMARK SMILES IDX 76 55 32 57 64 58 44 59 63 60 45 61 48 62 62 63 81 64 46 65
REMARK SMILES IDX 47 66 61 68 82 69 49 70 33 71 34 72 42 73 35 74 36 75 40 76
REMARK SMILES IDX 43 77 37 78 38 79 41 80 39 81 65 82 66 83 74 84 67 85 68 86
REMARK SMILES IDX 72 87 75 88 69 89 70 90 73 91 71 92 50 93 51 94 59 95 52 96
REMARK SMILES IDX 53 97 57 98 60 99 54 100 55 101 58 102 56 103
REMARK H PARENT 90 20 93 26 80 56 48 67
REMARK Flexibility Score: inf
ROOT
ATOM      1  C   UNL A   1      40.834  21.938  27.386  1.00  0.00     0.188 C 
ENDROOT
BRANCH   1   2
ATOM      2  C   UNL A   1      39.895  23.121  27.105  1.00  0.00     0.188 C 
BRANCH   2   3
ATOM      3  O   UNL A   1      38.741  22.723  26.396  1.00  0.00    -0.376 OA
BRANCH   3   4
ATOM      4  C   UNL A   1      37.718  23.655  26.136  1.00  0.00     0.202 C 
BRANCH   4   5
ATOM      5  C   UNL A   1      37.118  23.732  24.725  1.00  0.00     0.261 C 
BRANCH   5   6
ATOM      6  O   UNL A   1      35.691  23.827  24.622  1.00  0.00    -0.463 OA
BRANCH   6   7
ATOM      7  C   UNL A   1      35.147  23.420  23.463  1.00  0.00     0.310 C 
ATOM      8  O   UNL A   1      35.827  22.951  22.551  1.00  0.00    -0.252 OA
BRANCH   7   9
ATOM      9  C   UNL A   1      33.621  23.529  23.336  1.00  0.00     0.116 C 
ATOM     10  C   UNL A   1      31.062  26.698  25.074  1.00  0.00     0.039 C 
ATOM     11  C   UNL A   1      31.796  25.672  24.255  1.00  0.00    -0.074 C 
ATOM     12  C   UNL A   1      32.714  25.948  23.314  1.00  0.00    -0.073 C 
ATOM     13  C   UNL A   1      31.402  24.242  24.481  1.00  0.00     0.045 C 
ATOM     14  C   UNL A   1      33.153  27.327  22.911  1.00  0.00     0.039 C 
ATOM     15  C   UNL A   1      33.332  24.819  22.528  1.00  0.00     0.046 C 
ATOM     16  C   UNL A   1      32.580  23.251  24.464  1.00  0.00     0.097 C 
BRANCH  16  17
ATOM     17  C   UNL A   1      33.034  23.043  25.904  1.00  0.00     0.224 C 
ATOM     18  O   UNL A   1      32.695  23.726  26.863  1.00  0.00    -0.275 OA
ATOM     19  N   UNL A   1      33.849  21.936  26.091  1.00  0.00    -0.350 N 
ATOM     20  H   UNL A   1      34.827  22.041  26.090  1.00  0.00     0.163 HD
BRANCH  19  21
ATOM     21  C   UNL A   1      33.257  20.611  26.288  1.00  0.00     0.177 C 
BRANCH  21  22
ATOM     22  C   UNL A   1      33.398  19.617  25.116  1.00  0.00     0.283 C 
BRANCH  22  23
ATOM     23  N   UNL A   1      33.964  18.282  25.318  1.00  0.00    -0.330 N 
ATOM     24  C   UNL A   1      34.817  17.748  24.245  1.00  0.00     0.291 C 
ATOM     25  C   UNL A   1      33.035  17.255  25.781  1.00  0.00     0.291 C 
ATOM     26  H   UNL A   1      34.589  18.501  26.094  1.00  0.00     0.348 HD
ATOM     27  C   UNL A   1      34.080  16.945  23.162  1.00  0.00     0.221 C 
ATOM     28  C   UNL A   1      32.325  16.480  24.654  1.00  0.00     0.221 C 
ATOM     29  O   UNL A   1      33.272  15.915  23.741  1.00  0.00    -0.370 OA
ENDBRANCH  22  23
ENDBRANCH  21  22
ENDBRANCH  19  21
ENDBRANCH  16  17
ENDBRANCH   7   9
ENDBRANCH   6   7
ENDBRANCH   5   6
ENDBRANCH   4   5
ENDBRANCH   3   4
ENDBRANCH   2   3
ENDBRANCH   1   2
BRANCH   1  30
ATOM     30  O   UNL A   1      40.419  20.597  27.151  1.00  0.00    -0.377 OA
BRANCH  30  31
ATOM     31  C   UNL A   1      41.092  19.819  26.172  1.00  0.00     0.188 C 
BRANCH  31  32
ATOM     32  C   UNL A   1      42.635  19.915  26.204  1.00  0.00     0.188 C 
BRANCH  32  33
ATOM     33  O   UNL A   1      43.386  20.299  25.054  1.00  0.00    -0.376 OA
BRANCH  33  34
ATOM     34  C   UNL A   1      44.228  21.433  25.100  1.00  0.00     0.202 C 
BRANCH  34  35
ATOM     35  C   UNL A   1      43.930  22.581  24.129  1.00  0.00     0.261 C 
BRANCH  35  36
ATOM     36  O   UNL A   1      43.557  23.823  24.734  1.00  0.00    -0.460 OA
BRANCH  36  37
ATOM     37  C   UNL A   1      44.579  24.622  25.140  1.00  0.00     0.338 C 
ATOM     38  O   UNL A   1      45.662  24.771  24.631  1.00  0.00    -0.246 OA
BRANCH  37  39
ATOM     39  C   UNL A   1      44.125  25.306  26.369  1.00  0.00     0.060 A 
ATOM     40  C   UNL A   1      43.475  24.595  27.381  1.00  0.00     0.016 A 
ATOM     41  C   UNL A   1      44.353  26.674  26.506  1.00  0.00     0.016 A 
ATOM     42  C   UNL A   1      43.041  25.263  28.533  1.00  0.00     0.010 A 
ATOM     43  C   UNL A   1      43.980  27.324  27.682  1.00  0.00     0.010 A 
ATOM     44  C   UNL A   1      43.268  26.640  28.684  1.00  0.00    -0.014 A 
BRANCH  44  45
ATOM     45  C   UNL A   1      42.568  27.421  29.744  1.00  0.00     0.031 A 
ATOM     46  C   UNL A   1      43.194  27.463  31.118  1.00  0.00     0.074 A 
ATOM     47  C   UNL A   1      41.422  28.092  29.520  1.00  0.00     0.049 A 
ATOM     48  N   UNL A   1      42.764  28.026  32.219  1.00  0.00    -0.248 NA
ATOM     49  C   UNL A   1      44.466  26.738  31.281  1.00  0.00     0.031 C 
ATOM     50  C   UNL A   1      40.687  28.130  28.258  1.00  0.00     0.029 A 
ATOM     51  N   UNL A   1      40.674  28.879  30.365  1.00  0.00    -0.354 N 
ATOM     52  C   UNL A   1      43.692  27.688  33.197  1.00  0.00     0.074 A 
ATOM     53  C   UNL A   1      44.662  26.815  32.584  1.00  0.00     0.031 C 
ATOM     54  C   UNL A   1      39.609  28.924  28.403  1.00  0.00     0.029 A 
ATOM     55  C   UNL A   1      39.561  29.428  29.775  1.00  0.00     0.049 A 
ATOM     56  H   UNL A   1      40.915  29.035  31.307  1.00  0.00     0.167 HD
ATOM     57  C   UNL A   1      43.764  28.100  34.484  1.00  0.00     0.037 A 
ATOM     58  C   UNL A   1      38.616  30.242  30.288  1.00  0.00     0.037 A 
ATOM     59  C   UNL A   1      42.846  29.022  35.091  1.00  0.00     0.049 A 
ATOM     60  C   UNL A   1      38.712  30.689  31.729  1.00  0.00     0.074 A 
ATOM     61  C   UNL A   1      42.873  29.548  36.369  1.00  0.00     0.029 A 
ATOM     62  N   UNL A   1      41.742  29.564  34.453  1.00  0.00    -0.354 N 
ATOM     63  N   UNL A   1      39.626  30.412  32.627  1.00  0.00    -0.248 NA
ATOM     64  C   UNL A   1      37.643  31.570  32.225  1.00  0.00     0.031 C 
ATOM     65  C   UNL A   1      41.760  30.380  36.518  1.00  0.00     0.029 A 
ATOM     66  C   UNL A   1      41.069  30.409  35.318  1.00  0.00     0.049 A 
ATOM     67  H   UNL A   1      41.477  29.376  33.523  1.00  0.00     0.167 HD
ATOM     68  C   UNL A   1      39.264  31.109  33.774  1.00  0.00     0.074 A 
ATOM     69  C   UNL A   1      38.052  31.833  33.458  1.00  0.00     0.031 C 
ATOM     70  C   UNL A   1      39.880  31.147  34.981  1.00  0.00     0.037 A 
BRANCH  57  71
ATOM     71  C   UNL A   1      44.889  27.556  35.315  1.00  0.00     0.064 A 
ATOM     72  C   UNL A   1      44.748  26.380  36.068  1.00  0.00     0.173 A 
ATOM     73  C   UNL A   1      46.121  28.223  35.361  1.00  0.00     0.173 A 
ATOM     74  F   UNL A   1      43.581  25.717  36.073  1.00  0.00    -0.203 F 
ATOM     75  C   UNL A   1      45.784  25.917  36.872  1.00  0.00     0.198 A 
ATOM     76  C   UNL A   1      47.169  27.735  36.138  1.00  0.00     0.198 A 
ATOM     77  F   UNL A   1      46.310  29.348  34.656  1.00  0.00    -0.203 F 
ATOM     78  F   UNL A   1      45.602  24.831  37.636  1.00  0.00    -0.200 F 
ATOM     79  C   UNL A   1      46.996  26.589  36.901  1.00  0.00     0.200 A 
ATOM     80  F   UNL A   1      48.343  28.379  36.155  1.00  0.00    -0.200 F 
ATOM     81  F   UNL A   1      47.994  26.141  37.674  1.00  0.00    -0.200 F 
ENDBRANCH  57  71
BRANCH  58  82
ATOM     82  C   UNL A   1      37.494  30.727  29.438  1.00  0.00     0.064 A 
ATOM     83  C   UNL A   1      37.438  32.063  29.012  1.00  0.00     0.173 A 
ATOM     84  C   UNL A   1      36.429  29.887  29.081  1.00  0.00     0.173 A 
ATOM     85  F   UNL A   1      38.415  32.916  29.355  1.00  0.00    -0.203 F 
ATOM     86  C   UNL A   1      36.350  32.546  28.288  1.00  0.00     0.198 A 
ATOM     87  C   UNL A   1      35.354  30.364  28.333  1.00  0.00     0.198 A 
ATOM     88  F   UNL A   1      36.426  28.603  29.471  1.00  0.00    -0.203 F 
ATOM     89  F   UNL A   1      36.293  33.841  27.949  1.00  0.00    -0.200 F 
ATOM     90  C   UNL A   1      35.309  31.695  27.946  1.00  0.00     0.200 A 
ATOM     91  F   UNL A   1      34.352  29.538  28.001  1.00  0.00    -0.200 F 
ATOM     92  F   UNL A   1      34.258  32.161  27.258  1.00  0.00    -0.200 F 
ENDBRANCH  58  82
BRANCH  70  93
ATOM     93  C   UNL A   1      39.296  32.033  36.042  1.00  0.00     0.064 A 
ATOM     94  C   UNL A   1      38.293  31.582  36.913  1.00  0.00     0.173 A 
ATOM     95  C   UNL A   1      39.800  33.329  36.238  1.00  0.00     0.173 A 
ATOM     96  F   UNL A   1      37.771  30.356  36.762  1.00  0.00    -0.203 F 
ATOM     97  C   UNL A   1      37.805  32.400  37.928  1.00  0.00     0.198 A 
ATOM     98  C   UNL A   1      39.331  34.134  37.273  1.00  0.00     0.198 A 
ATOM     99  F   UNL A   1      40.766  33.806  35.440  1.00  0.00    -0.203 F 
ATOM    100  F   UNL A   1      36.821  31.961  38.724  1.00  0.00    -0.200 F 
ATOM    101  C   UNL A   1      38.330  33.671  38.113  1.00  0.00     0.200 A 
ATOM    102  F   UNL A   1      39.852  35.354  37.460  1.00  0.00    -0.200 F 
ATOM    103  F   UNL A   1      37.869  34.451  39.100  1.00  0.00    -0.200 F 
ENDBRANCH  70  93
ENDBRANCH  44  45
ENDBRANCH  37  39
ENDBRANCH  36  37
ENDBRANCH  35  36
ENDBRANCH  34  35
ENDBRANCH  33  34
ENDBRANCH  32  33
ENDBRANCH  31  32
ENDBRANCH  30  31
ENDBRANCH   1  30
TORSDOF 24
ENDMDL
