MODEL 1
REMARK VINA RESULT:     -10.9      0.000      0.000
REMARK SMILES Cc1c(Cl)cc2c(c1C)O[C@H](C(F)(F)F)C(C(=O)OCCOCCOCCOCCOC(=O)c1ccc(-c3c4nc(c(-c5c(F)c(F)c(F)c(F)c5F)c5ccc([nH]5)c(-c5c(F)c(F)c(F)c(F)c5F)c5nc(c(-c6c(F)c(F)c(F)c(F)c6F)c6ccc3[nH]6)C=C5)C=C4)cc1)=C2
REMARK SMILES IDX 26 1 25 2 24 3 23 4 22 5 21 6 20 7 19 8 17 9 18 10 16 11
REMARK SMILES IDX 1 12 2 13 3 14 8 15 4 16 5 17 7 18 9 19 6 20 10 21 97 22
REMARK SMILES IDX 11 23 12 24 13 25 14 26 15 27 27 28 28 29 29 30 30 31 31 32
REMARK SMILES IDX 32 33 33 34 34 35 35 36 96 37 36 38 95 39 37 40 38 41 39 42
REMARK SMILES IDX 89 43 40 44 94 45 88 46 90 47 41 48 93 49 87 50 86 51 42 53
REMARK SMILES IDX 74 54 54 55 73 56 55 57 58 58 72 59 91 60 56 61 57 62 71 64
REMARK SMILES IDX 92 65 59 66 43 67 44 68 52 69 45 70 46 71 50 72 53 73 47 74
REMARK SMILES IDX 48 75 51 76 49 77 75 78 76 79 84 80 77 81 78 82 82 83 85 84
REMARK SMILES IDX 79 85 80 86 83 87 81 88 60 89 61 90 69 91 62 92 63 93 67 94
REMARK SMILES IDX 70 95 64 96 65 97 68 98 66 99
REMARK H PARENT 90 52 58 63
REMARK Flexibility Score: inf
ROOT
ATOM      1  C   UNL A   1      34.256  32.231  28.249  1.00  0.00     0.188 C 
ENDROOT
BRANCH   1   2
ATOM      2  O   UNL A   1      34.100  31.250  27.222  1.00  0.00    -0.377 OA
BRANCH   2   3
ATOM      3  C   UNL A   1      32.908  30.477  27.215  1.00  0.00     0.188 C 
BRANCH   3   4
ATOM      4  C   UNL A   1      31.845  31.002  26.228  1.00  0.00     0.188 C 
BRANCH   4   5
ATOM      5  O   UNL A   1      31.219  29.971  25.485  1.00  0.00    -0.376 OA
BRANCH   5   6
ATOM      6  C   UNL A   1      30.556  30.244  24.263  1.00  0.00     0.202 C 
BRANCH   6   7
ATOM      7  C   UNL A   1      30.611  29.322  23.029  1.00  0.00     0.261 C 
BRANCH   7   8
ATOM      8  O   UNL A   1      31.747  28.467  22.897  1.00  0.00    -0.460 OA
BRANCH   8   9
ATOM      9  C   UNL A   1      31.539  27.226  22.423  1.00  0.00     0.338 C 
ATOM     10  O   UNL A   1      31.032  26.924  21.358  1.00  0.00    -0.246 OA
BRANCH   9  11
ATOM     11  C   UNL A   1      32.197  26.279  23.351  1.00  0.00     0.087 C 
ATOM     12  C   UNL A   1      35.516  21.434  26.137  1.00  0.00     0.046 C 
ATOM     13  C   UNL A   1      35.025  22.626  25.356  1.00  0.00    -0.026 A 
ATOM     14  C   UNL A   1      35.623  23.003  24.138  1.00  0.00     0.045 A 
ATOM     15  C   UNL A   1      33.924  23.384  25.832  1.00  0.00    -0.004 A 
ATOM     16  Cl  UNL A   1      37.019  22.205  23.498  1.00  0.00    -0.084 Cl
ATOM     17  C   UNL A   1      35.091  24.036  23.364  1.00  0.00     0.032 A 
ATOM     18  C   UNL A   1      33.406  24.434  25.042  1.00  0.00     0.131 A 
ATOM     19  C   UNL A   1      33.252  23.093  27.153  1.00  0.00     0.049 C 
ATOM     20  C   UNL A   1      33.955  24.721  23.793  1.00  0.00     0.019 A 
ATOM     21  O   UNL A   1      32.342  25.123  25.558  1.00  0.00    -0.475 OA
ATOM     22  C   UNL A   1      33.303  25.670  22.908  1.00  0.00     0.027 C 
ATOM     23  C   UNL A   1      31.653  26.110  24.746  1.00  0.00     0.316 C 
BRANCH  23  24
ATOM     24  C   UNL A   1      30.158  25.765  24.751  1.00  0.00     0.430 C 
ATOM     25  F   UNL A   1      29.852  24.888  23.764  1.00  0.00    -0.167 F 
ATOM     26  F   UNL A   1      29.772  25.189  25.913  1.00  0.00    -0.167 F 
ATOM     27  F   UNL A   1      29.390  26.863  24.571  1.00  0.00    -0.167 F 
ENDBRANCH  23  24
ENDBRANCH   9  11
ENDBRANCH   8   9
ENDBRANCH   7   8
ENDBRANCH   6   7
ENDBRANCH   5   6
ENDBRANCH   4   5
ENDBRANCH   3   4
ENDBRANCH   2   3
ENDBRANCH   1   2
BRANCH   1  28
ATOM     28  C   UNL A   1      33.593  33.629  28.168  1.00  0.00     0.188 C 
BRANCH  28  29
ATOM     29  O   UNL A   1      33.090  34.111  29.406  1.00  0.00    -0.376 OA
BRANCH  29  30
ATOM     30  C   UNL A   1      33.956  34.850  30.248  1.00  0.00     0.202 C 
BRANCH  30  31
ATOM     31  C   UNL A   1      34.435  34.135  31.517  1.00  0.00     0.261 C 
BRANCH  31  32
ATOM     32  O   UNL A   1      35.796  33.681  31.502  1.00  0.00    -0.460 OA
BRANCH  32  33
ATOM     33  C   UNL A   1      36.118  32.658  32.321  1.00  0.00     0.338 C 
ATOM     34  O   UNL A   1      35.565  32.336  33.358  1.00  0.00    -0.246 OA
BRANCH  33  35
ATOM     35  C   UNL A   1      37.161  31.863  31.643  1.00  0.00     0.060 A 
ATOM     36  C   UNL A   1      38.157  31.244  32.409  1.00  0.00     0.016 A 
ATOM     37  C   UNL A   1      37.141  31.719  30.254  1.00  0.00     0.016 A 
ATOM     38  C   UNL A   1      39.158  30.503  31.782  1.00  0.00     0.010 A 
ATOM     39  C   UNL A   1      38.157  30.997  29.624  1.00  0.00     0.010 A 
ATOM     40  C   UNL A   1      39.187  30.414  30.384  1.00  0.00    -0.014 A 
BRANCH  40  41
ATOM     41  C   UNL A   1      40.399  29.899  29.704  1.00  0.00     0.031 A 
ATOM     42  C   UNL A   1      41.551  30.844  29.500  1.00  0.00     0.074 A 
ATOM     43  C   UNL A   1      40.488  28.621  29.299  1.00  0.00     0.049 A 
ATOM     44  N   UNL A   1      42.690  30.648  28.890  1.00  0.00    -0.248 NA
ATOM     45  C   UNL A   1      41.393  32.196  30.064  1.00  0.00     0.031 C 
ATOM     46  C   UNL A   1      39.463  27.601  29.491  1.00  0.00     0.029 A 
ATOM     47  N   UNL A   1      41.497  27.968  28.635  1.00  0.00    -0.354 N 
ATOM     48  C   UNL A   1      43.384  31.846  28.999  1.00  0.00     0.074 A 
ATOM     49  C   UNL A   1      42.526  32.776  29.700  1.00  0.00     0.031 C 
ATOM     50  C   UNL A   1      39.893  26.446  28.951  1.00  0.00     0.029 A 
ATOM     51  C   UNL A   1      41.208  26.658  28.344  1.00  0.00     0.049 A 
ATOM     52  H   UNL A   1      42.348  28.398  28.388  1.00  0.00     0.167 HD
ATOM     53  C   UNL A   1      44.633  32.138  28.567  1.00  0.00     0.037 A 
ATOM     54  C   UNL A   1      41.917  25.744  27.653  1.00  0.00     0.037 A 
ATOM     55  C   UNL A   1      45.479  31.212  27.865  1.00  0.00     0.049 A 
ATOM     56  C   UNL A   1      43.265  26.125  27.092  1.00  0.00     0.074 A 
ATOM     57  C   UNL A   1      46.758  31.415  27.378  1.00  0.00     0.029 A 
ATOM     58  N   UNL A   1      45.130  29.909  27.544  1.00  0.00    -0.354 N 
ATOM     59  N   UNL A   1      43.919  27.256  27.202  1.00  0.00    -0.248 NA
ATOM     60  C   UNL A   1      43.973  25.101  26.308  1.00  0.00     0.031 C 
ATOM     61  C   UNL A   1      47.161  30.254  26.714  1.00  0.00     0.029 A 
ATOM     62  C   UNL A   1      46.159  29.304  26.842  1.00  0.00     0.049 A 
ATOM     63  H   UNL A   1      44.276  29.478  27.779  1.00  0.00     0.167 HD
ATOM     64  C   UNL A   1      45.124  27.072  26.535  1.00  0.00     0.074 A 
ATOM     65  C   UNL A   1      45.116  25.714  26.031  1.00  0.00     0.031 C 
ATOM     66  C   UNL A   1      46.144  27.946  26.357  1.00  0.00     0.037 A 
BRANCH  53  67
ATOM     67  C   UNL A   1      45.156  33.519  28.827  1.00  0.00     0.064 A 
ATOM     68  C   UNL A   1      45.016  34.548  27.884  1.00  0.00     0.173 A 
ATOM     69  C   UNL A   1      45.752  33.834  30.058  1.00  0.00     0.173 A 
ATOM     70  F   UNL A   1      44.469  34.295  26.685  1.00  0.00    -0.203 F 
ATOM     71  C   UNL A   1      45.461  35.838  28.159  1.00  0.00     0.198 A 
ATOM     72  C   UNL A   1      46.168  35.132  30.342  1.00  0.00     0.198 A 
ATOM     73  F   UNL A   1      45.912  32.887  30.994  1.00  0.00    -0.203 F 
ATOM     74  F   UNL A   1      45.349  36.797  27.230  1.00  0.00    -0.200 F 
ATOM     75  C   UNL A   1      46.027  36.131  29.392  1.00  0.00     0.200 A 
ATOM     76  F   UNL A   1      46.702  35.415  31.538  1.00  0.00    -0.200 F 
ATOM     77  F   UNL A   1      46.436  37.378  29.663  1.00  0.00    -0.200 F 
ENDBRANCH  53  67
BRANCH  54  78
ATOM     78  C   UNL A   1      41.370  24.375  27.458  1.00  0.00     0.064 A 
ATOM     79  C   UNL A   1      40.224  24.160  26.680  1.00  0.00     0.173 A 
ATOM     80  C   UNL A   1      41.979  23.253  28.041  1.00  0.00     0.173 A 
ATOM     81  F   UNL A   1      39.587  25.202  26.125  1.00  0.00    -0.203 F 
ATOM     82  C   UNL A   1      39.705  22.879  26.498  1.00  0.00     0.198 A 
ATOM     83  C   UNL A   1      41.477  21.970  27.835  1.00  0.00     0.198 A 
ATOM     84  F   UNL A   1      43.075  23.403  28.801  1.00  0.00    -0.203 F 
ATOM     85  F   UNL A   1      38.586  22.708  25.782  1.00  0.00    -0.200 F 
ATOM     86  C   UNL A   1      40.337  21.785  27.068  1.00  0.00     0.200 A 
ATOM     87  F   UNL A   1      42.098  20.914  28.378  1.00  0.00    -0.200 F 
ATOM     88  F   UNL A   1      39.844  20.553  26.883  1.00  0.00    -0.200 F 
ENDBRANCH  54  78
BRANCH  66  89
ATOM     89  C   UNL A   1      47.362  27.468  25.619  1.00  0.00     0.064 A 
ATOM     90  C   UNL A   1      47.487  27.614  24.230  1.00  0.00     0.173 A 
ATOM     91  C   UNL A   1      48.455  26.936  26.323  1.00  0.00     0.173 A 
ATOM     92  F   UNL A   1      46.469  28.108  23.509  1.00  0.00    -0.203 F 
ATOM     93  C   UNL A   1      48.654  27.233  23.572  1.00  0.00     0.198 A 
ATOM     94  C   UNL A   1      49.632  26.588  25.667  1.00  0.00     0.198 A 
ATOM     95  F   UNL A   1      48.393  26.786  27.655  1.00  0.00    -0.203 F 
ATOM     96  F   UNL A   1      48.737  27.349  22.240  1.00  0.00    -0.200 F 
ATOM     97  C   UNL A   1      49.729  26.732  24.292  1.00  0.00     0.200 A 
ATOM     98  F   UNL A   1      50.676  26.124  26.368  1.00  0.00    -0.200 F 
ATOM     99  F   UNL A   1      50.858  26.386  23.659  1.00  0.00    -0.200 F 
ENDBRANCH  66  89
ENDBRANCH  40  41
ENDBRANCH  33  35
ENDBRANCH  32  33
ENDBRANCH  31  32
ENDBRANCH  30  31
ENDBRANCH  29  30
ENDBRANCH  28  29
ENDBRANCH   1  28
TORSDOF 21
ENDMDL
MODEL 2
REMARK VINA RESULT:     -10.8      5.005      7.465
REMARK SMILES Cc1c(Cl)cc2c(c1C)O[C@H](C(F)(F)F)C(C(=O)OCCOCCOCCOCCOC(=O)c1ccc(-c3c4nc(c(-c5c(F)c(F)c(F)c(F)c5F)c5ccc([nH]5)c(-c5c(F)c(F)c(F)c(F)c5F)c5nc(c(-c6c(F)c(F)c(F)c(F)c6F)c6ccc3[nH]6)C=C5)C=C4)cc1)=C2
REMARK SMILES IDX 26 1 25 2 24 3 23 4 22 5 21 6 20 7 19 8 17 9 18 10 16 11
REMARK SMILES IDX 1 12 2 13 3 14 8 15 4 16 5 17 7 18 9 19 6 20 10 21 97 22
REMARK SMILES IDX 11 23 12 24 13 25 14 26 15 27 27 28 28 29 29 30 30 31 31 32
REMARK SMILES IDX 32 33 33 34 34 35 35 36 96 37 36 38 95 39 37 40 38 41 39 42
REMARK SMILES IDX 89 43 40 44 94 45 88 46 90 47 41 48 93 49 87 50 86 51 42 53
REMARK SMILES IDX 74 54 54 55 73 56 55 57 58 58 72 59 91 60 56 61 57 62 71 64
REMARK SMILES IDX 92 65 59 66 43 67 44 68 52 69 45 70 46 71 50 72 53 73 47 74
REMARK SMILES IDX 48 75 51 76 49 77 75 78 76 79 84 80 77 81 78 82 82 83 85 84
REMARK SMILES IDX 79 85 80 86 83 87 81 88 60 89 61 90 69 91 62 92 63 93 67 94
REMARK SMILES IDX 70 95 64 96 65 97 68 98 66 99
REMARK H PARENT 90 52 58 63
REMARK Flexibility Score: inf
ROOT
ATOM      1  C   UNL A   1      35.411  31.901  27.790  1.00  0.00     0.188 C 
ENDROOT
BRANCH   1   2
ATOM      2  O   UNL A   1      35.457  30.473  27.762  1.00  0.00    -0.377 OA
BRANCH   2   3
ATOM      3  C   UNL A   1      34.607  29.797  26.845  1.00  0.00     0.188 C 
BRANCH   3   4
ATOM      4  C   UNL A   1      33.544  28.917  27.533  1.00  0.00     0.188 C 
BRANCH   4   5
ATOM      5  O   UNL A   1      32.226  29.411  27.376  1.00  0.00    -0.376 OA
BRANCH   5   6
ATOM      6  C   UNL A   1      31.787  29.961  26.147  1.00  0.00     0.202 C 
BRANCH   6   7
ATOM      7  C   UNL A   1      31.391  29.118  24.919  1.00  0.00     0.261 C 
BRANCH   7   8
ATOM      8  O   UNL A   1      31.732  27.731  24.936  1.00  0.00    -0.460 OA
BRANCH   8   9
ATOM      9  C   UNL A   1      32.667  27.309  24.067  1.00  0.00     0.338 C 
ATOM     10  O   UNL A   1      33.285  27.991  23.269  1.00  0.00    -0.246 OA
BRANCH   9  11
ATOM     11  C   UNL A   1      32.947  25.887  24.368  1.00  0.00     0.087 C 
ATOM     12  C   UNL A   1      35.498  19.943  24.998  1.00  0.00     0.046 C 
ATOM     13  C   UNL A   1      35.161  21.412  25.019  1.00  0.00    -0.026 A 
ATOM     14  C   UNL A   1      36.166  22.395  25.095  1.00  0.00     0.045 A 
ATOM     15  C   UNL A   1      33.808  21.832  24.939  1.00  0.00    -0.004 A 
ATOM     16  Cl  UNL A   1      37.842  22.003  25.276  1.00  0.00    -0.084 Cl
ATOM     17  C   UNL A   1      35.853  23.753  24.999  1.00  0.00     0.032 A 
ATOM     18  C   UNL A   1      33.509  23.210  24.854  1.00  0.00     0.131 A 
ATOM     19  C   UNL A   1      32.657  20.854  24.910  1.00  0.00     0.049 C 
ATOM     20  C   UNL A   1      34.531  24.158  24.830  1.00  0.00     0.019 A 
ATOM     21  O   UNL A   1      32.185  23.547  24.777  1.00  0.00    -0.475 OA
ATOM     22  C   UNL A   1      34.229  25.552  24.554  1.00  0.00     0.027 C 
ATOM     23  C   UNL A   1      31.800  24.925  24.530  1.00  0.00     0.316 C 
BRANCH  23  24
ATOM     24  C   UNL A   1      30.851  24.941  23.325  1.00  0.00     0.430 C 
ATOM     25  F   UNL A   1      29.845  25.833  23.502  1.00  0.00    -0.167 F 
ATOM     26  F   UNL A   1      31.483  25.294  22.182  1.00  0.00    -0.167 F 
ATOM     27  F   UNL A   1      30.286  23.730  23.116  1.00  0.00    -0.167 F 
ENDBRANCH  23  24
ENDBRANCH   9  11
ENDBRANCH   8   9
ENDBRANCH   7   8
ENDBRANCH   6   7
ENDBRANCH   5   6
ENDBRANCH   4   5
ENDBRANCH   3   4
ENDBRANCH   2   3
ENDBRANCH   1   2
BRANCH   1  28
ATOM     28  C   UNL A   1      34.669  32.685  28.901  1.00  0.00     0.188 C 
BRANCH  28  29
ATOM     29  O   UNL A   1      33.620  33.517  28.429  1.00  0.00    -0.376 OA
BRANCH  29  30
ATOM     30  C   UNL A   1      33.859  34.909  28.312  1.00  0.00     0.202 C 
BRANCH  30  31
ATOM     31  C   UNL A   1      33.147  35.803  29.334  1.00  0.00     0.261 C 
BRANCH  31  32
ATOM     32  O   UNL A   1      32.529  35.122  30.435  1.00  0.00    -0.460 OA
BRANCH  32  33
ATOM     33  C   UNL A   1      32.713  35.640  31.668  1.00  0.00     0.338 C 
ATOM     34  O   UNL A   1      31.979  36.407  32.266  1.00  0.00    -0.246 OA
BRANCH  33  35
ATOM     35  C   UNL A   1      33.885  34.965  32.258  1.00  0.00     0.060 A 
ATOM     36  C   UNL A   1      35.137  35.592  32.203  1.00  0.00     0.016 A 
ATOM     37  C   UNL A   1      33.741  33.721  32.878  1.00  0.00     0.016 A 
ATOM     38  C   UNL A   1      36.257  34.960  32.742  1.00  0.00     0.010 A 
ATOM     39  C   UNL A   1      34.866  33.078  33.397  1.00  0.00     0.010 A 
ATOM     40  C   UNL A   1      36.133  33.681  33.301  1.00  0.00    -0.014 A 
BRANCH  40  41
ATOM     41  C   UNL A   1      37.349  32.884  33.590  1.00  0.00     0.031 A 
ATOM     42  C   UNL A   1      38.086  33.157  34.872  1.00  0.00     0.074 A 
ATOM     43  C   UNL A   1      37.777  31.925  32.751  1.00  0.00     0.049 A 
ATOM     44  N   UNL A   1      39.196  32.633  35.322  1.00  0.00    -0.248 NA
ATOM     45  C   UNL A   1      37.484  34.159  35.769  1.00  0.00     0.031 C 
ATOM     46  C   UNL A   1      37.117  31.532  31.510  1.00  0.00     0.029 A 
ATOM     47  N   UNL A   1      38.879  31.109  32.823  1.00  0.00    -0.354 N 
ATOM     48  C   UNL A   1      39.424  33.239  36.551  1.00  0.00     0.074 A 
ATOM     49  C   UNL A   1      38.359  34.195  36.762  1.00  0.00     0.031 C 
ATOM     50  C   UNL A   1      37.831  30.550  30.931  1.00  0.00     0.029 A 
ATOM     51  C   UNL A   1      39.017  30.273  31.742  1.00  0.00     0.049 A 
ATOM     52  H   UNL A   1      39.513  31.123  33.576  1.00  0.00     0.167 HD
ATOM     53  C   UNL A   1      40.424  33.004  37.432  1.00  0.00     0.037 A 
ATOM     54  C   UNL A   1      39.997  29.399  31.440  1.00  0.00     0.037 A 
ATOM     55  C   UNL A   1      41.483  32.057  37.215  1.00  0.00     0.049 A 
ATOM     56  C   UNL A   1      41.156  29.229  32.391  1.00  0.00     0.074 A 
ATOM     57  C   UNL A   1      42.548  31.753  38.045  1.00  0.00     0.029 A 
ATOM     58  N   UNL A   1      41.616  31.266  36.084  1.00  0.00    -0.354 N 
ATOM     59  N   UNL A   1      41.363  29.799  33.554  1.00  0.00    -0.248 NA
ATOM     60  C   UNL A   1      42.218  28.295  31.987  1.00  0.00     0.031 C 
ATOM     61  C   UNL A   1      43.355  30.818  37.392  1.00  0.00     0.029 A 
ATOM     62  C   UNL A   1      42.760  30.491  36.184  1.00  0.00     0.049 A 
ATOM     63  H   UNL A   1      40.990  31.256  35.324  1.00  0.00     0.167 HD
ATOM     64  C   UNL A   1      42.556  29.271  34.034  1.00  0.00     0.074 A 
ATOM     65  C   UNL A   1      43.022  28.326  33.040  1.00  0.00     0.031 C 
ATOM     66  C   UNL A   1      43.205  29.543  35.193  1.00  0.00     0.037 A 
BRANCH  53  67
ATOM     67  C   UNL A   1      40.430  33.794  38.707  1.00  0.00     0.064 A 
ATOM     68  C   UNL A   1      41.196  34.961  38.845  1.00  0.00     0.173 A 
ATOM     69  C   UNL A   1      39.613  33.414  39.783  1.00  0.00     0.173 A 
ATOM     70  F   UNL A   1      42.007  35.358  37.853  1.00  0.00    -0.203 F 
ATOM     71  C   UNL A   1      41.153  35.712  40.017  1.00  0.00     0.198 A 
ATOM     72  C   UNL A   1      39.549  34.185  40.941  1.00  0.00     0.198 A 
ATOM     73  F   UNL A   1      38.861  32.307  39.704  1.00  0.00    -0.203 F 
ATOM     74  F   UNL A   1      41.920  36.803  40.140  1.00  0.00    -0.200 F 
ATOM     75  C   UNL A   1      40.321  35.329  41.059  1.00  0.00     0.200 A 
ATOM     76  F   UNL A   1      38.734  33.820  41.941  1.00  0.00    -0.200 F 
ATOM     77  F   UNL A   1      40.265  36.064  42.178  1.00  0.00    -0.200 F 
ENDBRANCH  53  67
BRANCH  54  78
ATOM     78  C   UNL A   1      39.922  28.610  30.182  1.00  0.00     0.064 A 
ATOM     79  C   UNL A   1      40.454  29.109  28.984  1.00  0.00     0.173 A 
ATOM     80  C   UNL A   1      39.322  27.342  30.147  1.00  0.00     0.173 A 
ATOM     81  F   UNL A   1      41.013  30.329  28.958  1.00  0.00    -0.203 F 
ATOM     82  C   UNL A   1      40.382  28.375  27.801  1.00  0.00     0.198 A 
ATOM     83  C   UNL A   1      39.277  26.597  28.971  1.00  0.00     0.198 A 
ATOM     84  F   UNL A   1      38.791  26.820  31.262  1.00  0.00    -0.203 F 
ATOM     85  F   UNL A   1      40.864  28.894  26.664  1.00  0.00    -0.200 F 
ATOM     86  C   UNL A   1      39.803  27.116  27.798  1.00  0.00     0.200 A 
ATOM     87  F   UNL A   1      38.726  25.375  28.974  1.00  0.00    -0.200 F 
ATOM     88  F   UNL A   1      39.745  26.406  26.663  1.00  0.00    -0.200 F 
ENDBRANCH  54  78
BRANCH  66  89
ATOM     89  C   UNL A   1      44.473  28.792  35.484  1.00  0.00     0.064 A 
ATOM     90  C   UNL A   1      44.460  27.545  36.125  1.00  0.00     0.173 A 
ATOM     91  C   UNL A   1      45.709  29.286  35.037  1.00  0.00     0.173 A 
ATOM     92  F   UNL A   1      43.307  27.031  36.580  1.00  0.00    -0.203 F 
ATOM     93  C   UNL A   1      45.639  26.828  36.321  1.00  0.00     0.198 A 
ATOM     94  C   UNL A   1      46.880  28.552  35.203  1.00  0.00     0.198 A 
ATOM     95  F   UNL A   1      45.776  30.468  34.407  1.00  0.00    -0.203 F 
ATOM     96  F   UNL A   1      45.607  25.655  36.967  1.00  0.00    -0.200 F 
ATOM     97  C   UNL A   1      46.845  27.326  35.849  1.00  0.00     0.200 A 
ATOM     98  F   UNL A   1      48.040  29.026  34.728  1.00  0.00    -0.200 F 
ATOM     99  F   UNL A   1      47.973  26.624  36.020  1.00  0.00    -0.200 F 
ENDBRANCH  66  89
ENDBRANCH  40  41
ENDBRANCH  33  35
ENDBRANCH  32  33
ENDBRANCH  31  32
ENDBRANCH  30  31
ENDBRANCH  29  30
ENDBRANCH  28  29
ENDBRANCH   1  28
TORSDOF 21
ENDMDL
MODEL 3
REMARK VINA RESULT:     -10.8      1.694      2.716
REMARK SMILES Cc1c(Cl)cc2c(c1C)O[C@H](C(F)(F)F)C(C(=O)OCCOCCOCCOCCOC(=O)c1ccc(-c3c4nc(c(-c5c(F)c(F)c(F)c(F)c5F)c5ccc([nH]5)c(-c5c(F)c(F)c(F)c(F)c5F)c5nc(c(-c6c(F)c(F)c(F)c(F)c6F)c6ccc3[nH]6)C=C5)C=C4)cc1)=C2
REMARK SMILES IDX 26 1 25 2 24 3 23 4 22 5 21 6 20 7 19 8 17 9 18 10 16 11
REMARK SMILES IDX 1 12 2 13 3 14 8 15 4 16 5 17 7 18 9 19 6 20 10 21 97 22
REMARK SMILES IDX 11 23 12 24 13 25 14 26 15 27 27 28 28 29 29 30 30 31 31 32
REMARK SMILES IDX 32 33 33 34 34 35 35 36 96 37 36 38 95 39 37 40 38 41 39 42
REMARK SMILES IDX 89 43 40 44 94 45 88 46 90 47 41 48 93 49 87 50 86 51 42 53
REMARK SMILES IDX 74 54 54 55 73 56 55 57 58 58 72 59 91 60 56 61 57 62 71 64
REMARK SMILES IDX 92 65 59 66 43 67 44 68 52 69 45 70 46 71 50 72 53 73 47 74
REMARK SMILES IDX 48 75 51 76 49 77 75 78 76 79 84 80 77 81 78 82 82 83 85 84
REMARK SMILES IDX 79 85 80 86 83 87 81 88 60 89 61 90 69 91 62 92 63 93 67 94
REMARK SMILES IDX 70 95 64 96 65 97 68 98 66 99
REMARK H PARENT 90 52 58 63
REMARK Flexibility Score: inf
ROOT
ATOM      1  C   UNL A   1      33.964  32.134  28.059  1.00  0.00     0.188 C 
ENDROOT
BRANCH   1   2
ATOM      2  O   UNL A   1      33.818  31.010  27.188  1.00  0.00    -0.377 OA
BRANCH   2   3
ATOM      3  C   UNL A   1      32.503  30.561  26.894  1.00  0.00     0.188 C 
BRANCH   3   4
ATOM      4  C   UNL A   1      32.470  29.203  26.164  1.00  0.00     0.188 C 
BRANCH   4   5
ATOM      5  O   UNL A   1      31.515  28.305  26.701  1.00  0.00    -0.376 OA
BRANCH   5   6
ATOM      6  C   UNL A   1      31.633  26.906  26.511  1.00  0.00     0.202 C 
BRANCH   6   7
ATOM      7  C   UNL A   1      30.583  26.045  25.783  1.00  0.00     0.261 C 
BRANCH   7   8
ATOM      8  O   UNL A   1      31.024  24.815  25.208  1.00  0.00    -0.460 OA
BRANCH   8   9
ATOM      9  C   UNL A   1      31.873  24.883  24.168  1.00  0.00     0.338 C 
ATOM     10  O   UNL A   1      32.022  25.820  23.405  1.00  0.00    -0.246 OA
BRANCH   9  11
ATOM     11  C   UNL A   1      32.731  23.677  24.213  1.00  0.00     0.087 C 
ATOM     12  C   UNL A   1      35.239  17.728  24.967  1.00  0.00     0.046 C 
ATOM     13  C   UNL A   1      34.452  18.961  24.600  1.00  0.00    -0.026 A 
ATOM     14  C   UNL A   1      33.090  18.886  24.251  1.00  0.00     0.045 A 
ATOM     15  C   UNL A   1      35.076  20.236  24.621  1.00  0.00    -0.004 A 
ATOM     16  Cl  UNL A   1      32.244  17.383  24.113  1.00  0.00    -0.084 Cl
ATOM     17  C   UNL A   1      32.341  20.042  24.023  1.00  0.00     0.032 A 
ATOM     18  C   UNL A   1      34.305  21.394  24.377  1.00  0.00     0.131 A 
ATOM     19  C   UNL A   1      36.545  20.413  24.928  1.00  0.00     0.049 C 
ATOM     20  C   UNL A   1      32.936  21.298  24.133  1.00  0.00     0.019 A 
ATOM     21  O   UNL A   1      34.968  22.590  24.416  1.00  0.00    -0.475 OA
ATOM     22  C   UNL A   1      32.118  22.496  24.071  1.00  0.00     0.027 C 
ATOM     23  C   UNL A   1      34.224  23.835  24.332  1.00  0.00     0.316 C 
BRANCH  23  24
ATOM     24  C   UNL A   1      34.626  24.706  25.528  1.00  0.00     0.430 C 
ATOM     25  F   UNL A   1      35.924  24.510  25.866  1.00  0.00    -0.167 F 
ATOM     26  F   UNL A   1      34.491  26.027  25.266  1.00  0.00    -0.167 F 
ATOM     27  F   UNL A   1      33.877  24.434  26.621  1.00  0.00    -0.167 F 
ENDBRANCH  23  24
ENDBRANCH   9  11
ENDBRANCH   8   9
ENDBRANCH   7   8
ENDBRANCH   6   7
ENDBRANCH   5   6
ENDBRANCH   4   5
ENDBRANCH   3   4
ENDBRANCH   2   3
ENDBRANCH   1   2
BRANCH   1  28
ATOM     28  C   UNL A   1      33.178  33.453  27.848  1.00  0.00     0.188 C 
BRANCH  28  29
ATOM     29  O   UNL A   1      32.873  34.149  29.047  1.00  0.00    -0.376 OA
BRANCH  29  30
ATOM     30  C   UNL A   1      33.868  34.978  29.622  1.00  0.00     0.202 C 
BRANCH  30  31
ATOM     31  C   UNL A   1      34.287  34.632  31.056  1.00  0.00     0.261 C 
BRANCH  31  32
ATOM     32  O   UNL A   1      35.512  33.896  31.187  1.00  0.00    -0.460 OA
BRANCH  32  33
ATOM     33  C   UNL A   1      35.451  32.694  31.797  1.00  0.00     0.338 C 
ATOM     34  O   UNL A   1      34.571  32.279  32.532  1.00  0.00    -0.246 OA
BRANCH  33  35
ATOM     35  C   UNL A   1      36.558  31.875  31.266  1.00  0.00     0.060 A 
ATOM     36  C   UNL A   1      37.362  31.151  32.156  1.00  0.00     0.016 A 
ATOM     37  C   UNL A   1      36.788  31.812  29.889  1.00  0.00     0.016 A 
ATOM     38  C   UNL A   1      38.422  30.385  31.671  1.00  0.00     0.010 A 
ATOM     39  C   UNL A   1      37.863  31.065  29.407  1.00  0.00     0.010 A 
ATOM     40  C   UNL A   1      38.704  30.375  30.299  1.00  0.00    -0.014 A 
BRANCH  40  41
ATOM     41  C   UNL A   1      39.993  29.825  29.816  1.00  0.00     0.031 A 
ATOM     42  C   UNL A   1      41.201  30.718  29.852  1.00  0.00     0.074 A 
ATOM     43  C   UNL A   1      40.096  28.558  29.379  1.00  0.00     0.049 A 
ATOM     44  N   UNL A   1      42.420  30.487  29.439  1.00  0.00    -0.248 NA
ATOM     45  C   UNL A   1      41.006  32.056  30.437  1.00  0.00     0.031 C 
ATOM     46  C   UNL A   1      39.010  27.583  29.350  1.00  0.00     0.029 A 
ATOM     47  N   UNL A   1      41.176  27.879  28.872  1.00  0.00    -0.354 N 
ATOM     48  C   UNL A   1      43.135  31.645  29.715  1.00  0.00     0.074 A 
ATOM     49  C   UNL A   1      42.209  32.592  30.296  1.00  0.00     0.031 C 
ATOM     50  C   UNL A   1      39.479  26.428  28.845  1.00  0.00     0.029 A 
ATOM     51  C   UNL A   1      40.886  26.595  28.482  1.00  0.00     0.049 A 
ATOM     52  H   UNL A   1      42.074  28.275  28.793  1.00  0.00     0.167 HD
ATOM     53  C   UNL A   1      44.450  31.890  29.516  1.00  0.00     0.037 A 
ATOM     54  C   UNL A   1      41.665  25.671  27.885  1.00  0.00     0.037 A 
ATOM     55  C   UNL A   1      45.366  30.947  28.932  1.00  0.00     0.049 A 
ATOM     56  C   UNL A   1      43.105  26.004  27.580  1.00  0.00     0.074 A 
ATOM     57  C   UNL A   1      46.717  31.104  28.680  1.00  0.00     0.029 A 
ATOM     58  N   UNL A   1      45.022  29.675  28.502  1.00  0.00    -0.354 N 
ATOM     59  N   UNL A   1      43.777  27.098  27.848  1.00  0.00    -0.248 NA
ATOM     60  C   UNL A   1      43.894  24.974  26.888  1.00  0.00     0.031 C 
ATOM     61  C   UNL A   1      47.179  29.947  28.047  1.00  0.00     0.029 A 
ATOM     62  C   UNL A   1      46.131  29.044  27.963  1.00  0.00     0.049 A 
ATOM     63  H   UNL A   1      44.123  29.278  28.569  1.00  0.00     0.167 HD
ATOM     64  C   UNL A   1      45.070  26.876  27.390  1.00  0.00     0.074 A 
ATOM     65  C   UNL A   1      45.092  25.538  26.836  1.00  0.00     0.031 C 
ATOM     66  C   UNL A   1      46.143  27.706  27.427  1.00  0.00     0.037 A 
BRANCH  53  67
ATOM     67  C   UNL A   1      44.979  33.234  29.919  1.00  0.00     0.064 A 
ATOM     68  C   UNL A   1      44.959  34.326  29.039  1.00  0.00     0.173 A 
ATOM     69  C   UNL A   1      45.457  33.450  31.221  1.00  0.00     0.173 A 
ATOM     70  F   UNL A   1      44.530  34.169  27.777  1.00  0.00    -0.203 F 
ATOM     71  C   UNL A   1      45.407  35.581  29.443  1.00  0.00     0.198 A 
ATOM     72  C   UNL A   1      45.874  34.713  31.631  1.00  0.00     0.198 A 
ATOM     73  F   UNL A   1      45.498  32.439  32.102  1.00  0.00    -0.203 F 
ATOM     74  F   UNL A   1      45.412  36.601  28.574  1.00  0.00    -0.200 F 
ATOM     75  C   UNL A   1      45.853  35.775  30.742  1.00  0.00     0.200 A 
ATOM     76  F   UNL A   1      46.292  34.901  32.891  1.00  0.00    -0.200 F 
ATOM     77  F   UNL A   1      46.264  36.988  31.136  1.00  0.00    -0.200 F 
ENDBRANCH  53  67
BRANCH  54  78
ATOM     78  C   UNL A   1      41.103  24.338  27.543  1.00  0.00     0.064 A 
ATOM     79  C   UNL A   1      41.553  23.177  28.189  1.00  0.00     0.173 A 
ATOM     80  C   UNL A   1      40.103  24.193  26.569  1.00  0.00     0.173 A 
ATOM     81  F   UNL A   1      42.528  23.258  29.106  1.00  0.00    -0.203 F 
ATOM     82  C   UNL A   1      41.031  21.925  27.868  1.00  0.00     0.198 A 
ATOM     83  C   UNL A   1      39.561  22.945  26.270  1.00  0.00     0.198 A 
ATOM     84  F   UNL A   1      39.640  25.270  25.916  1.00  0.00    -0.203 F 
ATOM     85  F   UNL A   1      41.508  20.829  28.473  1.00  0.00    -0.200 F 
ATOM     86  C   UNL A   1      40.030  21.811  26.917  1.00  0.00     0.200 A 
ATOM     87  F   UNL A   1      38.585  22.840  25.358  1.00  0.00    -0.200 F 
ATOM     88  F   UNL A   1      39.521  20.608  26.618  1.00  0.00    -0.200 F 
ENDBRANCH  54  78
BRANCH  66  89
ATOM     89  C   UNL A   1      47.448  27.193  26.889  1.00  0.00     0.064 A 
ATOM     90  C   UNL A   1      48.347  26.478  27.694  1.00  0.00     0.173 A 
ATOM     91  C   UNL A   1      47.764  27.346  25.529  1.00  0.00     0.173 A 
ATOM     92  F   UNL A   1      48.097  26.311  29.002  1.00  0.00    -0.203 F 
ATOM     93  C   UNL A   1      49.519  25.946  27.160  1.00  0.00     0.198 A 
ATOM     94  C   UNL A   1      48.919  26.785  24.993  1.00  0.00     0.198 A 
ATOM     95  F   UNL A   1      46.935  28.012  24.713  1.00  0.00    -0.203 F 
ATOM     96  F   UNL A   1      50.379  25.296  27.955  1.00  0.00    -0.200 F 
ATOM     97  C   UNL A   1      49.798  26.089  25.808  1.00  0.00     0.200 A 
ATOM     98  F   UNL A   1      49.176  26.907  23.683  1.00  0.00    -0.200 F 
ATOM     99  F   UNL A   1      50.915  25.559  25.294  1.00  0.00    -0.200 F 
ENDBRANCH  66  89
ENDBRANCH  40  41
ENDBRANCH  33  35
ENDBRANCH  32  33
ENDBRANCH  31  32
ENDBRANCH  30  31
ENDBRANCH  29  30
ENDBRANCH  28  29
ENDBRANCH   1  28
TORSDOF 21
ENDMDL
