MODEL 1
REMARK VINA RESULT:     -11.1      0.000      0.000
REMARK SMILES O=C(OCCOCCOCCOCCOC(=O)c1cccc(Nc2ccnc3ccc(F)cc23)c1)c1ccc(-c2c3nc(c(-c4c(F)c(F)c(F)c(F)c4F)c4ccc([nH]4)c(-c4c(F)c(F)c(F)c(F)c4F)c4nc(c(-c5c(F)c(F)c(F)c(F)c5F)c5ccc2[nH]5)C=C4)C=C3)cc1
REMARK SMILES IDX 9 1 8 2 7 3 6 4 5 5 4 6 3 7 2 8 1 9 36 10 37 11 98 12 38 13
REMARK SMILES IDX 97 14 39 15 40 16 41 17 91 18 42 19 96 20 90 21 92 22 43 23
REMARK SMILES IDX 95 24 89 25 88 26 44 28 76 29 56 30 75 31 57 32 60 33 74 34
REMARK SMILES IDX 93 35 58 36 59 37 73 39 94 40 61 41 45 42 46 43 54 44 47 45
REMARK SMILES IDX 48 46 52 47 55 48 49 49 50 50 53 51 51 52 77 53 78 54 86 55
REMARK SMILES IDX 79 56 80 57 84 58 87 59 81 60 82 61 85 62 83 63 62 64 63 65
REMARK SMILES IDX 71 66 64 67 65 68 69 69 72 70 66 71 67 72 70 73 68 74 10 75
REMARK SMILES IDX 11 76 12 77 13 78 14 79 15 80 16 81 17 82 18 83 19 84 35 85
REMARK SMILES IDX 20 86 22 87 21 88 23 89 24 91 25 92 34 93 26 94 28 95 33 96
REMARK SMILES IDX 27 97 29 98 31 99 30 100 32 101
REMARK H PARENT 92 27 60 38 23 90
REMARK Flexibility Score: inf
ROOT
ATOM      1  O   UNL A   1      34.777  32.098  27.886  1.00  0.00    -0.377 OA
ENDROOT
BRANCH   1   2
ATOM      2  C   UNL A   1      34.498  32.957  28.979  1.00  0.00     0.188 C 
BRANCH   2   3
ATOM      3  C   UNL A   1      34.668  32.333  30.359  1.00  0.00     0.188 C 
BRANCH   3   4
ATOM      4  O   UNL A   1      34.037  33.091  31.395  1.00  0.00    -0.376 OA
BRANCH   4   5
ATOM      5  C   UNL A   1      34.518  34.432  31.529  1.00  0.00     0.202 C 
BRANCH   5   6
ATOM      6  C   UNL A   1      35.244  34.711  32.848  1.00  0.00     0.261 C 
BRANCH   6   7
ATOM      7  O   UNL A   1      36.574  34.172  32.858  1.00  0.00    -0.460 OA
BRANCH   7   8
ATOM      8  C   UNL A   1      36.978  32.922  33.189  1.00  0.00     0.338 C 
ATOM      9  O   UNL A   1      36.535  32.436  34.230  1.00  0.00    -0.246 OA
BRANCH   8  10
ATOM     10  C   UNL A   1      37.931  32.083  32.385  1.00  0.00     0.060 A 
ATOM     11  C   UNL A   1      38.839  31.147  32.887  1.00  0.00     0.016 A 
ATOM     12  C   UNL A   1      37.867  32.234  30.985  1.00  0.00     0.016 A 
ATOM     13  C   UNL A   1      39.695  30.435  32.058  1.00  0.00     0.010 A 
ATOM     14  C   UNL A   1      38.722  31.523  30.136  1.00  0.00     0.010 A 
ATOM     15  C   UNL A   1      39.665  30.651  30.685  1.00  0.00    -0.014 A 
BRANCH  15  16
ATOM     16  C   UNL A   1      40.793  30.129  29.902  1.00  0.00     0.031 A 
ATOM     17  C   UNL A   1      42.009  30.997  29.791  1.00  0.00     0.074 A 
ATOM     18  C   UNL A   1      40.786  28.857  29.471  1.00  0.00     0.049 A 
ATOM     19  N   UNL A   1      43.135  30.779  29.169  1.00  0.00    -0.248 NA
ATOM     20  C   UNL A   1      41.955  32.285  30.507  1.00  0.00     0.031 C 
ATOM     21  C   UNL A   1      39.699  27.902  29.686  1.00  0.00     0.029 A 
ATOM     22  N   UNL A   1      41.736  28.144  28.793  1.00  0.00    -0.354 N 
ATOM     23  C   UNL A   1      43.911  31.906  29.402  1.00  0.00     0.074 A 
ATOM     24  C   UNL A   1      43.135  32.808  30.219  1.00  0.00     0.031 C 
ATOM     25  C   UNL A   1      40.050  26.719  29.155  1.00  0.00     0.029 A 
ATOM     26  C   UNL A   1      41.355  26.855  28.516  1.00  0.00     0.049 A 
ATOM     27  H   UNL A   1      42.607  28.518  28.530  1.00  0.00     0.167 HD
ATOM     28  C   UNL A   1      45.161  32.162  28.955  1.00  0.00     0.037 A 
ATOM     29  C   UNL A   1      41.991  25.915  27.792  1.00  0.00     0.037 A 
ATOM     30  C   UNL A   1      45.898  31.248  28.129  1.00  0.00     0.049 A 
ATOM     31  C   UNL A   1      43.330  26.269  27.200  1.00  0.00     0.074 A 
ATOM     32  C   UNL A   1      47.134  31.413  27.535  1.00  0.00     0.029 A 
ATOM     33  N   UNL A   1      45.445  29.981  27.775  1.00  0.00    -0.354 N 
ATOM     34  N   UNL A   1      44.035  27.368  27.347  1.00  0.00    -0.248 NA
ATOM     35  C   UNL A   1      43.954  25.268  26.328  1.00  0.00     0.031 C 
ATOM     36  C   UNL A   1      47.408  30.264  26.786  1.00  0.00     0.029 A 
ATOM     37  C   UNL A   1      46.367  29.361  26.954  1.00  0.00     0.049 A 
ATOM     38  H   UNL A   1      44.592  29.585  28.068  1.00  0.00     0.167 HD
ATOM     39  C   UNL A   1      45.190  27.187  26.599  1.00  0.00     0.074 A 
ATOM     40  C   UNL A   1      45.098  25.861  26.016  1.00  0.00     0.031 C 
ATOM     41  C   UNL A   1      46.231  28.035  26.403  1.00  0.00     0.037 A 
BRANCH  28  42
ATOM     42  C   UNL A   1      45.734  33.508  29.282  1.00  0.00     0.064 A 
ATOM     43  C   UNL A   1      45.537  34.624  28.454  1.00  0.00     0.173 A 
ATOM     44  C   UNL A   1      46.558  33.665  30.406  1.00  0.00     0.173 A 
ATOM     45  F   UNL A   1      44.788  34.518  27.346  1.00  0.00    -0.203 F 
ATOM     46  C   UNL A   1      46.174  35.835  28.720  1.00  0.00     0.198 A 
ATOM     47  C   UNL A   1      47.171  34.883  30.684  1.00  0.00     0.198 A 
ATOM     48  F   UNL A   1      46.790  32.626  31.224  1.00  0.00    -0.203 F 
ATOM     49  F   UNL A   1      46.029  36.866  27.876  1.00  0.00    -0.200 F 
ATOM     50  C   UNL A   1      46.988  35.964  29.835  1.00  0.00     0.200 A 
ATOM     51  F   UNL A   1      47.958  35.006  31.762  1.00  0.00    -0.200 F 
ATOM     52  F   UNL A   1      47.613  37.124  30.080  1.00  0.00    -0.200 F 
ENDBRANCH  28  42
BRANCH  29  53
ATOM     53  C   UNL A   1      41.352  24.594  27.552  1.00  0.00     0.064 A 
ATOM     54  C   UNL A   1      41.851  23.423  28.139  1.00  0.00     0.173 A 
ATOM     55  C   UNL A   1      40.227  24.472  26.721  1.00  0.00     0.173 A 
ATOM     56  F   UNL A   1      42.939  23.477  28.922  1.00  0.00    -0.203 F 
ATOM     57  C   UNL A   1      41.258  22.184  27.896  1.00  0.00     0.198 A 
ATOM     58  C   UNL A   1      39.617  23.239  26.502  1.00  0.00     0.198 A 
ATOM     59  F   UNL A   1      39.710  25.558  26.127  1.00  0.00    -0.203 F 
ATOM     60  F   UNL A   1      41.781  21.075  28.436  1.00  0.00    -0.200 F 
ATOM     61  C   UNL A   1      40.137  22.094  27.084  1.00  0.00     0.200 A 
ATOM     62  F   UNL A   1      38.526  23.161  25.726  1.00  0.00    -0.200 F 
ATOM     63  F   UNL A   1      39.564  20.905  26.855  1.00  0.00    -0.200 F 
ENDBRANCH  29  53
BRANCH  41  64
ATOM     64  C   UNL A   1      47.354  27.540  25.545  1.00  0.00     0.064 A 
ATOM     65  C   UNL A   1      47.376  27.768  24.163  1.00  0.00     0.173 A 
ATOM     66  C   UNL A   1      48.448  26.881  26.126  1.00  0.00     0.173 A 
ATOM     67  F   UNL A   1      46.345  28.381  23.563  1.00  0.00    -0.203 F 
ATOM     68  C   UNL A   1      48.447  27.337  23.387  1.00  0.00     0.198 A 
ATOM     69  C   UNL A   1      49.530  26.478  25.352  1.00  0.00     0.198 A 
ATOM     70  F   UNL A   1      48.474  26.648  27.447  1.00  0.00    -0.203 F 
ATOM     71  F   UNL A   1      48.432  27.529  22.061  1.00  0.00    -0.200 F 
ATOM     72  C   UNL A   1      49.527  26.701  23.983  1.00  0.00     0.200 A 
ATOM     73  F   UNL A   1      50.579  25.878  25.931  1.00  0.00    -0.200 F 
ATOM     74  F   UNL A   1      50.564  26.298  23.236  1.00  0.00    -0.200 F 
ENDBRANCH  41  64
ENDBRANCH  15  16
ENDBRANCH   8  10
ENDBRANCH   7   8
ENDBRANCH   6   7
ENDBRANCH   5   6
ENDBRANCH   4   5
ENDBRANCH   3   4
ENDBRANCH   2   3
ENDBRANCH   1   2
BRANCH   1  75
ATOM     75  C   UNL A   1      33.774  31.161  27.521  1.00  0.00     0.188 C 
BRANCH  75  76
ATOM     76  C   UNL A   1      34.170  29.795  26.919  1.00  0.00     0.188 C 
BRANCH  76  77
ATOM     77  O   UNL A   1      33.397  28.688  27.361  1.00  0.00    -0.376 OA
BRANCH  77  78
ATOM     78  C   UNL A   1      31.985  28.840  27.253  1.00  0.00     0.202 C 
BRANCH  78  79
ATOM     79  C   UNL A   1      31.398  28.344  25.924  1.00  0.00     0.261 C 
BRANCH  79  80
ATOM     80  O   UNL A   1      31.838  27.028  25.542  1.00  0.00    -0.460 OA
BRANCH  80  81
ATOM     81  C   UNL A   1      31.354  25.981  26.254  1.00  0.00     0.338 C 
ATOM     82  O   UNL A   1      30.248  25.871  26.731  1.00  0.00    -0.246 OA
BRANCH  81  83
ATOM     83  C   UNL A   1      32.318  24.865  26.077  1.00  0.00     0.062 A 
ATOM     84  C   UNL A   1      33.523  25.156  25.420  1.00  0.00     0.016 A 
ATOM     85  C   UNL A   1      32.110  23.602  26.648  1.00  0.00     0.041 A 
ATOM     86  C   UNL A   1      34.556  24.222  25.410  1.00  0.00     0.003 A 
ATOM     87  C   UNL A   1      33.098  22.614  26.506  1.00  0.00     0.039 A 
ATOM     88  C   UNL A   1      34.342  22.956  25.949  1.00  0.00     0.026 A 
BRANCH  87  89
ATOM     89  N   UNL A   1      32.721  21.230  26.479  1.00  0.00    -0.355 N 
ATOM     90  H   UNL A   1      32.684  20.673  27.290  1.00  0.00     0.167 HD
BRANCH  89  91
ATOM     91  C   UNL A   1      32.402  20.718  25.176  1.00  0.00     0.050 A 
ATOM     92  C   UNL A   1      32.049  21.646  24.186  1.00  0.00     0.047 A 
ATOM     93  C   UNL A   1      32.607  19.369  24.814  1.00  0.00     0.027 A 
ATOM     94  C   UNL A   1      32.097  21.257  22.870  1.00  0.00     0.114 A 
ATOM     95  C   UNL A   1      32.584  19.079  23.427  1.00  0.00     0.072 A 
ATOM     96  C   UNL A   1      32.835  18.316  25.730  1.00  0.00     0.051 A 
ATOM     97  N   UNL A   1      32.373  20.002  22.479  1.00  0.00    -0.256 NA
ATOM     98  C   UNL A   1      32.792  17.777  23.002  1.00  0.00     0.032 A 
ATOM     99  C   UNL A   1      32.988  17.013  25.267  1.00  0.00     0.124 A 
ATOM    100  C   UNL A   1      32.973  16.734  23.909  1.00  0.00     0.041 A 
ATOM    101  F   UNL A   1      33.140  16.009  26.139  1.00  0.00    -0.207 F 
ENDBRANCH  89  91
ENDBRANCH  87  89
ENDBRANCH  81  83
ENDBRANCH  80  81
ENDBRANCH  79  80
ENDBRANCH  78  79
ENDBRANCH  77  78
ENDBRANCH  76  77
ENDBRANCH  75  76
ENDBRANCH   1  75
TORSDOF 22
ENDMDL
MODEL 2
REMARK VINA RESULT:     -10.5      4.254      7.114
REMARK SMILES O=C(OCCOCCOCCOCCOC(=O)c1cccc(Nc2ccnc3ccc(F)cc23)c1)c1ccc(-c2c3nc(c(-c4c(F)c(F)c(F)c(F)c4F)c4ccc([nH]4)c(-c4c(F)c(F)c(F)c(F)c4F)c4nc(c(-c5c(F)c(F)c(F)c(F)c5F)c5ccc2[nH]5)C=C4)C=C3)cc1
REMARK SMILES IDX 9 1 8 2 7 3 6 4 5 5 4 6 3 7 2 8 1 9 36 10 37 11 98 12 38 13
REMARK SMILES IDX 97 14 39 15 40 16 41 17 91 18 42 19 96 20 90 21 92 22 43 23
REMARK SMILES IDX 95 24 89 25 88 26 44 28 76 29 56 30 75 31 57 32 60 33 74 34
REMARK SMILES IDX 93 35 58 36 59 37 73 39 94 40 61 41 45 42 46 43 54 44 47 45
REMARK SMILES IDX 48 46 52 47 55 48 49 49 50 50 53 51 51 52 77 53 78 54 86 55
REMARK SMILES IDX 79 56 80 57 84 58 87 59 81 60 82 61 85 62 83 63 62 64 63 65
REMARK SMILES IDX 71 66 64 67 65 68 69 69 72 70 66 71 67 72 70 73 68 74 10 75
REMARK SMILES IDX 11 76 12 77 13 78 14 79 15 80 16 81 17 82 18 83 19 84 35 85
REMARK SMILES IDX 20 86 22 87 21 88 23 89 24 91 25 92 34 93 26 94 28 95 33 96
REMARK SMILES IDX 27 97 29 98 31 99 30 100 32 101
REMARK H PARENT 92 27 60 38 23 90
REMARK Flexibility Score: inf
ROOT
ATOM      1  O   UNL A   1      31.273  28.160  25.414  1.00  0.00    -0.377 OA
ENDROOT
BRANCH   1   2
ATOM      2  C   UNL A   1      31.756  28.810  26.576  1.00  0.00     0.188 C 
BRANCH   2   3
ATOM      3  C   UNL A   1      33.145  29.426  26.450  1.00  0.00     0.188 C 
BRANCH   3   4
ATOM      4  O   UNL A   1      33.116  30.854  26.363  1.00  0.00    -0.376 OA
BRANCH   4   5
ATOM      5  C   UNL A   1      31.927  31.458  26.880  1.00  0.00     0.202 C 
BRANCH   5   6
ATOM      6  C   UNL A   1      31.908  32.986  26.792  1.00  0.00     0.261 C 
BRANCH   6   7
ATOM      7  O   UNL A   1      32.467  33.603  27.961  1.00  0.00    -0.460 OA
BRANCH   7   8
ATOM      8  C   UNL A   1      33.736  34.028  28.168  1.00  0.00     0.338 C 
ATOM      9  O   UNL A   1      33.969  35.226  28.008  1.00  0.00    -0.246 OA
BRANCH   8  10
ATOM     10  C   UNL A   1      34.885  33.149  28.575  1.00  0.00     0.060 A 
ATOM     11  C   UNL A   1      34.798  31.836  29.048  1.00  0.00     0.016 A 
ATOM     12  C   UNL A   1      36.174  33.698  28.425  1.00  0.00     0.016 A 
ATOM     13  C   UNL A   1      35.924  31.114  29.419  1.00  0.00     0.010 A 
ATOM     14  C   UNL A   1      37.318  32.981  28.793  1.00  0.00     0.010 A 
ATOM     15  C   UNL A   1      37.181  31.698  29.329  1.00  0.00    -0.014 A 
BRANCH  15  16
ATOM     16  C   UNL A   1      38.283  31.025  30.031  1.00  0.00     0.031 A 
ATOM     17  C   UNL A   1      38.432  31.302  31.496  1.00  0.00     0.074 A 
ATOM     18  C   UNL A   1      38.996  30.071  29.412  1.00  0.00     0.049 A 
ATOM     19  N   UNL A   1      39.307  30.840  32.347  1.00  0.00    -0.248 NA
ATOM     20  C   UNL A   1      37.432  32.208  32.090  1.00  0.00     0.031 C 
ATOM     21  C   UNL A   1      38.796  29.634  28.030  1.00  0.00     0.029 A 
ATOM     22  N   UNL A   1      40.006  29.275  29.876  1.00  0.00    -0.354 N 
ATOM     23  C   UNL A   1      38.976  31.415  33.566  1.00  0.00     0.074 A 
ATOM     24  C   UNL A   1      37.824  32.257  33.352  1.00  0.00     0.031 C 
ATOM     25  C   UNL A   1      39.656  28.638  27.761  1.00  0.00     0.029 A 
ATOM     26  C   UNL A   1      40.499  28.412  28.930  1.00  0.00     0.049 A 
ATOM     27  H   UNL A   1      40.346  29.316  30.799  1.00  0.00     0.167 HD
ATOM     28  C   UNL A   1      39.597  31.255  34.756  1.00  0.00     0.037 A 
ATOM     29  C   UNL A   1      41.543  27.565  29.009  1.00  0.00     0.037 A 
ATOM     30  C   UNL A   1      40.753  30.421  34.929  1.00  0.00     0.049 A 
ATOM     31  C   UNL A   1      42.296  27.498  30.312  1.00  0.00     0.074 A 
ATOM     32  C   UNL A   1      41.531  30.234  36.054  1.00  0.00     0.029 A 
ATOM     33  N   UNL A   1      41.298  29.631  33.922  1.00  0.00    -0.354 N 
ATOM     34  N   UNL A   1      42.039  28.103  31.449  1.00  0.00    -0.248 NA
ATOM     35  C   UNL A   1      43.493  26.649  30.341  1.00  0.00     0.031 C 
ATOM     36  C   UNL A   1      42.575  29.366  35.715  1.00  0.00     0.029 A 
ATOM     37  C   UNL A   1      42.417  28.970  34.394  1.00  0.00     0.049 A 
ATOM     38  H   UNL A   1      40.939  29.553  33.009  1.00  0.00     0.167 HD
ATOM     39  C   UNL A   1      43.031  27.701  32.332  1.00  0.00     0.074 A 
ATOM     40  C   UNL A   1      43.883  26.781  31.602  1.00  0.00     0.031 C 
ATOM     41  C   UNL A   1      43.229  28.059  33.626  1.00  0.00     0.037 A 
BRANCH  28  42
ATOM     42  C   UNL A   1      39.082  32.072  35.903  1.00  0.00     0.064 A 
ATOM     43  C   UNL A   1      39.508  33.391  36.129  1.00  0.00     0.173 A 
ATOM     44  C   UNL A   1      38.204  31.499  36.834  1.00  0.00     0.173 A 
ATOM     45  F   UNL A   1      40.376  33.974  35.290  1.00  0.00    -0.203 F 
ATOM     46  C   UNL A   1      39.101  34.089  37.265  1.00  0.00     0.198 A 
ATOM     47  C   UNL A   1      37.779  32.208  37.953  1.00  0.00     0.198 A 
ATOM     48  F   UNL A   1      37.777  30.237  36.671  1.00  0.00    -0.203 F 
ATOM     49  F   UNL A   1      39.577  35.320  37.499  1.00  0.00    -0.200 F 
ATOM     50  C   UNL A   1      38.236  33.498  38.175  1.00  0.00     0.200 A 
ATOM     51  F   UNL A   1      36.944  31.635  38.831  1.00  0.00    -0.200 F 
ATOM     52  F   UNL A   1      37.861  34.164  39.275  1.00  0.00    -0.200 F 
ENDBRANCH  28  42
BRANCH  29  53
ATOM     53  C   UNL A   1      41.956  26.770  27.823  1.00  0.00     0.064 A 
ATOM     54  C   UNL A   1      41.435  25.491  27.582  1.00  0.00     0.173 A 
ATOM     55  C   UNL A   1      42.890  27.272  26.902  1.00  0.00     0.173 A 
ATOM     56  F   UNL A   1      40.558  24.953  28.442  1.00  0.00    -0.203 F 
ATOM     57  C   UNL A   1      41.839  24.743  26.476  1.00  0.00     0.198 A 
ATOM     58  C   UNL A   1      43.271  26.537  25.782  1.00  0.00     0.198 A 
ATOM     59  F   UNL A   1      43.427  28.487  27.085  1.00  0.00    -0.203 F 
ATOM     60  F   UNL A   1      41.357  23.507  26.294  1.00  0.00    -0.200 F 
ATOM     61  C   UNL A   1      42.751  25.269  25.573  1.00  0.00     0.200 A 
ATOM     62  F   UNL A   1      44.143  27.057  24.907  1.00  0.00    -0.200 F 
ATOM     63  F   UNL A   1      43.135  24.553  24.508  1.00  0.00    -0.200 F 
ENDBRANCH  29  53
BRANCH  41  64
ATOM     64  C   UNL A   1      44.394  27.433  34.330  1.00  0.00     0.064 A 
ATOM     65  C   UNL A   1      45.643  28.066  34.385  1.00  0.00     0.173 A 
ATOM     66  C   UNL A   1      44.238  26.214  35.006  1.00  0.00     0.173 A 
ATOM     67  F   UNL A   1      45.841  29.227  33.741  1.00  0.00    -0.203 F 
ATOM     68  C   UNL A   1      46.703  27.491  35.078  1.00  0.00     0.198 A 
ATOM     69  C   UNL A   1      45.292  25.657  35.722  1.00  0.00     0.198 A 
ATOM     70  F   UNL A   1      43.058  25.576  34.987  1.00  0.00    -0.203 F 
ATOM     71  F   UNL A   1      47.901  28.092  35.086  1.00  0.00    -0.200 F 
ATOM     72  C   UNL A   1      46.524  26.292  35.753  1.00  0.00     0.200 A 
ATOM     73  F   UNL A   1      45.114  24.506  36.386  1.00  0.00    -0.200 F 
ATOM     74  F   UNL A   1      47.543  25.746  36.431  1.00  0.00    -0.200 F 
ENDBRANCH  41  64
ENDBRANCH  15  16
ENDBRANCH   8  10
ENDBRANCH   7   8
ENDBRANCH   6   7
ENDBRANCH   5   6
ENDBRANCH   4   5
ENDBRANCH   3   4
ENDBRANCH   2   3
ENDBRANCH   1   2
BRANCH   1  75
ATOM     75  C   UNL A   1      31.148  28.940  24.234  1.00  0.00     0.188 C 
BRANCH  75  76
ATOM     76  C   UNL A   1      31.948  28.563  22.966  1.00  0.00     0.188 C 
BRANCH  76  77
ATOM     77  O   UNL A   1      33.250  28.043  23.200  1.00  0.00    -0.376 OA
BRANCH  77  78
ATOM     78  C   UNL A   1      33.340  26.625  23.287  1.00  0.00     0.202 C 
BRANCH  78  79
ATOM     79  C   UNL A   1      32.791  25.882  22.060  1.00  0.00     0.261 C 
BRANCH  79  80
ATOM     80  O   UNL A   1      31.462  25.359  22.237  1.00  0.00    -0.460 OA
BRANCH  80  81
ATOM     81  C   UNL A   1      31.160  24.830  23.448  1.00  0.00     0.338 C 
ATOM     82  O   UNL A   1      30.429  25.299  24.289  1.00  0.00    -0.246 OA
BRANCH  81  83
ATOM     83  C   UNL A   1      31.640  23.424  23.429  1.00  0.00     0.062 A 
ATOM     84  C   UNL A   1      31.198  22.609  22.376  1.00  0.00     0.016 A 
ATOM     85  C   UNL A   1      32.594  22.949  24.339  1.00  0.00     0.041 A 
ATOM     86  C   UNL A   1      31.772  21.357  22.174  1.00  0.00     0.003 A 
ATOM     87  C   UNL A   1      33.062  21.630  24.217  1.00  0.00     0.039 A 
ATOM     88  C   UNL A   1      32.698  20.870  23.092  1.00  0.00     0.026 A 
BRANCH  87  89
ATOM     89  N   UNL A   1      33.490  20.916  25.386  1.00  0.00    -0.355 N 
ATOM     90  H   UNL A   1      32.889  20.725  26.142  1.00  0.00     0.167 HD
BRANCH  89  91
ATOM     91  C   UNL A   1      34.865  20.504  25.369  1.00  0.00     0.050 A 
ATOM     92  C   UNL A   1      35.137  19.176  25.013  1.00  0.00     0.047 A 
ATOM     93  C   UNL A   1      35.936  21.412  25.512  1.00  0.00     0.027 A 
ATOM     94  C   UNL A   1      36.413  18.843  24.631  1.00  0.00     0.114 A 
ATOM     95  C   UNL A   1      37.217  20.939  25.133  1.00  0.00     0.072 A 
ATOM     96  C   UNL A   1      35.810  22.735  25.993  1.00  0.00     0.051 A 
ATOM     97  N   UNL A   1      37.444  19.702  24.670  1.00  0.00    -0.256 NA
ATOM     98  C   UNL A   1      38.310  21.783  25.235  1.00  0.00     0.032 A 
ATOM     99  C   UNL A   1      36.940  23.536  26.129  1.00  0.00     0.124 A 
ATOM    100  C   UNL A   1      38.191  23.073  25.750  1.00  0.00     0.041 A 
ATOM    101  F   UNL A   1      36.827  24.767  26.644  1.00  0.00    -0.207 F 
ENDBRANCH  89  91
ENDBRANCH  87  89
ENDBRANCH  81  83
ENDBRANCH  80  81
ENDBRANCH  79  80
ENDBRANCH  78  79
ENDBRANCH  77  78
ENDBRANCH  76  77
ENDBRANCH  75  76
ENDBRANCH   1  75
TORSDOF 22
ENDMDL
MODEL 3
REMARK VINA RESULT:     -10.4      4.891     10.058
REMARK SMILES O=C(OCCOCCOCCOCCOC(=O)c1cccc(Nc2ccnc3ccc(F)cc23)c1)c1ccc(-c2c3nc(c(-c4c(F)c(F)c(F)c(F)c4F)c4ccc([nH]4)c(-c4c(F)c(F)c(F)c(F)c4F)c4nc(c(-c5c(F)c(F)c(F)c(F)c5F)c5ccc2[nH]5)C=C4)C=C3)cc1
REMARK SMILES IDX 9 1 8 2 7 3 6 4 5 5 4 6 3 7 2 8 1 9 36 10 37 11 98 12 38 13
REMARK SMILES IDX 97 14 39 15 40 16 41 17 91 18 42 19 96 20 90 21 92 22 43 23
REMARK SMILES IDX 95 24 89 25 88 26 44 28 76 29 56 30 75 31 57 32 60 33 74 34
REMARK SMILES IDX 93 35 58 36 59 37 73 39 94 40 61 41 45 42 46 43 54 44 47 45
REMARK SMILES IDX 48 46 52 47 55 48 49 49 50 50 53 51 51 52 77 53 78 54 86 55
REMARK SMILES IDX 79 56 80 57 84 58 87 59 81 60 82 61 85 62 83 63 62 64 63 65
REMARK SMILES IDX 71 66 64 67 65 68 69 69 72 70 66 71 67 72 70 73 68 74 10 75
REMARK SMILES IDX 11 76 12 77 13 78 14 79 15 80 16 81 17 82 18 83 19 84 35 85
REMARK SMILES IDX 20 86 22 87 21 88 23 89 24 91 25 92 34 93 26 94 28 95 33 96
REMARK SMILES IDX 27 97 29 98 31 99 30 100 32 101
REMARK H PARENT 92 27 60 38 23 90
REMARK Flexibility Score: inf
ROOT
ATOM      1  O   UNL A   1      30.847  25.749  26.487  1.00  0.00    -0.377 OA
ENDROOT
BRANCH   1   2
ATOM      2  C   UNL A   1      31.200  27.121  26.517  1.00  0.00     0.188 C 
BRANCH   2   3
ATOM      3  C   UNL A   1      31.077  27.856  25.188  1.00  0.00     0.188 C 
BRANCH   3   4
ATOM      4  O   UNL A   1      31.652  29.165  25.219  1.00  0.00    -0.376 OA
BRANCH   4   5
ATOM      5  C   UNL A   1      32.206  29.542  26.483  1.00  0.00     0.202 C 
BRANCH   5   6
ATOM      6  C   UNL A   1      33.660  30.015  26.417  1.00  0.00     0.261 C 
BRANCH   6   7
ATOM      7  O   UNL A   1      34.213  30.252  27.720  1.00  0.00    -0.460 OA
BRANCH   7   8
ATOM      8  C   UNL A   1      35.255  31.045  28.065  1.00  0.00     0.338 C 
ATOM      9  O   UNL A   1      35.249  32.206  27.656  1.00  0.00    -0.246 OA
BRANCH   8  10
ATOM     10  C   UNL A   1      36.424  30.615  28.908  1.00  0.00     0.060 A 
ATOM     11  C   UNL A   1      36.418  29.619  29.888  1.00  0.00     0.016 A 
ATOM     12  C   UNL A   1      37.649  31.261  28.649  1.00  0.00     0.016 A 
ATOM     13  C   UNL A   1      37.551  29.311  30.629  1.00  0.00     0.010 A 
ATOM     14  C   UNL A   1      38.800  30.961  29.387  1.00  0.00     0.010 A 
ATOM     15  C   UNL A   1      38.732  30.008  30.407  1.00  0.00    -0.014 A 
BRANCH  15  16
ATOM     16  C   UNL A   1      39.788  29.877  31.422  1.00  0.00     0.031 A 
ATOM     17  C   UNL A   1      40.927  28.956  31.109  1.00  0.00     0.074 A 
ATOM     18  C   UNL A   1      39.805  30.692  32.488  1.00  0.00     0.049 A 
ATOM     19  N   UNL A   1      41.981  28.662  31.819  1.00  0.00    -0.248 NA
ATOM     20  C   UNL A   1      40.882  28.291  29.793  1.00  0.00     0.031 C 
ATOM     21  C   UNL A   1      38.812  31.728  32.771  1.00  0.00     0.029 A 
ATOM     22  N   UNL A   1      40.708  30.799  33.510  1.00  0.00    -0.354 N 
ATOM     23  C   UNL A   1      42.709  27.767  31.049  1.00  0.00     0.074 A 
ATOM     24  C   UNL A   1      41.985  27.562  29.818  1.00  0.00     0.031 C 
ATOM     25  C   UNL A   1      39.167  32.374  33.895  1.00  0.00     0.029 A 
ATOM     26  C   UNL A   1      40.375  31.757  34.434  1.00  0.00     0.049 A 
ATOM     27  H   UNL A   1      41.517  30.242  33.576  1.00  0.00     0.167 HD
ATOM     28  C   UNL A   1      43.879  27.163  31.358  1.00  0.00     0.037 A 
ATOM     29  C   UNL A   1      40.974  32.063  35.600  1.00  0.00     0.037 A 
ATOM     30  C   UNL A   1      44.565  27.379  32.601  1.00  0.00     0.049 A 
ATOM     31  C   UNL A   1      42.208  31.287  35.980  1.00  0.00     0.074 A 
ATOM     32  C   UNL A   1      45.708  26.771  33.081  1.00  0.00     0.029 A 
ATOM     33  N   UNL A   1      44.149  28.285  33.571  1.00  0.00    -0.354 N 
ATOM     34  N   UNL A   1      42.858  30.376  35.292  1.00  0.00    -0.248 NA
ATOM     35  C   UNL A   1      42.782  31.563  37.302  1.00  0.00     0.031 C 
ATOM     36  C   UNL A   1      45.958  27.278  34.362  1.00  0.00     0.029 A 
ATOM     37  C   UNL A   1      45.001  28.238  34.658  1.00  0.00     0.049 A 
ATOM     38  H   UNL A   1      43.364  28.874  33.493  1.00  0.00     0.167 HD
ATOM     39  C   UNL A   1      43.924  29.979  36.087  1.00  0.00     0.074 A 
ATOM     40  C   UNL A   1      43.842  30.766  37.304  1.00  0.00     0.031 C 
ATOM     41  C   UNL A   1      44.880  29.048  35.845  1.00  0.00     0.037 A 
BRANCH  28  42
ATOM     42  C   UNL A   1      44.405  26.163  30.373  1.00  0.00     0.064 A 
ATOM     43  C   UNL A   1      44.987  26.550  29.156  1.00  0.00     0.173 A 
ATOM     44  C   UNL A   1      44.256  24.790  30.621  1.00  0.00     0.173 A 
ATOM     45  F   UNL A   1      45.119  27.850  28.854  1.00  0.00    -0.203 F 
ATOM     46  C   UNL A   1      45.365  25.599  28.209  1.00  0.00     0.198 A 
ATOM     47  C   UNL A   1      44.659  23.843  29.684  1.00  0.00     0.198 A 
ATOM     48  F   UNL A   1      43.694  24.367  31.764  1.00  0.00    -0.203 F 
ATOM     49  F   UNL A   1      45.852  25.994  27.024  1.00  0.00    -0.200 F 
ATOM     50  C   UNL A   1      45.203  24.248  28.474  1.00  0.00     0.200 A 
ATOM     51  F   UNL A   1      44.501  22.537  29.942  1.00  0.00    -0.200 F 
ATOM     52  F   UNL A   1      45.551  23.336  27.556  1.00  0.00    -0.200 F 
ENDBRANCH  28  42
BRANCH  29  53
ATOM     53  C   UNL A   1      40.392  33.098  36.494  1.00  0.00     0.064 A 
ATOM     54  C   UNL A   1      39.268  32.831  37.287  1.00  0.00     0.173 A 
ATOM     55  C   UNL A   1      40.947  34.385  36.571  1.00  0.00     0.173 A 
ATOM     56  F   UNL A   1      38.682  31.625  37.234  1.00  0.00    -0.203 F 
ATOM     57  C   UNL A   1      38.716  33.811  38.111  1.00  0.00     0.198 A 
ATOM     58  C   UNL A   1      40.414  35.355  37.417  1.00  0.00     0.198 A 
ATOM     59  F   UNL A   1      42.020  34.700  35.831  1.00  0.00    -0.203 F 
ATOM     60  F   UNL A   1      37.616  33.542  38.826  1.00  0.00    -0.200 F 
ATOM     61  C   UNL A   1      39.294  35.070  38.182  1.00  0.00     0.200 A 
ATOM     62  F   UNL A   1      40.986  36.566  37.490  1.00  0.00    -0.200 F 
ATOM     63  F   UNL A   1      38.767  36.010  38.978  1.00  0.00    -0.200 F 
ENDBRANCH  29  53
BRANCH  41  64
ATOM     64  C   UNL A   1      45.920  28.855  36.906  1.00  0.00     0.064 A 
ATOM     65  C   UNL A   1      47.139  29.546  36.870  1.00  0.00     0.173 A 
ATOM     66  C   UNL A   1      45.665  28.015  37.999  1.00  0.00     0.173 A 
ATOM     67  F   UNL A   1      47.431  30.349  35.836  1.00  0.00    -0.203 F 
ATOM     68  C   UNL A   1      48.077  29.386  37.885  1.00  0.00     0.198 A 
ATOM     69  C   UNL A   1      46.593  27.881  39.026  1.00  0.00     0.198 A 
ATOM     70  F   UNL A   1      44.509  27.340  38.079  1.00  0.00    -0.203 F 
ATOM     71  F   UNL A   1      49.254  30.024  37.814  1.00  0.00    -0.200 F 
ATOM     72  C   UNL A   1      47.800  28.561  38.966  1.00  0.00     0.200 A 
ATOM     73  F   UNL A   1      46.318  27.096  40.077  1.00  0.00    -0.200 F 
ATOM     74  F   UNL A   1      48.699  28.420  39.949  1.00  0.00    -0.200 F 
ENDBRANCH  41  64
ENDBRANCH  15  16
ENDBRANCH   8  10
ENDBRANCH   7   8
ENDBRANCH   6   7
ENDBRANCH   5   6
ENDBRANCH   4   5
ENDBRANCH   3   4
ENDBRANCH   2   3
ENDBRANCH   1   2
BRANCH   1  75
ATOM     75  C   UNL A   1      30.441  25.207  25.238  1.00  0.00     0.188 C 
BRANCH  75  76
ATOM     76  C   UNL A   1      31.024  23.863  24.748  1.00  0.00     0.188 C 
BRANCH  76  77
ATOM     77  O   UNL A   1      31.085  23.703  23.338  1.00  0.00    -0.376 OA
BRANCH  77  78
ATOM     78  C   UNL A   1      32.394  23.678  22.776  1.00  0.00     0.202 C 
BRANCH  78  79
ATOM     79  C   UNL A   1      33.425  22.912  23.618  1.00  0.00     0.261 C 
BRANCH  79  80
ATOM     80  O   UNL A   1      34.668  23.613  23.803  1.00  0.00    -0.460 OA
BRANCH  80  81
ATOM     81  C   UNL A   1      35.007  23.951  25.072  1.00  0.00     0.338 C 
ATOM     82  O   UNL A   1      34.326  24.545  25.876  1.00  0.00    -0.246 OA
BRANCH  81  83
ATOM     83  C   UNL A   1      36.240  23.191  25.399  1.00  0.00     0.062 A 
ATOM     84  C   UNL A   1      36.281  21.841  25.021  1.00  0.00     0.016 A 
ATOM     85  C   UNL A   1      37.374  23.808  25.944  1.00  0.00     0.041 A 
ATOM     86  C   UNL A   1      37.476  21.130  25.099  1.00  0.00     0.003 A 
ATOM     87  C   UNL A   1      38.534  23.046  26.159  1.00  0.00     0.039 A 
ATOM     88  C   UNL A   1      38.597  21.731  25.668  1.00  0.00     0.026 A 
BRANCH  87  89
ATOM     89  N   UNL A   1      39.428  23.396  27.226  1.00  0.00    -0.355 N 
ATOM     90  H   UNL A   1      39.149  23.411  28.169  1.00  0.00     0.167 HD
BRANCH  89  91
ATOM     91  C   UNL A   1      40.762  23.724  26.809  1.00  0.00     0.050 A 
ATOM     92  C   UNL A   1      41.659  22.664  26.618  1.00  0.00     0.047 A 
ATOM     93  C   UNL A   1      41.141  25.026  26.415  1.00  0.00     0.027 A 
ATOM     94  C   UNL A   1      42.798  22.887  25.885  1.00  0.00     0.114 A 
ATOM     95  C   UNL A   1      42.363  25.139  25.708  1.00  0.00     0.072 A 
ATOM     96  C   UNL A   1      40.388  26.195  26.672  1.00  0.00     0.051 A 
ATOM     97  N   UNL A   1      43.152  24.095  25.417  1.00  0.00    -0.256 NA
ATOM     98  C   UNL A   1      42.787  26.386  25.280  1.00  0.00     0.032 A 
ATOM     99  C   UNL A   1      40.873  27.436  26.271  1.00  0.00     0.124 A 
ATOM    100  C   UNL A   1      42.066  27.542  25.572  1.00  0.00     0.041 A 
ATOM    101  F   UNL A   1      40.190  28.547  26.571  1.00  0.00    -0.207 F 
ENDBRANCH  89  91
ENDBRANCH  87  89
ENDBRANCH  81  83
ENDBRANCH  80  81
ENDBRANCH  79  80
ENDBRANCH  78  79
ENDBRANCH  77  78
ENDBRANCH  76  77
ENDBRANCH  75  76
ENDBRANCH   1  75
TORSDOF 22
ENDMDL
