MODEL 1
REMARK VINA RESULT:     -12.5      0.000      0.000
REMARK SMILES CC(=O)Nc1cnc(N2CC=C(c3ccccc3C)CC2)c(C(=O)OCCOCCOCCOCCOC(=O)c2ccc(-c3c4nc(c(-c5c(F)c(F)c(F)c(F)c5F)c5ccc([nH]5)c(-c5c(F)c(F)c(F)c(F)c5F)c5nc(c(-c6c(F)c(F)c(F)c(F)c6F)c6ccc3[nH]6)C=C5)C=C4)cc2)c1
REMARK SMILES IDX 31 1 30 2 29 3 28 4 27 5 26 6 25 7 23 8 24 9 22 10 5 11 6 12
REMARK SMILES IDX 103 13 7 14 8 15 4 16 1 17 2 18 3 19 9 21 10 22 21 23 11 24
REMARK SMILES IDX 20 25 12 26 13 27 14 28 18 29 15 30 17 31 19 32 16 33 32 34
REMARK SMILES IDX 33 35 34 36 35 37 36 38 37 39 38 40 39 41 40 42 41 43 102 44
REMARK SMILES IDX 42 45 101 46 43 47 44 48 45 49 95 50 46 51 100 52 94 53
REMARK SMILES IDX 96 54 47 55 99 56 93 57 92 58 48 60 80 61 60 62 79 63 61 64
REMARK SMILES IDX 64 65 78 66 97 67 62 68 63 69 77 71 98 72 65 73 49 74 50 75
REMARK SMILES IDX 58 76 51 77 52 78 56 79 59 80 53 81 54 82 57 83 55 84 81 85
REMARK SMILES IDX 82 86 90 87 83 88 84 89 88 90 91 91 85 92 86 93 89 94 87 95
REMARK SMILES IDX 66 96 67 97 75 98 68 99 69 100 73 101 76 102 70 103 71 104
REMARK SMILES IDX 74 105 72 106
REMARK H PARENT 4 20 96 59 64 70
REMARK Flexibility Score: inf
ROOT
ATOM      1  O   UNL A   1      40.831  22.109  26.475  1.00  0.00    -0.377 OA
ENDROOT
BRANCH   1   2
ATOM      2  C   UNL A   1      40.728  22.943  27.600  1.00  0.00     0.188 C 
BRANCH   2   3
ATOM      3  C   UNL A   1      39.780  24.142  27.584  1.00  0.00     0.188 C 
BRANCH   3   4
ATOM      4  O   UNL A   1      38.376  24.202  27.394  1.00  0.00    -0.376 OA
BRANCH   4   5
ATOM      5  C   UNL A   1      37.841  23.866  26.124  1.00  0.00     0.202 C 
BRANCH   5   6
ATOM      6  C   UNL A   1      36.366  23.468  25.947  1.00  0.00     0.261 C 
BRANCH   6   7
ATOM      7  O   UNL A   1      36.236  22.394  25.022  1.00  0.00    -0.460 OA
BRANCH   7   8
ATOM      8  C   UNL A   1      35.164  22.452  24.225  1.00  0.00     0.342 C 
ATOM      9  O   UNL A   1      35.054  23.043  23.155  1.00  0.00    -0.246 OA
BRANCH   8  10
ATOM     10  C   UNL A   1      34.276  21.416  24.722  1.00  0.00     0.104 A 
ATOM     11  C   UNL A   1      33.914  19.066  25.085  1.00  0.00     0.060 A 
ATOM     12  C   UNL A   1      32.565  19.406  25.186  1.00  0.00     0.139 A 
ATOM     13  C   UNL A   1      34.779  20.107  24.819  1.00  0.00     0.047 A 
ATOM     14  N   UNL A   1      32.053  20.664  25.061  1.00  0.00    -0.236 NA
ATOM     15  C   UNL A   1      32.903  21.688  24.828  1.00  0.00     0.143 A 
BRANCH  11  16
ATOM     16  N   UNL A   1      34.293  17.715  25.174  1.00  0.00    -0.325 N 
ATOM     17  C   UNL A   1      33.922  16.937  22.827  1.00  0.00     0.114 C 
ATOM     18  C   UNL A   1      34.228  16.684  24.278  1.00  0.00     0.221 C 
ATOM     19  O   UNL A   1      34.502  15.546  24.668  1.00  0.00    -0.275 OA
ATOM     20  H   UNL A   1      34.677  17.463  26.046  1.00  0.00     0.169 HD
ENDBRANCH  11  16
BRANCH  15  21
ATOM     21  N   UNL A   1      32.327  22.922  24.495  1.00  0.00    -0.352 N 
ATOM     22  C   UNL A   1      31.516  22.961  23.288  1.00  0.00     0.146 C 
ATOM     23  C   UNL A   1      31.908  23.695  25.657  1.00  0.00     0.123 C 
ATOM     24  C   UNL A   1      30.680  24.204  23.214  1.00  0.00    -0.002 C 
ATOM     25  C   UNL A   1      31.387  25.088  25.420  1.00  0.00     0.057 C 
ATOM     26  C   UNL A   1      30.648  25.184  24.134  1.00  0.00    -0.041 C 
BRANCH  26  27
ATOM     27  C   UNL A   1      30.028  26.465  23.783  1.00  0.00    -0.020 A 
ATOM     28  C   UNL A   1      28.648  26.634  23.978  1.00  0.00     0.008 A 
ATOM     29  C   UNL A   1      30.774  27.462  23.117  1.00  0.00    -0.044 A 
ATOM     30  C   UNL A   1      27.996  27.749  23.459  1.00  0.00     0.001 A 
ATOM     31  C   UNL A   1      30.101  28.581  22.611  1.00  0.00     0.004 A 
ATOM     32  C   UNL A   1      32.267  27.384  22.931  1.00  0.00     0.045 C 
ATOM     33  C   UNL A   1      28.721  28.710  22.757  1.00  0.00     0.000 A 
ENDBRANCH  26  27
ENDBRANCH  15  21
ENDBRANCH   8  10
ENDBRANCH   7   8
ENDBRANCH   6   7
ENDBRANCH   5   6
ENDBRANCH   4   5
ENDBRANCH   3   4
ENDBRANCH   2   3
ENDBRANCH   1   2
BRANCH   1  34
ATOM     34  C   UNL A   1      40.342  20.793  26.644  1.00  0.00     0.188 C 
BRANCH  34  35
ATOM     35  C   UNL A   1      41.308  19.634  26.795  1.00  0.00     0.188 C 
BRANCH  35  36
ATOM     36  O   UNL A   1      41.988  19.406  25.566  1.00  0.00    -0.376 OA
BRANCH  36  37
ATOM     37  C   UNL A   1      43.114  18.537  25.654  1.00  0.00     0.202 C 
BRANCH  37  38
ATOM     38  C   UNL A   1      44.250  18.905  24.686  1.00  0.00     0.261 C 
BRANCH  38  39
ATOM     39  O   UNL A   1      45.332  19.506  25.430  1.00  0.00    -0.460 OA
BRANCH  39  40
ATOM     40  C   UNL A   1      45.942  20.584  24.856  1.00  0.00     0.338 C 
ATOM     41  O   UNL A   1      47.122  20.650  24.555  1.00  0.00    -0.246 OA
BRANCH  40  42
ATOM     42  C   UNL A   1      45.057  21.788  24.986  1.00  0.00     0.060 A 
ATOM     43  C   UNL A   1      44.982  22.738  23.947  1.00  0.00     0.016 A 
ATOM     44  C   UNL A   1      44.638  22.151  26.255  1.00  0.00     0.016 A 
ATOM     45  C   UNL A   1      44.677  24.091  24.222  1.00  0.00     0.010 A 
ATOM     46  C   UNL A   1      44.430  23.491  26.521  1.00  0.00     0.010 A 
ATOM     47  C   UNL A   1      44.493  24.503  25.539  1.00  0.00    -0.014 A 
BRANCH  47  48
ATOM     48  C   UNL A   1      44.535  25.914  26.058  1.00  0.00     0.031 A 
ATOM     49  C   UNL A   1      43.202  26.626  26.241  1.00  0.00     0.074 A 
ATOM     50  C   UNL A   1      45.659  26.308  26.731  1.00  0.00     0.049 A 
ATOM     51  N   UNL A   1      42.988  27.723  26.889  1.00  0.00    -0.248 NA
ATOM     52  C   UNL A   1      41.948  26.105  25.681  1.00  0.00     0.031 C 
ATOM     53  C   UNL A   1      45.741  26.971  28.035  1.00  0.00     0.029 A 
ATOM     54  N   UNL A   1      47.002  25.992  26.534  1.00  0.00    -0.354 N 
ATOM     55  C   UNL A   1      41.609  27.887  27.087  1.00  0.00     0.074 A 
ATOM     56  C   UNL A   1      41.017  26.872  26.259  1.00  0.00     0.031 C 
ATOM     57  C   UNL A   1      46.988  27.151  28.465  1.00  0.00     0.029 A 
ATOM     58  C   UNL A   1      47.812  26.796  27.371  1.00  0.00     0.049 A 
ATOM     59  H   UNL A   1      47.336  25.312  25.906  1.00  0.00     0.167 HD
ATOM     60  C   UNL A   1      41.147  28.790  28.018  1.00  0.00     0.037 A 
ATOM     61  C   UNL A   1      48.709  27.670  26.854  1.00  0.00     0.037 A 
ATOM     62  C   UNL A   1      42.266  29.618  28.520  1.00  0.00     0.049 A 
ATOM     63  C   UNL A   1      48.130  29.088  26.919  1.00  0.00     0.074 A 
ATOM     64  C   UNL A   1      42.727  29.967  29.773  1.00  0.00     0.029 A 
ATOM     65  N   UNL A   1      43.236  30.102  27.634  1.00  0.00    -0.354 N 
ATOM     66  N   UNL A   1      46.833  29.339  26.976  1.00  0.00    -0.248 NA
ATOM     67  C   UNL A   1      48.921  30.292  27.183  1.00  0.00     0.031 C 
ATOM     68  C   UNL A   1      44.076  30.403  29.648  1.00  0.00     0.029 A 
ATOM     69  C   UNL A   1      44.375  30.507  28.297  1.00  0.00     0.049 A 
ATOM     70  H   UNL A   1      43.119  30.146  26.657  1.00  0.00     0.167 HD
ATOM     71  C   UNL A   1      46.626  30.646  27.330  1.00  0.00     0.074 A 
ATOM     72  C   UNL A   1      47.963  31.209  27.418  1.00  0.00     0.031 C 
ATOM     73  C   UNL A   1      45.421  31.238  27.602  1.00  0.00     0.037 A 
BRANCH  60  74
ATOM     74  C   UNL A   1      39.731  28.840  28.677  1.00  0.00     0.064 A 
ATOM     75  C   UNL A   1      38.623  29.412  27.990  1.00  0.00     0.173 A 
ATOM     76  C   UNL A   1      39.400  28.444  29.995  1.00  0.00     0.173 A 
ATOM     77  F   UNL A   1      38.704  29.751  26.698  1.00  0.00    -0.203 F 
ATOM     78  C   UNL A   1      37.365  29.643  28.582  1.00  0.00     0.198 A 
ATOM     79  C   UNL A   1      38.121  28.614  30.566  1.00  0.00     0.198 A 
ATOM     80  F   UNL A   1      40.292  27.888  30.815  1.00  0.00    -0.203 F 
ATOM     81  F   UNL A   1      36.398  30.257  27.884  1.00  0.00    -0.200 F 
ATOM     82  C   UNL A   1      37.111  29.238  29.871  1.00  0.00     0.200 A 
ATOM     83  F   UNL A   1      37.886  28.174  31.813  1.00  0.00    -0.200 F 
ATOM     84  F   UNL A   1      35.910  29.435  30.434  1.00  0.00    -0.200 F 
ENDBRANCH  60  74
BRANCH  61  85
ATOM     85  C   UNL A   1      49.640  26.850  26.002  1.00  0.00     0.064 A 
ATOM     86  C   UNL A   1      49.602  27.282  24.639  1.00  0.00     0.173 A 
ATOM     87  C   UNL A   1      50.916  26.540  26.513  1.00  0.00     0.173 A 
ATOM     88  F   UNL A   1      48.419  27.601  24.085  1.00  0.00    -0.203 F 
ATOM     89  C   UNL A   1      50.758  27.716  23.979  1.00  0.00     0.198 A 
ATOM     90  C   UNL A   1      52.075  26.946  25.826  1.00  0.00     0.198 A 
ATOM     91  F   UNL A   1      51.042  26.137  27.786  1.00  0.00    -0.203 F 
ATOM     92  F   UNL A   1      50.659  28.411  22.835  1.00  0.00    -0.200 F 
ATOM     93  C   UNL A   1      51.987  27.596  24.600  1.00  0.00     0.200 A 
ATOM     94  F   UNL A   1      53.268  26.883  26.437  1.00  0.00    -0.200 F 
ATOM     95  F   UNL A   1      53.063  28.210  24.080  1.00  0.00    -0.200 F 
ENDBRANCH  61  85
BRANCH  73  96
ATOM     96  C   UNL A   1      45.127  32.679  27.243  1.00  0.00     0.064 A 
ATOM     97  C   UNL A   1      44.284  33.007  26.170  1.00  0.00     0.173 A 
ATOM     98  C   UNL A   1      45.466  33.753  28.107  1.00  0.00     0.173 A 
ATOM     99  F   UNL A   1      43.791  32.063  25.356  1.00  0.00    -0.203 F 
ATOM    100  C   UNL A   1      43.864  34.314  25.937  1.00  0.00     0.198 A 
ATOM    101  C   UNL A   1      44.992  35.046  27.903  1.00  0.00     0.198 A 
ATOM    102  F   UNL A   1      46.225  33.583  29.197  1.00  0.00    -0.203 F 
ATOM    103  F   UNL A   1      43.088  34.574  24.876  1.00  0.00    -0.200 F 
ATOM    104  C   UNL A   1      44.205  35.330  26.808  1.00  0.00     0.200 A 
ATOM    105  F   UNL A   1      45.278  36.007  28.794  1.00  0.00    -0.200 F 
ATOM    106  F   UNL A   1      43.756  36.574  26.606  1.00  0.00    -0.200 F 
ENDBRANCH  73  96
ENDBRANCH  47  48
ENDBRANCH  40  42
ENDBRANCH  39  40
ENDBRANCH  38  39
ENDBRANCH  37  38
ENDBRANCH  36  37
ENDBRANCH  35  36
ENDBRANCH  34  35
ENDBRANCH   1  34
TORSDOF 23
ENDMDL
MODEL 2
REMARK VINA RESULT:     -11.4      1.993      4.560
REMARK SMILES CC(=O)Nc1cnc(N2CC=C(c3ccccc3C)CC2)c(C(=O)OCCOCCOCCOCCOC(=O)c2ccc(-c3c4nc(c(-c5c(F)c(F)c(F)c(F)c5F)c5ccc([nH]5)c(-c5c(F)c(F)c(F)c(F)c5F)c5nc(c(-c6c(F)c(F)c(F)c(F)c6F)c6ccc3[nH]6)C=C5)C=C4)cc2)c1
REMARK SMILES IDX 31 1 30 2 29 3 28 4 27 5 26 6 25 7 23 8 24 9 22 10 5 11 6 12
REMARK SMILES IDX 103 13 7 14 8 15 4 16 1 17 2 18 3 19 9 21 10 22 21 23 11 24
REMARK SMILES IDX 20 25 12 26 13 27 14 28 18 29 15 30 17 31 19 32 16 33 32 34
REMARK SMILES IDX 33 35 34 36 35 37 36 38 37 39 38 40 39 41 40 42 41 43 102 44
REMARK SMILES IDX 42 45 101 46 43 47 44 48 45 49 95 50 46 51 100 52 94 53
REMARK SMILES IDX 96 54 47 55 99 56 93 57 92 58 48 60 80 61 60 62 79 63 61 64
REMARK SMILES IDX 64 65 78 66 97 67 62 68 63 69 77 71 98 72 65 73 49 74 50 75
REMARK SMILES IDX 58 76 51 77 52 78 56 79 59 80 53 81 54 82 57 83 55 84 81 85
REMARK SMILES IDX 82 86 90 87 83 88 84 89 88 90 91 91 85 92 86 93 89 94 87 95
REMARK SMILES IDX 66 96 67 97 75 98 68 99 69 100 73 101 76 102 70 103 71 104
REMARK SMILES IDX 74 105 72 106
REMARK H PARENT 4 20 96 59 64 70
REMARK Flexibility Score: inf
ROOT
ATOM      1  O   UNL A   1      39.460  21.598  26.325  1.00  0.00    -0.377 OA
ENDROOT
BRANCH   1   2
ATOM      2  C   UNL A   1      38.275  21.690  25.578  1.00  0.00     0.188 C 
BRANCH   2   3
ATOM      3  C   UNL A   1      37.295  22.836  25.831  1.00  0.00     0.188 C 
BRANCH   3   4
ATOM      4  O   UNL A   1      36.098  23.186  25.156  1.00  0.00    -0.376 OA
BRANCH   4   5
ATOM      5  C   UNL A   1      35.557  24.483  25.347  1.00  0.00     0.202 C 
BRANCH   5   6
ATOM      6  C   UNL A   1      34.187  24.698  26.013  1.00  0.00     0.261 C 
BRANCH   6   7
ATOM      7  O   UNL A   1      33.618  25.941  25.614  1.00  0.00    -0.460 OA
BRANCH   7   8
ATOM      8  C   UNL A   1      32.285  26.013  25.701  1.00  0.00     0.342 C 
ATOM      9  O   UNL A   1      31.583  25.782  26.681  1.00  0.00    -0.246 OA
BRANCH   8  10
ATOM     10  C   UNL A   1      31.873  26.729  24.507  1.00  0.00     0.104 A 
ATOM     11  C   UNL A   1      30.846  28.697  23.582  1.00  0.00     0.060 A 
ATOM     12  C   UNL A   1      30.679  27.929  22.429  1.00  0.00     0.139 A 
ATOM     13  C   UNL A   1      31.437  28.058  24.651  1.00  0.00     0.047 A 
ATOM     14  N   UNL A   1      31.064  26.629  22.281  1.00  0.00    -0.236 NA
ATOM     15  C   UNL A   1      31.668  26.011  23.318  1.00  0.00     0.143 A 
BRANCH  11  16
ATOM     16  N   UNL A   1      30.342  30.010  23.614  1.00  0.00    -0.325 N 
ATOM     17  C   UNL A   1      27.893  29.613  23.306  1.00  0.00     0.114 C 
ATOM     18  C   UNL A   1      29.092  30.517  23.394  1.00  0.00     0.221 C 
ATOM     19  O   UNL A   1      28.953  31.742  23.346  1.00  0.00    -0.275 OA
ATOM     20  H   UNL A   1      31.017  30.692  23.837  1.00  0.00     0.169 HD
ENDBRANCH  11  16
BRANCH  15  21
ATOM     21  N   UNL A   1      31.856  24.626  23.205  1.00  0.00    -0.352 N 
ATOM     22  C   UNL A   1      33.135  24.182  22.671  1.00  0.00     0.146 C 
ATOM     23  C   UNL A   1      31.236  23.870  24.285  1.00  0.00     0.123 C 
ATOM     24  C   UNL A   1      33.367  22.720  22.915  1.00  0.00    -0.002 C 
ATOM     25  C   UNL A   1      31.274  22.367  24.199  1.00  0.00     0.057 C 
ATOM     26  C   UNL A   1      32.524  21.888  23.552  1.00  0.00    -0.041 C 
BRANCH  26  27
ATOM     27  C   UNL A   1      32.740  20.442  23.443  1.00  0.00    -0.020 A 
ATOM     28  C   UNL A   1      32.227  19.755  22.332  1.00  0.00     0.008 A 
ATOM     29  C   UNL A   1      33.320  19.723  24.511  1.00  0.00    -0.044 A 
ATOM     30  C   UNL A   1      32.227  18.362  22.305  1.00  0.00     0.001 A 
ATOM     31  C   UNL A   1      33.319  18.324  24.461  1.00  0.00     0.004 A 
ATOM     32  C   UNL A   1      33.952  20.392  25.704  1.00  0.00     0.045 C 
ATOM     33  C   UNL A   1      32.753  17.650  23.381  1.00  0.00     0.000 A 
ENDBRANCH  26  27
ENDBRANCH  15  21
ENDBRANCH   8  10
ENDBRANCH   7   8
ENDBRANCH   6   7
ENDBRANCH   5   6
ENDBRANCH   4   5
ENDBRANCH   3   4
ENDBRANCH   2   3
ENDBRANCH   1   2
BRANCH   1  34
ATOM     34  C   UNL A   1      40.162  20.376  26.206  1.00  0.00     0.188 C 
BRANCH  34  35
ATOM     35  C   UNL A   1      41.679  20.367  26.180  1.00  0.00     0.188 C 
BRANCH  35  36
ATOM     36  O   UNL A   1      42.143  19.351  25.299  1.00  0.00    -0.376 OA
BRANCH  36  37
ATOM     37  C   UNL A   1      43.391  18.765  25.662  1.00  0.00     0.202 C 
BRANCH  37  38
ATOM     38  C   UNL A   1      44.494  18.976  24.613  1.00  0.00     0.261 C 
BRANCH  38  39
ATOM     39  O   UNL A   1      45.321  20.091  25.010  1.00  0.00    -0.460 OA
BRANCH  39  40
ATOM     40  C   UNL A   1      45.001  21.308  24.480  1.00  0.00     0.338 C 
ATOM     41  O   UNL A   1      44.511  21.490  23.378  1.00  0.00    -0.246 OA
BRANCH  40  42
ATOM     42  C   UNL A   1      45.667  22.391  25.275  1.00  0.00     0.060 A 
ATOM     43  C   UNL A   1      45.390  22.544  26.649  1.00  0.00     0.016 A 
ATOM     44  C   UNL A   1      46.230  23.451  24.585  1.00  0.00     0.016 A 
ATOM     45  C   UNL A   1      45.492  23.809  27.273  1.00  0.00     0.010 A 
ATOM     46  C   UNL A   1      46.240  24.696  25.185  1.00  0.00     0.010 A 
ATOM     47  C   UNL A   1      45.827  24.927  26.515  1.00  0.00    -0.014 A 
BRANCH  47  48
ATOM     48  C   UNL A   1      45.626  26.369  26.893  1.00  0.00     0.031 A 
ATOM     49  C   UNL A   1      44.197  26.894  26.890  1.00  0.00     0.074 A 
ATOM     50  C   UNL A   1      46.615  26.978  27.616  1.00  0.00     0.049 A 
ATOM     51  N   UNL A   1      43.774  28.001  27.405  1.00  0.00    -0.248 NA
ATOM     52  C   UNL A   1      43.087  26.152  26.281  1.00  0.00     0.031 C 
ATOM     53  C   UNL A   1      46.478  27.755  28.850  1.00  0.00     0.029 A 
ATOM     54  N   UNL A   1      48.001  26.843  27.566  1.00  0.00    -0.354 N 
ATOM     55  C   UNL A   1      42.374  27.981  27.469  1.00  0.00     0.074 A 
ATOM     56  C   UNL A   1      42.008  26.823  26.698  1.00  0.00     0.031 C 
ATOM     57  C   UNL A   1      47.640  28.151  29.365  1.00  0.00     0.029 A 
ATOM     58  C   UNL A   1      48.609  27.825  28.386  1.00  0.00     0.049 A 
ATOM     59  H   UNL A   1      48.485  26.167  27.040  1.00  0.00     0.167 HD
ATOM     60  C   UNL A   1      41.704  28.885  28.263  1.00  0.00     0.037 A 
ATOM     61  C   UNL A   1      49.426  28.771  27.862  1.00  0.00     0.037 A 
ATOM     62  C   UNL A   1      42.645  29.906  28.773  1.00  0.00     0.049 A 
ATOM     63  C   UNL A   1      48.656  30.091  27.737  1.00  0.00     0.074 A 
ATOM     64  C   UNL A   1      42.930  30.425  30.020  1.00  0.00     0.029 A 
ATOM     65  N   UNL A   1      43.623  30.446  27.929  1.00  0.00    -0.354 N 
ATOM     66  N   UNL A   1      47.337  30.156  27.658  1.00  0.00    -0.248 NA
ATOM     67  C   UNL A   1      49.247  31.415  27.947  1.00  0.00     0.031 C 
ATOM     68  C   UNL A   1      44.213  31.039  29.967  1.00  0.00     0.029 A 
ATOM     69  C   UNL A   1      44.626  31.067  28.643  1.00  0.00     0.049 A 
ATOM     70  H   UNL A   1      43.598  30.389  26.946  1.00  0.00     0.167 HD
ATOM     71  C   UNL A   1      46.921  31.446  27.862  1.00  0.00     0.074 A 
ATOM     72  C   UNL A   1      48.155  32.200  28.007  1.00  0.00     0.031 C 
ATOM     73  C   UNL A   1      45.626  31.878  27.970  1.00  0.00     0.037 A 
BRANCH  60  74
ATOM     74  C   UNL A   1      40.236  28.787  28.791  1.00  0.00     0.064 A 
ATOM     75  C   UNL A   1      39.139  29.213  27.990  1.00  0.00     0.173 A 
ATOM     76  C   UNL A   1      39.832  28.386  30.086  1.00  0.00     0.173 A 
ATOM     77  F   UNL A   1      39.300  29.530  26.699  1.00  0.00    -0.203 F 
ATOM     78  C   UNL A   1      37.814  29.311  28.459  1.00  0.00     0.198 A 
ATOM     79  C   UNL A   1      38.495  28.421  30.535  1.00  0.00     0.198 A 
ATOM     80  F   UNL A   1      40.701  27.954  31.000  1.00  0.00    -0.203 F 
ATOM     81  F   UNL A   1      36.853  29.794  27.657  1.00  0.00    -0.200 F 
ATOM     82  C   UNL A   1      37.489  28.908  29.732  1.00  0.00     0.200 A 
ATOM     83  F   UNL A   1      38.196  27.985  31.770  1.00  0.00    -0.200 F 
ATOM     84  F   UNL A   1      36.227  28.979  30.179  1.00  0.00    -0.200 F 
ENDBRANCH  60  74
BRANCH  61  85
ATOM     85  C   UNL A   1      50.538  28.023  27.178  1.00  0.00     0.064 A 
ATOM     86  C   UNL A   1      50.511  28.244  25.765  1.00  0.00     0.173 A 
ATOM     87  C   UNL A   1      51.813  28.027  27.777  1.00  0.00     0.173 A 
ATOM     88  F   UNL A   1      49.328  28.260  25.126  1.00  0.00    -0.203 F 
ATOM     89  C   UNL A   1      51.613  28.784  25.091  1.00  0.00     0.198 A 
ATOM     90  C   UNL A   1      52.925  28.537  27.079  1.00  0.00     0.198 A 
ATOM     91  F   UNL A   1      51.927  27.837  29.099  1.00  0.00    -0.203 F 
ATOM     92  F   UNL A   1      51.466  29.281  23.852  1.00  0.00    -0.200 F 
ATOM     93  C   UNL A   1      52.802  28.981  25.768  1.00  0.00     0.200 A 
ATOM     94  F   UNL A   1      54.068  28.781  27.738  1.00  0.00    -0.200 F 
ATOM     95  F   UNL A   1      53.784  29.701  25.202  1.00  0.00    -0.200 F 
ENDBRANCH  61  85
BRANCH  73  96
ATOM     96  C   UNL A   1      45.177  33.225  27.447  1.00  0.00     0.064 A 
ATOM     97  C   UNL A   1      44.378  33.332  26.297  1.00  0.00     0.173 A 
ATOM     98  C   UNL A   1      45.312  34.413  28.211  1.00  0.00     0.173 A 
ATOM     99  F   UNL A   1      44.070  32.257  25.558  1.00  0.00    -0.203 F 
ATOM    100  C   UNL A   1      43.811  34.542  25.904  1.00  0.00     0.198 A 
ATOM    101  C   UNL A   1      44.691  35.605  27.847  1.00  0.00     0.198 A 
ATOM    102  F   UNL A   1      46.005  34.452  29.356  1.00  0.00    -0.203 F 
ATOM    103  F   UNL A   1      43.087  34.593  24.779  1.00  0.00    -0.200 F 
ATOM    104  C   UNL A   1      43.955  35.674  26.684  1.00  0.00     0.200 A 
ATOM    105  F   UNL A   1      44.786  36.676  28.648  1.00  0.00    -0.200 F 
ATOM    106  F   UNL A   1      43.366  36.821  26.326  1.00  0.00    -0.200 F 
ENDBRANCH  73  96
ENDBRANCH  47  48
ENDBRANCH  40  42
ENDBRANCH  39  40
ENDBRANCH  38  39
ENDBRANCH  37  38
ENDBRANCH  36  37
ENDBRANCH  35  36
ENDBRANCH  34  35
ENDBRANCH   1  34
TORSDOF 23
ENDMDL
MODEL 3
REMARK VINA RESULT:     -11.3      5.723     11.004
REMARK SMILES CC(=O)Nc1cnc(N2CC=C(c3ccccc3C)CC2)c(C(=O)OCCOCCOCCOCCOC(=O)c2ccc(-c3c4nc(c(-c5c(F)c(F)c(F)c(F)c5F)c5ccc([nH]5)c(-c5c(F)c(F)c(F)c(F)c5F)c5nc(c(-c6c(F)c(F)c(F)c(F)c6F)c6ccc3[nH]6)C=C5)C=C4)cc2)c1
REMARK SMILES IDX 31 1 30 2 29 3 28 4 27 5 26 6 25 7 23 8 24 9 22 10 5 11 6 12
REMARK SMILES IDX 103 13 7 14 8 15 4 16 1 17 2 18 3 19 9 21 10 22 21 23 11 24
REMARK SMILES IDX 20 25 12 26 13 27 14 28 18 29 15 30 17 31 19 32 16 33 32 34
REMARK SMILES IDX 33 35 34 36 35 37 36 38 37 39 38 40 39 41 40 42 41 43 102 44
REMARK SMILES IDX 42 45 101 46 43 47 44 48 45 49 95 50 46 51 100 52 94 53
REMARK SMILES IDX 96 54 47 55 99 56 93 57 92 58 48 60 80 61 60 62 79 63 61 64
REMARK SMILES IDX 64 65 78 66 97 67 62 68 63 69 77 71 98 72 65 73 49 74 50 75
REMARK SMILES IDX 58 76 51 77 52 78 56 79 59 80 53 81 54 82 57 83 55 84 81 85
REMARK SMILES IDX 82 86 90 87 83 88 84 89 88 90 91 91 85 92 86 93 89 94 87 95
REMARK SMILES IDX 66 96 67 97 75 98 68 99 69 100 73 101 76 102 70 103 71 104
REMARK SMILES IDX 74 105 72 106
REMARK H PARENT 4 20 96 59 64 70
REMARK Flexibility Score: inf
ROOT
ATOM      1  O   UNL A   1      32.968  30.520  26.539  1.00  0.00    -0.377 OA
ENDROOT
BRANCH   1   2
ATOM      2  C   UNL A   1      32.412  29.263  26.255  1.00  0.00     0.188 C 
BRANCH   2   3
ATOM      3  C   UNL A   1      32.941  28.012  26.956  1.00  0.00     0.188 C 
BRANCH   3   4
ATOM      4  O   UNL A   1      33.747  26.955  26.463  1.00  0.00    -0.376 OA
BRANCH   4   5
ATOM      5  C   UNL A   1      33.679  26.625  25.085  1.00  0.00     0.202 C 
BRANCH   5   6
ATOM      6  C   UNL A   1      34.680  25.655  24.435  1.00  0.00     0.261 C 
BRANCH   6   7
ATOM      7  O   UNL A   1      34.484  24.327  24.911  1.00  0.00    -0.460 OA
BRANCH   7   8
ATOM      8  C   UNL A   1      34.548  23.370  23.980  1.00  0.00     0.342 C 
ATOM      9  O   UNL A   1      35.277  23.330  22.994  1.00  0.00    -0.246 OA
BRANCH   8  10
ATOM     10  C   UNL A   1      33.820  22.250  24.548  1.00  0.00     0.104 A 
ATOM     11  C   UNL A   1      33.737  19.877  24.931  1.00  0.00     0.060 A 
ATOM     12  C   UNL A   1      32.374  20.075  25.152  1.00  0.00     0.139 A 
ATOM     13  C   UNL A   1      34.463  21.000  24.594  1.00  0.00     0.047 A 
ATOM     14  N   UNL A   1      31.726  21.273  25.079  1.00  0.00    -0.236 NA
ATOM     15  C   UNL A   1      32.441  22.378  24.777  1.00  0.00     0.143 A 
BRANCH  11  16
ATOM     16  N   UNL A   1      34.261  18.572  24.980  1.00  0.00    -0.325 N 
ATOM     17  C   UNL A   1      33.138  17.511  23.014  1.00  0.00     0.114 C 
ATOM     18  C   UNL A   1      33.978  17.445  24.260  1.00  0.00     0.221 C 
ATOM     19  O   UNL A   1      34.493  16.379  24.609  1.00  0.00    -0.275 OA
ATOM     20  H   UNL A   1      34.961  18.447  25.661  1.00  0.00     0.169 HD
ENDBRANCH  11  16
BRANCH  15  21
ATOM     21  N   UNL A   1      31.714  23.545  24.502  1.00  0.00    -0.352 N 
ATOM     22  C   UNL A   1      31.013  23.594  23.228  1.00  0.00     0.146 C 
ATOM     23  C   UNL A   1      31.082  24.123  25.682  1.00  0.00     0.123 C 
ATOM     24  C   UNL A   1      30.006  24.704  23.183  1.00  0.00    -0.002 C 
ATOM     25  C   UNL A   1      30.376  25.442  25.522  1.00  0.00     0.057 C 
ATOM     26  C   UNL A   1      29.745  25.567  24.182  1.00  0.00    -0.041 C 
BRANCH  26  27
ATOM     27  C   UNL A   1      28.967  26.775  23.888  1.00  0.00    -0.020 A 
ATOM     28  C   UNL A   1      27.582  26.769  24.114  1.00  0.00     0.008 A 
ATOM     29  C   UNL A   1      29.574  27.877  23.246  1.00  0.00    -0.044 A 
ATOM     30  C   UNL A   1      26.790  27.815  23.647  1.00  0.00     0.001 A 
ATOM     31  C   UNL A   1      28.761  28.922  22.794  1.00  0.00     0.004 A 
ATOM     32  C   UNL A   1      31.061  27.986  23.032  1.00  0.00     0.045 C 
ATOM     33  C   UNL A   1      27.379  28.879  22.969  1.00  0.00     0.000 A 
ENDBRANCH  26  27
ENDBRANCH  15  21
ENDBRANCH   8  10
ENDBRANCH   7   8
ENDBRANCH   6   7
ENDBRANCH   5   6
ENDBRANCH   4   5
ENDBRANCH   3   4
ENDBRANCH   2   3
ENDBRANCH   1   2
BRANCH   1  34
ATOM     34  C   UNL A   1      33.763  30.586  27.707  1.00  0.00     0.188 C 
BRANCH  34  35
ATOM     35  C   UNL A   1      35.262  30.792  27.599  1.00  0.00     0.188 C 
BRANCH  35  36
ATOM     36  O   UNL A   1      35.573  32.173  27.736  1.00  0.00    -0.376 OA
BRANCH  36  37
ATOM     37  C   UNL A   1      35.542  32.667  29.072  1.00  0.00     0.202 C 
BRANCH  37  38
ATOM     38  C   UNL A   1      34.815  34.013  29.211  1.00  0.00     0.261 C 
BRANCH  38  39
ATOM     39  O   UNL A   1      33.733  33.874  30.159  1.00  0.00    -0.460 OA
BRANCH  39  40
ATOM     40  C   UNL A   1      33.697  34.778  31.181  1.00  0.00     0.338 C 
ATOM     41  O   UNL A   1      33.205  35.892  31.121  1.00  0.00    -0.246 OA
BRANCH  40  42
ATOM     42  C   UNL A   1      34.657  34.356  32.254  1.00  0.00     0.060 A 
ATOM     43  C   UNL A   1      35.851  35.074  32.469  1.00  0.00     0.016 A 
ATOM     44  C   UNL A   1      34.555  33.066  32.746  1.00  0.00     0.016 A 
ATOM     45  C   UNL A   1      36.997  34.434  32.996  1.00  0.00     0.010 A 
ATOM     46  C   UNL A   1      35.706  32.433  33.175  1.00  0.00     0.010 A 
ATOM     47  C   UNL A   1      36.963  33.069  33.265  1.00  0.00    -0.014 A 
BRANCH  47  48
ATOM     48  C   UNL A   1      38.142  32.158  33.463  1.00  0.00     0.031 A 
ATOM     49  C   UNL A   1      38.215  30.916  32.584  1.00  0.00     0.074 A 
ATOM     50  C   UNL A   1      39.256  32.683  34.059  1.00  0.00     0.049 A 
ATOM     51  N   UNL A   1      39.235  30.142  32.414  1.00  0.00    -0.248 NA
ATOM     52  C   UNL A   1      37.075  30.450  31.784  1.00  0.00     0.031 C 
ATOM     53  C   UNL A   1      40.644  32.607  33.597  1.00  0.00     0.029 A 
ATOM     54  N   UNL A   1      39.391  33.619  35.083  1.00  0.00    -0.354 N 
ATOM     55  C   UNL A   1      39.006  29.304  31.313  1.00  0.00     0.074 A 
ATOM     56  C   UNL A   1      37.617  29.510  31.003  1.00  0.00     0.031 C 
ATOM     57  C   UNL A   1      41.498  33.293  34.354  1.00  0.00     0.029 A 
ATOM     58  C   UNL A   1      40.747  33.701  35.482  1.00  0.00     0.049 A 
ATOM     59  H   UNL A   1      38.654  34.144  35.469  1.00  0.00     0.167 HD
ATOM     60  C   UNL A   1      40.054  28.626  30.730  1.00  0.00     0.037 A 
ATOM     61  C   UNL A   1      41.131  33.372  36.739  1.00  0.00     0.037 A 
ATOM     62  C   UNL A   1      41.270  28.762  31.561  1.00  0.00     0.049 A 
ATOM     63  C   UNL A   1      41.754  31.972  36.728  1.00  0.00     0.074 A 
ATOM     64  C   UNL A   1      42.578  29.125  31.313  1.00  0.00     0.029 A 
ATOM     65  N   UNL A   1      41.184  28.665  32.955  1.00  0.00    -0.354 N 
ATOM     66  N   UNL A   1      41.491  31.069  35.798  1.00  0.00    -0.248 NA
ATOM     67  C   UNL A   1      42.881  31.563  37.570  1.00  0.00     0.031 C 
ATOM     68  C   UNL A   1      43.179  29.504  32.546  1.00  0.00     0.029 A 
ATOM     69  C   UNL A   1      42.302  29.187  33.572  1.00  0.00     0.049 A 
ATOM     70  H   UNL A   1      40.420  28.273  33.436  1.00  0.00     0.167 HD
ATOM     71  C   UNL A   1      42.403  30.049  35.867  1.00  0.00     0.074 A 
ATOM     72  C   UNL A   1      43.232  30.388  37.012  1.00  0.00     0.031 C 
ATOM     73  C   UNL A   1      42.523  28.999  34.996  1.00  0.00     0.037 A 
BRANCH  60  74
ATOM     74  C   UNL A   1      40.103  27.993  29.302  1.00  0.00     0.064 A 
ATOM     75  C   UNL A   1      39.571  26.696  29.057  1.00  0.00     0.173 A 
ATOM     76  C   UNL A   1      40.733  28.540  28.159  1.00  0.00     0.173 A 
ATOM     77  F   UNL A   1      38.843  26.055  29.981  1.00  0.00    -0.203 F 
ATOM     78  C   UNL A   1      39.729  25.997  27.843  1.00  0.00     0.198 A 
ATOM     79  C   UNL A   1      40.834  27.867  26.923  1.00  0.00     0.198 A 
ATOM     80  F   UNL A   1      41.303  29.745  28.170  1.00  0.00    -0.203 F 
ATOM     81  F   UNL A   1      39.258  24.747  27.724  1.00  0.00    -0.200 F 
ATOM     82  C   UNL A   1      40.357  26.586  26.772  1.00  0.00     0.200 A 
ATOM     83  F   UNL A   1      41.417  28.478  25.879  1.00  0.00    -0.200 F 
ATOM     84  F   UNL A   1      40.493  25.935  25.607  1.00  0.00    -0.200 F 
ENDBRANCH  60  74
BRANCH  61  85
ATOM     85  C   UNL A   1      40.349  34.272  37.658  1.00  0.00     0.064 A 
ATOM     86  C   UNL A   1      39.503  33.509  38.524  1.00  0.00     0.173 A 
ATOM     87  C   UNL A   1      41.014  35.362  38.253  1.00  0.00     0.173 A 
ATOM     88  F   UNL A   1      38.840  32.451  38.028  1.00  0.00    -0.203 F 
ATOM     89  C   UNL A   1      39.609  33.606  39.917  1.00  0.00     0.198 A 
ATOM     90  C   UNL A   1      41.086  35.473  39.654  1.00  0.00     0.198 A 
ATOM     91  F   UNL A   1      41.835  36.123  37.513  1.00  0.00    -0.203 F 
ATOM     92  F   UNL A   1      39.053  32.669  40.700  1.00  0.00    -0.200 F 
ATOM     93  C   UNL A   1      40.446  34.553  40.477  1.00  0.00     0.200 A 
ATOM     94  F   UNL A   1      41.933  36.354  40.209  1.00  0.00    -0.200 F 
ATOM     95  F   UNL A   1      40.729  34.506  41.788  1.00  0.00    -0.200 F 
ENDBRANCH  61  85
BRANCH  73  96
ATOM     96  C   UNL A   1      42.931  27.614  35.449  1.00  0.00     0.064 A 
ATOM     97  C   UNL A   1      42.074  26.818  36.226  1.00  0.00     0.173 A 
ATOM     98  C   UNL A   1      44.064  26.950  34.911  1.00  0.00     0.173 A 
ATOM     99  F   UNL A   1      40.908  27.292  36.687  1.00  0.00    -0.203 F 
ATOM    100  C   UNL A   1      42.357  25.482  36.501  1.00  0.00     0.198 A 
ATOM    101  C   UNL A   1      44.309  25.598  35.138  1.00  0.00     0.198 A 
ATOM    102  F   UNL A   1      44.944  27.568  34.114  1.00  0.00    -0.203 F 
ATOM    103  F   UNL A   1      41.522  24.781  37.278  1.00  0.00    -0.200 F 
ATOM    104  C   UNL A   1      43.465  24.869  35.948  1.00  0.00     0.200 A 
ATOM    105  F   UNL A   1      45.351  25.001  34.541  1.00  0.00    -0.200 F 
ATOM    106  F   UNL A   1      43.703  23.572  36.175  1.00  0.00    -0.200 F 
ENDBRANCH  73  96
ENDBRANCH  47  48
ENDBRANCH  40  42
ENDBRANCH  39  40
ENDBRANCH  38  39
ENDBRANCH  37  38
ENDBRANCH  36  37
ENDBRANCH  35  36
ENDBRANCH  34  35
ENDBRANCH   1  34
TORSDOF 23
ENDMDL
