MODEL 1
REMARK VINA RESULT:     -10.0      0.000      0.000
REMARK SMILES O=C(OCCOCCOCCOCCOC(=O)[C@@H](F)[C@H](O)c1cccc(Cl)c1)c1ccc(-c2c3nc(c(-c4c(F)c(F)c(F)c(F)c4F)c4ccc([nH]4)c(-c4c(F)c(F)c(F)c(F)c4F)c4nc(c(-c5c(F)c(F)c(F)c(F)c5F)c5ccc2[nH]5)C=C4)C=C3)cc1
REMARK SMILES IDX 9 1 8 2 7 3 6 4 5 5 4 6 3 7 2 8 1 9 29 10 30 11 91 12 31 13
REMARK SMILES IDX 90 14 32 15 33 16 34 17 84 18 35 19 89 20 83 21 85 22 36 23
REMARK SMILES IDX 88 24 82 25 81 26 37 28 69 29 49 30 68 31 50 32 53 33 67 34
REMARK SMILES IDX 86 35 51 36 52 37 66 39 87 40 54 41 38 42 39 43 47 44 40 45
REMARK SMILES IDX 41 46 45 47 48 48 42 49 43 50 46 51 44 52 70 53 71 54 79 55
REMARK SMILES IDX 72 56 73 57 77 58 80 59 74 60 75 61 78 62 76 63 55 64 56 65
REMARK SMILES IDX 64 66 57 67 58 68 62 69 65 70 59 71 60 72 63 73 61 74 10 75
REMARK SMILES IDX 11 76 12 77 13 78 14 79 15 80 16 81 17 82 18 83 19 84 20 85
REMARK SMILES IDX 22 86 23 87 28 88 24 89 26 90 25 91 27 92 21 93
REMARK H PARENT 85 27 53 38 21 94
REMARK Flexibility Score: inf
ROOT
ATOM      1  O   UNL A   1      34.522  24.924  24.059  1.00  0.00    -0.377 OA
ENDROOT
BRANCH   1   2
ATOM      2  C   UNL A   1      33.513  25.743  24.645  1.00  0.00     0.188 C 
BRANCH   2   3
ATOM      3  C   UNL A   1      33.006  26.861  23.741  1.00  0.00     0.188 C 
BRANCH   3   4
ATOM      4  O   UNL A   1      32.211  27.761  24.496  1.00  0.00    -0.376 OA
BRANCH   4   5
ATOM      5  C   UNL A   1      32.823  28.633  25.426  1.00  0.00     0.202 C 
BRANCH   5   6
ATOM      6  C   UNL A   1      32.295  30.063  25.516  1.00  0.00     0.261 C 
BRANCH   6   7
ATOM      7  O   UNL A   1      32.358  30.708  26.810  1.00  0.00    -0.460 OA
BRANCH   7   8
ATOM      8  C   UNL A   1      33.214  31.639  27.295  1.00  0.00     0.338 C 
ATOM      9  O   UNL A   1      32.916  32.828  27.277  1.00  0.00    -0.246 OA
BRANCH   8  10
ATOM     10  C   UNL A   1      34.513  31.249  27.878  1.00  0.00     0.060 A 
ATOM     11  C   UNL A   1      34.832  29.925  28.123  1.00  0.00     0.016 A 
ATOM     12  C   UNL A   1      35.502  32.212  28.077  1.00  0.00     0.016 A 
ATOM     13  C   UNL A   1      35.946  29.581  28.855  1.00  0.00     0.010 A 
ATOM     14  C   UNL A   1      36.731  31.843  28.637  1.00  0.00     0.010 A 
ATOM     15  C   UNL A   1      36.925  30.533  29.104  1.00  0.00    -0.014 A 
BRANCH  15  16
ATOM     16  C   UNL A   1      38.077  30.133  29.940  1.00  0.00     0.031 A 
ATOM     17  C   UNL A   1      39.148  29.288  29.315  1.00  0.00     0.074 A 
ATOM     18  C   UNL A   1      38.233  30.662  31.172  1.00  0.00     0.049 A 
ATOM     19  N   UNL A   1      40.197  28.740  29.865  1.00  0.00    -0.248 NA
ATOM     20  C   UNL A   1      39.023  29.024  27.871  1.00  0.00     0.031 C 
ATOM     21  C   UNL A   1      37.306  31.603  31.815  1.00  0.00     0.029 A 
ATOM     22  N   UNL A   1      39.247  30.535  32.083  1.00  0.00    -0.354 N 
ATOM     23  C   UNL A   1      40.823  28.030  28.849  1.00  0.00     0.074 A 
ATOM     24  C   UNL A   1      40.036  28.202  27.652  1.00  0.00     0.031 C 
ATOM     25  C   UNL A   1      37.829  32.017  32.977  1.00  0.00     0.029 A 
ATOM     26  C   UNL A   1      39.056  31.276  33.225  1.00  0.00     0.049 A 
ATOM     27  H   UNL A   1      40.038  29.966  31.935  1.00  0.00     0.167 HD
ATOM     28  C   UNL A   1      41.959  27.300  28.922  1.00  0.00     0.037 A 
ATOM     29  C   UNL A   1      39.766  31.303  34.368  1.00  0.00     0.037 A 
ATOM     30  C   UNL A   1      42.731  27.175  30.127  1.00  0.00     0.049 A 
ATOM     31  C   UNL A   1      40.972  30.408  34.451  1.00  0.00     0.074 A 
ATOM     32  C   UNL A   1      43.847  26.398  30.369  1.00  0.00     0.029 A 
ATOM     33  N   UNL A   1      42.463  27.875  31.298  1.00  0.00    -0.354 N 
ATOM     34  N   UNL A   1      41.494  29.637  33.525  1.00  0.00    -0.248 NA
ATOM     35  C   UNL A   1      41.672  30.364  35.738  1.00  0.00     0.031 C 
ATOM     36  C   UNL A   1      44.233  26.600  31.699  1.00  0.00     0.029 A 
ATOM     37  C   UNL A   1      43.390  27.543  32.269  1.00  0.00     0.049 A 
ATOM     38  H   UNL A   1      41.724  28.513  31.418  1.00  0.00     0.167 HD
ATOM     39  C   UNL A   1      42.587  29.021  34.114  1.00  0.00     0.074 A 
ATOM     40  C   UNL A   1      42.674  29.541  35.466  1.00  0.00     0.031 C 
ATOM     41  C   UNL A   1      43.435  28.096  33.600  1.00  0.00     0.037 A 
BRANCH  28  42
ATOM     42  C   UNL A   1      42.371  26.547  27.692  1.00  0.00     0.064 A 
ATOM     43  C   UNL A   1      41.864  25.274  27.391  1.00  0.00     0.173 A 
ATOM     44  C   UNL A   1      43.320  27.097  26.817  1.00  0.00     0.173 A 
ATOM     45  F   UNL A   1      40.981  24.687  28.214  1.00  0.00    -0.203 F 
ATOM     46  C   UNL A   1      42.311  24.569  26.275  1.00  0.00     0.198 A 
ATOM     47  C   UNL A   1      43.745  26.402  25.687  1.00  0.00     0.198 A 
ATOM     48  F   UNL A   1      43.848  28.305  27.064  1.00  0.00    -0.203 F 
ATOM     49  F   UNL A   1      41.859  23.328  26.042  1.00  0.00    -0.200 F 
ATOM     50  C   UNL A   1      43.247  25.136  25.422  1.00  0.00     0.200 A 
ATOM     51  F   UNL A   1      44.649  26.951  24.864  1.00  0.00    -0.200 F 
ATOM     52  F   UNL A   1      43.681  24.454  24.353  1.00  0.00    -0.200 F 
ENDBRANCH  28  42
BRANCH  29  53
ATOM     53  C   UNL A   1      39.308  32.111  35.533  1.00  0.00     0.064 A 
ATOM     54  C   UNL A   1      39.742  33.429  35.731  1.00  0.00     0.173 A 
ATOM     55  C   UNL A   1      38.449  31.564  36.503  1.00  0.00     0.173 A 
ATOM     56  F   UNL A   1      40.577  33.999  34.849  1.00  0.00    -0.203 F 
ATOM     57  C   UNL A   1      39.362  34.154  36.860  1.00  0.00     0.198 A 
ATOM     58  C   UNL A   1      38.037  32.303  37.610  1.00  0.00     0.198 A 
ATOM     59  F   UNL A   1      37.999  30.307  36.372  1.00  0.00    -0.203 F 
ATOM     60  F   UNL A   1      39.845  35.389  37.055  1.00  0.00    -0.200 F 
ATOM     61  C   UNL A   1      38.505  33.593  37.796  1.00  0.00     0.200 A 
ATOM     62  F   UNL A   1      37.192  31.761  38.497  1.00  0.00    -0.200 F 
ATOM     63  F   UNL A   1      38.143  34.290  38.881  1.00  0.00    -0.200 F 
ENDBRANCH  29  53
BRANCH  41  64
ATOM     64  C   UNL A   1      44.536  27.628  34.501  1.00  0.00     0.064 A 
ATOM     65  C   UNL A   1      45.766  28.298  34.566  1.00  0.00     0.173 A 
ATOM     66  C   UNL A   1      44.346  26.506  35.321  1.00  0.00     0.173 A 
ATOM     67  F   UNL A   1      45.998  29.364  33.785  1.00  0.00    -0.203 F 
ATOM     68  C   UNL A   1      46.783  27.838  35.396  1.00  0.00     0.198 A 
ATOM     69  C   UNL A   1      45.352  26.072  36.176  1.00  0.00     0.198 A 
ATOM     70  F   UNL A   1      43.183  25.838  35.297  1.00  0.00    -0.203 F 
ATOM     71  F   UNL A   1      47.973  28.454  35.397  1.00  0.00    -0.200 F 
ATOM     72  C   UNL A   1      46.573  26.731  36.205  1.00  0.00     0.200 A 
ATOM     73  F   UNL A   1      45.143  25.012  36.969  1.00  0.00    -0.200 F 
ATOM     74  F   UNL A   1      47.552  26.293  37.007  1.00  0.00    -0.200 F 
ENDBRANCH  41  64
ENDBRANCH  15  16
ENDBRANCH   8  10
ENDBRANCH   7   8
ENDBRANCH   6   7
ENDBRANCH   5   6
ENDBRANCH   4   5
ENDBRANCH   3   4
ENDBRANCH   2   3
ENDBRANCH   1   2
BRANCH   1  75
ATOM     75  C   UNL A   1      34.328  23.511  24.062  1.00  0.00     0.188 C 
BRANCH  75  76
ATOM     76  C   UNL A   1      35.566  22.594  24.210  1.00  0.00     0.188 C 
BRANCH  76  77
ATOM     77  O   UNL A   1      36.658  23.209  24.878  1.00  0.00    -0.376 OA
BRANCH  77  78
ATOM     78  C   UNL A   1      37.397  22.405  25.791  1.00  0.00     0.202 C 
BRANCH  78  79
ATOM     79  C   UNL A   1      38.421  21.377  25.256  1.00  0.00     0.261 C 
BRANCH  79  80
ATOM     80  O   UNL A   1      39.575  21.173  26.079  1.00  0.00    -0.461 OA
BRANCH  80  81
ATOM     81  C   UNL A   1      40.152  19.948  26.082  1.00  0.00     0.343 C 
ATOM     82  O   UNL A   1      39.590  18.922  25.692  1.00  0.00    -0.249 OA
BRANCH  81  83
ATOM     83  C   UNL A   1      41.624  20.002  26.431  1.00  0.00     0.308 C 
ATOM     84  F   UNL A   1      41.917  19.691  27.728  1.00  0.00    -0.232 F 
BRANCH  83  85
ATOM     85  C   UNL A   1      42.429  19.090  25.508  1.00  0.00     0.190 C 
BRANCH  85  86
ATOM     86  C   UNL A   1      43.820  19.658  25.264  1.00  0.00    -0.015 A 
ATOM     87  C   UNL A   1      44.800  18.976  24.530  1.00  0.00     0.006 A 
ATOM     88  C   UNL A   1      44.143  20.918  25.804  1.00  0.00     0.027 A 
ATOM     89  C   UNL A   1      46.049  19.562  24.296  1.00  0.00     0.002 A 
ATOM     90  C   UNL A   1      45.395  21.488  25.583  1.00  0.00     0.041 A 
ATOM     91  C   UNL A   1      46.345  20.821  24.816  1.00  0.00     0.020 A 
ATOM     92  Cl  UNL A   1      45.763  23.025  26.263  1.00  0.00    -0.084 Cl
ENDBRANCH  85  86
BRANCH  85  93
ATOM     93  O   UNL A   1      42.479  17.767  26.050  1.00  0.00    -0.385 OA
ATOM     94  H   UNL A   1      43.205  17.706  26.691  1.00  0.00     0.211 HD
ENDBRANCH  85  93
ENDBRANCH  83  85
ENDBRANCH  81  83
ENDBRANCH  80  81
ENDBRANCH  79  80
ENDBRANCH  78  79
ENDBRANCH  77  78
ENDBRANCH  76  77
ENDBRANCH  75  76
ENDBRANCH   1  75
TORSDOF 23
ENDMDL
MODEL 2
REMARK VINA RESULT:      -9.7      4.683     10.739
REMARK SMILES O=C(OCCOCCOCCOCCOC(=O)[C@@H](F)[C@H](O)c1cccc(Cl)c1)c1ccc(-c2c3nc(c(-c4c(F)c(F)c(F)c(F)c4F)c4ccc([nH]4)c(-c4c(F)c(F)c(F)c(F)c4F)c4nc(c(-c5c(F)c(F)c(F)c(F)c5F)c5ccc2[nH]5)C=C4)C=C3)cc1
REMARK SMILES IDX 9 1 8 2 7 3 6 4 5 5 4 6 3 7 2 8 1 9 29 10 30 11 91 12 31 13
REMARK SMILES IDX 90 14 32 15 33 16 34 17 84 18 35 19 89 20 83 21 85 22 36 23
REMARK SMILES IDX 88 24 82 25 81 26 37 28 69 29 49 30 68 31 50 32 53 33 67 34
REMARK SMILES IDX 86 35 51 36 52 37 66 39 87 40 54 41 38 42 39 43 47 44 40 45
REMARK SMILES IDX 41 46 45 47 48 48 42 49 43 50 46 51 44 52 70 53 71 54 79 55
REMARK SMILES IDX 72 56 73 57 77 58 80 59 74 60 75 61 78 62 76 63 55 64 56 65
REMARK SMILES IDX 64 66 57 67 58 68 62 69 65 70 59 71 60 72 63 73 61 74 10 75
REMARK SMILES IDX 11 76 12 77 13 78 14 79 15 80 16 81 17 82 18 83 19 84 20 85
REMARK SMILES IDX 22 86 23 87 28 88 24 89 26 90 25 91 27 92 21 93
REMARK H PARENT 85 27 53 38 21 94
REMARK Flexibility Score: inf
ROOT
ATOM      1  O   UNL A   1      32.783  22.587  25.127  1.00  0.00    -0.377 OA
ENDROOT
BRANCH   1   2
ATOM      2  C   UNL A   1      33.991  22.972  25.779  1.00  0.00     0.188 C 
BRANCH   2   3
ATOM      3  C   UNL A   1      34.678  21.847  26.545  1.00  0.00     0.188 C 
BRANCH   3   4
ATOM      4  O   UNL A   1      34.667  20.662  25.765  1.00  0.00    -0.376 OA
BRANCH   4   5
ATOM      5  C   UNL A   1      35.582  20.512  24.698  1.00  0.00     0.202 C 
BRANCH   5   6
ATOM      6  C   UNL A   1      37.047  20.256  25.045  1.00  0.00     0.261 C 
BRANCH   6   7
ATOM      7  O   UNL A   1      37.827  21.391  25.489  1.00  0.00    -0.460 OA
BRANCH   7   8
ATOM      8  C   UNL A   1      39.056  21.456  26.054  1.00  0.00     0.338 C 
ATOM      9  O   UNL A   1      39.751  20.450  26.147  1.00  0.00    -0.246 OA
BRANCH   8  10
ATOM     10  C   UNL A   1      39.601  22.735  26.549  1.00  0.00     0.060 A 
ATOM     11  C   UNL A   1      39.090  23.952  26.136  1.00  0.00     0.016 A 
ATOM     12  C   UNL A   1      40.570  22.734  27.552  1.00  0.00     0.016 A 
ATOM     13  C   UNL A   1      39.729  25.135  26.431  1.00  0.00     0.010 A 
ATOM     14  C   UNL A   1      41.093  23.949  28.017  1.00  0.00     0.010 A 
ATOM     15  C   UNL A   1      40.728  25.153  27.394  1.00  0.00    -0.014 A 
BRANCH  15  16
ATOM     16  C   UNL A   1      41.424  26.434  27.639  1.00  0.00     0.031 A 
ATOM     17  C   UNL A   1      40.730  27.472  28.472  1.00  0.00     0.074 A 
ATOM     18  C   UNL A   1      42.712  26.584  27.266  1.00  0.00     0.049 A 
ATOM     19  N   UNL A   1      41.095  28.695  28.745  1.00  0.00    -0.248 NA
ATOM     20  C   UNL A   1      39.449  27.079  29.085  1.00  0.00     0.031 C 
ATOM     21  C   UNL A   1      43.516  25.574  26.565  1.00  0.00     0.029 A 
ATOM     22  N   UNL A   1      43.593  27.614  27.467  1.00  0.00    -0.354 N 
ATOM     23  C   UNL A   1      40.068  29.228  29.514  1.00  0.00     0.074 A 
ATOM     24  C   UNL A   1      39.059  28.205  29.657  1.00  0.00     0.031 C 
ATOM     25  C   UNL A   1      44.780  26.006  26.461  1.00  0.00     0.029 A 
ATOM     26  C   UNL A   1      44.848  27.370  26.963  1.00  0.00     0.049 A 
ATOM     27  H   UNL A   1      43.350  28.450  27.928  1.00  0.00     0.167 HD
ATOM     28  C   UNL A   1      39.987  30.467  30.049  1.00  0.00     0.037 A 
ATOM     29  C   UNL A   1      45.915  28.184  26.866  1.00  0.00     0.037 A 
ATOM     30  C   UNL A   1      41.025  31.448  29.908  1.00  0.00     0.049 A 
ATOM     31  C   UNL A   1      45.761  29.587  27.387  1.00  0.00     0.074 A 
ATOM     32  C   UNL A   1      41.038  32.767  30.317  1.00  0.00     0.029 A 
ATOM     33  N   UNL A   1      42.258  31.197  29.315  1.00  0.00    -0.354 N 
ATOM     34  N   UNL A   1      44.738  30.130  28.006  1.00  0.00    -0.248 NA
ATOM     35  C   UNL A   1      46.892  30.496  27.176  1.00  0.00     0.031 C 
ATOM     36  C   UNL A   1      42.265  33.325  29.939  1.00  0.00     0.029 A 
ATOM     37  C   UNL A   1      43.037  32.339  29.343  1.00  0.00     0.049 A 
ATOM     38  H   UNL A   1      42.535  30.333  28.934  1.00  0.00     0.167 HD
ATOM     39  C   UNL A   1      45.103  31.442  28.265  1.00  0.00     0.074 A 
ATOM     40  C   UNL A   1      46.457  31.598  27.769  1.00  0.00     0.031 C 
ATOM     41  C   UNL A   1      44.385  32.438  28.840  1.00  0.00     0.037 A 
BRANCH  28  42
ATOM     42  C   UNL A   1      38.716  30.824  30.762  1.00  0.00     0.064 A 
ATOM     43  C   UNL A   1      37.571  31.254  30.076  1.00  0.00     0.173 A 
ATOM     44  C   UNL A   1      38.658  30.768  32.163  1.00  0.00     0.173 A 
ATOM     45  F   UNL A   1      37.585  31.361  28.738  1.00  0.00    -0.203 F 
ATOM     46  C   UNL A   1      36.424  31.641  30.766  1.00  0.00     0.198 A 
ATOM     47  C   UNL A   1      37.500  31.129  32.849  1.00  0.00     0.198 A 
ATOM     48  F   UNL A   1      39.728  30.376  32.870  1.00  0.00    -0.203 F 
ATOM     49  F   UNL A   1      35.362  32.108  30.093  1.00  0.00    -0.200 F 
ATOM     50  C   UNL A   1      36.388  31.573  32.151  1.00  0.00     0.200 A 
ATOM     51  F   UNL A   1      37.468  31.062  34.187  1.00  0.00    -0.200 F 
ATOM     52  F   UNL A   1      35.286  31.951  32.814  1.00  0.00    -0.200 F 
ENDBRANCH  28  42
BRANCH  29  53
ATOM     53  C   UNL A   1      47.157  27.737  26.175  1.00  0.00     0.064 A 
ATOM     54  C   UNL A   1      47.274  27.765  24.779  1.00  0.00     0.173 A 
ATOM     55  C   UNL A   1      48.249  27.230  26.902  1.00  0.00     0.173 A 
ATOM     56  F   UNL A   1      46.259  28.220  24.030  1.00  0.00    -0.203 F 
ATOM     57  C   UNL A   1      48.415  27.280  24.138  1.00  0.00     0.198 A 
ATOM     58  C   UNL A   1      49.405  26.784  26.264  1.00  0.00     0.198 A 
ATOM     59  F   UNL A   1      48.199  27.174  28.242  1.00  0.00    -0.203 F 
ATOM     60  F   UNL A   1      48.472  27.260  22.800  1.00  0.00    -0.200 F 
ATOM     61  C   UNL A   1      49.481  26.795  24.881  1.00  0.00     0.200 A 
ATOM     62  F   UNL A   1      50.438  26.337  26.990  1.00  0.00    -0.200 F 
ATOM     63  F   UNL A   1      50.575  26.328  24.265  1.00  0.00    -0.200 F 
ENDBRANCH  29  53
BRANCH  41  64
ATOM     64  C   UNL A   1      45.076  33.760  28.986  1.00  0.00     0.064 A 
ATOM     65  C   UNL A   1      45.849  34.062  30.115  1.00  0.00     0.173 A 
ATOM     66  C   UNL A   1      44.975  34.722  27.971  1.00  0.00     0.173 A 
ATOM     67  F   UNL A   1      45.958  33.178  31.118  1.00  0.00    -0.203 F 
ATOM     68  C   UNL A   1      46.469  35.300  30.240  1.00  0.00     0.198 A 
ATOM     69  C   UNL A   1      45.627  35.945  28.084  1.00  0.00     0.198 A 
ATOM     70  F   UNL A   1      44.252  34.473  26.870  1.00  0.00    -0.203 F 
ATOM     71  F   UNL A   1      47.152  35.595  31.355  1.00  0.00    -0.200 F 
ATOM     72  C   UNL A   1      46.364  36.237  29.222  1.00  0.00     0.200 A 
ATOM     73  F   UNL A   1      45.537  36.843  27.093  1.00  0.00    -0.200 F 
ATOM     74  F   UNL A   1      46.966  37.428  29.343  1.00  0.00    -0.200 F 
ENDBRANCH  41  64
ENDBRANCH  15  16
ENDBRANCH   8  10
ENDBRANCH   7   8
ENDBRANCH   6   7
ENDBRANCH   5   6
ENDBRANCH   4   5
ENDBRANCH   3   4
ENDBRANCH   2   3
ENDBRANCH   1   2
BRANCH   1  75
ATOM     75  C   UNL A   1      32.590  22.995  23.774  1.00  0.00     0.188 C 
BRANCH  75  76
ATOM     76  C   UNL A   1      33.812  23.016  22.825  1.00  0.00     0.188 C 
BRANCH  76  77
ATOM     77  O   UNL A   1      33.978  24.245  22.132  1.00  0.00    -0.376 OA
BRANCH  77  78
ATOM     78  C   UNL A   1      32.858  25.121  22.086  1.00  0.00     0.202 C 
BRANCH  78  79
ATOM     79  C   UNL A   1      33.077  26.651  22.128  1.00  0.00     0.261 C 
BRANCH  79  80
ATOM     80  O   UNL A   1      33.450  27.185  23.404  1.00  0.00    -0.461 OA
BRANCH  80  81
ATOM     81  C   UNL A   1      32.527  27.179  24.395  1.00  0.00     0.343 C 
ATOM     82  O   UNL A   1      31.372  27.588  24.262  1.00  0.00    -0.249 OA
BRANCH  81  83
ATOM     83  C   UNL A   1      33.005  26.436  25.625  1.00  0.00     0.308 C 
ATOM     84  F   UNL A   1      34.361  26.325  25.736  1.00  0.00    -0.232 F 
BRANCH  83  85
ATOM     85  C   UNL A   1      32.455  27.087  26.893  1.00  0.00     0.190 C 
BRANCH  85  86
ATOM     86  C   UNL A   1      32.986  28.505  27.047  1.00  0.00    -0.015 A 
ATOM     87  C   UNL A   1      34.330  28.787  27.326  1.00  0.00     0.006 A 
ATOM     88  C   UNL A   1      32.089  29.583  26.913  1.00  0.00     0.027 A 
ATOM     89  C   UNL A   1      34.776  30.111  27.414  1.00  0.00     0.002 A 
ATOM     90  C   UNL A   1      32.536  30.899  27.020  1.00  0.00     0.041 A 
ATOM     91  C   UNL A   1      33.880  31.167  27.254  1.00  0.00     0.020 A 
ATOM     92  Cl  UNL A   1      31.415  32.194  26.860  1.00  0.00    -0.084 Cl
ENDBRANCH  85  86
BRANCH  85  93
ATOM     93  O   UNL A   1      31.025  27.048  26.883  1.00  0.00    -0.385 OA
ATOM     94  H   UNL A   1      30.722  26.186  27.208  1.00  0.00     0.211 HD
ENDBRANCH  85  93
ENDBRANCH  83  85
ENDBRANCH  81  83
ENDBRANCH  80  81
ENDBRANCH  79  80
ENDBRANCH  78  79
ENDBRANCH  77  78
ENDBRANCH  76  77
ENDBRANCH  75  76
ENDBRANCH   1  75
TORSDOF 23
ENDMDL
MODEL 3
REMARK VINA RESULT:      -9.6      4.610     11.765
REMARK SMILES O=C(OCCOCCOCCOCCOC(=O)[C@@H](F)[C@H](O)c1cccc(Cl)c1)c1ccc(-c2c3nc(c(-c4c(F)c(F)c(F)c(F)c4F)c4ccc([nH]4)c(-c4c(F)c(F)c(F)c(F)c4F)c4nc(c(-c5c(F)c(F)c(F)c(F)c5F)c5ccc2[nH]5)C=C4)C=C3)cc1
REMARK SMILES IDX 9 1 8 2 7 3 6 4 5 5 4 6 3 7 2 8 1 9 29 10 30 11 91 12 31 13
REMARK SMILES IDX 90 14 32 15 33 16 34 17 84 18 35 19 89 20 83 21 85 22 36 23
REMARK SMILES IDX 88 24 82 25 81 26 37 28 69 29 49 30 68 31 50 32 53 33 67 34
REMARK SMILES IDX 86 35 51 36 52 37 66 39 87 40 54 41 38 42 39 43 47 44 40 45
REMARK SMILES IDX 41 46 45 47 48 48 42 49 43 50 46 51 44 52 70 53 71 54 79 55
REMARK SMILES IDX 72 56 73 57 77 58 80 59 74 60 75 61 78 62 76 63 55 64 56 65
REMARK SMILES IDX 64 66 57 67 58 68 62 69 65 70 59 71 60 72 63 73 61 74 10 75
REMARK SMILES IDX 11 76 12 77 13 78 14 79 15 80 16 81 17 82 18 83 19 84 20 85
REMARK SMILES IDX 22 86 23 87 28 88 24 89 26 90 25 91 27 92 21 93
REMARK H PARENT 85 27 53 38 21 94
REMARK Flexibility Score: inf
ROOT
ATOM      1  O   UNL A   1      34.026  26.269  24.948  1.00  0.00    -0.377 OA
ENDROOT
BRANCH   1   2
ATOM      2  C   UNL A   1      33.808  24.866  25.080  1.00  0.00     0.188 C 
BRANCH   2   3
ATOM      3  C   UNL A   1      35.083  24.032  25.109  1.00  0.00     0.188 C 
BRANCH   3   4
ATOM      4  O   UNL A   1      34.951  22.928  24.227  1.00  0.00    -0.376 OA
BRANCH   4   5
ATOM      5  C   UNL A   1      35.333  21.635  24.653  1.00  0.00     0.202 C 
BRANCH   5   6
ATOM      6  C   UNL A   1      36.819  21.285  24.623  1.00  0.00     0.261 C 
BRANCH   6   7
ATOM      7  O   UNL A   1      37.554  21.422  25.862  1.00  0.00    -0.460 OA
BRANCH   7   8
ATOM      8  C   UNL A   1      38.885  21.480  26.101  1.00  0.00     0.338 C 
ATOM      9  O   UNL A   1      39.596  20.502  25.900  1.00  0.00    -0.246 OA
BRANCH   8  10
ATOM     10  C   UNL A   1      39.519  22.722  26.584  1.00  0.00     0.060 A 
ATOM     11  C   UNL A   1      39.007  23.969  26.274  1.00  0.00     0.016 A 
ATOM     12  C   UNL A   1      40.587  22.654  27.479  1.00  0.00     0.016 A 
ATOM     13  C   UNL A   1      39.712  25.120  26.544  1.00  0.00     0.010 A 
ATOM     14  C   UNL A   1      41.194  23.833  27.932  1.00  0.00     0.010 A 
ATOM     15  C   UNL A   1      40.805  25.071  27.398  1.00  0.00    -0.014 A 
BRANCH  15  16
ATOM     16  C   UNL A   1      41.564  26.321  27.616  1.00  0.00     0.031 A 
ATOM     17  C   UNL A   1      40.987  27.349  28.546  1.00  0.00     0.074 A 
ATOM     18  C   UNL A   1      42.815  26.446  27.125  1.00  0.00     0.049 A 
ATOM     19  N   UNL A   1      41.416  28.550  28.822  1.00  0.00    -0.248 NA
ATOM     20  C   UNL A   1      39.758  26.972  29.266  1.00  0.00     0.031 C 
ATOM     21  C   UNL A   1      43.514  25.438  26.317  1.00  0.00     0.029 A 
ATOM     22  N   UNL A   1      43.744  27.441  27.274  1.00  0.00    -0.354 N 
ATOM     23  C   UNL A   1      40.486  29.085  29.704  1.00  0.00     0.074 A 
ATOM     24  C   UNL A   1      39.462  28.088  29.910  1.00  0.00     0.031 C 
ATOM     25  C   UNL A   1      44.776  25.835  26.106  1.00  0.00     0.029 A 
ATOM     26  C   UNL A   1      44.937  27.178  26.643  1.00  0.00     0.049 A 
ATOM     27  H   UNL A   1      43.574  28.267  27.784  1.00  0.00     0.167 HD
ATOM     28  C   UNL A   1      40.497  30.306  30.285  1.00  0.00     0.037 A 
ATOM     29  C   UNL A   1      46.016  27.963  26.471  1.00  0.00     0.037 A 
ATOM     30  C   UNL A   1      41.550  31.260  30.077  1.00  0.00     0.049 A 
ATOM     31  C   UNL A   1      45.959  29.350  27.051  1.00  0.00     0.074 A 
ATOM     32  C   UNL A   1      41.645  32.562  30.526  1.00  0.00     0.029 A 
ATOM     33  N   UNL A   1      42.711  30.993  29.360  1.00  0.00    -0.354 N 
ATOM     34  N   UNL A   1      45.019  29.901  27.783  1.00  0.00    -0.248 NA
ATOM     35  C   UNL A   1      47.094  30.232  26.762  1.00  0.00     0.031 C 
ATOM     36  C   UNL A   1      42.848  33.097  30.050  1.00  0.00     0.029 A 
ATOM     37  C   UNL A   1      43.527  32.110  29.350  1.00  0.00     0.049 A 
ATOM     38  H   UNL A   1      42.922  30.136  28.925  1.00  0.00     0.167 HD
ATOM     39  C   UNL A   1      45.450  31.191  28.048  1.00  0.00     0.074 A 
ATOM     40  C   UNL A   1      46.755  31.325  27.430  1.00  0.00     0.031 C 
ATOM     41  C   UNL A   1      44.823  32.187  28.723  1.00  0.00     0.037 A 
BRANCH  28  42
ATOM     42  C   UNL A   1      39.313  30.675  31.129  1.00  0.00     0.064 A 
ATOM     43  C   UNL A   1      39.299  30.481  32.519  1.00  0.00     0.173 A 
ATOM     44  C   UNL A   1      38.158  31.198  30.529  1.00  0.00     0.173 A 
ATOM     45  F   UNL A   1      40.364  29.949  33.138  1.00  0.00    -0.203 F 
ATOM     46  C   UNL A   1      38.163  30.772  33.271  1.00  0.00     0.198 A 
ATOM     47  C   UNL A   1      37.034  31.515  31.288  1.00  0.00     0.198 A 
ATOM     48  F   UNL A   1      38.114  31.391  29.203  1.00  0.00    -0.203 F 
ATOM     49  F   UNL A   1      38.150  30.521  34.589  1.00  0.00    -0.200 F 
ATOM     50  C   UNL A   1      37.034  31.294  32.656  1.00  0.00     0.200 A 
ATOM     51  F   UNL A   1      35.945  32.019  30.691  1.00  0.00    -0.200 F 
ATOM     52  F   UNL A   1      35.940  31.568  33.381  1.00  0.00    -0.200 F 
ENDBRANCH  28  42
BRANCH  29  53
ATOM     53  C   UNL A   1      47.171  27.504  25.649  1.00  0.00     0.064 A 
ATOM     54  C   UNL A   1      48.289  26.889  26.230  1.00  0.00     0.173 A 
ATOM     55  C   UNL A   1      47.198  27.708  24.258  1.00  0.00     0.173 A 
ATOM     56  F   UNL A   1      48.329  26.685  27.555  1.00  0.00    -0.203 F 
ATOM     57  C   UNL A   1      49.395  26.525  25.461  1.00  0.00     0.198 A 
ATOM     58  C   UNL A   1      48.286  27.306  23.485  1.00  0.00     0.198 A 
ATOM     59  F   UNL A   1      46.160  28.292  23.642  1.00  0.00    -0.203 F 
ATOM     60  F   UNL A   1      50.476  25.999  26.053  1.00  0.00    -0.200 F 
ATOM     61  C   UNL A   1      49.390  26.728  24.089  1.00  0.00     0.200 A 
ATOM     62  F   UNL A   1      48.264  27.486  22.158  1.00  0.00    -0.200 F 
ATOM     63  F   UNL A   1      50.454  26.380  23.352  1.00  0.00    -0.200 F 
ENDBRANCH  29  53
BRANCH  41  64
ATOM     64  C   UNL A   1      45.569  33.481  28.845  1.00  0.00     0.064 A 
ATOM     65  C   UNL A   1      45.397  34.516  27.915  1.00  0.00     0.173 A 
ATOM     66  C   UNL A   1      46.450  33.688  29.916  1.00  0.00     0.173 A 
ATOM     67  F   UNL A   1      44.578  34.353  26.865  1.00  0.00    -0.203 F 
ATOM     68  C   UNL A   1      46.110  35.703  28.035  1.00  0.00     0.198 A 
ATOM     69  C   UNL A   1      47.132  34.891  30.052  1.00  0.00     0.198 A 
ATOM     70  F   UNL A   1      46.640  32.728  30.833  1.00  0.00    -0.203 F 
ATOM     71  F   UNL A   1      45.981  36.657  27.101  1.00  0.00    -0.200 F 
ATOM     72  C   UNL A   1      46.971  35.893  29.106  1.00  0.00     0.200 A 
ATOM     73  F   UNL A   1      47.953  35.079  31.095  1.00  0.00    -0.200 F 
ATOM     74  F   UNL A   1      47.655  37.040  29.221  1.00  0.00    -0.200 F 
ENDBRANCH  41  64
ENDBRANCH  15  16
ENDBRANCH   8  10
ENDBRANCH   7   8
ENDBRANCH   6   7
ENDBRANCH   5   6
ENDBRANCH   4   5
ENDBRANCH   3   4
ENDBRANCH   2   3
ENDBRANCH   1   2
BRANCH   1  75
ATOM     75  C   UNL A   1      33.568  27.122  25.995  1.00  0.00     0.188 C 
BRANCH  75  76
ATOM     76  C   UNL A   1      32.117  27.658  25.933  1.00  0.00     0.188 C 
BRANCH  76  77
ATOM     77  O   UNL A   1      31.861  28.724  26.836  1.00  0.00    -0.376 OA
BRANCH  77  78
ATOM     78  C   UNL A   1      32.968  29.534  27.215  1.00  0.00     0.202 C 
BRANCH  78  79
ATOM     79  C   UNL A   1      32.986  31.034  26.840  1.00  0.00     0.261 C 
BRANCH  79  80
ATOM     80  O   UNL A   1      33.294  31.933  27.912  1.00  0.00    -0.461 OA
BRANCH  80  81
ATOM     81  C   UNL A   1      34.556  32.416  28.002  1.00  0.00     0.343 C 
ATOM     82  O   UNL A   1      35.558  31.796  27.636  1.00  0.00    -0.249 OA
BRANCH  81  83
ATOM     83  C   UNL A   1      34.590  33.871  28.416  1.00  0.00     0.308 C 
ATOM     84  F   UNL A   1      34.892  34.745  27.411  1.00  0.00    -0.232 F 
BRANCH  83  85
ATOM     85  C   UNL A   1      33.262  34.282  29.047  1.00  0.00     0.190 C 
BRANCH  85  86
ATOM     86  C   UNL A   1      33.487  34.960  30.390  1.00  0.00    -0.015 A 
ATOM     87  C   UNL A   1      32.608  35.918  30.914  1.00  0.00     0.006 A 
ATOM     88  C   UNL A   1      34.631  34.622  31.138  1.00  0.00     0.027 A 
ATOM     89  C   UNL A   1      32.837  36.480  32.175  1.00  0.00     0.002 A 
ATOM     90  C   UNL A   1      34.864  35.199  32.385  1.00  0.00     0.041 A 
ATOM     91  C   UNL A   1      33.962  36.115  32.914  1.00  0.00     0.020 A 
ATOM     92  Cl  UNL A   1      36.275  34.771  33.272  1.00  0.00    -0.084 Cl
ENDBRANCH  85  86
BRANCH  85  93
ATOM     93  O   UNL A   1      32.527  35.113  28.144  1.00  0.00    -0.385 OA
ATOM     94  H   UNL A   1      31.861  34.580  27.681  1.00  0.00     0.211 HD
ENDBRANCH  85  93
ENDBRANCH  83  85
ENDBRANCH  81  83
ENDBRANCH  80  81
ENDBRANCH  79  80
ENDBRANCH  78  79
ENDBRANCH  77  78
ENDBRANCH  76  77
ENDBRANCH  75  76
ENDBRANCH   1  75
TORSDOF 23
ENDMDL
