MODEL 1
REMARK VINA RESULT:      -8.7      0.000      0.000
REMARK SMILES COc1ccc(/C=C2\SC(=S)N=C2OCCOCCOCCOCCOC(=O)c2ccc(-c3c4nc(c(-c5c(F)c(F)c(F)c(F)c5F)c5ccc([nH]5)c(-c5c(F)c(F)c(F)c(F)c5F)c5nc(c(-c6c(F)c(F)c(F)c(F)c6F)c6ccc3[nH]6)C=C5)C=C4)cc2)c(C(=O)[O-])c1OC
REMARK SMILES IDX 21 1 20 2 19 3 18 4 17 5 16 6 15 7 14 8 13 9 7 10 8 11 9 12
REMARK SMILES IDX 10 13 12 14 11 15 6 16 3 17 4 18 96 19 5 20 92 21 2 22 1 23
REMARK SMILES IDX 97 24 98 25 93 26 94 27 95 28 22 29 23 30 24 31 25 32 26 33
REMARK SMILES IDX 27 34 28 35 29 36 30 37 91 38 31 39 90 40 32 41 33 42 34 43
REMARK SMILES IDX 84 44 35 45 89 46 83 47 85 48 36 49 88 50 82 51 81 52 37 54
REMARK SMILES IDX 69 55 49 56 68 57 50 58 53 59 67 60 86 61 51 62 52 63 66 65
REMARK SMILES IDX 87 66 54 67 38 68 39 69 47 70 40 71 41 72 45 73 48 74 42 75
REMARK SMILES IDX 43 76 46 77 44 78 70 79 71 80 79 81 72 82 73 83 77 84 80 85
REMARK SMILES IDX 74 86 75 87 78 88 76 89 55 90 56 91 64 92 57 93 58 94 62 95
REMARK SMILES IDX 65 96 59 97 60 98 63 99 61 100
REMARK H PARENT 85 53 53 64
REMARK Flexibility Score: inf
ROOT
ATOM      1  C   UNL A   1      42.940  18.464  25.932  1.00  0.00     0.188 C 
ENDROOT
BRANCH   1   2
ATOM      2  O   UNL A   1      43.536  19.401  25.047  1.00  0.00    -0.377 OA
BRANCH   2   3
ATOM      3  C   UNL A   1      44.679  18.922  24.349  1.00  0.00     0.188 C 
BRANCH   3   4
ATOM      4  C   UNL A   1      46.021  19.371  24.915  1.00  0.00     0.188 C 
BRANCH   4   5
ATOM      5  O   UNL A   1      46.268  20.748  25.195  1.00  0.00    -0.376 OA
BRANCH   5   6
ATOM      6  C   UNL A   1      46.261  21.769  24.216  1.00  0.00     0.201 C 
BRANCH   6   7
ATOM      7  C   UNL A   1      45.029  22.650  23.975  1.00  0.00     0.260 C 
BRANCH   7   8
ATOM      8  O   UNL A   1      44.840  23.801  24.805  1.00  0.00    -0.474 OA
BRANCH   8   9
ATOM      9  C   UNL A   1      45.192  24.020  26.077  1.00  0.00     0.229 C 
ATOM     10  C   UNL A   1      47.527  24.988  25.821  1.00  0.00     0.030 C 
ATOM     11  C   UNL A   1      46.471  24.613  26.560  1.00  0.00     0.077 C 
ATOM     12  S   UNL A   1      46.252  24.864  28.264  1.00  0.00    -0.053 SA
ATOM     13  C   UNL A   1      44.576  24.304  28.174  1.00  0.00     0.168 C 
ATOM     14  N   UNL A   1      44.235  23.830  26.935  1.00  0.00    -0.194 NA
ATOM     15  S   UNL A   1      43.513  24.476  29.454  1.00  0.00    -0.050 S 
BRANCH  10  16
ATOM     16  C   UNL A   1      48.685  25.890  26.063  1.00  0.00    -0.011 A 
ATOM     17  C   UNL A   1      50.839  27.660  26.608  1.00  0.00     0.161 A 
ATOM     18  C   UNL A   1      50.485  26.668  27.523  1.00  0.00     0.051 A 
ATOM     19  C   UNL A   1      50.088  27.833  25.439  1.00  0.00     0.170 A 
ATOM     20  C   UNL A   1      49.418  25.805  27.255  1.00  0.00     0.013 A 
ATOM     21  C   UNL A   1      48.978  26.985  25.207  1.00  0.00     0.050 A 
BRANCH  17  22
ATOM     22  O   UNL A   1      51.986  28.375  26.815  1.00  0.00    -0.493 OA
ATOM     23  C   UNL A   1      53.057  27.576  27.318  1.00  0.00     0.278 C 
ENDBRANCH  17  22
BRANCH  19  24
ATOM     24  O   UNL A   1      50.383  28.719  24.430  1.00  0.00    -0.492 OA
ATOM     25  C   UNL A   1      51.692  28.681  23.878  1.00  0.00     0.278 C 
ENDBRANCH  19  24
BRANCH  21  26
ATOM     26  C   UNL A   1      48.071  27.330  24.082  1.00  0.00     0.076 C 
ATOM     27  O   UNL A   1      47.295  28.265  24.018  1.00  0.00    -0.545 OA
ATOM     28  O   UNL A   1      48.313  26.550  23.008  1.00  0.00    -0.545 OA
ENDBRANCH  21  26
ENDBRANCH  10  16
ENDBRANCH   8   9
ENDBRANCH   7   8
ENDBRANCH   6   7
ENDBRANCH   5   6
ENDBRANCH   4   5
ENDBRANCH   3   4
ENDBRANCH   2   3
ENDBRANCH   1   2
BRANCH   1  29
ATOM     29  C   UNL A   1      42.254  19.107  27.152  1.00  0.00     0.188 C 
BRANCH  29  30
ATOM     30  O   UNL A   1      40.893  19.426  26.924  1.00  0.00    -0.376 OA
BRANCH  30  31
ATOM     31  C   UNL A   1      40.552  20.729  26.478  1.00  0.00     0.202 C 
BRANCH  31  32
ATOM     32  C   UNL A   1      40.660  21.924  27.439  1.00  0.00     0.261 C 
BRANCH  32  33
ATOM     33  O   UNL A   1      40.773  23.232  26.855  1.00  0.00    -0.460 OA
BRANCH  33  34
ATOM     34  C   UNL A   1      39.655  23.931  26.573  1.00  0.00     0.338 C 
ATOM     35  O   UNL A   1      38.660  23.536  25.991  1.00  0.00    -0.246 OA
BRANCH  34  36
ATOM     36  C   UNL A   1      39.756  25.210  27.322  1.00  0.00     0.060 A 
ATOM     37  C   UNL A   1      40.195  26.358  26.648  1.00  0.00     0.016 A 
ATOM     38  C   UNL A   1      39.314  25.299  28.648  1.00  0.00     0.016 A 
ATOM     39  C   UNL A   1      40.224  27.589  27.307  1.00  0.00     0.010 A 
ATOM     40  C   UNL A   1      39.366  26.527  29.314  1.00  0.00     0.010 A 
ATOM     41  C   UNL A   1      39.855  27.669  28.657  1.00  0.00    -0.014 A 
BRANCH  41  42
ATOM     42  C   UNL A   1      40.233  28.863  29.449  1.00  0.00     0.031 A 
ATOM     43  C   UNL A   1      41.690  29.037  29.783  1.00  0.00     0.074 A 
ATOM     44  C   UNL A   1      39.332  29.777  29.849  1.00  0.00     0.049 A 
ATOM     45  N   UNL A   1      42.283  29.967  30.485  1.00  0.00    -0.248 NA
ATOM     46  C   UNL A   1      42.603  28.013  29.246  1.00  0.00     0.031 C 
ATOM     47  C   UNL A   1      37.901  29.742  29.557  1.00  0.00     0.029 A 
ATOM     48  N   UNL A   1      39.497  30.916  30.598  1.00  0.00    -0.354 N 
ATOM     49  C   UNL A   1      43.632  29.640  30.473  1.00  0.00     0.074 A 
ATOM     50  C   UNL A   1      43.769  28.410  29.727  1.00  0.00     0.031 C 
ATOM     51  C   UNL A   1      37.315  30.808  30.132  1.00  0.00     0.029 A 
ATOM     52  C   UNL A   1      38.324  31.582  30.856  1.00  0.00     0.049 A 
ATOM     53  H   UNL A   1      40.374  31.226  30.921  1.00  0.00     0.167 HD
ATOM     54  C   UNL A   1      44.668  30.310  31.027  1.00  0.00     0.037 A 
ATOM     55  C   UNL A   1      38.097  32.678  31.607  1.00  0.00     0.037 A 
ATOM     56  C   UNL A   1      44.530  31.525  31.781  1.00  0.00     0.049 A 
ATOM     57  C   UNL A   1      39.259  33.361  32.289  1.00  0.00     0.074 A 
ATOM     58  C   UNL A   1      45.517  32.287  32.380  1.00  0.00     0.029 A 
ATOM     59  N   UNL A   1      43.321  32.150  32.051  1.00  0.00    -0.354 N 
ATOM     60  N   UNL A   1      40.536  33.066  32.248  1.00  0.00    -0.248 NA
ATOM     61  C   UNL A   1      38.945  34.534  33.119  1.00  0.00     0.031 C 
ATOM     62  C   UNL A   1      44.900  33.343  33.057  1.00  0.00     0.029 A 
ATOM     63  C   UNL A   1      43.535  33.274  32.830  1.00  0.00     0.049 A 
ATOM     64  H   UNL A   1      42.442  31.839  31.735  1.00  0.00     0.167 HD
ATOM     65  C   UNL A   1      41.178  34.030  33.015  1.00  0.00     0.074 A 
ATOM     66  C   UNL A   1      40.152  34.928  33.501  1.00  0.00     0.031 C 
ATOM     67  C   UNL A   1      42.499  34.163  33.293  1.00  0.00     0.037 A 
BRANCH  54  68
ATOM     68  C   UNL A   1      46.037  29.720  30.858  1.00  0.00     0.064 A 
ATOM     69  C   UNL A   1      46.821  29.989  29.725  1.00  0.00     0.173 A 
ATOM     70  C   UNL A   1      46.574  28.881  31.845  1.00  0.00     0.173 A 
ATOM     71  F   UNL A   1      46.343  30.767  28.742  1.00  0.00    -0.203 F 
ATOM     72  C   UNL A   1      48.081  29.417  29.576  1.00  0.00     0.198 A 
ATOM     73  C   UNL A   1      47.847  28.335  31.706  1.00  0.00     0.198 A 
ATOM     74  F   UNL A   1      45.864  28.590  32.945  1.00  0.00    -0.203 F 
ATOM     75  F   UNL A   1      48.791  29.644  28.462  1.00  0.00    -0.200 F 
ATOM     76  C   UNL A   1      48.596  28.598  30.570  1.00  0.00     0.200 A 
ATOM     77  F   UNL A   1      48.346  27.551  32.671  1.00  0.00    -0.200 F 
ATOM     78  F   UNL A   1      49.812  28.050  30.426  1.00  0.00    -0.200 F 
ENDBRANCH  54  68
BRANCH  55  79
ATOM     79  C   UNL A   1      36.714  33.203  31.771  1.00  0.00     0.064 A 
ATOM     80  C   UNL A   1      36.108  33.976  30.770  1.00  0.00     0.173 A 
ATOM     81  C   UNL A   1      35.984  32.974  32.946  1.00  0.00     0.173 A 
ATOM     82  F   UNL A   1      36.776  34.248  29.640  1.00  0.00    -0.203 F 
ATOM     83  C   UNL A   1      34.835  34.515  30.946  1.00  0.00     0.198 A 
ATOM     84  C   UNL A   1      34.700  33.489  33.111  1.00  0.00     0.198 A 
ATOM     85  F   UNL A   1      36.519  32.247  33.938  1.00  0.00    -0.203 F 
ATOM     86  F   UNL A   1      34.302  35.292  29.994  1.00  0.00    -0.200 F 
ATOM     87  C   UNL A   1      34.129  34.267  32.114  1.00  0.00     0.200 A 
ATOM     88  F   UNL A   1      34.017  33.239  34.236  1.00  0.00    -0.200 F 
ATOM     89  F   UNL A   1      32.905  34.784  32.282  1.00  0.00    -0.200 F 
ENDBRANCH  55  79
BRANCH  67  90
ATOM     90  C   UNL A   1      42.921  35.344  34.121  1.00  0.00     0.064 A 
ATOM     91  C   UNL A   1      43.245  36.578  33.537  1.00  0.00     0.173 A 
ATOM     92  C   UNL A   1      42.949  35.253  35.521  1.00  0.00     0.173 A 
ATOM     93  F   UNL A   1      43.245  36.714  32.203  1.00  0.00    -0.203 F 
ATOM     94  C   UNL A   1      43.608  37.668  34.325  1.00  0.00     0.198 A 
ATOM     95  C   UNL A   1      43.281  36.353  36.305  1.00  0.00     0.198 A 
ATOM     96  F   UNL A   1      42.638  34.099  36.130  1.00  0.00    -0.203 F 
ATOM     97  F   UNL A   1      43.960  38.823  33.744  1.00  0.00    -0.200 F 
ATOM     98  C   UNL A   1      43.618  37.557  35.708  1.00  0.00     0.200 A 
ATOM     99  F   UNL A   1      43.273  36.249  37.641  1.00  0.00    -0.200 F 
ATOM    100  F   UNL A   1      43.958  38.611  36.463  1.00  0.00    -0.200 F 
ENDBRANCH  67  90
ENDBRANCH  41  42
ENDBRANCH  34  36
ENDBRANCH  33  34
ENDBRANCH  32  33
ENDBRANCH  31  32
ENDBRANCH  30  31
ENDBRANCH  29  30
ENDBRANCH   1  29
TORSDOF 23
ENDMDL
MODEL 2
REMARK VINA RESULT:      -8.5      1.378      7.185
REMARK SMILES COc1ccc(/C=C2\SC(=S)N=C2OCCOCCOCCOCCOC(=O)c2ccc(-c3c4nc(c(-c5c(F)c(F)c(F)c(F)c5F)c5ccc([nH]5)c(-c5c(F)c(F)c(F)c(F)c5F)c5nc(c(-c6c(F)c(F)c(F)c(F)c6F)c6ccc3[nH]6)C=C5)C=C4)cc2)c(C(=O)[O-])c1OC
REMARK SMILES IDX 21 1 20 2 19 3 18 4 17 5 16 6 15 7 14 8 13 9 7 10 8 11 9 12
REMARK SMILES IDX 10 13 12 14 11 15 6 16 3 17 4 18 96 19 5 20 92 21 2 22 1 23
REMARK SMILES IDX 97 24 98 25 93 26 94 27 95 28 22 29 23 30 24 31 25 32 26 33
REMARK SMILES IDX 27 34 28 35 29 36 30 37 91 38 31 39 90 40 32 41 33 42 34 43
REMARK SMILES IDX 84 44 35 45 89 46 83 47 85 48 36 49 88 50 82 51 81 52 37 54
REMARK SMILES IDX 69 55 49 56 68 57 50 58 53 59 67 60 86 61 51 62 52 63 66 65
REMARK SMILES IDX 87 66 54 67 38 68 39 69 47 70 40 71 41 72 45 73 48 74 42 75
REMARK SMILES IDX 43 76 46 77 44 78 70 79 71 80 79 81 72 82 73 83 77 84 80 85
REMARK SMILES IDX 74 86 75 87 78 88 76 89 55 90 56 91 64 92 57 93 58 94 62 95
REMARK SMILES IDX 65 96 59 97 60 98 63 99 61 100
REMARK H PARENT 85 53 53 64
REMARK Flexibility Score: inf
ROOT
ATOM      1  C   UNL A   1      43.052  18.590  25.786  1.00  0.00     0.188 C 
ENDROOT
BRANCH   1   2
ATOM      2  O   UNL A   1      43.589  19.556  24.895  1.00  0.00    -0.377 OA
BRANCH   2   3
ATOM      3  C   UNL A   1      44.845  19.212  24.324  1.00  0.00     0.188 C 
BRANCH   3   4
ATOM      4  C   UNL A   1      46.007  20.117  24.716  1.00  0.00     0.188 C 
BRANCH   4   5
ATOM      5  O   UNL A   1      45.768  21.431  25.215  1.00  0.00    -0.376 OA
BRANCH   5   6
ATOM      6  C   UNL A   1      45.252  22.493  24.435  1.00  0.00     0.201 C 
BRANCH   6   7
ATOM      7  C   UNL A   1      43.809  22.987  24.594  1.00  0.00     0.260 C 
BRANCH   7   8
ATOM      8  O   UNL A   1      43.495  23.829  25.708  1.00  0.00    -0.474 OA
BRANCH   8   9
ATOM      9  C   UNL A   1      44.184  24.081  26.826  1.00  0.00     0.229 C 
ATOM     10  C   UNL A   1      45.545  26.121  26.161  1.00  0.00     0.030 C 
ATOM     11  C   UNL A   1      45.148  25.196  27.050  1.00  0.00     0.077 C 
ATOM     12  S   UNL A   1      45.532  25.145  28.742  1.00  0.00    -0.053 SA
ATOM     13  C   UNL A   1      44.390  23.821  29.006  1.00  0.00     0.168 C 
ATOM     14  N   UNL A   1      43.833  23.354  27.844  1.00  0.00    -0.194 NA
ATOM     15  S   UNL A   1      43.960  23.311  30.539  1.00  0.00    -0.050 S 
BRANCH  10  16
ATOM     16  C   UNL A   1      46.180  27.460  26.284  1.00  0.00    -0.011 A 
ATOM     17  C   UNL A   1      47.350  30.045  26.420  1.00  0.00     0.161 A 
ATOM     18  C   UNL A   1      45.965  29.888  26.475  1.00  0.00     0.051 A 
ATOM     19  C   UNL A   1      48.173  28.930  26.230  1.00  0.00     0.170 A 
ATOM     20  C   UNL A   1      45.392  28.615  26.398  1.00  0.00     0.013 A 
ATOM     21  C   UNL A   1      47.575  27.652  26.101  1.00  0.00     0.050 A 
BRANCH  17  22
ATOM     22  O   UNL A   1      47.888  31.278  26.667  1.00  0.00    -0.493 OA
ATOM     23  C   UNL A   1      47.995  31.569  28.061  1.00  0.00     0.278 C 
ENDBRANCH  17  22
BRANCH  19  24
ATOM     24  O   UNL A   1      49.547  28.946  26.236  1.00  0.00    -0.492 OA
ATOM     25  C   UNL A   1      50.206  28.681  27.467  1.00  0.00     0.278 C 
ENDBRANCH  19  24
BRANCH  21  26
ATOM     26  C   UNL A   1      48.445  26.524  25.678  1.00  0.00     0.076 C 
ATOM     27  O   UNL A   1      48.984  26.370  24.598  1.00  0.00    -0.545 OA
ATOM     28  O   UNL A   1      48.725  25.712  26.720  1.00  0.00    -0.545 OA
ENDBRANCH  21  26
ENDBRANCH  10  16
ENDBRANCH   8   9
ENDBRANCH   7   8
ENDBRANCH   6   7
ENDBRANCH   5   6
ENDBRANCH   4   5
ENDBRANCH   3   4
ENDBRANCH   2   3
ENDBRANCH   1   2
BRANCH   1  29
ATOM     29  C   UNL A   1      42.307  19.198  26.990  1.00  0.00     0.188 C 
BRANCH  29  30
ATOM     30  O   UNL A   1      40.928  19.407  26.745  1.00  0.00    -0.376 OA
BRANCH  30  31
ATOM     31  C   UNL A   1      40.498  20.659  26.234  1.00  0.00     0.202 C 
BRANCH  31  32
ATOM     32  C   UNL A   1      40.429  21.886  27.158  1.00  0.00     0.261 C 
BRANCH  32  33
ATOM     33  O   UNL A   1      40.460  23.182  26.538  1.00  0.00    -0.460 OA
BRANCH  33  34
ATOM     34  C   UNL A   1      39.335  23.924  26.495  1.00  0.00     0.338 C 
ATOM     35  O   UNL A   1      38.256  23.609  26.025  1.00  0.00    -0.246 OA
BRANCH  34  36
ATOM     36  C   UNL A   1      39.581  25.112  27.351  1.00  0.00     0.060 A 
ATOM     37  C   UNL A   1      40.230  26.224  26.797  1.00  0.00     0.016 A 
ATOM     38  C   UNL A   1      39.075  25.171  28.656  1.00  0.00     0.016 A 
ATOM     39  C   UNL A   1      40.403  27.384  27.556  1.00  0.00     0.010 A 
ATOM     40  C   UNL A   1      39.270  26.324  29.422  1.00  0.00     0.010 A 
ATOM     41  C   UNL A   1      39.966  27.421  28.887  1.00  0.00    -0.014 A 
BRANCH  41  42
ATOM     42  C   UNL A   1      40.469  28.481  29.793  1.00  0.00     0.031 A 
ATOM     43  C   UNL A   1      39.542  29.627  30.096  1.00  0.00     0.074 A 
ATOM     44  C   UNL A   1      41.692  28.433  30.349  1.00  0.00     0.049 A 
ATOM     45  N   UNL A   1      39.741  30.694  30.824  1.00  0.00    -0.248 NA
ATOM     46  C   UNL A   1      38.203  29.554  29.486  1.00  0.00     0.031 C 
ATOM     47  C   UNL A   1      42.666  27.360  30.165  1.00  0.00     0.029 A 
ATOM     48  N   UNL A   1      42.324  29.325  31.181  1.00  0.00    -0.354 N 
ATOM     49  C   UNL A   1      38.556  31.415  30.760  1.00  0.00     0.074 A 
ATOM     50  C   UNL A   1      37.656  30.687  29.895  1.00  0.00     0.031 C 
ATOM     51  C   UNL A   1      43.780  27.662  30.858  1.00  0.00     0.029 A 
ATOM     52  C   UNL A   1      43.607  28.962  31.507  1.00  0.00     0.049 A 
ATOM     53  H   UNL A   1      41.897  30.148  31.512  1.00  0.00     0.167 HD
ATOM     54  C   UNL A   1      38.241  32.578  31.375  1.00  0.00     0.037 A 
ATOM     55  C   UNL A   1      44.536  29.618  32.230  1.00  0.00     0.037 A 
ATOM     56  C   UNL A   1      39.140  33.310  32.223  1.00  0.00     0.049 A 
ATOM     57  C   UNL A   1      44.190  30.958  32.836  1.00  0.00     0.074 A 
ATOM     58  C   UNL A   1      38.918  34.496  32.899  1.00  0.00     0.029 A 
ATOM     59  N   UNL A   1      40.445  32.928  32.500  1.00  0.00    -0.354 N 
ATOM     60  N   UNL A   1      43.059  31.620  32.799  1.00  0.00    -0.248 NA
ATOM     61  C   UNL A   1      45.254  31.640  33.589  1.00  0.00     0.031 C 
ATOM     62  C   UNL A   1      40.105  34.859  33.542  1.00  0.00     0.029 A 
ATOM     63  C   UNL A   1      41.048  33.869  33.317  1.00  0.00     0.049 A 
ATOM     64  H   UNL A   1      40.877  32.109  32.166  1.00  0.00     0.167 HD
ATOM     65  C   UNL A   1      43.263  32.774  33.545  1.00  0.00     0.074 A 
ATOM     66  C   UNL A   1      44.624  32.718  34.035  1.00  0.00     0.031 C 
ATOM     67  C   UNL A   1      42.402  33.789  33.805  1.00  0.00     0.037 A 
BRANCH  54  68
ATOM     68  C   UNL A   1      36.872  33.139  31.123  1.00  0.00     0.064 A 
ATOM     69  C   UNL A   1      35.839  33.011  32.063  1.00  0.00     0.173 A 
ATOM     70  C   UNL A   1      36.595  33.821  29.929  1.00  0.00     0.173 A 
ATOM     71  F   UNL A   1      36.047  32.347  33.210  1.00  0.00    -0.203 F 
ATOM     72  C   UNL A   1      34.570  33.521  31.804  1.00  0.00     0.198 A 
ATOM     73  C   UNL A   1      35.333  34.357  29.688  1.00  0.00     0.198 A 
ATOM     74  F   UNL A   1      37.548  33.969  28.997  1.00  0.00    -0.203 F 
ATOM     75  F   UNL A   1      33.582  33.339  32.692  1.00  0.00    -0.200 F 
ATOM     76  C   UNL A   1      34.320  34.200  30.621  1.00  0.00     0.200 A 
ATOM     77  F   UNL A   1      35.097  35.021  28.548  1.00  0.00    -0.200 F 
ATOM     78  F   UNL A   1      33.098  34.694  30.374  1.00  0.00    -0.200 F 
ENDBRANCH  54  68
BRANCH  55  79
ATOM     79  C   UNL A   1      45.891  29.033  32.421  1.00  0.00     0.064 A 
ATOM     80  C   UNL A   1      46.907  29.232  31.474  1.00  0.00     0.173 A 
ATOM     81  C   UNL A   1      46.188  28.235  33.535  1.00  0.00     0.173 A 
ATOM     82  F   UNL A   1      46.664  29.963  30.377  1.00  0.00    -0.203 F 
ATOM     83  C   UNL A   1      48.159  28.638  31.624  1.00  0.00     0.198 A 
ATOM     84  C   UNL A   1      47.450  27.665  33.699  1.00  0.00     0.198 A 
ATOM     85  F   UNL A   1      45.252  28.007  34.467  1.00  0.00    -0.203 F 
ATOM     86  F   UNL A   1      49.093  28.804  30.679  1.00  0.00    -0.200 F 
ATOM     87  C   UNL A   1      48.431  27.860  32.740  1.00  0.00     0.200 A 
ATOM     88  F   UNL A   1      47.712  26.922  34.783  1.00  0.00    -0.200 F 
ATOM     89  F   UNL A   1      49.636  27.291  32.884  1.00  0.00    -0.200 F 
ENDBRANCH  55  79
BRANCH  67  90
ATOM     90  C   UNL A   1      42.884  34.900  34.694  1.00  0.00     0.064 A 
ATOM     91  C   UNL A   1      42.809  34.813  36.092  1.00  0.00     0.173 A 
ATOM     92  C   UNL A   1      43.477  36.044  34.139  1.00  0.00     0.173 A 
ATOM     93  F   UNL A   1      42.240  33.747  36.673  1.00  0.00    -0.203 F 
ATOM     94  C   UNL A   1      43.285  35.844  36.899  1.00  0.00     0.198 A 
ATOM     95  C   UNL A   1      43.982  37.056  34.948  1.00  0.00     0.198 A 
ATOM     96  F   UNL A   1      43.584  36.172  32.807  1.00  0.00    -0.203 F 
ATOM     97  F   UNL A   1      43.159  35.762  38.231  1.00  0.00    -0.200 F 
ATOM     98  C   UNL A   1      43.879  36.960  36.327  1.00  0.00     0.200 A 
ATOM     99  F   UNL A   1      44.570  38.125  34.395  1.00  0.00    -0.200 F 
ATOM    100  F   UNL A   1      44.345  37.945  37.107  1.00  0.00    -0.200 F 
ENDBRANCH  67  90
ENDBRANCH  41  42
ENDBRANCH  34  36
ENDBRANCH  33  34
ENDBRANCH  32  33
ENDBRANCH  31  32
ENDBRANCH  30  31
ENDBRANCH  29  30
ENDBRANCH   1  29
TORSDOF 23
ENDMDL
MODEL 3
REMARK VINA RESULT:      -8.3      3.229      5.650
REMARK SMILES COc1ccc(/C=C2\SC(=S)N=C2OCCOCCOCCOCCOC(=O)c2ccc(-c3c4nc(c(-c5c(F)c(F)c(F)c(F)c5F)c5ccc([nH]5)c(-c5c(F)c(F)c(F)c(F)c5F)c5nc(c(-c6c(F)c(F)c(F)c(F)c6F)c6ccc3[nH]6)C=C5)C=C4)cc2)c(C(=O)[O-])c1OC
REMARK SMILES IDX 21 1 20 2 19 3 18 4 17 5 16 6 15 7 14 8 13 9 7 10 8 11 9 12
REMARK SMILES IDX 10 13 12 14 11 15 6 16 3 17 4 18 96 19 5 20 92 21 2 22 1 23
REMARK SMILES IDX 97 24 98 25 93 26 94 27 95 28 22 29 23 30 24 31 25 32 26 33
REMARK SMILES IDX 27 34 28 35 29 36 30 37 91 38 31 39 90 40 32 41 33 42 34 43
REMARK SMILES IDX 84 44 35 45 89 46 83 47 85 48 36 49 88 50 82 51 81 52 37 54
REMARK SMILES IDX 69 55 49 56 68 57 50 58 53 59 67 60 86 61 51 62 52 63 66 65
REMARK SMILES IDX 87 66 54 67 38 68 39 69 47 70 40 71 41 72 45 73 48 74 42 75
REMARK SMILES IDX 43 76 46 77 44 78 70 79 71 80 79 81 72 82 73 83 77 84 80 85
REMARK SMILES IDX 74 86 75 87 78 88 76 89 55 90 56 91 64 92 57 93 58 94 62 95
REMARK SMILES IDX 65 96 59 97 60 98 63 99 61 100
REMARK H PARENT 85 53 53 64
REMARK Flexibility Score: inf
ROOT
ATOM      1  C   UNL A   1      45.824  22.703  24.810  1.00  0.00     0.188 C 
ENDROOT
BRANCH   1   2
ATOM      2  O   UNL A   1      46.953  23.410  25.300  1.00  0.00    -0.377 OA
BRANCH   2   3
ATOM      3  C   UNL A   1      46.918  24.816  25.089  1.00  0.00     0.188 C 
BRANCH   3   4
ATOM      4  C   UNL A   1      45.531  25.446  25.134  1.00  0.00     0.188 C 
BRANCH   4   5
ATOM      5  O   UNL A   1      45.373  26.838  25.399  1.00  0.00    -0.376 OA
BRANCH   5   6
ATOM      6  C   UNL A   1      46.158  27.852  24.801  1.00  0.00     0.201 C 
BRANCH   6   7
ATOM      7  C   UNL A   1      46.833  28.949  25.633  1.00  0.00     0.260 C 
BRANCH   7   8
ATOM      8  O   UNL A   1      46.028  29.713  26.537  1.00  0.00    -0.474 OA
BRANCH   8   9
ATOM      9  C   UNL A   1      45.859  31.036  26.641  1.00  0.00     0.229 C 
ATOM     10  C   UNL A   1      47.763  31.692  28.191  1.00  0.00     0.030 C 
ATOM     11  C   UNL A   1      46.708  31.987  27.414  1.00  0.00     0.077 C 
ATOM     12  S   UNL A   1      46.146  33.570  26.978  1.00  0.00    -0.053 SA
ATOM     13  C   UNL A   1      44.996  32.890  25.819  1.00  0.00     0.168 C 
ATOM     14  N   UNL A   1      44.951  31.521  25.849  1.00  0.00    -0.194 NA
ATOM     15  S   UNL A   1      44.169  33.846  24.724  1.00  0.00    -0.050 S 
BRANCH  10  16
ATOM     16  C   UNL A   1      48.903  32.486  28.722  1.00  0.00    -0.011 A 
ATOM     17  C   UNL A   1      51.026  34.095  29.708  1.00  0.00     0.161 A 
ATOM     18  C   UNL A   1      49.787  34.082  30.349  1.00  0.00     0.051 A 
ATOM     19  C   UNL A   1      51.212  33.362  28.530  1.00  0.00     0.170 A 
ATOM     20  C   UNL A   1      48.742  33.296  29.855  1.00  0.00     0.013 A 
ATOM     21  C   UNL A   1      50.127  32.612  28.013  1.00  0.00     0.050 A 
BRANCH  17  22
ATOM     22  O   UNL A   1      52.076  34.735  30.306  1.00  0.00    -0.493 OA
ATOM     23  C   UNL A   1      52.386  35.987  29.694  1.00  0.00     0.278 C 
ENDBRANCH  17  22
BRANCH  19  24
ATOM     24  O   UNL A   1      52.401  33.233  27.854  1.00  0.00    -0.492 OA
ATOM     25  C   UNL A   1      53.262  32.166  28.227  1.00  0.00     0.278 C 
ENDBRANCH  19  24
BRANCH  21  26
ATOM     26  C   UNL A   1      50.279  32.030  26.654  1.00  0.00     0.076 C 
ATOM     27  O   UNL A   1      50.454  30.861  26.366  1.00  0.00    -0.545 OA
ATOM     28  O   UNL A   1      50.034  32.955  25.702  1.00  0.00    -0.545 OA
ENDBRANCH  21  26
ENDBRANCH  10  16
ENDBRANCH   8   9
ENDBRANCH   7   8
ENDBRANCH   6   7
ENDBRANCH   5   6
ENDBRANCH   4   5
ENDBRANCH   3   4
ENDBRANCH   2   3
ENDBRANCH   1   2
BRANCH   1  29
ATOM     29  C   UNL A   1      45.624  21.320  25.457  1.00  0.00     0.188 C 
BRANCH  29  30
ATOM     30  O   UNL A   1      45.861  20.246  24.564  1.00  0.00    -0.376 OA
BRANCH  30  31
ATOM     31  C   UNL A   1      44.976  19.137  24.566  1.00  0.00     0.202 C 
BRANCH  31  32
ATOM     32  C   UNL A   1      43.805  19.087  25.560  1.00  0.00     0.261 C 
BRANCH  32  33
ATOM     33  O   UNL A   1      42.518  19.518  25.087  1.00  0.00    -0.460 OA
BRANCH  33  34
ATOM     34  C   UNL A   1      41.576  19.894  25.975  1.00  0.00     0.338 C 
ATOM     35  O   UNL A   1      40.653  19.224  26.405  1.00  0.00    -0.246 OA
BRANCH  34  36
ATOM     36  C   UNL A   1      42.013  21.202  26.526  1.00  0.00     0.060 A 
ATOM     37  C   UNL A   1      42.295  21.300  27.895  1.00  0.00     0.016 A 
ATOM     38  C   UNL A   1      42.251  22.291  25.679  1.00  0.00     0.016 A 
ATOM     39  C   UNL A   1      42.784  22.497  28.425  1.00  0.00     0.010 A 
ATOM     40  C   UNL A   1      42.718  23.495  26.214  1.00  0.00     0.010 A 
ATOM     41  C   UNL A   1      42.952  23.613  27.595  1.00  0.00    -0.014 A 
BRANCH  41  42
ATOM     42  C   UNL A   1      43.104  24.958  28.199  1.00  0.00     0.031 A 
ATOM     43  C   UNL A   1      44.477  25.347  28.679  1.00  0.00     0.074 A 
ATOM     44  C   UNL A   1      42.078  25.819  28.309  1.00  0.00     0.049 A 
ATOM     45  N   UNL A   1      44.877  26.441  29.271  1.00  0.00    -0.248 NA
ATOM     46  C   UNL A   1      45.544  24.356  28.457  1.00  0.00     0.031 C 
ATOM     47  C   UNL A   1      40.713  25.576  27.849  1.00  0.00     0.029 A 
ATOM     48  N   UNL A   1      42.032  27.079  28.855  1.00  0.00    -0.354 N 
ATOM     49  C   UNL A   1      46.237  26.270  29.490  1.00  0.00     0.074 A 
ATOM     50  C   UNL A   1      46.589  24.956  29.003  1.00  0.00     0.031 C 
ATOM     51  C   UNL A   1      39.958  26.651  28.142  1.00  0.00     0.029 A 
ATOM     52  C   UNL A   1      40.780  27.643  28.836  1.00  0.00     0.049 A 
ATOM     53  H   UNL A   1      42.822  27.535  29.225  1.00  0.00     0.167 HD
ATOM     54  C   UNL A   1      47.119  27.135  30.041  1.00  0.00     0.037 A 
ATOM     55  C   UNL A   1      40.351  28.817  29.341  1.00  0.00     0.037 A 
ATOM     56  C   UNL A   1      46.767  28.436  30.539  1.00  0.00     0.049 A 
ATOM     57  C   UNL A   1      41.338  29.729  30.030  1.00  0.00     0.074 A 
ATOM     58  C   UNL A   1      47.586  29.393  31.111  1.00  0.00     0.029 A 
ATOM     59  N   UNL A   1      45.482  28.958  30.535  1.00  0.00    -0.354 N 
ATOM     60  N   UNL A   1      42.628  29.577  30.207  1.00  0.00    -0.248 NA
ATOM     61  C   UNL A   1      40.805  30.982  30.587  1.00  0.00     0.031 C 
ATOM     62  C   UNL A   1      46.787  30.471  31.502  1.00  0.00     0.029 A 
ATOM     63  C   UNL A   1      45.480  30.213  31.119  1.00  0.00     0.049 A 
ATOM     64  H   UNL A   1      44.688  28.503  30.171  1.00  0.00     0.167 HD
ATOM     65  C   UNL A   1      43.065  30.721  30.863  1.00  0.00     0.074 A 
ATOM     66  C   UNL A   1      41.904  31.567  31.043  1.00  0.00     0.031 C 
ATOM     67  C   UNL A   1      44.315  31.046  31.278  1.00  0.00     0.037 A 
BRANCH  54  68
ATOM     68  C   UNL A   1      48.545  26.682  30.158  1.00  0.00     0.064 A 
ATOM     69  C   UNL A   1      48.968  25.842  31.200  1.00  0.00     0.173 A 
ATOM     70  C   UNL A   1      49.496  27.085  29.211  1.00  0.00     0.173 A 
ATOM     71  F   UNL A   1      48.100  25.447  32.144  1.00  0.00    -0.203 F 
ATOM     72  C   UNL A   1      50.298  25.446  31.303  1.00  0.00     0.198 A 
ATOM     73  C   UNL A   1      50.820  26.662  29.300  1.00  0.00     0.198 A 
ATOM     74  F   UNL A   1      49.143  27.889  28.197  1.00  0.00    -0.203 F 
ATOM     75  F   UNL A   1      50.692  24.689  32.337  1.00  0.00    -0.200 F 
ATOM     76  C   UNL A   1      51.221  25.850  30.350  1.00  0.00     0.200 A 
ATOM     77  F   UNL A   1      51.707  27.046  28.372  1.00  0.00    -0.200 F 
ATOM     78  F   UNL A   1      52.501  25.465  30.448  1.00  0.00    -0.200 F 
ENDBRANCH  54  68
BRANCH  55  79
ATOM     79  C   UNL A   1      38.918  29.204  29.230  1.00  0.00     0.064 A 
ATOM     80  C   UNL A   1      38.079  29.207  30.353  1.00  0.00     0.173 A 
ATOM     81  C   UNL A   1      38.351  29.543  27.993  1.00  0.00     0.173 A 
ATOM     82  F   UNL A   1      38.567  28.862  31.553  1.00  0.00    -0.203 F 
ATOM     83  C   UNL A   1      36.724  29.516  30.240  1.00  0.00     0.198 A 
ATOM     84  C   UNL A   1      37.003  29.879  27.886  1.00  0.00     0.198 A 
ATOM     85  F   UNL A   1      39.107  29.550  26.886  1.00  0.00    -0.203 F 
ATOM     86  F   UNL A   1      35.935  29.461  31.322  1.00  0.00    -0.200 F 
ATOM     87  C   UNL A   1      36.188  29.857  29.008  1.00  0.00     0.200 A 
ATOM     88  F   UNL A   1      36.491  30.218  26.695  1.00  0.00    -0.200 F 
ATOM     89  F   UNL A   1      34.886  30.154  28.900  1.00  0.00    -0.200 F 
ENDBRANCH  55  79
BRANCH  67  90
ATOM     90  C   UNL A   1      44.506  32.388  31.925  1.00  0.00     0.064 A 
ATOM     91  C   UNL A   1      44.796  33.537  31.173  1.00  0.00     0.173 A 
ATOM     92  C   UNL A   1      44.346  32.535  33.311  1.00  0.00     0.173 A 
ATOM     93  F   UNL A   1      44.971  33.449  29.846  1.00  0.00    -0.203 F 
ATOM     94  C   UNL A   1      44.944  34.776  31.790  1.00  0.00     0.198 A 
ATOM     95  C   UNL A   1      44.462  33.780  33.920  1.00  0.00     0.198 A 
ATOM     96  F   UNL A   1      44.058  31.470  34.075  1.00  0.00    -0.203 F 
ATOM     97  F   UNL A   1      45.268  35.852  31.058  1.00  0.00    -0.200 F 
ATOM     98  C   UNL A   1      44.769  34.899  33.161  1.00  0.00     0.200 A 
ATOM     99  F   UNL A   1      44.275  33.900  35.241  1.00  0.00    -0.200 F 
ATOM    100  F   UNL A   1      44.902  36.095  33.750  1.00  0.00    -0.200 F 
ENDBRANCH  67  90
ENDBRANCH  41  42
ENDBRANCH  34  36
ENDBRANCH  33  34
ENDBRANCH  32  33
ENDBRANCH  31  32
ENDBRANCH  30  31
ENDBRANCH  29  30
ENDBRANCH   1  29
TORSDOF 23
ENDMDL
