MODEL 1
REMARK VINA RESULT:     -10.6      0.000      0.000
REMARK SMILES C[C@@H](C(=O)OCCOCCOCCOCCOC(=O)c1ccc(-c2c3nc(c(-c4c(F)c(F)c(F)c(F)c4F)c4ccc([nH]4)c(-c4c(F)c(F)c(F)c(F)c4F)c4nc(c(-c5c(F)c(F)c(F)c(F)c5F)c5ccc2[nH]5)C=C4)C=C3)cc1)c1cc(/C=C/S(C)(=O)=O)cc(C(=O)c2ccccc2)c1
REMARK SMILES IDX 10 1 9 2 8 3 7 4 6 5 5 6 3 7 4 8 2 9 1 10 83 11 84 12 102 13
REMARK SMILES IDX 85 14 93 15 92 16 86 17 87 18 88 19 89 20 90 21 91 22 94 23
REMARK SMILES IDX 95 24 96 25 97 26 101 27 98 28 100 29 99 30 11 31 12 32
REMARK SMILES IDX 13 33 14 34 15 35 16 36 17 37 18 38 19 39 20 40 21 41 82 42
REMARK SMILES IDX 22 43 81 44 23 45 24 46 25 47 75 48 26 49 80 50 74 51 76 52
REMARK SMILES IDX 27 53 79 54 73 55 72 56 28 58 60 59 40 60 59 61 41 62 44 63
REMARK SMILES IDX 58 64 77 65 42 66 43 67 57 69 78 70 45 71 29 72 30 73 38 74
REMARK SMILES IDX 31 75 32 76 36 77 39 78 33 79 34 80 37 81 35 82 61 83 62 84
REMARK SMILES IDX 70 85 63 86 64 87 68 88 71 89 65 90 66 91 69 92 67 93 46 94
REMARK SMILES IDX 47 95 55 96 48 97 49 98 53 99 56 100 50 101 51 102 54 103
REMARK SMILES IDX 52 104
REMARK H PARENT 76 57 44 68
REMARK Flexibility Score: inf
ROOT
ATOM      1  C   UNL A   1      34.158  24.235  23.683  1.00  0.00     0.188 C 
ENDROOT
BRANCH   1   2
ATOM      2  C   UNL A   1      34.192  25.689  24.164  1.00  0.00     0.188 C 
BRANCH   2   3
ATOM      3  O   UNL A   1      33.763  26.714  23.288  1.00  0.00    -0.376 OA
BRANCH   3   4
ATOM      4  C   UNL A   1      32.816  26.457  22.261  1.00  0.00     0.202 C 
BRANCH   4   5
ATOM      5  C   UNL A   1      31.530  27.272  21.999  1.00  0.00     0.261 C 
BRANCH   5   6
ATOM      6  O   UNL A   1      31.558  28.655  22.369  1.00  0.00    -0.463 OA
BRANCH   6   7
ATOM      7  C   UNL A   1      30.376  29.300  22.518  1.00  0.00     0.313 C 
ATOM      8  O   UNL A   1      29.562  29.464  21.616  1.00  0.00    -0.252 OA
BRANCH   7   9
ATOM      9  C   UNL A   1      30.105  29.703  23.978  1.00  0.00     0.126 C 
ATOM     10  C   UNL A   1      29.979  31.233  24.130  1.00  0.00     0.025 C 
BRANCH   9  11
ATOM     11  C   UNL A   1      31.030  29.004  24.991  1.00  0.00    -0.033 A 
ATOM     12  C   UNL A   1      30.851  27.653  25.360  1.00  0.00     0.012 A 
ATOM     13  C   UNL A   1      32.135  29.682  25.542  1.00  0.00     0.016 A 
ATOM     14  C   UNL A   1      31.699  27.013  26.288  1.00  0.00    -0.024 A 
ATOM     15  C   UNL A   1      32.969  29.081  26.494  1.00  0.00     0.023 A 
ATOM     16  C   UNL A   1      32.756  27.746  26.849  1.00  0.00     0.020 A 
BRANCH  14  17
ATOM     17  C   UNL A   1      31.563  25.595  26.677  1.00  0.00     0.020 C 
ATOM     18  C   UNL A   1      30.919  24.646  25.981  1.00  0.00     0.106 C 
BRANCH  18  19
ATOM     19  S   UNL A   1      30.874  23.010  26.578  1.00  0.00     0.168 S 
ATOM     20  C   UNL A   1      32.459  22.878  27.369  1.00  0.00     0.163 C 
ATOM     21  O   UNL A   1      29.871  22.940  27.622  1.00  0.00    -0.225 OA
ATOM     22  O   UNL A   1      30.868  22.066  25.478  1.00  0.00    -0.225 OA
ENDBRANCH  18  19
ENDBRANCH  14  17
BRANCH  15  23
ATOM     23  C   UNL A   1      34.107  29.820  27.117  1.00  0.00     0.193 C 
ATOM     24  O   UNL A   1      35.146  29.234  27.400  1.00  0.00    -0.289 OA
BRANCH  23  25
ATOM     25  C   UNL A   1      34.005  31.271  27.389  1.00  0.00     0.022 A 
ATOM     26  C   UNL A   1      32.748  31.879  27.370  1.00  0.00     0.012 A 
ATOM     27  C   UNL A   1      35.147  32.026  27.669  1.00  0.00     0.012 A 
ATOM     28  C   UNL A   1      32.632  33.232  27.693  1.00  0.00     0.001 A 
ATOM     29  C   UNL A   1      35.027  33.376  27.999  1.00  0.00     0.001 A 
ATOM     30  C   UNL A   1      33.768  33.976  28.020  1.00  0.00     0.000 A 
ENDBRANCH  23  25
ENDBRANCH  15  23
ENDBRANCH   9  11
ENDBRANCH   7   9
ENDBRANCH   6   7
ENDBRANCH   5   6
ENDBRANCH   4   5
ENDBRANCH   3   4
ENDBRANCH   2   3
ENDBRANCH   1   2
BRANCH   1  31
ATOM     31  O   UNL A   1      34.614  23.294  24.632  1.00  0.00    -0.377 OA
BRANCH  31  32
ATOM     32  C   UNL A   1      34.480  21.914  24.312  1.00  0.00     0.188 C 
BRANCH  32  33
ATOM     33  C   UNL A   1      35.253  20.834  25.102  1.00  0.00     0.188 C 
BRANCH  33  34
ATOM     34  O   UNL A   1      36.574  20.586  24.645  1.00  0.00    -0.376 OA
BRANCH  34  35
ATOM     35  C   UNL A   1      37.664  21.043  25.432  1.00  0.00     0.202 C 
BRANCH  35  36
ATOM     36  C   UNL A   1      38.867  20.096  25.576  1.00  0.00     0.261 C 
BRANCH  36  37
ATOM     37  O   UNL A   1      40.137  20.718  25.824  1.00  0.00    -0.460 OA
BRANCH  37  38
ATOM     38  C   UNL A   1      40.608  20.699  27.088  1.00  0.00     0.338 C 
ATOM     39  O   UNL A   1      40.930  19.721  27.740  1.00  0.00    -0.246 OA
BRANCH  38  40
ATOM     40  C   UNL A   1      40.865  22.095  27.498  1.00  0.00     0.060 A 
ATOM     41  C   UNL A   1      40.082  23.118  26.947  1.00  0.00     0.016 A 
ATOM     42  C   UNL A   1      41.869  22.393  28.422  1.00  0.00     0.016 A 
ATOM     43  C   UNL A   1      40.327  24.448  27.287  1.00  0.00     0.010 A 
ATOM     44  C   UNL A   1      42.130  23.728  28.744  1.00  0.00     0.010 A 
ATOM     45  C   UNL A   1      41.385  24.763  28.150  1.00  0.00    -0.014 A 
BRANCH  45  46
ATOM     46  C   UNL A   1      41.848  26.167  28.260  1.00  0.00     0.031 A 
ATOM     47  C   UNL A   1      43.174  26.530  27.649  1.00  0.00     0.074 A 
ATOM     48  C   UNL A   1      41.105  27.109  28.867  1.00  0.00     0.049 A 
ATOM     49  N   UNL A   1      43.820  27.667  27.666  1.00  0.00    -0.248 NA
ATOM     50  C   UNL A   1      43.868  25.455  26.921  1.00  0.00     0.031 C 
ATOM     51  C   UNL A   1      39.786  26.896  29.456  1.00  0.00     0.029 A 
ATOM     52  N   UNL A   1      41.368  28.437  29.096  1.00  0.00    -0.354 N 
ATOM     53  C   UNL A   1      44.994  27.444  26.958  1.00  0.00     0.074 A 
ATOM     54  C   UNL A   1      44.991  26.054  26.558  1.00  0.00     0.031 C 
ATOM     55  C   UNL A   1      39.360  28.052  29.995  1.00  0.00     0.029 A 
ATOM     56  C   UNL A   1      40.392  29.074  29.821  1.00  0.00     0.049 A 
ATOM     57  H   UNL A   1      42.180  28.891  28.770  1.00  0.00     0.167 HD
ATOM     58  C   UNL A   1      45.981  28.321  26.660  1.00  0.00     0.037 A 
ATOM     59  C   UNL A   1      40.352  30.329  30.311  1.00  0.00     0.037 A 
ATOM     60  C   UNL A   1      45.985  29.701  27.068  1.00  0.00     0.049 A 
ATOM     61  C   UNL A   1      41.505  31.266  30.042  1.00  0.00     0.074 A 
ATOM     62  C   UNL A   1      46.934  30.675  26.810  1.00  0.00     0.029 A 
ATOM     63  N   UNL A   1      44.992  30.302  27.830  1.00  0.00    -0.354 N 
ATOM     64  N   UNL A   1      42.602  31.055  29.355  1.00  0.00    -0.248 NA
ATOM     65  C   UNL A   1      41.409  32.618  30.612  1.00  0.00     0.031 C 
ATOM     66  C   UNL A   1      46.547  31.846  27.470  1.00  0.00     0.029 A 
ATOM     67  C   UNL A   1      45.322  31.624  28.077  1.00  0.00     0.049 A 
ATOM     68  H   UNL A   1      44.176  29.854  28.147  1.00  0.00     0.167 HD
ATOM     69  C   UNL A   1      43.309  32.252  29.384  1.00  0.00     0.074 A 
ATOM     70  C   UNL A   1      42.509  33.190  30.143  1.00  0.00     0.031 C 
ATOM     71  C   UNL A   1      44.511  32.549  28.830  1.00  0.00     0.037 A 
BRANCH  58  72
ATOM     72  C   UNL A   1      47.158  27.801  25.884  1.00  0.00     0.064 A 
ATOM     73  C   UNL A   1      47.196  27.844  24.481  1.00  0.00     0.173 A 
ATOM     74  C   UNL A   1      48.271  27.272  26.553  1.00  0.00     0.173 A 
ATOM     75  F   UNL A   1      46.152  28.325  23.791  1.00  0.00    -0.203 F 
ATOM     76  C   UNL A   1      48.291  27.346  23.780  1.00  0.00     0.198 A 
ATOM     77  C   UNL A   1      49.378  26.807  25.850  1.00  0.00     0.198 A 
ATOM     78  F   UNL A   1      48.288  27.208  27.893  1.00  0.00    -0.203 F 
ATOM     79  F   UNL A   1      48.282  27.344  22.439  1.00  0.00    -0.200 F 
ATOM     80  C   UNL A   1      49.385  26.836  24.464  1.00  0.00     0.200 A 
ATOM     81  F   UNL A   1      50.439  26.328  26.514  1.00  0.00    -0.200 F 
ATOM     82  F   UNL A   1      50.440  26.363  23.788  1.00  0.00    -0.200 F 
ENDBRANCH  58  72
BRANCH  59  83
ATOM     83  C   UNL A   1      39.190  30.773  31.128  1.00  0.00     0.064 A 
ATOM     84  C   UNL A   1      39.128  30.519  32.505  1.00  0.00     0.173 A 
ATOM     85  C   UNL A   1      38.104  31.440  30.541  1.00  0.00     0.173 A 
ATOM     86  F   UNL A   1      40.128  29.860  33.108  1.00  0.00    -0.203 F 
ATOM     87  C   UNL A   1      38.018  30.896  33.259  1.00  0.00     0.198 A 
ATOM     88  C   UNL A   1      37.010  31.846  31.302  1.00  0.00     0.198 A 
ATOM     89  F   UNL A   1      38.109  31.706  29.226  1.00  0.00    -0.203 F 
ATOM     90  F   UNL A   1      37.963  30.593  34.562  1.00  0.00    -0.200 F 
ATOM     91  C   UNL A   1      36.963  31.566  32.659  1.00  0.00     0.200 A 
ATOM     92  F   UNL A   1      35.998  32.506  30.719  1.00  0.00    -0.200 F 
ATOM     93  F   UNL A   1      35.898  31.932  33.384  1.00  0.00    -0.200 F 
ENDBRANCH  59  83
BRANCH  71  94
ATOM     94  C   UNL A   1      45.018  33.957  28.980  1.00  0.00     0.064 A 
ATOM     95  C   UNL A   1      44.705  34.962  28.051  1.00  0.00     0.173 A 
ATOM     96  C   UNL A   1      45.789  34.317  30.096  1.00  0.00     0.173 A 
ATOM     97  F   UNL A   1      43.981  34.671  26.959  1.00  0.00    -0.203 F 
ATOM     98  C   UNL A   1      45.173  36.264  28.219  1.00  0.00     0.198 A 
ATOM     99  C   UNL A   1      46.223  35.626  30.280  1.00  0.00     0.198 A 
ATOM    100  F   UNL A   1      46.109  33.399  31.021  1.00  0.00    -0.203 F 
ATOM    101  F   UNL A   1      44.907  37.194  27.291  1.00  0.00    -0.200 F 
ATOM    102  C   UNL A   1      45.923  36.597  29.337  1.00  0.00     0.200 A 
ATOM    103  F   UNL A   1      46.931  35.949  31.371  1.00  0.00    -0.200 F 
ATOM    104  F   UNL A   1      46.362  37.852  29.501  1.00  0.00    -0.200 F 
ENDBRANCH  71  94
ENDBRANCH  45  46
ENDBRANCH  38  40
ENDBRANCH  37  38
ENDBRANCH  36  37
ENDBRANCH  35  36
ENDBRANCH  34  35
ENDBRANCH  33  34
ENDBRANCH  32  33
ENDBRANCH  31  32
ENDBRANCH   1  31
TORSDOF 25
ENDMDL
MODEL 2
REMARK VINA RESULT:      -9.5      3.411      8.842
REMARK SMILES C[C@@H](C(=O)OCCOCCOCCOCCOC(=O)c1ccc(-c2c3nc(c(-c4c(F)c(F)c(F)c(F)c4F)c4ccc([nH]4)c(-c4c(F)c(F)c(F)c(F)c4F)c4nc(c(-c5c(F)c(F)c(F)c(F)c5F)c5ccc2[nH]5)C=C4)C=C3)cc1)c1cc(/C=C/S(C)(=O)=O)cc(C(=O)c2ccccc2)c1
REMARK SMILES IDX 10 1 9 2 8 3 7 4 6 5 5 6 3 7 4 8 2 9 1 10 83 11 84 12 102 13
REMARK SMILES IDX 85 14 93 15 92 16 86 17 87 18 88 19 89 20 90 21 91 22 94 23
REMARK SMILES IDX 95 24 96 25 97 26 101 27 98 28 100 29 99 30 11 31 12 32
REMARK SMILES IDX 13 33 14 34 15 35 16 36 17 37 18 38 19 39 20 40 21 41 82 42
REMARK SMILES IDX 22 43 81 44 23 45 24 46 25 47 75 48 26 49 80 50 74 51 76 52
REMARK SMILES IDX 27 53 79 54 73 55 72 56 28 58 60 59 40 60 59 61 41 62 44 63
REMARK SMILES IDX 58 64 77 65 42 66 43 67 57 69 78 70 45 71 29 72 30 73 38 74
REMARK SMILES IDX 31 75 32 76 36 77 39 78 33 79 34 80 37 81 35 82 61 83 62 84
REMARK SMILES IDX 70 85 63 86 64 87 68 88 71 89 65 90 66 91 69 92 67 93 46 94
REMARK SMILES IDX 47 95 55 96 48 97 49 98 53 99 56 100 50 101 51 102 54 103
REMARK SMILES IDX 52 104
REMARK H PARENT 76 57 44 68
REMARK Flexibility Score: inf
ROOT
ATOM      1  C   UNL A   1      35.283  23.220  22.904  1.00  0.00     0.188 C 
ENDROOT
BRANCH   1   2
ATOM      2  C   UNL A   1      34.569  24.542  23.207  1.00  0.00     0.188 C 
BRANCH   2   3
ATOM      3  O   UNL A   1      33.820  25.169  22.185  1.00  0.00    -0.376 OA
BRANCH   3   4
ATOM      4  C   UNL A   1      33.406  26.524  22.300  1.00  0.00     0.202 C 
BRANCH   4   5
ATOM      5  C   UNL A   1      32.025  27.081  21.888  1.00  0.00     0.261 C 
BRANCH   5   6
ATOM      6  O   UNL A   1      31.756  28.446  22.225  1.00  0.00    -0.463 OA
BRANCH   6   7
ATOM      7  C   UNL A   1      30.482  28.787  22.540  1.00  0.00     0.313 C 
ATOM      8  O   UNL A   1      29.555  28.801  21.739  1.00  0.00    -0.252 OA
BRANCH   7   9
ATOM      9  C   UNL A   1      30.297  29.037  24.046  1.00  0.00     0.126 C 
ATOM     10  C   UNL A   1      30.285  30.545  24.373  1.00  0.00     0.025 C 
BRANCH   9  11
ATOM     11  C   UNL A   1      31.207  28.167  24.933  1.00  0.00    -0.033 A 
ATOM     12  C   UNL A   1      32.367  28.683  25.549  1.00  0.00     0.012 A 
ATOM     13  C   UNL A   1      30.871  26.827  25.210  1.00  0.00     0.016 A 
ATOM     14  C   UNL A   1      33.199  27.886  26.362  1.00  0.00    -0.024 A 
ATOM     15  C   UNL A   1      31.700  26.004  25.983  1.00  0.00     0.023 A 
ATOM     16  C   UNL A   1      32.850  26.542  26.567  1.00  0.00     0.020 A 
BRANCH  14  17
ATOM     17  C   UNL A   1      34.404  28.396  27.048  1.00  0.00     0.020 C 
ATOM     18  C   UNL A   1      34.723  29.688  27.222  1.00  0.00     0.106 C 
BRANCH  18  19
ATOM     19  S   UNL A   1      36.179  30.114  28.077  1.00  0.00     0.168 S 
ATOM     20  C   UNL A   1      36.025  31.880  28.183  1.00  0.00     0.163 C 
ATOM     21  O   UNL A   1      36.075  29.596  29.427  1.00  0.00    -0.225 OA
ATOM     22  O   UNL A   1      37.347  29.838  27.263  1.00  0.00    -0.225 OA
ENDBRANCH  18  19
ENDBRANCH  14  17
BRANCH  15  23
ATOM     23  C   UNL A   1      31.370  24.569  26.230  1.00  0.00     0.193 C 
ATOM     24  O   UNL A   1      30.833  24.227  27.278  1.00  0.00    -0.289 OA
BRANCH  23  25
ATOM     25  C   UNL A   1      31.672  23.540  25.210  1.00  0.00     0.022 A 
ATOM     26  C   UNL A   1      32.464  22.446  25.563  1.00  0.00     0.012 A 
ATOM     27  C   UNL A   1      31.167  23.653  23.912  1.00  0.00     0.012 A 
ATOM     28  C   UNL A   1      32.697  21.434  24.629  1.00  0.00     0.001 A 
ATOM     29  C   UNL A   1      31.395  22.637  22.984  1.00  0.00     0.001 A 
ATOM     30  C   UNL A   1      32.152  21.523  23.346  1.00  0.00     0.000 A 
ENDBRANCH  23  25
ENDBRANCH  15  23
ENDBRANCH   9  11
ENDBRANCH   7   9
ENDBRANCH   6   7
ENDBRANCH   5   6
ENDBRANCH   4   5
ENDBRANCH   3   4
ENDBRANCH   2   3
ENDBRANCH   1   2
BRANCH   1  31
ATOM     31  O   UNL A   1      36.659  23.211  23.223  1.00  0.00    -0.377 OA
BRANCH  31  32
ATOM     32  C   UNL A   1      37.107  22.270  24.190  1.00  0.00     0.188 C 
BRANCH  32  33
ATOM     33  C   UNL A   1      37.315  22.680  25.666  1.00  0.00     0.188 C 
BRANCH  33  34
ATOM     34  O   UNL A   1      38.663  22.934  26.035  1.00  0.00    -0.376 OA
BRANCH  34  35
ATOM     35  C   UNL A   1      39.429  21.873  26.584  1.00  0.00     0.202 C 
BRANCH  35  36
ATOM     36  C   UNL A   1      40.831  22.223  27.108  1.00  0.00     0.261 C 
BRANCH  36  37
ATOM     37  O   UNL A   1      41.384  23.469  26.654  1.00  0.00    -0.460 OA
BRANCH  37  38
ATOM     38  C   UNL A   1      42.479  23.420  25.868  1.00  0.00     0.338 C 
ATOM     39  O   UNL A   1      42.724  22.606  24.994  1.00  0.00    -0.246 OA
BRANCH  38  40
ATOM     40  C   UNL A   1      43.262  24.650  26.104  1.00  0.00     0.060 A 
ATOM     41  C   UNL A   1      43.472  25.534  25.037  1.00  0.00     0.016 A 
ATOM     42  C   UNL A   1      43.783  24.932  27.368  1.00  0.00     0.016 A 
ATOM     43  C   UNL A   1      44.239  26.683  25.221  1.00  0.00     0.010 A 
ATOM     44  C   UNL A   1      44.572  26.072  27.546  1.00  0.00     0.010 A 
ATOM     45  C   UNL A   1      44.835  26.932  26.465  1.00  0.00    -0.014 A 
BRANCH  45  46
ATOM     46  C   UNL A   1      45.896  27.962  26.577  1.00  0.00     0.031 A 
ATOM     47  C   UNL A   1      45.483  29.380  26.868  1.00  0.00     0.074 A 
ATOM     48  C   UNL A   1      47.197  27.652  26.448  1.00  0.00     0.049 A 
ATOM     49  N   UNL A   1      46.212  30.463  26.951  1.00  0.00    -0.248 NA
ATOM     50  C   UNL A   1      44.045  29.604  27.091  1.00  0.00     0.031 C 
ATOM     51  C   UNL A   1      47.728  26.311  26.212  1.00  0.00     0.029 A 
ATOM     52  N   UNL A   1      48.310  28.455  26.486  1.00  0.00    -0.354 N 
ATOM     53  C   UNL A   1      45.324  31.493  27.230  1.00  0.00     0.074 A 
ATOM     54  C   UNL A   1      43.999  30.915  27.264  1.00  0.00     0.031 C 
ATOM     55  C   UNL A   1      49.066  26.386  26.110  1.00  0.00     0.029 A 
ATOM     56  C   UNL A   1      49.481  27.783  26.237  1.00  0.00     0.049 A 
ATOM     57  H   UNL A   1      48.273  29.421  26.675  1.00  0.00     0.167 HD
ATOM     58  C   UNL A   1      45.591  32.803  27.449  1.00  0.00     0.037 A 
ATOM     59  C   UNL A   1      50.738  28.250  26.098  1.00  0.00     0.037 A 
ATOM     60  C   UNL A   1      46.910  33.376  27.406  1.00  0.00     0.049 A 
ATOM     61  C   UNL A   1      51.002  29.728  26.259  1.00  0.00     0.074 A 
ATOM     62  C   UNL A   1      47.288  34.690  27.621  1.00  0.00     0.029 A 
ATOM     63  N   UNL A   1      48.069  32.669  27.118  1.00  0.00    -0.354 N 
ATOM     64  N   UNL A   1      50.161  30.694  26.543  1.00  0.00    -0.248 NA
ATOM     65  C   UNL A   1      52.390  30.178  26.085  1.00  0.00     0.031 C 
ATOM     66  C   UNL A   1      48.665  34.789  27.400  1.00  0.00     0.029 A 
ATOM     67  C   UNL A   1      49.157  33.525  27.119  1.00  0.00     0.049 A 
ATOM     68  H   UNL A   1      48.110  31.702  26.938  1.00  0.00     0.167 HD
ATOM     69  C   UNL A   1      50.921  31.857  26.613  1.00  0.00     0.074 A 
ATOM     70  C   UNL A   1      52.293  31.472  26.357  1.00  0.00     0.031 C 
ATOM     71  C   UNL A   1      50.521  33.127  26.869  1.00  0.00     0.037 A 
BRANCH  58  72
ATOM     72  C   UNL A   1      44.425  33.710  27.719  1.00  0.00     0.064 A 
ATOM     73  C   UNL A   1      43.833  33.798  28.989  1.00  0.00     0.173 A 
ATOM     74  C   UNL A   1      43.904  34.519  26.698  1.00  0.00     0.173 A 
ATOM     75  F   UNL A   1      44.281  33.035  29.997  1.00  0.00    -0.203 F 
ATOM     76  C   UNL A   1      42.745  34.637  29.216  1.00  0.00     0.198 A 
ATOM     77  C   UNL A   1      42.839  35.383  26.937  1.00  0.00     0.198 A 
ATOM     78  F   UNL A   1      44.432  34.477  25.465  1.00  0.00    -0.203 F 
ATOM     79  F   UNL A   1      42.160  34.661  30.422  1.00  0.00    -0.200 F 
ATOM     80  C   UNL A   1      42.255  35.435  28.193  1.00  0.00     0.200 A 
ATOM     81  F   UNL A   1      42.376  36.163  25.951  1.00  0.00    -0.200 F 
ATOM     82  F   UNL A   1      41.212  36.246  28.415  1.00  0.00    -0.200 F 
ENDBRANCH  58  72
BRANCH  59  83
ATOM     83  C   UNL A   1      51.848  27.315  25.768  1.00  0.00     0.064 A 
ATOM     84  C   UNL A   1      52.589  26.681  26.776  1.00  0.00     0.173 A 
ATOM     85  C   UNL A   1      52.206  27.056  24.437  1.00  0.00     0.173 A 
ATOM     86  F   UNL A   1      52.304  26.916  28.064  1.00  0.00    -0.203 F 
ATOM     87  C   UNL A   1      53.657  25.841  26.465  1.00  0.00     0.198 A 
ATOM     88  C   UNL A   1      53.253  26.190  24.126  1.00  0.00     0.198 A 
ATOM     89  F   UNL A   1      51.534  27.639  23.434  1.00  0.00    -0.203 F 
ATOM     90  F   UNL A   1      54.381  25.290  27.448  1.00  0.00    -0.200 F 
ATOM     91  C   UNL A   1      53.983  25.590  25.140  1.00  0.00     0.200 A 
ATOM     92  F   UNL A   1      53.556  25.940  22.845  1.00  0.00    -0.200 F 
ATOM     93  F   UNL A   1      55.007  24.779  24.842  1.00  0.00    -0.200 F 
ENDBRANCH  59  83
BRANCH  71  94
ATOM     94  C   UNL A   1      51.581  34.191  26.933  1.00  0.00     0.064 A 
ATOM     95  C   UNL A   1      51.939  34.950  25.809  1.00  0.00     0.173 A 
ATOM     96  C   UNL A   1      52.214  34.488  28.151  1.00  0.00     0.173 A 
ATOM     97  F   UNL A   1      51.374  34.701  24.617  1.00  0.00    -0.203 F 
ATOM     98  C   UNL A   1      52.913  35.944  25.895  1.00  0.00     0.198 A 
ATOM     99  C   UNL A   1      53.159  35.506  28.242  1.00  0.00     0.198 A 
ATOM    100  F   UNL A   1      51.902  33.801  29.260  1.00  0.00    -0.203 F 
ATOM    101  F   UNL A   1      53.278  36.618  24.796  1.00  0.00    -0.200 F 
ATOM    102  C   UNL A   1      53.515  36.226  27.112  1.00  0.00     0.200 A 
ATOM    103  F   UNL A   1      53.724  35.790  29.423  1.00  0.00    -0.200 F 
ATOM    104  F   UNL A   1      54.443  37.189  27.195  1.00  0.00    -0.200 F 
ENDBRANCH  71  94
ENDBRANCH  45  46
ENDBRANCH  38  40
ENDBRANCH  37  38
ENDBRANCH  36  37
ENDBRANCH  35  36
ENDBRANCH  34  35
ENDBRANCH  33  34
ENDBRANCH  32  33
ENDBRANCH  31  32
ENDBRANCH   1  31
TORSDOF 25
ENDMDL
MODEL 3
REMARK VINA RESULT:      -9.5      4.588      9.122
REMARK SMILES C[C@@H](C(=O)OCCOCCOCCOCCOC(=O)c1ccc(-c2c3nc(c(-c4c(F)c(F)c(F)c(F)c4F)c4ccc([nH]4)c(-c4c(F)c(F)c(F)c(F)c4F)c4nc(c(-c5c(F)c(F)c(F)c(F)c5F)c5ccc2[nH]5)C=C4)C=C3)cc1)c1cc(/C=C/S(C)(=O)=O)cc(C(=O)c2ccccc2)c1
REMARK SMILES IDX 10 1 9 2 8 3 7 4 6 5 5 6 3 7 4 8 2 9 1 10 83 11 84 12 102 13
REMARK SMILES IDX 85 14 93 15 92 16 86 17 87 18 88 19 89 20 90 21 91 22 94 23
REMARK SMILES IDX 95 24 96 25 97 26 101 27 98 28 100 29 99 30 11 31 12 32
REMARK SMILES IDX 13 33 14 34 15 35 16 36 17 37 18 38 19 39 20 40 21 41 82 42
REMARK SMILES IDX 22 43 81 44 23 45 24 46 25 47 75 48 26 49 80 50 74 51 76 52
REMARK SMILES IDX 27 53 79 54 73 55 72 56 28 58 60 59 40 60 59 61 41 62 44 63
REMARK SMILES IDX 58 64 77 65 42 66 43 67 57 69 78 70 45 71 29 72 30 73 38 74
REMARK SMILES IDX 31 75 32 76 36 77 39 78 33 79 34 80 37 81 35 82 61 83 62 84
REMARK SMILES IDX 70 85 63 86 64 87 68 88 71 89 65 90 66 91 69 92 67 93 46 94
REMARK SMILES IDX 47 95 55 96 48 97 49 98 53 99 56 100 50 101 51 102 54 103
REMARK SMILES IDX 52 104
REMARK H PARENT 76 57 44 68
REMARK Flexibility Score: inf
ROOT
ATOM      1  C   UNL A   1      31.371  29.102  25.138  1.00  0.00     0.188 C 
ENDROOT
BRANCH   1   2
ATOM      2  C   UNL A   1      31.817  28.884  23.688  1.00  0.00     0.188 C 
BRANCH   2   3
ATOM      3  O   UNL A   1      31.076  28.005  22.865  1.00  0.00    -0.376 OA
BRANCH   3   4
ATOM      4  C   UNL A   1      30.555  26.784  23.372  1.00  0.00     0.202 C 
BRANCH   4   5
ATOM      5  C   UNL A   1      31.134  25.377  23.104  1.00  0.00     0.261 C 
BRANCH   5   6
ATOM      6  O   UNL A   1      32.523  25.188  23.396  1.00  0.00    -0.463 OA
BRANCH   6   7
ATOM      7  C   UNL A   1      33.396  25.162  22.360  1.00  0.00     0.313 C 
ATOM      8  O   UNL A   1      33.796  26.160  21.771  1.00  0.00    -0.252 OA
BRANCH   7   9
ATOM      9  C   UNL A   1      33.931  23.748  22.078  1.00  0.00     0.126 C 
ATOM     10  C   UNL A   1      32.897  22.892  21.318  1.00  0.00     0.025 C 
BRANCH   9  11
ATOM     11  C   UNL A   1      34.584  23.080  23.302  1.00  0.00    -0.033 A 
ATOM     12  C   UNL A   1      35.860  23.457  23.769  1.00  0.00     0.012 A 
ATOM     13  C   UNL A   1      33.890  22.101  24.040  1.00  0.00     0.016 A 
ATOM     14  C   UNL A   1      36.457  22.845  24.892  1.00  0.00    -0.024 A 
ATOM     15  C   UNL A   1      34.475  21.451  25.135  1.00  0.00     0.023 A 
ATOM     16  C   UNL A   1      35.747  21.839  25.564  1.00  0.00     0.020 A 
BRANCH  14  17
ATOM     17  C   UNL A   1      37.777  23.233  25.429  1.00  0.00     0.020 C 
ATOM     18  C   UNL A   1      37.997  24.108  26.423  1.00  0.00     0.106 C 
BRANCH  18  19
ATOM     19  S   UNL A   1      39.625  24.433  26.948  1.00  0.00     0.168 S 
ATOM     20  C   UNL A   1      39.341  25.277  28.485  1.00  0.00     0.163 C 
ATOM     21  O   UNL A   1      40.255  23.167  27.268  1.00  0.00    -0.225 OA
ATOM     22  O   UNL A   1      40.269  25.379  26.057  1.00  0.00    -0.225 OA
ENDBRANCH  18  19
ENDBRANCH  14  17
BRANCH  15  23
ATOM     23  C   UNL A   1      33.759  20.375  25.883  1.00  0.00     0.193 C 
ATOM     24  O   UNL A   1      33.246  20.612  26.971  1.00  0.00    -0.289 OA
BRANCH  23  25
ATOM     25  C   UNL A   1      33.645  19.012  25.317  1.00  0.00     0.022 A 
ATOM     26  C   UNL A   1      32.593  18.192  25.730  1.00  0.00     0.012 A 
ATOM     27  C   UNL A   1      34.570  18.550  24.377  1.00  0.00     0.012 A 
ATOM     28  C   UNL A   1      32.436  16.930  25.152  1.00  0.00     0.001 A 
ATOM     29  C   UNL A   1      34.405  17.293  23.796  1.00  0.00     0.001 A 
ATOM     30  C   UNL A   1      33.333  16.488  24.177  1.00  0.00     0.000 A 
ENDBRANCH  23  25
ENDBRANCH  15  23
ENDBRANCH   9  11
ENDBRANCH   7   9
ENDBRANCH   6   7
ENDBRANCH   5   6
ENDBRANCH   4   5
ENDBRANCH   3   4
ENDBRANCH   2   3
ENDBRANCH   1   2
BRANCH   1  31
ATOM     31  O   UNL A   1      31.926  28.191  26.063  1.00  0.00    -0.377 OA
BRANCH  31  32
ATOM     32  C   UNL A   1      33.017  28.638  26.858  1.00  0.00     0.188 C 
BRANCH  32  33
ATOM     33  C   UNL A   1      34.471  28.545  26.342  1.00  0.00     0.188 C 
BRANCH  33  34
ATOM     34  O   UNL A   1      35.428  29.262  27.108  1.00  0.00    -0.376 OA
BRANCH  34  35
ATOM     35  C   UNL A   1      34.966  30.195  28.073  1.00  0.00     0.202 C 
BRANCH  35  36
ATOM     36  C   UNL A   1      34.673  31.621  27.582  1.00  0.00     0.261 C 
BRANCH  36  37
ATOM     37  O   UNL A   1      33.541  32.276  28.176  1.00  0.00    -0.460 OA
BRANCH  37  38
ATOM     38  C   UNL A   1      33.737  33.494  28.721  1.00  0.00     0.338 C 
ATOM     39  O   UNL A   1      33.061  34.495  28.552  1.00  0.00    -0.246 OA
BRANCH  38  40
ATOM     40  C   UNL A   1      34.806  33.373  29.733  1.00  0.00     0.060 A 
ATOM     41  C   UNL A   1      35.977  34.127  29.575  1.00  0.00     0.016 A 
ATOM     42  C   UNL A   1      34.656  32.524  30.831  1.00  0.00     0.016 A 
ATOM     43  C   UNL A   1      37.018  34.004  30.494  1.00  0.00     0.010 A 
ATOM     44  C   UNL A   1      35.709  32.383  31.739  1.00  0.00     0.010 A 
ATOM     45  C   UNL A   1      36.909  33.093  31.553  1.00  0.00    -0.014 A 
BRANCH  45  46
ATOM     46  C   UNL A   1      38.116  32.728  32.334  1.00  0.00     0.031 A 
ATOM     47  C   UNL A   1      39.182  31.912  31.654  1.00  0.00     0.074 A 
ATOM     48  C   UNL A   1      38.280  33.125  33.607  1.00  0.00     0.049 A 
ATOM     49  N   UNL A   1      40.293  31.418  32.137  1.00  0.00    -0.248 NA
ATOM     50  C   UNL A   1      38.958  31.610  30.231  1.00  0.00     0.031 C 
ATOM     51  C   UNL A   1      37.345  33.955  34.361  1.00  0.00     0.029 A 
ATOM     52  N   UNL A   1      39.296  32.868  34.494  1.00  0.00    -0.354 N 
ATOM     53  C   UNL A   1      40.895  30.745  31.082  1.00  0.00     0.074 A 
ATOM     54  C   UNL A   1      40.011  30.860  29.944  1.00  0.00     0.031 C 
ATOM     55  C   UNL A   1      37.823  34.126  35.606  1.00  0.00     0.029 A 
ATOM     56  C   UNL A   1      39.078  33.387  35.746  1.00  0.00     0.049 A 
ATOM     57  H   UNL A   1      40.105  32.359  34.256  1.00  0.00     0.167 HD
ATOM     58  C   UNL A   1      42.084  30.097  31.062  1.00  0.00     0.037 A 
ATOM     59  C   UNL A   1      39.796  33.256  36.879  1.00  0.00     0.037 A 
ATOM     60  C   UNL A   1      42.958  29.978  32.199  1.00  0.00     0.049 A 
ATOM     61  C   UNL A   1      41.076  32.455  36.856  1.00  0.00     0.074 A 
ATOM     62  C   UNL A   1      44.188  29.350  32.280  1.00  0.00     0.029 A 
ATOM     63  N   UNL A   1      42.687  30.491  33.460  1.00  0.00    -0.354 N 
ATOM     64  N   UNL A   1      41.650  31.838  35.852  1.00  0.00    -0.248 NA
ATOM     65  C   UNL A   1      41.808  32.338  38.125  1.00  0.00     0.031 C 
ATOM     66  C   UNL A   1      44.630  29.427  33.605  1.00  0.00     0.029 A 
ATOM     67  C   UNL A   1      43.712  30.166  34.333  1.00  0.00     0.049 A 
ATOM     68  H   UNL A   1      41.884  31.009  33.699  1.00  0.00     0.167 HD
ATOM     69  C   UNL A   1      42.824  31.289  36.358  1.00  0.00     0.074 A 
ATOM     70  C   UNL A   1      42.885  31.659  37.756  1.00  0.00     0.031 C 
ATOM     71  C   UNL A   1      43.765  30.548  35.722  1.00  0.00     0.037 A 
BRANCH  58  72
ATOM     72  C   UNL A   1      42.491  29.438  29.775  1.00  0.00     0.064 A 
ATOM     73  C   UNL A   1      42.250  28.076  29.533  1.00  0.00     0.173 A 
ATOM     74  C   UNL A   1      43.111  30.184  28.761  1.00  0.00     0.173 A 
ATOM     75  F   UNL A   1      41.675  27.314  30.474  1.00  0.00    -0.203 F 
ATOM     76  C   UNL A   1      42.645  27.481  28.337  1.00  0.00     0.198 A 
ATOM     77  C   UNL A   1      43.472  29.594  27.554  1.00  0.00     0.198 A 
ATOM     78  F   UNL A   1      43.363  31.489  28.939  1.00  0.00    -0.203 F 
ATOM     79  F   UNL A   1      42.458  26.167  28.150  1.00  0.00    -0.200 F 
ATOM     80  C   UNL A   1      43.248  28.242  27.346  1.00  0.00     0.200 A 
ATOM     81  F   UNL A   1      44.041  30.333  26.592  1.00  0.00    -0.200 F 
ATOM     82  F   UNL A   1      43.622  27.669  26.194  1.00  0.00    -0.200 F 
ENDBRANCH  58  72
BRANCH  59  83
ATOM     83  C   UNL A   1      39.315  33.878  38.142  1.00  0.00     0.064 A 
ATOM     84  C   UNL A   1      39.738  35.157  38.531  1.00  0.00     0.173 A 
ATOM     85  C   UNL A   1      38.440  33.195  39.000  1.00  0.00     0.173 A 
ATOM     86  F   UNL A   1      40.595  35.841  37.759  1.00  0.00    -0.203 F 
ATOM     87  C   UNL A   1      39.322  35.719  39.736  1.00  0.00     0.198 A 
ATOM     88  C   UNL A   1      37.998  33.771  40.189  1.00  0.00     0.198 A 
ATOM     89  F   UNL A   1      38.007  31.966  38.680  1.00  0.00    -0.203 F 
ATOM     90  F   UNL A   1      39.783  36.921  40.107  1.00  0.00    -0.200 F 
ATOM     91  C   UNL A   1      38.446  35.029  40.561  1.00  0.00     0.200 A 
ATOM     92  F   UNL A   1      37.141  33.106  40.976  1.00  0.00    -0.200 F 
ATOM     93  F   UNL A   1      38.042  35.571  41.718  1.00  0.00    -0.200 F 
ENDBRANCH  59  83
BRANCH  71  94
ATOM     94  C   UNL A   1      44.970  30.125  36.516  1.00  0.00     0.064 A 
ATOM     95  C   UNL A   1      45.020  28.896  37.191  1.00  0.00     0.173 A 
ATOM     96  C   UNL A   1      46.110  30.943  36.563  1.00  0.00     0.173 A 
ATOM     97  F   UNL A   1      43.954  28.080  37.189  1.00  0.00    -0.203 F 
ATOM     98  C   UNL A   1      46.154  28.517  37.907  1.00  0.00     0.198 A 
ATOM     99  C   UNL A   1      47.255  30.544  37.247  1.00  0.00     0.198 A 
ATOM    100  F   UNL A   1      46.122  32.124  35.927  1.00  0.00    -0.203 F 
ATOM    101  F   UNL A   1      46.158  27.362  38.588  1.00  0.00    -0.200 F 
ATOM    102  C   UNL A   1      47.272  29.336  37.927  1.00  0.00     0.200 A 
ATOM    103  F   UNL A   1      48.341  31.330  37.249  1.00  0.00    -0.200 F 
ATOM    104  F   UNL A   1      48.365  28.965  38.608  1.00  0.00    -0.200 F 
ENDBRANCH  71  94
ENDBRANCH  45  46
ENDBRANCH  38  40
ENDBRANCH  37  38
ENDBRANCH  36  37
ENDBRANCH  35  36
ENDBRANCH  34  35
ENDBRANCH  33  34
ENDBRANCH  32  33
ENDBRANCH  31  32
ENDBRANCH   1  31
TORSDOF 25
ENDMDL
