MODEL 1
REMARK VINA RESULT:     -10.9      0.000      0.000
REMARK SMILES O=C(OCCOCCOCCOCCOC(=O)[C@@H]1CCN(C(=O)c2c(F)cc(Br)cc2F)C1)c1ccc(-c2c3nc(c(-c4c(F)c(F)c(F)c(F)c4F)c4ccc([nH]4)c(-c4c(F)c(F)c(F)c(F)c4F)c4nc(c(-c5c(F)c(F)c(F)c(F)c5F)c5ccc2[nH]5)C=C4)C=C3)cc1
REMARK SMILES IDX 9 1 8 2 7 3 6 4 5 5 4 6 3 7 2 8 1 9 34 10 35 11 96 12 36 13
REMARK SMILES IDX 95 14 37 15 38 16 39 17 89 18 40 19 94 20 88 21 90 22 41 23
REMARK SMILES IDX 93 24 87 25 86 26 42 28 74 29 54 30 73 31 55 32 58 33 72 34
REMARK SMILES IDX 91 35 56 36 57 37 71 39 92 40 59 41 43 42 44 43 52 44 45 45
REMARK SMILES IDX 46 46 50 47 53 48 47 49 48 50 51 51 49 52 75 53 76 54 84 55
REMARK SMILES IDX 77 56 78 57 82 58 85 59 79 60 80 61 83 62 81 63 60 64 61 65
REMARK SMILES IDX 69 66 62 67 63 68 67 69 70 70 64 71 65 72 68 73 66 74 10 75
REMARK SMILES IDX 11 76 12 77 13 78 14 79 15 80 16 81 17 82 18 83 19 84 33 85
REMARK SMILES IDX 20 86 21 87 22 88 23 89 24 90 25 91 31 92 26 93 27 94 30 95
REMARK SMILES IDX 32 96 28 97 29 98
REMARK H PARENT 90 27 58 38
REMARK Flexibility Score: inf
ROOT
ATOM      1  O   UNL A   1      32.760  29.497  24.681  1.00  0.00    -0.377 OA
ENDROOT
BRANCH   1   2
ATOM      2  C   UNL A   1      32.792  29.652  26.091  1.00  0.00     0.188 C 
BRANCH   2   3
ATOM      3  C   UNL A   1      34.161  29.770  26.745  1.00  0.00     0.188 C 
BRANCH   3   4
ATOM      4  O   UNL A   1      34.363  31.088  27.247  1.00  0.00    -0.376 OA
BRANCH   4   5
ATOM      5  C   UNL A   1      33.228  31.736  27.828  1.00  0.00     0.202 C 
BRANCH   5   6
ATOM      6  C   UNL A   1      32.715  32.972  27.092  1.00  0.00     0.261 C 
BRANCH   6   7
ATOM      7  O   UNL A   1      32.266  34.042  27.940  1.00  0.00    -0.460 OA
BRANCH   7   8
ATOM      8  C   UNL A   1      32.966  34.875  28.751  1.00  0.00     0.338 C 
ATOM      9  O   UNL A   1      32.578  36.033  28.867  1.00  0.00    -0.246 OA
BRANCH   8  10
ATOM     10  C   UNL A   1      34.198  34.485  29.502  1.00  0.00     0.060 A 
ATOM     11  C   UNL A   1      35.493  34.520  28.996  1.00  0.00     0.016 A 
ATOM     12  C   UNL A   1      34.039  34.109  30.846  1.00  0.00     0.016 A 
ATOM     13  C   UNL A   1      36.588  34.122  29.731  1.00  0.00     0.010 A 
ATOM     14  C   UNL A   1      35.137  33.704  31.612  1.00  0.00     0.010 A 
ATOM     15  C   UNL A   1      36.405  33.663  31.025  1.00  0.00    -0.014 A 
BRANCH  15  16
ATOM     16  C   UNL A   1      37.510  32.866  31.571  1.00  0.00     0.031 A 
ATOM     17  C   UNL A   1      37.891  33.137  32.994  1.00  0.00     0.074 A 
ATOM     18  C   UNL A   1      37.960  31.795  30.898  1.00  0.00     0.049 A 
ATOM     19  N   UNL A   1      38.858  32.637  33.709  1.00  0.00    -0.248 NA
ATOM     20  C   UNL A   1      37.045  34.102  33.723  1.00  0.00     0.031 C 
ATOM     21  C   UNL A   1      37.454  31.339  29.600  1.00  0.00     0.029 A 
ATOM     22  N   UNL A   1      38.899  30.863  31.238  1.00  0.00    -0.354 N 
ATOM     23  C   UNL A   1      38.779  33.278  34.939  1.00  0.00     0.074 A 
ATOM     24  C   UNL A   1      37.663  34.190  34.887  1.00  0.00     0.031 C 
ATOM     25  C   UNL A   1      38.073  30.195  29.267  1.00  0.00     0.029 A 
ATOM     26  C   UNL A   1      39.079  29.899  30.279  1.00  0.00     0.049 A 
ATOM     27  H   UNL A   1      39.397  30.882  32.086  1.00  0.00     0.167 HD
ATOM     28  C   UNL A   1      39.595  33.120  36.003  1.00  0.00     0.037 A 
ATOM     29  C   UNL A   1      40.000  28.921  30.225  1.00  0.00     0.037 A 
ATOM     30  C   UNL A   1      40.675  32.172  36.003  1.00  0.00     0.049 A 
ATOM     31  C   UNL A   1      40.975  28.839  31.368  1.00  0.00     0.074 A 
ATOM     32  C   UNL A   1      41.641  31.950  36.962  1.00  0.00     0.029 A 
ATOM     33  N   UNL A   1      40.915  31.275  34.967  1.00  0.00    -0.354 N 
ATOM     34  N   UNL A   1      41.006  29.537  32.482  1.00  0.00    -0.248 NA
ATOM     35  C   UNL A   1      42.054  27.855  31.245  1.00  0.00     0.031 C 
ATOM     36  C   UNL A   1      42.499  30.956  36.479  1.00  0.00     0.029 A 
ATOM     37  C   UNL A   1      42.027  30.509  35.251  1.00  0.00     0.049 A 
ATOM     38  H   UNL A   1      40.371  31.200  34.149  1.00  0.00     0.167 HD
ATOM     39  C   UNL A   1      42.087  29.062  33.205  1.00  0.00     0.074 A 
ATOM     40  C   UNL A   1      42.679  28.005  32.404  1.00  0.00     0.031 C 
ATOM     41  C   UNL A   1      42.556  29.455  34.418  1.00  0.00     0.037 A 
BRANCH  28  42
ATOM     42  C   UNL A   1      39.410  34.072  37.148  1.00  0.00     0.064 A 
ATOM     43  C   UNL A   1      39.985  35.352  37.173  1.00  0.00     0.173 A 
ATOM     44  C   UNL A   1      38.717  33.648  38.294  1.00  0.00     0.173 A 
ATOM     45  F   UNL A   1      40.694  35.795  36.123  1.00  0.00    -0.203 F 
ATOM     46  C   UNL A   1      39.915  36.150  38.315  1.00  0.00     0.198 A 
ATOM     47  C   UNL A   1      38.619  34.461  39.420  1.00  0.00     0.198 A 
ATOM     48  F   UNL A   1      38.160  32.429  38.334  1.00  0.00    -0.203 F 
ATOM     49  F   UNL A   1      40.549  37.332  38.346  1.00  0.00    -0.200 F 
ATOM     50  C   UNL A   1      39.232  35.704  39.435  1.00  0.00     0.200 A 
ATOM     51  F   UNL A   1      37.958  34.027  40.502  1.00  0.00    -0.200 F 
ATOM     52  F   UNL A   1      39.183  36.463  40.540  1.00  0.00    -0.200 F 
ENDBRANCH  28  42
BRANCH  29  53
ATOM     53  C   UNL A   1      40.076  28.016  29.047  1.00  0.00     0.064 A 
ATOM     54  C   UNL A   1      39.440  26.768  29.045  1.00  0.00     0.173 A 
ATOM     55  C   UNL A   1      40.790  28.378  27.892  1.00  0.00     0.173 A 
ATOM     56  F   UNL A   1      38.759  26.361  30.128  1.00  0.00    -0.203 F 
ATOM     57  C   UNL A   1      39.527  25.913  27.946  1.00  0.00     0.198 A 
ATOM     58  C   UNL A   1      40.849  27.539  26.782  1.00  0.00     0.198 A 
ATOM     59  F   UNL A   1      41.423  29.560  27.835  1.00  0.00    -0.203 F 
ATOM     60  F   UNL A   1      38.946  24.706  27.991  1.00  0.00    -0.200 F 
ATOM     61  C   UNL A   1      40.225  26.302  26.813  1.00  0.00     0.200 A 
ATOM     62  F   UNL A   1      41.513  27.927  25.684  1.00  0.00    -0.200 F 
ATOM     63  F   UNL A   1      40.305  25.482  25.756  1.00  0.00    -0.200 F 
ENDBRANCH  29  53
BRANCH  41  64
ATOM     64  C   UNL A   1      43.719  28.686  34.965  1.00  0.00     0.064 A 
ATOM     65  C   UNL A   1      45.043  29.082  34.734  1.00  0.00     0.173 A 
ATOM     66  C   UNL A   1      43.491  27.564  35.775  1.00  0.00     0.173 A 
ATOM     67  F   UNL A   1      45.305  30.141  33.953  1.00  0.00    -0.203 F 
ATOM     68  C   UNL A   1      46.103  28.361  35.272  1.00  0.00     0.198 A 
ATOM     69  C   UNL A   1      44.552  26.869  36.342  1.00  0.00     0.198 A 
ATOM     70  F   UNL A   1      42.239  27.157  36.032  1.00  0.00    -0.203 F 
ATOM     71  F   UNL A   1      47.363  28.720  34.995  1.00  0.00    -0.200 F 
ATOM     72  C   UNL A   1      45.856  27.261  36.083  1.00  0.00     0.200 A 
ATOM     73  F   UNL A   1      44.312  25.820  37.141  1.00  0.00    -0.200 F 
ATOM     74  F   UNL A   1      46.879  26.575  36.610  1.00  0.00    -0.200 F 
ENDBRANCH  41  64
ENDBRANCH  15  16
ENDBRANCH   8  10
ENDBRANCH   7   8
ENDBRANCH   6   7
ENDBRANCH   5   6
ENDBRANCH   4   5
ENDBRANCH   3   4
ENDBRANCH   2   3
ENDBRANCH   1   2
BRANCH   1  75
ATOM     75  C   UNL A   1      33.580  28.487  24.126  1.00  0.00     0.188 C 
BRANCH  75  76
ATOM     76  C   UNL A   1      34.078  28.586  22.668  1.00  0.00     0.188 C 
BRANCH  76  77
ATOM     77  O   UNL A   1      34.021  27.479  21.797  1.00  0.00    -0.376 OA
BRANCH  77  78
ATOM     78  C   UNL A   1      33.935  26.170  22.317  1.00  0.00     0.202 C 
BRANCH  78  79
ATOM     79  C   UNL A   1      32.695  25.263  22.170  1.00  0.00     0.261 C 
BRANCH  79  80
ATOM     80  O   UNL A   1      31.497  25.795  21.577  1.00  0.00    -0.463 OA
BRANCH  80  81
ATOM     81  C   UNL A   1      30.760  26.650  22.330  1.00  0.00     0.310 C 
ATOM     82  O   UNL A   1      30.643  27.850  22.089  1.00  0.00    -0.252 OA
BRANCH  81  83
ATOM     83  C   UNL A   1      30.054  25.981  23.503  1.00  0.00     0.120 C 
ATOM     84  C   UNL A   1      29.795  26.879  24.716  1.00  0.00     0.039 C 
ATOM     85  C   UNL A   1      30.739  24.735  24.072  1.00  0.00     0.135 C 
ATOM     86  C   UNL A   1      30.792  26.442  25.773  1.00  0.00     0.121 C 
ATOM     87  N   UNL A   1      31.086  25.054  25.454  1.00  0.00    -0.338 N 
BRANCH  87  88
ATOM     88  C   UNL A   1      31.734  24.148  26.278  1.00  0.00     0.259 C 
ATOM     89  O   UNL A   1      31.339  23.866  27.415  1.00  0.00    -0.269 OA
BRANCH  88  90
ATOM     90  C   UNL A   1      33.003  23.571  25.806  1.00  0.00     0.111 A 
ATOM     91  C   UNL A   1      34.131  24.392  25.747  1.00  0.00     0.140 A 
ATOM     92  C   UNL A   1      33.136  22.223  25.488  1.00  0.00     0.140 A 
ATOM     93  F   UNL A   1      34.055  25.685  26.095  1.00  0.00    -0.206 F 
ATOM     94  C   UNL A   1      35.358  23.903  25.310  1.00  0.00     0.056 A 
ATOM     95  C   UNL A   1      34.365  21.713  25.057  1.00  0.00     0.056 A 
ATOM     96  F   UNL A   1      32.088  21.390  25.555  1.00  0.00    -0.206 F 
ATOM     97  C   UNL A   1      35.468  22.561  24.960  1.00  0.00     0.023 A 
ATOM     98  Br  UNL A   1      37.126  21.896  24.345  1.00  0.00    -0.051 Br
ENDBRANCH  88  90
ENDBRANCH  87  88
ENDBRANCH  81  83
ENDBRANCH  80  81
ENDBRANCH  79  80
ENDBRANCH  78  79
ENDBRANCH  77  78
ENDBRANCH  76  77
ENDBRANCH  75  76
ENDBRANCH   1  75
TORSDOF 22
ENDMDL
MODEL 2
REMARK VINA RESULT:     -10.6      0.733      2.028
REMARK SMILES O=C(OCCOCCOCCOCCOC(=O)[C@@H]1CCN(C(=O)c2c(F)cc(Br)cc2F)C1)c1ccc(-c2c3nc(c(-c4c(F)c(F)c(F)c(F)c4F)c4ccc([nH]4)c(-c4c(F)c(F)c(F)c(F)c4F)c4nc(c(-c5c(F)c(F)c(F)c(F)c5F)c5ccc2[nH]5)C=C4)C=C3)cc1
REMARK SMILES IDX 9 1 8 2 7 3 6 4 5 5 4 6 3 7 2 8 1 9 34 10 35 11 96 12 36 13
REMARK SMILES IDX 95 14 37 15 38 16 39 17 89 18 40 19 94 20 88 21 90 22 41 23
REMARK SMILES IDX 93 24 87 25 86 26 42 28 74 29 54 30 73 31 55 32 58 33 72 34
REMARK SMILES IDX 91 35 56 36 57 37 71 39 92 40 59 41 43 42 44 43 52 44 45 45
REMARK SMILES IDX 46 46 50 47 53 48 47 49 48 50 51 51 49 52 75 53 76 54 84 55
REMARK SMILES IDX 77 56 78 57 82 58 85 59 79 60 80 61 83 62 81 63 60 64 61 65
REMARK SMILES IDX 69 66 62 67 63 68 67 69 70 70 64 71 65 72 68 73 66 74 10 75
REMARK SMILES IDX 11 76 12 77 13 78 14 79 15 80 16 81 17 82 18 83 19 84 33 85
REMARK SMILES IDX 20 86 21 87 22 88 23 89 24 90 25 91 31 92 26 93 27 94 30 95
REMARK SMILES IDX 32 96 28 97 29 98
REMARK H PARENT 90 27 58 38
REMARK Flexibility Score: inf
ROOT
ATOM      1  O   UNL A   1      32.871  29.468  24.880  1.00  0.00    -0.377 OA
ENDROOT
BRANCH   1   2
ATOM      2  C   UNL A   1      32.611  29.275  26.261  1.00  0.00     0.188 C 
BRANCH   2   3
ATOM      3  C   UNL A   1      33.780  29.453  27.218  1.00  0.00     0.188 C 
BRANCH   3   4
ATOM      4  O   UNL A   1      34.066  30.836  27.407  1.00  0.00    -0.376 OA
BRANCH   4   5
ATOM      5  C   UNL A   1      32.962  31.679  27.749  1.00  0.00     0.202 C 
BRANCH   5   6
ATOM      6  C   UNL A   1      33.020  33.106  27.207  1.00  0.00     0.261 C 
BRANCH   6   7
ATOM      7  O   UNL A   1      32.481  34.111  28.083  1.00  0.00    -0.460 OA
BRANCH   7   8
ATOM      8  C   UNL A   1      33.084  34.859  29.041  1.00  0.00     0.338 C 
ATOM      9  O   UNL A   1      32.609  35.959  29.302  1.00  0.00    -0.246 OA
BRANCH   8  10
ATOM     10  C   UNL A   1      34.308  34.444  29.790  1.00  0.00     0.060 A 
ATOM     11  C   UNL A   1      35.616  34.597  29.343  1.00  0.00     0.016 A 
ATOM     12  C   UNL A   1      34.124  33.911  31.077  1.00  0.00     0.016 A 
ATOM     13  C   UNL A   1      36.704  34.169  30.070  1.00  0.00     0.010 A 
ATOM     14  C   UNL A   1      35.215  33.473  31.835  1.00  0.00     0.010 A 
ATOM     15  C   UNL A   1      36.502  33.558  31.297  1.00  0.00    -0.014 A 
BRANCH  15  16
ATOM     16  C   UNL A   1      37.627  32.757  31.793  1.00  0.00     0.031 A 
ATOM     17  C   UNL A   1      38.048  33.000  33.210  1.00  0.00     0.074 A 
ATOM     18  C   UNL A   1      38.063  31.703  31.085  1.00  0.00     0.049 A 
ATOM     19  N   UNL A   1      39.039  32.491  33.886  1.00  0.00    -0.248 NA
ATOM     20  C   UNL A   1      37.218  33.944  33.984  1.00  0.00     0.031 C 
ATOM     21  C   UNL A   1      37.522  31.271  29.793  1.00  0.00     0.029 A 
ATOM     22  N   UNL A   1      39.016  30.770  31.377  1.00  0.00    -0.354 N 
ATOM     23  C   UNL A   1      38.992  33.105  35.131  1.00  0.00     0.074 A 
ATOM     24  C   UNL A   1      37.870  34.011  35.131  1.00  0.00     0.031 C 
ATOM     25  C   UNL A   1      38.138  30.139  29.417  1.00  0.00     0.029 A 
ATOM     26  C   UNL A   1      39.174  29.828  30.392  1.00  0.00     0.049 A 
ATOM     27  H   UNL A   1      39.540  30.774  32.211  1.00  0.00     0.167 HD
ATOM     28  C   UNL A   1      39.840  32.929  36.167  1.00  0.00     0.037 A 
ATOM     29  C   UNL A   1      40.098  28.857  30.291  1.00  0.00     0.037 A 
ATOM     30  C   UNL A   1      40.924  31.989  36.115  1.00  0.00     0.049 A 
ATOM     31  C   UNL A   1      41.107  28.756  31.403  1.00  0.00     0.074 A 
ATOM     32  C   UNL A   1      41.920  31.752  37.041  1.00  0.00     0.029 A 
ATOM     33  N   UNL A   1      41.139  31.115  35.053  1.00  0.00    -0.354 N 
ATOM     34  N   UNL A   1      41.166  29.431  32.530  1.00  0.00    -0.248 NA
ATOM     35  C   UNL A   1      42.188  27.783  31.227  1.00  0.00     0.031 C 
ATOM     36  C   UNL A   1      42.769  30.774  36.511  1.00  0.00     0.029 A 
ATOM     37  C   UNL A   1      42.264  30.350  35.288  1.00  0.00     0.049 A 
ATOM     38  H   UNL A   1      40.572  31.054  34.251  1.00  0.00     0.167 HD
ATOM     39  C   UNL A   1      42.271  28.948  33.211  1.00  0.00     0.074 A 
ATOM     40  C   UNL A   1      42.845  27.911  32.371  1.00  0.00     0.031 C 
ATOM     41  C   UNL A   1      42.773  29.318  34.417  1.00  0.00     0.037 A 
BRANCH  28  42
ATOM     42  C   UNL A   1      39.683  33.855  37.338  1.00  0.00     0.064 A 
ATOM     43  C   UNL A   1      38.891  33.542  38.453  1.00  0.00     0.173 A 
ATOM     44  C   UNL A   1      40.266  35.132  37.292  1.00  0.00     0.173 A 
ATOM     45  F   UNL A   1      38.275  32.352  38.533  1.00  0.00    -0.203 F 
ATOM     46  C   UNL A   1      38.650  34.487  39.452  1.00  0.00     0.198 A 
ATOM     47  C   UNL A   1      40.052  36.061  38.307  1.00  0.00     0.198 A 
ATOM     48  F   UNL A   1      41.021  35.493  36.243  1.00  0.00    -0.203 F 
ATOM     49  F   UNL A   1      37.818  34.195  40.462  1.00  0.00    -0.200 F 
ATOM     50  C   UNL A   1      39.232  35.743  39.377  1.00  0.00     0.200 A 
ATOM     51  F   UNL A   1      40.615  37.274  38.231  1.00  0.00    -0.200 F 
ATOM     52  F   UNL A   1      38.983  36.656  40.326  1.00  0.00    -0.200 F 
ENDBRANCH  28  42
BRANCH  29  53
ATOM     53  C   UNL A   1      40.145  27.977  29.092  1.00  0.00     0.064 A 
ATOM     54  C   UNL A   1      40.873  28.338  27.951  1.00  0.00     0.173 A 
ATOM     55  C   UNL A   1      39.459  26.751  29.060  1.00  0.00     0.173 A 
ATOM     56  F   UNL A   1      41.531  29.506  27.918  1.00  0.00    -0.203 F 
ATOM     57  C   UNL A   1      40.900  27.518  26.822  1.00  0.00     0.198 A 
ATOM     58  C   UNL A   1      39.514  25.917  27.945  1.00  0.00     0.198 A 
ATOM     59  F   UNL A   1      38.742  26.352  30.122  1.00  0.00    -0.203 F 
ATOM     60  F   UNL A   1      41.568  27.911  25.728  1.00  0.00    -0.200 F 
ATOM     61  C   UNL A   1      40.228  26.306  26.823  1.00  0.00     0.200 A 
ATOM     62  F   UNL A   1      38.874  24.740  27.958  1.00  0.00    -0.200 F 
ATOM     63  F   UNL A   1      40.258  25.518  25.740  1.00  0.00    -0.200 F 
ENDBRANCH  29  53
BRANCH  41  64
ATOM     64  C   UNL A   1      43.956  28.545  34.914  1.00  0.00     0.064 A 
ATOM     65  C   UNL A   1      43.811  27.365  35.656  1.00  0.00     0.173 A 
ATOM     66  C   UNL A   1      45.252  28.974  34.593  1.00  0.00     0.173 A 
ATOM     67  F   UNL A   1      42.590  26.927  35.997  1.00  0.00    -0.203 F 
ATOM     68  C   UNL A   1      44.927  26.657  36.087  1.00  0.00     0.198 A 
ATOM     69  C   UNL A   1      46.364  28.242  34.992  1.00  0.00     0.198 A 
ATOM     70  F   UNL A   1      45.437  30.092  33.874  1.00  0.00    -0.203 F 
ATOM     71  F   UNL A   1      44.772  25.562  36.843  1.00  0.00    -0.200 F 
ATOM     72  C   UNL A   1      46.201  27.090  35.746  1.00  0.00     0.200 A 
ATOM     73  F   UNL A   1      47.592  28.652  34.646  1.00  0.00    -0.200 F 
ATOM     74  F   UNL A   1      47.275  26.399  36.152  1.00  0.00    -0.200 F 
ENDBRANCH  41  64
ENDBRANCH  15  16
ENDBRANCH   8  10
ENDBRANCH   7   8
ENDBRANCH   6   7
ENDBRANCH   5   6
ENDBRANCH   4   5
ENDBRANCH   3   4
ENDBRANCH   2   3
ENDBRANCH   1   2
BRANCH   1  75
ATOM     75  C   UNL A   1      33.789  28.583  24.267  1.00  0.00     0.188 C 
BRANCH  75  76
ATOM     76  C   UNL A   1      34.183  28.756  22.784  1.00  0.00     0.188 C 
BRANCH  76  77
ATOM     77  O   UNL A   1      33.874  27.771  21.824  1.00  0.00    -0.376 OA
BRANCH  77  78
ATOM     78  C   UNL A   1      33.788  26.414  22.201  1.00  0.00     0.202 C 
BRANCH  78  79
ATOM     79  C   UNL A   1      32.559  25.519  21.931  1.00  0.00     0.261 C 
BRANCH  79  80
ATOM     80  O   UNL A   1      31.279  26.132  21.695  1.00  0.00    -0.463 OA
BRANCH  80  81
ATOM     81  C   UNL A   1      30.663  26.708  22.757  1.00  0.00     0.310 C 
ATOM     82  O   UNL A   1      30.637  27.920  22.961  1.00  0.00    -0.252 OA
BRANCH  81  83
ATOM     83  C   UNL A   1      29.967  25.713  23.677  1.00  0.00     0.120 C 
ATOM     84  C   UNL A   1      29.962  26.080  25.164  1.00  0.00     0.039 C 
ATOM     85  C   UNL A   1      30.493  24.275  23.626  1.00  0.00     0.135 C 
ATOM     86  C   UNL A   1      30.967  25.152  25.821  1.00  0.00     0.121 C 
ATOM     87  N   UNL A   1      31.009  23.980  24.961  1.00  0.00    -0.338 N 
BRANCH  87  88
ATOM     88  C   UNL A   1      31.576  22.757  25.276  1.00  0.00     0.259 C 
ATOM     89  O   UNL A   1      30.911  21.772  25.620  1.00  0.00    -0.269 OA
BRANCH  88  90
ATOM     90  C   UNL A   1      33.044  22.660  25.292  1.00  0.00     0.111 A 
ATOM     91  C   UNL A   1      33.710  22.788  26.512  1.00  0.00     0.140 A 
ATOM     92  C   UNL A   1      33.785  22.372  24.149  1.00  0.00     0.140 A 
ATOM     93  F   UNL A   1      33.027  23.014  27.644  1.00  0.00    -0.206 F 
ATOM     94  C   UNL A   1      35.097  22.705  26.591  1.00  0.00     0.056 A 
ATOM     95  C   UNL A   1      35.178  22.275  24.212  1.00  0.00     0.056 A 
ATOM     96  F   UNL A   1      33.187  22.214  22.960  1.00  0.00    -0.206 F 
ATOM     97  C   UNL A   1      35.828  22.453  25.434  1.00  0.00     0.023 A 
ATOM     98  Br  UNL A   1      37.712  22.361  25.528  1.00  0.00    -0.051 Br
ENDBRANCH  88  90
ENDBRANCH  87  88
ENDBRANCH  81  83
ENDBRANCH  80  81
ENDBRANCH  79  80
ENDBRANCH  78  79
ENDBRANCH  77  78
ENDBRANCH  76  77
ENDBRANCH  75  76
ENDBRANCH   1  75
TORSDOF 22
ENDMDL
MODEL 3
REMARK VINA RESULT:     -10.2      2.790      8.283
REMARK SMILES O=C(OCCOCCOCCOCCOC(=O)[C@@H]1CCN(C(=O)c2c(F)cc(Br)cc2F)C1)c1ccc(-c2c3nc(c(-c4c(F)c(F)c(F)c(F)c4F)c4ccc([nH]4)c(-c4c(F)c(F)c(F)c(F)c4F)c4nc(c(-c5c(F)c(F)c(F)c(F)c5F)c5ccc2[nH]5)C=C4)C=C3)cc1
REMARK SMILES IDX 9 1 8 2 7 3 6 4 5 5 4 6 3 7 2 8 1 9 34 10 35 11 96 12 36 13
REMARK SMILES IDX 95 14 37 15 38 16 39 17 89 18 40 19 94 20 88 21 90 22 41 23
REMARK SMILES IDX 93 24 87 25 86 26 42 28 74 29 54 30 73 31 55 32 58 33 72 34
REMARK SMILES IDX 91 35 56 36 57 37 71 39 92 40 59 41 43 42 44 43 52 44 45 45
REMARK SMILES IDX 46 46 50 47 53 48 47 49 48 50 51 51 49 52 75 53 76 54 84 55
REMARK SMILES IDX 77 56 78 57 82 58 85 59 79 60 80 61 83 62 81 63 60 64 61 65
REMARK SMILES IDX 69 66 62 67 63 68 67 69 70 70 64 71 65 72 68 73 66 74 10 75
REMARK SMILES IDX 11 76 12 77 13 78 14 79 15 80 16 81 17 82 18 83 19 84 33 85
REMARK SMILES IDX 20 86 21 87 22 88 23 89 24 90 25 91 31 92 26 93 27 94 30 95
REMARK SMILES IDX 32 96 28 97 29 98
REMARK H PARENT 90 27 58 38
REMARK Flexibility Score: inf
ROOT
ATOM      1  O   UNL A   1      34.190  26.503  24.328  1.00  0.00    -0.377 OA
ENDROOT
BRANCH   1   2
ATOM      2  C   UNL A   1      33.176  27.409  24.732  1.00  0.00     0.188 C 
BRANCH   2   3
ATOM      3  C   UNL A   1      33.608  28.829  25.068  1.00  0.00     0.188 C 
BRANCH   3   4
ATOM      4  O   UNL A   1      32.902  29.309  26.209  1.00  0.00    -0.376 OA
BRANCH   4   5
ATOM      5  C   UNL A   1      33.500  30.394  26.925  1.00  0.00     0.202 C 
BRANCH   5   6
ATOM      6  C   UNL A   1      32.564  31.539  27.306  1.00  0.00     0.261 C 
BRANCH   6   7
ATOM      7  O   UNL A   1      33.161  32.847  27.279  1.00  0.00    -0.460 OA
BRANCH   7   8
ATOM      8  C   UNL A   1      33.455  33.701  28.291  1.00  0.00     0.338 C 
ATOM      9  O   UNL A   1      32.796  34.731  28.391  1.00  0.00    -0.246 OA
BRANCH   8  10
ATOM     10  C   UNL A   1      34.547  33.486  29.288  1.00  0.00     0.060 A 
ATOM     11  C   UNL A   1      35.842  33.981  29.181  1.00  0.00     0.016 A 
ATOM     12  C   UNL A   1      34.222  32.775  30.455  1.00  0.00     0.016 A 
ATOM     13  C   UNL A   1      36.815  33.725  30.123  1.00  0.00     0.010 A 
ATOM     14  C   UNL A   1      35.192  32.506  31.426  1.00  0.00     0.010 A 
ATOM     15  C   UNL A   1      36.504  32.943  31.223  1.00  0.00    -0.014 A 
BRANCH  15  16
ATOM     16  C   UNL A   1      37.654  32.362  31.926  1.00  0.00     0.031 A 
ATOM     17  C   UNL A   1      38.477  31.372  31.160  1.00  0.00     0.074 A 
ATOM     18  C   UNL A   1      38.069  32.895  33.086  1.00  0.00     0.049 A 
ATOM     19  N   UNL A   1      39.498  30.661  31.543  1.00  0.00    -0.248 NA
ATOM     20  C   UNL A   1      38.100  31.166  29.747  1.00  0.00     0.031 C 
ATOM     21  C   UNL A   1      37.440  34.031  33.767  1.00  0.00     0.029 A 
ATOM     22  N   UNL A   1      39.148  32.593  33.867  1.00  0.00    -0.354 N 
ATOM     23  C   UNL A   1      39.836  29.877  30.447  1.00  0.00     0.074 A 
ATOM     24  C   UNL A   1      38.928  30.206  29.376  1.00  0.00     0.031 C 
ATOM     25  C   UNL A   1      38.165  34.346  34.852  1.00  0.00     0.029 A 
ATOM     26  C   UNL A   1      39.243  33.376  34.989  1.00  0.00     0.049 A 
ATOM     27  H   UNL A   1      39.793  31.883  33.646  1.00  0.00     0.167 HD
ATOM     28  C   UNL A   1      40.813  28.948  30.370  1.00  0.00     0.037 A 
ATOM     29  C   UNL A   1      40.090  33.268  36.027  1.00  0.00     0.037 A 
ATOM     30  C   UNL A   1      41.705  28.686  31.465  1.00  0.00     0.049 A 
ATOM     31  C   UNL A   1      41.096  32.150  35.972  1.00  0.00     0.074 A 
ATOM     32  C   UNL A   1      42.688  27.724  31.579  1.00  0.00     0.029 A 
ATOM     33  N   UNL A   1      41.712  29.418  32.649  1.00  0.00    -0.354 N 
ATOM     34  N   UNL A   1      41.337  31.299  34.999  1.00  0.00    -0.248 NA
ATOM     35  C   UNL A   1      41.933  31.956  37.160  1.00  0.00     0.031 C 
ATOM     36  C   UNL A   1      43.250  27.840  32.856  1.00  0.00     0.029 A 
ATOM     37  C   UNL A   1      42.668  28.919  33.510  1.00  0.00     0.049 A 
ATOM     38  H   UNL A   1      41.120  30.180  32.842  1.00  0.00     0.167 HD
ATOM     39  C   UNL A   1      42.368  30.487  35.441  1.00  0.00     0.074 A 
ATOM     40  C   UNL A   1      42.714  30.959  36.771  1.00  0.00     0.031 C 
ATOM     41  C   UNL A   1      42.978  29.447  34.817  1.00  0.00     0.037 A 
BRANCH  28  42
ATOM     42  C   UNL A   1      40.850  28.102  29.131  1.00  0.00     0.064 A 
ATOM     43  C   UNL A   1      41.647  28.417  28.019  1.00  0.00     0.173 A 
ATOM     44  C   UNL A   1      39.987  26.999  29.022  1.00  0.00     0.173 A 
ATOM     45  F   UNL A   1      42.460  29.484  28.052  1.00  0.00    -0.203 F 
ATOM     46  C   UNL A   1      41.543  27.692  26.832  1.00  0.00     0.198 A 
ATOM     47  C   UNL A   1      39.910  26.256  27.846  1.00  0.00     0.198 A 
ATOM     48  F   UNL A   1      39.191  26.660  30.046  1.00  0.00    -0.203 F 
ATOM     49  F   UNL A   1      42.248  28.067  25.755  1.00  0.00    -0.200 F 
ATOM     50  C   UNL A   1      40.677  26.613  26.748  1.00  0.00     0.200 A 
ATOM     51  F   UNL A   1      39.072  25.215  27.769  1.00  0.00    -0.200 F 
ATOM     52  F   UNL A   1      40.562  25.930  25.600  1.00  0.00    -0.200 F 
ENDBRANCH  28  42
BRANCH  29  53
ATOM     53  C   UNL A   1      39.978  34.181  37.196  1.00  0.00     0.064 A 
ATOM     54  C   UNL A   1      39.136  33.883  38.275  1.00  0.00     0.173 A 
ATOM     55  C   UNL A   1      40.713  35.378  37.261  1.00  0.00     0.173 A 
ATOM     56  F   UNL A   1      38.397  32.764  38.259  1.00  0.00    -0.203 F 
ATOM     57  C   UNL A   1      39.021  34.750  39.362  1.00  0.00     0.198 A 
ATOM     58  C   UNL A   1      40.622  36.226  38.361  1.00  0.00     0.198 A 
ATOM     59  F   UNL A   1      41.534  35.719  36.256  1.00  0.00    -0.203 F 
ATOM     60  F   UNL A   1      38.172  34.460  40.359  1.00  0.00    -0.200 F 
ATOM     61  C   UNL A   1      39.768  35.916  39.408  1.00  0.00     0.200 A 
ATOM     62  F   UNL A   1      41.358  37.345  38.406  1.00  0.00    -0.200 F 
ATOM     63  F   UNL A   1      39.659  36.746  40.454  1.00  0.00    -0.200 F 
ENDBRANCH  29  53
BRANCH  41  64
ATOM     64  C   UNL A   1      44.120  28.809  35.545  1.00  0.00     0.064 A 
ATOM     65  C   UNL A   1      45.427  29.306  35.456  1.00  0.00     0.173 A 
ATOM     66  C   UNL A   1      43.883  27.710  36.385  1.00  0.00     0.173 A 
ATOM     67  F   UNL A   1      45.700  30.346  34.652  1.00  0.00    -0.203 F 
ATOM     68  C   UNL A   1      46.465  28.706  36.158  1.00  0.00     0.198 A 
ATOM     69  C   UNL A   1      44.916  27.137  37.116  1.00  0.00     0.198 A 
ATOM     70  F   UNL A   1      42.645  27.209  36.510  1.00  0.00    -0.203 F 
ATOM     71  F   UNL A   1      47.717  29.159  36.017  1.00  0.00    -0.200 F 
ATOM     72  C   UNL A   1      46.207  27.628  36.995  1.00  0.00     0.200 A 
ATOM     73  F   UNL A   1      44.661  26.110  37.939  1.00  0.00    -0.200 F 
ATOM     74  F   UNL A   1      47.206  27.059  37.682  1.00  0.00    -0.200 F 
ENDBRANCH  41  64
ENDBRANCH  15  16
ENDBRANCH   8  10
ENDBRANCH   7   8
ENDBRANCH   6   7
ENDBRANCH   5   6
ENDBRANCH   4   5
ENDBRANCH   3   4
ENDBRANCH   2   3
ENDBRANCH   1   2
BRANCH   1  75
ATOM     75  C   UNL A   1      33.777  25.214  23.917  1.00  0.00     0.188 C 
BRANCH  75  76
ATOM     76  C   UNL A   1      32.879  24.346  24.824  1.00  0.00     0.188 C 
BRANCH  76  77
ATOM     77  O   UNL A   1      33.116  24.246  26.211  1.00  0.00    -0.376 OA
BRANCH  77  78
ATOM     78  C   UNL A   1      33.251  22.980  26.819  1.00  0.00     0.202 C 
BRANCH  78  79
ATOM     79  C   UNL A   1      34.607  22.298  27.101  1.00  0.00     0.261 C 
BRANCH  79  80
ATOM     80  O   UNL A   1      35.677  22.435  26.149  1.00  0.00    -0.463 OA
BRANCH  80  81
ATOM     81  C   UNL A   1      35.937  21.370  25.351  1.00  0.00     0.310 C 
ATOM     82  O   UNL A   1      35.110  20.506  25.067  1.00  0.00    -0.252 OA
BRANCH  81  83
ATOM     83  C   UNL A   1      37.359  21.348  24.802  1.00  0.00     0.120 C 
ATOM     84  C   UNL A   1      37.933  19.958  24.512  1.00  0.00     0.039 C 
ATOM     85  C   UNL A   1      38.418  22.043  25.662  1.00  0.00     0.135 C 
ATOM     86  C   UNL A   1      38.938  19.690  25.616  1.00  0.00     0.121 C 
ATOM     87  N   UNL A   1      39.372  21.008  26.053  1.00  0.00    -0.338 N 
BRANCH  87  88
ATOM     88  C   UNL A   1      40.469  21.283  26.852  1.00  0.00     0.259 C 
ATOM     89  O   UNL A   1      40.373  21.747  27.994  1.00  0.00    -0.269 OA
BRANCH  88  90
ATOM     90  C   UNL A   1      41.809  21.098  26.273  1.00  0.00     0.111 A 
ATOM     91  C   UNL A   1      42.311  19.802  26.148  1.00  0.00     0.140 A 
ATOM     92  C   UNL A   1      42.560  22.160  25.779  1.00  0.00     0.140 A 
ATOM     93  F   UNL A   1      41.594  18.747  26.564  1.00  0.00    -0.206 F 
ATOM     94  C   UNL A   1      43.571  19.564  25.607  1.00  0.00     0.056 A 
ATOM     95  C   UNL A   1      43.824  21.938  25.223  1.00  0.00     0.056 A 
ATOM     96  F   UNL A   1      42.108  23.420  25.853  1.00  0.00    -0.206 F 
ATOM     97  C   UNL A   1      44.326  20.639  25.150  1.00  0.00     0.023 A 
ATOM     98  Br  UNL A   1      46.047  20.326  24.435  1.00  0.00    -0.051 Br
ENDBRANCH  88  90
ENDBRANCH  87  88
ENDBRANCH  81  83
ENDBRANCH  80  81
ENDBRANCH  79  80
ENDBRANCH  78  79
ENDBRANCH  77  78
ENDBRANCH  76  77
ENDBRANCH  75  76
ENDBRANCH   1  75
TORSDOF 22
ENDMDL
