MODEL 1
REMARK VINA RESULT:      -9.7      0.000      0.000
REMARK SMILES O=C(CC[NH+]1CCC([N@H+]2CCC[C@H](C(=O)NCc3cccnc3)C2)CC1)OCCOCCOCCOCCOC(=O)c1ccc(-c2c3nc(c(-c4c(F)c(F)c(F)c(F)c4F)c4ccc([nH]4)c(-c4c(F)c(F)c(F)c(F)c4F)c4nc(c(-c5c(F)c(F)c(F)c(F)c5F)c5ccc2[nH]5)C=C4)C=C3)cc1
REMARK SMILES IDX 31 1 30 2 29 3 28 4 27 5 2 6 1 7 3 8 4 9 5 10 6 11 26 12
REMARK SMILES IDX 7 14 25 15 8 16 9 17 10 18 24 19 11 21 13 22 12 23 14 24
REMARK SMILES IDX 15 25 16 26 17 28 18 29 19 30 23 31 20 32 22 33 21 34 32 35
REMARK SMILES IDX 33 36 34 37 35 38 36 39 37 40 38 41 39 42 40 43 41 44 42 45
REMARK SMILES IDX 43 46 104 47 44 48 103 49 45 50 46 51 47 52 97 53 48 54
REMARK SMILES IDX 102 55 96 56 98 57 49 58 101 59 95 60 94 61 50 63 82 64
REMARK SMILES IDX 62 65 81 66 63 67 66 68 80 69 99 70 64 71 65 72 79 74 100 75
REMARK SMILES IDX 67 76 51 77 52 78 60 79 53 80 54 81 58 82 61 83 55 84 56 85
REMARK SMILES IDX 59 86 57 87 83 88 84 89 92 90 85 91 86 92 90 93 93 94 87 95
REMARK SMILES IDX 88 96 91 97 89 98 68 99 69 100 77 101 70 102 71 103 75 104
REMARK SMILES IDX 78 105 72 106 73 107 76 108 74 109
REMARK H PARENT 5 13 9 20 16 27 98 62 66 73
REMARK Flexibility Score: inf
ROOT
ATOM      1  C   UNL A   1      34.138  25.146  24.514  1.00  0.00     0.188 C 
ENDROOT
BRANCH   1   2
ATOM      2  O   UNL A   1      33.483  26.189  23.813  1.00  0.00    -0.376 OA
BRANCH   2   3
ATOM      3  C   UNL A   1      33.603  26.354  22.411  1.00  0.00     0.202 C 
BRANCH   3   4
ATOM      4  C   UNL A   1      33.246  27.674  21.741  1.00  0.00     0.261 C 
BRANCH   4   5
ATOM      5  O   UNL A   1      32.590  28.655  22.556  1.00  0.00    -0.463 OA
BRANCH   5   6
ATOM      6  C   UNL A   1      31.273  28.589  22.855  1.00  0.00     0.311 C 
ATOM      7  O   UNL A   1      30.459  28.253  21.997  1.00  0.00    -0.252 OA
BRANCH   6   8
ATOM      8  C   UNL A   1      30.826  29.070  24.210  1.00  0.00     0.184 C 
BRANCH   8   9
ATOM      9  C   UNL A   1      31.403  28.229  25.341  1.00  0.00     0.274 C 
BRANCH   9  10
ATOM     10  N   UNL A   1      32.208  29.043  26.259  1.00  0.00    -0.334 N 
ATOM     11  C   UNL A   1      31.685  30.403  26.423  1.00  0.00     0.268 C 
ATOM     12  C   UNL A   1      33.647  28.989  26.037  1.00  0.00     0.268 C 
ATOM     13  H   UNL A   1      32.095  28.585  27.164  1.00  0.00     0.348 HD
ATOM     14  C   UNL A   1      32.711  31.392  26.987  1.00  0.00     0.126 C 
ATOM     15  C   UNL A   1      34.403  29.534  27.263  1.00  0.00     0.126 C 
ATOM     16  C   UNL A   1      33.675  30.705  27.965  1.00  0.00     0.195 C 
BRANCH  16  17
ATOM     17  N   UNL A   1      34.622  31.588  28.684  1.00  0.00    -0.331 N 
ATOM     18  C   UNL A   1      35.906  31.754  27.995  1.00  0.00     0.262 C 
ATOM     19  C   UNL A   1      34.000  32.872  29.057  1.00  0.00     0.275 C 
ATOM     20  H   UNL A   1      34.852  31.106  29.554  1.00  0.00     0.348 HD
ATOM     21  C   UNL A   1      36.883  32.585  28.817  1.00  0.00     0.062 C 
ATOM     22  C   UNL A   1      34.920  33.903  29.716  1.00  0.00     0.133 C 
ATOM     23  C   UNL A   1      36.322  33.961  29.118  1.00  0.00     0.025 C 
BRANCH  22  24
ATOM     24  C   UNL A   1      34.920  34.023  31.239  1.00  0.00     0.229 C 
ATOM     25  O   UNL A   1      33.845  34.288  31.795  1.00  0.00    -0.275 OA
ATOM     26  N   UNL A   1      35.997  33.924  32.048  1.00  0.00    -0.352 N 
ATOM     27  H   UNL A   1      35.800  34.130  32.989  1.00  0.00     0.163 HD
BRANCH  26  28
ATOM     28  C   UNL A   1      37.381  33.575  31.813  1.00  0.00     0.153 C 
BRANCH  28  29
ATOM     29  C   UNL A   1      38.009  32.705  32.866  1.00  0.00    -0.010 A 
ATOM     30  C   UNL A   1      37.271  32.350  34.005  1.00  0.00     0.009 A 
ATOM     31  C   UNL A   1      39.273  32.139  32.740  1.00  0.00     0.116 A 
ATOM     32  C   UNL A   1      37.804  31.464  34.937  1.00  0.00     0.020 A 
ATOM     33  N   UNL A   1      39.814  31.270  33.628  1.00  0.00    -0.264 NA
ATOM     34  C   UNL A   1      39.065  30.947  34.702  1.00  0.00     0.111 A 
ENDBRANCH  28  29
ENDBRANCH  26  28
ENDBRANCH  22  24
ENDBRANCH  16  17
ENDBRANCH   9  10
ENDBRANCH   8   9
ENDBRANCH   6   8
ENDBRANCH   5   6
ENDBRANCH   4   5
ENDBRANCH   3   4
ENDBRANCH   2   3
ENDBRANCH   1   2
BRANCH   1  35
ATOM     35  C   UNL A   1      34.308  23.833  23.750  1.00  0.00     0.188 C 
BRANCH  35  36
ATOM     36  O   UNL A   1      35.562  23.700  23.093  1.00  0.00    -0.377 OA
BRANCH  36  37
ATOM     37  C   UNL A   1      36.359  22.597  23.494  1.00  0.00     0.188 C 
BRANCH  37  38
ATOM     38  C   UNL A   1      37.271  22.798  24.730  1.00  0.00     0.188 C 
BRANCH  38  39
ATOM     39  O   UNL A   1      37.662  21.734  25.585  1.00  0.00    -0.376 OA
BRANCH  39  40
ATOM     40  C   UNL A   1      39.026  21.561  25.919  1.00  0.00     0.202 C 
BRANCH  40  41
ATOM     41  C   UNL A   1      39.538  20.125  26.106  1.00  0.00     0.261 C 
BRANCH  41  42
ATOM     42  O   UNL A   1      40.732  19.798  25.377  1.00  0.00    -0.460 OA
BRANCH  42  43
ATOM     43  C   UNL A   1      41.833  19.533  26.123  1.00  0.00     0.338 C 
ATOM     44  O   UNL A   1      42.295  18.437  26.396  1.00  0.00    -0.246 OA
BRANCH  43  45
ATOM     45  C   UNL A   1      42.547  20.802  26.415  1.00  0.00     0.060 A 
ATOM     46  C   UNL A   1      42.665  21.208  27.754  1.00  0.00     0.016 A 
ATOM     47  C   UNL A   1      43.119  21.574  25.401  1.00  0.00     0.016 A 
ATOM     48  C   UNL A   1      43.346  22.383  28.083  1.00  0.00     0.010 A 
ATOM     49  C   UNL A   1      43.769  22.770  25.728  1.00  0.00     0.010 A 
ATOM     50  C   UNL A   1      43.868  23.191  27.067  1.00  0.00    -0.014 A 
BRANCH  50  51
ATOM     51  C   UNL A   1      44.330  24.569  27.370  1.00  0.00     0.031 A 
ATOM     52  C   UNL A   1      43.318  25.558  27.877  1.00  0.00     0.074 A 
ATOM     53  C   UNL A   1      45.603  24.954  27.168  1.00  0.00     0.049 A 
ATOM     54  N   UNL A   1      43.438  26.845  28.076  1.00  0.00    -0.248 NA
ATOM     55  C   UNL A   1      41.984  25.020  28.195  1.00  0.00     0.031 C 
ATOM     56  C   UNL A   1      46.689  24.086  26.725  1.00  0.00     0.029 A 
ATOM     57  N   UNL A   1      46.190  26.190  27.299  1.00  0.00    -0.354 N 
ATOM     58  C   UNL A   1      42.191  27.275  28.507  1.00  0.00     0.074 A 
ATOM     59  C   UNL A   1      41.330  26.114  28.554  1.00  0.00     0.031 C 
ATOM     60  C   UNL A   1      47.808  24.822  26.598  1.00  0.00     0.029 A 
ATOM     61  C   UNL A   1      47.510  26.220  26.914  1.00  0.00     0.049 A 
ATOM     62  H   UNL A   1      45.710  26.981  27.637  1.00  0.00     0.167 HD
ATOM     63  C   UNL A   1      41.796  28.530  28.820  1.00  0.00     0.037 A 
ATOM     64  C   UNL A   1      48.362  27.261  26.798  1.00  0.00     0.037 A 
ATOM     65  C   UNL A   1      42.650  29.685  28.782  1.00  0.00     0.049 A 
ATOM     66  C   UNL A   1      47.873  28.659  27.103  1.00  0.00     0.074 A 
ATOM     67  C   UNL A   1      42.344  30.992  29.122  1.00  0.00     0.029 A 
ATOM     68  N   UNL A   1      43.973  29.677  28.370  1.00  0.00    -0.354 N 
ATOM     69  N   UNL A   1      46.699  29.056  27.533  1.00  0.00    -0.248 NA
ATOM     70  C   UNL A   1      48.823  29.761  26.876  1.00  0.00     0.031 C 
ATOM     71  C   UNL A   1      43.461  31.786  28.851  1.00  0.00     0.029 A 
ATOM     72  C   UNL A   1      44.482  30.964  28.403  1.00  0.00     0.049 A 
ATOM     73  H   UNL A   1      44.475  28.876  28.096  1.00  0.00     0.167 HD
ATOM     74  C   UNL A   1      46.779  30.440  27.646  1.00  0.00     0.074 A 
ATOM     75  C   UNL A   1      48.121  30.817  27.263  1.00  0.00     0.031 C 
ATOM     76  C   UNL A   1      45.822  31.324  28.019  1.00  0.00     0.037 A 
BRANCH  63  77
ATOM     77  C   UNL A   1      40.358  28.741  29.183  1.00  0.00     0.064 A 
ATOM     78  C   UNL A   1      39.358  28.869  28.210  1.00  0.00     0.173 A 
ATOM     79  C   UNL A   1      39.970  28.739  30.532  1.00  0.00     0.173 A 
ATOM     80  F   UNL A   1      39.681  28.896  26.908  1.00  0.00    -0.203 F 
ATOM     81  C   UNL A   1      38.020  28.993  28.575  1.00  0.00     0.198 A 
ATOM     82  C   UNL A   1      38.631  28.836  30.892  1.00  0.00     0.198 A 
ATOM     83  F   UNL A   1      40.892  28.620  31.500  1.00  0.00    -0.203 F 
ATOM     84  F   UNL A   1      37.080  29.142  27.631  1.00  0.00    -0.200 F 
ATOM     85  C   UNL A   1      37.657  28.965  29.914  1.00  0.00     0.200 A 
ATOM     86  F   UNL A   1      38.282  28.796  32.186  1.00  0.00    -0.200 F 
ATOM     87  F   UNL A   1      36.367  29.063  30.262  1.00  0.00    -0.200 F 
ENDBRANCH  63  77
BRANCH  64  88
ATOM     88  C   UNL A   1      49.757  27.053  26.313  1.00  0.00     0.064 A 
ATOM     89  C   UNL A   1      50.067  27.081  24.944  1.00  0.00     0.173 A 
ATOM     90  C   UNL A   1      50.797  26.739  27.204  1.00  0.00     0.173 A 
ATOM     91  F   UNL A   1      49.104  27.308  24.040  1.00  0.00    -0.203 F 
ATOM     92  C   UNL A   1      51.351  26.785  24.487  1.00  0.00     0.198 A 
ATOM     93  C   UNL A   1      52.087  26.476  26.748  1.00  0.00     0.198 A 
ATOM     94  F   UNL A   1      50.558  26.677  28.522  1.00  0.00    -0.203 F 
ATOM     95  F   UNL A   1      51.602  26.747  23.171  1.00  0.00    -0.200 F 
ATOM     96  C   UNL A   1      52.361  26.488  25.389  1.00  0.00     0.200 A 
ATOM     97  F   UNL A   1      53.060  26.194  27.624  1.00  0.00    -0.200 F 
ATOM     98  F   UNL A   1      53.592  26.192  24.950  1.00  0.00    -0.200 F 
ENDBRANCH  64  88
BRANCH  76  99
ATOM     99  C   UNL A   1      46.186  32.781  28.044  1.00  0.00     0.064 A 
ATOM    100  C   UNL A   1      46.850  33.351  29.140  1.00  0.00     0.173 A 
ATOM    101  C   UNL A   1      45.930  33.600  26.933  1.00  0.00     0.173 A 
ATOM    102  F   UNL A   1      47.109  32.615  30.230  1.00  0.00    -0.203 F 
ATOM    103  C   UNL A   1      47.229  34.691  29.130  1.00  0.00     0.198 A 
ATOM    104  C   UNL A   1      46.337  34.931  26.914  1.00  0.00     0.198 A 
ATOM    105  F   UNL A   1      45.308  33.102  25.854  1.00  0.00    -0.203 F 
ATOM    106  F   UNL A   1      47.828  35.224  30.204  1.00  0.00    -0.200 F 
ATOM    107  C   UNL A   1      46.980  35.478  28.015  1.00  0.00     0.200 A 
ATOM    108  F   UNL A   1      46.113  35.684  25.828  1.00  0.00    -0.200 F 
ATOM    109  F   UNL A   1      47.360  36.763  28.000  1.00  0.00    -0.200 F 
ENDBRANCH  76  99
ENDBRANCH  50  51
ENDBRANCH  43  45
ENDBRANCH  42  43
ENDBRANCH  41  42
ENDBRANCH  40  41
ENDBRANCH  39  40
ENDBRANCH  38  39
ENDBRANCH  37  38
ENDBRANCH  36  37
ENDBRANCH  35  36
ENDBRANCH   1  35
TORSDOF 26
ENDMDL
MODEL 2
REMARK VINA RESULT:      -9.5      4.066     10.226
REMARK SMILES O=C(CC[NH+]1CCC([N@H+]2CCC[C@H](C(=O)NCc3cccnc3)C2)CC1)OCCOCCOCCOCCOC(=O)c1ccc(-c2c3nc(c(-c4c(F)c(F)c(F)c(F)c4F)c4ccc([nH]4)c(-c4c(F)c(F)c(F)c(F)c4F)c4nc(c(-c5c(F)c(F)c(F)c(F)c5F)c5ccc2[nH]5)C=C4)C=C3)cc1
REMARK SMILES IDX 31 1 30 2 29 3 28 4 27 5 2 6 1 7 3 8 4 9 5 10 6 11 26 12
REMARK SMILES IDX 7 14 25 15 8 16 9 17 10 18 24 19 11 21 13 22 12 23 14 24
REMARK SMILES IDX 15 25 16 26 17 28 18 29 19 30 23 31 20 32 22 33 21 34 32 35
REMARK SMILES IDX 33 36 34 37 35 38 36 39 37 40 38 41 39 42 40 43 41 44 42 45
REMARK SMILES IDX 43 46 104 47 44 48 103 49 45 50 46 51 47 52 97 53 48 54
REMARK SMILES IDX 102 55 96 56 98 57 49 58 101 59 95 60 94 61 50 63 82 64
REMARK SMILES IDX 62 65 81 66 63 67 66 68 80 69 99 70 64 71 65 72 79 74 100 75
REMARK SMILES IDX 67 76 51 77 52 78 60 79 53 80 54 81 58 82 61 83 55 84 56 85
REMARK SMILES IDX 59 86 57 87 83 88 84 89 92 90 85 91 86 92 90 93 93 94 87 95
REMARK SMILES IDX 88 96 91 97 89 98 68 99 69 100 77 101 70 102 71 103 75 104
REMARK SMILES IDX 78 105 72 106 73 107 76 108 74 109
REMARK H PARENT 5 13 9 20 16 27 98 62 66 73
REMARK Flexibility Score: inf
ROOT
ATOM      1  C   UNL A   1      33.829  35.924  28.658  1.00  0.00     0.188 C 
ENDROOT
BRANCH   1   2
ATOM      2  O   UNL A   1      32.992  34.798  28.463  1.00  0.00    -0.376 OA
BRANCH   2   3
ATOM      3  C   UNL A   1      33.494  33.543  28.035  1.00  0.00     0.202 C 
BRANCH   3   4
ATOM      4  C   UNL A   1      34.832  33.019  28.539  1.00  0.00     0.261 C 
BRANCH   4   5
ATOM      5  O   UNL A   1      34.794  32.101  29.640  1.00  0.00    -0.463 OA
BRANCH   5   6
ATOM      6  C   UNL A   1      35.843  31.314  29.968  1.00  0.00     0.311 C 
ATOM      7  O   UNL A   1      36.084  31.063  31.147  1.00  0.00    -0.252 OA
BRANCH   6   8
ATOM      8  C   UNL A   1      36.777  30.880  28.870  1.00  0.00     0.184 C 
BRANCH   8   9
ATOM      9  C   UNL A   1      36.755  29.374  28.653  1.00  0.00     0.274 C 
BRANCH   9  10
ATOM     10  N   UNL A   1      38.044  28.883  28.156  1.00  0.00    -0.334 N 
ATOM     11  C   UNL A   1      38.199  27.432  28.308  1.00  0.00     0.268 C 
ATOM     12  C   UNL A   1      39.208  29.646  28.589  1.00  0.00     0.268 C 
ATOM     13  H   UNL A   1      38.010  29.061  27.152  1.00  0.00     0.348 HD
ATOM     14  C   UNL A   1      39.654  26.957  28.232  1.00  0.00     0.126 C 
ATOM     15  C   UNL A   1      40.431  29.308  27.717  1.00  0.00     0.126 C 
ATOM     16  C   UNL A   1      40.479  27.827  27.272  1.00  0.00     0.195 C 
BRANCH  16  17
ATOM     17  N   UNL A   1      41.866  27.379  27.007  1.00  0.00    -0.331 N 
ATOM     18  C   UNL A   1      42.488  28.045  25.857  1.00  0.00     0.262 C 
ATOM     19  C   UNL A   1      42.701  27.430  28.221  1.00  0.00     0.275 C 
ATOM     20  H   UNL A   1      41.798  26.397  26.735  1.00  0.00     0.348 HD
ATOM     21  C   UNL A   1      43.872  27.483  25.560  1.00  0.00     0.062 C 
ATOM     22  C   UNL A   1      44.182  27.085  28.039  1.00  0.00     0.133 C 
ATOM     23  C   UNL A   1      44.796  27.629  26.752  1.00  0.00     0.025 C 
BRANCH  22  24
ATOM     24  C   UNL A   1      44.653  25.671  28.369  1.00  0.00     0.229 C 
ATOM     25  O   UNL A   1      45.674  25.551  29.061  1.00  0.00    -0.275 OA
ATOM     26  N   UNL A   1      44.097  24.520  27.931  1.00  0.00    -0.352 N 
ATOM     27  H   UNL A   1      44.610  23.718  28.177  1.00  0.00     0.163 HD
BRANCH  26  28
ATOM     28  C   UNL A   1      42.899  24.227  27.175  1.00  0.00     0.153 C 
BRANCH  28  29
ATOM     29  C   UNL A   1      42.630  22.765  26.944  1.00  0.00    -0.010 A 
ATOM     30  C   UNL A   1      43.329  22.081  25.939  1.00  0.00     0.009 A 
ATOM     31  C   UNL A   1      41.781  22.006  27.743  1.00  0.00     0.116 A 
ATOM     32  C   UNL A   1      43.163  20.707  25.783  1.00  0.00     0.020 A 
ATOM     33  N   UNL A   1      41.606  20.669  27.617  1.00  0.00    -0.264 NA
ATOM     34  C   UNL A   1      42.305  20.049  26.644  1.00  0.00     0.111 A 
ENDBRANCH  28  29
ENDBRANCH  26  28
ENDBRANCH  22  24
ENDBRANCH  16  17
ENDBRANCH   9  10
ENDBRANCH   8   9
ENDBRANCH   6   8
ENDBRANCH   5   6
ENDBRANCH   4   5
ENDBRANCH   3   4
ENDBRANCH   2   3
ENDBRANCH   1   2
BRANCH   1  35
ATOM     35  C   UNL A   1      33.263  37.029  29.550  1.00  0.00     0.188 C 
BRANCH  35  36
ATOM     36  O   UNL A   1      32.512  36.554  30.661  1.00  0.00    -0.377 OA
BRANCH  36  37
ATOM     37  C   UNL A   1      33.098  36.750  31.937  1.00  0.00     0.188 C 
BRANCH  37  38
ATOM     38  C   UNL A   1      34.054  35.644  32.451  1.00  0.00     0.188 C 
BRANCH  38  39
ATOM     39  O   UNL A   1      33.873  34.267  32.158  1.00  0.00    -0.376 OA
BRANCH  39  40
ATOM     40  C   UNL A   1      34.126  33.293  33.152  1.00  0.00     0.202 C 
BRANCH  40  41
ATOM     41  C   UNL A   1      35.376  33.473  34.026  1.00  0.00     0.261 C 
BRANCH  41  42
ATOM     42  O   UNL A   1      36.486  32.622  33.697  1.00  0.00    -0.460 OA
BRANCH  42  43
ATOM     43  C   UNL A   1      37.368  32.376  34.698  1.00  0.00     0.338 C 
ATOM     44  O   UNL A   1      37.197  32.554  35.892  1.00  0.00    -0.246 OA
BRANCH  43  45
ATOM     45  C   UNL A   1      38.542  31.651  34.151  1.00  0.00     0.060 A 
ATOM     46  C   UNL A   1      39.815  31.966  34.656  1.00  0.00     0.016 A 
ATOM     47  C   UNL A   1      38.406  30.655  33.181  1.00  0.00     0.016 A 
ATOM     48  C   UNL A   1      40.949  31.298  34.190  1.00  0.00     0.010 A 
ATOM     49  C   UNL A   1      39.547  30.012  32.688  1.00  0.00     0.010 A 
ATOM     50  C   UNL A   1      40.826  30.343  33.174  1.00  0.00    -0.014 A 
BRANCH  50  51
ATOM     51  C   UNL A   1      42.031  29.839  32.470  1.00  0.00     0.031 A 
ATOM     52  C   UNL A   1      42.726  28.632  33.034  1.00  0.00     0.074 A 
ATOM     53  C   UNL A   1      42.527  30.452  31.379  1.00  0.00     0.049 A 
ATOM     54  N   UNL A   1      43.866  28.091  32.690  1.00  0.00    -0.248 NA
ATOM     55  C   UNL A   1      42.045  27.947  34.145  1.00  0.00     0.031 C 
ATOM     56  C   UNL A   1      41.926  31.600  30.707  1.00  0.00     0.029 A 
ATOM     57  N   UNL A   1      43.667  30.194  30.656  1.00  0.00    -0.354 N 
ATOM     58  C   UNL A   1      44.054  27.028  33.562  1.00  0.00     0.074 A 
ATOM     59  C   UNL A   1      42.908  26.989  34.443  1.00  0.00     0.031 C 
ATOM     60  C   UNL A   1      42.716  31.963  29.681  1.00  0.00     0.029 A 
ATOM     61  C   UNL A   1      43.897  31.098  29.645  1.00  0.00     0.049 A 
ATOM     62  H   UNL A   1      44.263  29.434  30.843  1.00  0.00     0.167 HD
ATOM     63  C   UNL A   1      45.098  26.171  33.630  1.00  0.00     0.037 A 
ATOM     64  C   UNL A   1      44.955  31.231  28.816  1.00  0.00     0.037 A 
ATOM     65  C   UNL A   1      46.235  26.200  32.752  1.00  0.00     0.049 A 
ATOM     66  C   UNL A   1      46.130  30.290  28.956  1.00  0.00     0.074 A 
ATOM     67  C   UNL A   1      47.322  25.344  32.724  1.00  0.00     0.029 A 
ATOM     68  N   UNL A   1      46.439  27.141  31.755  1.00  0.00    -0.354 N 
ATOM     69  N   UNL A   1      46.290  29.272  29.766  1.00  0.00    -0.248 NA
ATOM     70  C   UNL A   1      47.289  30.537  28.081  1.00  0.00     0.031 C 
ATOM     71  C   UNL A   1      48.216  25.806  31.756  1.00  0.00     0.029 A 
ATOM     72  C   UNL A   1      47.657  26.913  31.138  1.00  0.00     0.049 A 
ATOM     73  H   UNL A   1      45.812  27.862  31.521  1.00  0.00     0.167 HD
ATOM     74  C   UNL A   1      47.549  28.751  29.485  1.00  0.00     0.074 A 
ATOM     75  C   UNL A   1      48.104  29.546  28.414  1.00  0.00     0.031 C 
ATOM     76  C   UNL A   1      48.196  27.714  30.071  1.00  0.00     0.037 A 
BRANCH  63  77
ATOM     77  C   UNL A   1      45.095  25.150  34.728  1.00  0.00     0.064 A 
ATOM     78  C   UNL A   1      44.703  23.823  34.505  1.00  0.00     0.173 A 
ATOM     79  C   UNL A   1      45.564  25.495  36.004  1.00  0.00     0.173 A 
ATOM     80  F   UNL A   1      44.230  23.450  33.307  1.00  0.00    -0.203 F 
ATOM     81  C   UNL A   1      44.777  22.878  35.525  1.00  0.00     0.198 A 
ATOM     82  C   UNL A   1      45.661  24.542  37.013  1.00  0.00     0.198 A 
ATOM     83  F   UNL A   1      45.949  26.753  36.266  1.00  0.00    -0.203 F 
ATOM     84  F   UNL A   1      44.372  21.620  35.301  1.00  0.00    -0.200 F 
ATOM     85  C   UNL A   1      45.266  23.235  36.773  1.00  0.00     0.200 A 
ATOM     86  F   UNL A   1      46.146  24.887  38.214  1.00  0.00    -0.200 F 
ATOM     87  F   UNL A   1      45.356  22.319  37.747  1.00  0.00    -0.200 F 
ENDBRANCH  63  77
BRANCH  64  88
ATOM     88  C   UNL A   1      45.001  32.331  27.810  1.00  0.00     0.064 A 
ATOM     89  C   UNL A   1      45.667  33.538  28.077  1.00  0.00     0.173 A 
ATOM     90  C   UNL A   1      44.310  32.231  26.592  1.00  0.00     0.173 A 
ATOM     91  F   UNL A   1      46.289  33.719  29.250  1.00  0.00    -0.203 F 
ATOM     92  C   UNL A   1      45.623  34.602  27.177  1.00  0.00     0.198 A 
ATOM     93  C   UNL A   1      44.294  33.285  25.679  1.00  0.00     0.198 A 
ATOM     94  F   UNL A   1      43.637  31.111  26.288  1.00  0.00    -0.203 F 
ATOM     95  F   UNL A   1      46.206  35.769  27.489  1.00  0.00    -0.200 F 
ATOM     96  C   UNL A   1      44.941  34.474  25.977  1.00  0.00     0.200 A 
ATOM     97  F   UNL A   1      43.637  33.153  24.519  1.00  0.00    -0.200 F 
ATOM     98  F   UNL A   1      44.888  35.500  25.118  1.00  0.00    -0.200 F 
ENDBRANCH  64  88
BRANCH  76  99
ATOM     99  C   UNL A   1      49.569  27.370  29.567  1.00  0.00     0.064 A 
ATOM    100  C   UNL A   1      50.720  27.936  30.134  1.00  0.00     0.173 A 
ATOM    101  C   UNL A   1      49.738  26.414  28.553  1.00  0.00     0.173 A 
ATOM    102  F   UNL A   1      50.612  28.862  31.097  1.00  0.00    -0.203 F 
ATOM    103  C   UNL A   1      51.989  27.571  29.692  1.00  0.00     0.198 A 
ATOM    104  C   UNL A   1      51.010  26.029  28.135  1.00  0.00     0.198 A 
ATOM    105  F   UNL A   1      48.672  25.833  27.985  1.00  0.00    -0.203 F 
ATOM    106  F   UNL A   1      53.074  28.154  30.222  1.00  0.00    -0.200 F 
ATOM    107  C   UNL A   1      52.134  26.613  28.701  1.00  0.00     0.200 A 
ATOM    108  F   UNL A   1      51.148  25.088  27.191  1.00  0.00    -0.200 F 
ATOM    109  F   UNL A   1      53.357  26.251  28.289  1.00  0.00    -0.200 F 
ENDBRANCH  76  99
ENDBRANCH  50  51
ENDBRANCH  43  45
ENDBRANCH  42  43
ENDBRANCH  41  42
ENDBRANCH  40  41
ENDBRANCH  39  40
ENDBRANCH  38  39
ENDBRANCH  37  38
ENDBRANCH  36  37
ENDBRANCH  35  36
ENDBRANCH   1  35
TORSDOF 26
ENDMDL
MODEL 3
REMARK VINA RESULT:      -9.4      5.348     10.337
REMARK SMILES O=C(CC[NH+]1CCC([N@H+]2CCC[C@H](C(=O)NCc3cccnc3)C2)CC1)OCCOCCOCCOCCOC(=O)c1ccc(-c2c3nc(c(-c4c(F)c(F)c(F)c(F)c4F)c4ccc([nH]4)c(-c4c(F)c(F)c(F)c(F)c4F)c4nc(c(-c5c(F)c(F)c(F)c(F)c5F)c5ccc2[nH]5)C=C4)C=C3)cc1
REMARK SMILES IDX 31 1 30 2 29 3 28 4 27 5 2 6 1 7 3 8 4 9 5 10 6 11 26 12
REMARK SMILES IDX 7 14 25 15 8 16 9 17 10 18 24 19 11 21 13 22 12 23 14 24
REMARK SMILES IDX 15 25 16 26 17 28 18 29 19 30 23 31 20 32 22 33 21 34 32 35
REMARK SMILES IDX 33 36 34 37 35 38 36 39 37 40 38 41 39 42 40 43 41 44 42 45
REMARK SMILES IDX 43 46 104 47 44 48 103 49 45 50 46 51 47 52 97 53 48 54
REMARK SMILES IDX 102 55 96 56 98 57 49 58 101 59 95 60 94 61 50 63 82 64
REMARK SMILES IDX 62 65 81 66 63 67 66 68 80 69 99 70 64 71 65 72 79 74 100 75
REMARK SMILES IDX 67 76 51 77 52 78 60 79 53 80 54 81 58 82 61 83 55 84 56 85
REMARK SMILES IDX 59 86 57 87 83 88 84 89 92 90 85 91 86 92 90 93 93 94 87 95
REMARK SMILES IDX 88 96 91 97 89 98 68 99 69 100 77 101 70 102 71 103 75 104
REMARK SMILES IDX 78 105 72 106 73 107 76 108 74 109
REMARK H PARENT 5 13 9 20 16 27 98 62 66 73
REMARK Flexibility Score: inf
ROOT
ATOM      1  C   UNL A   1      42.480  28.159  25.429  1.00  0.00     0.188 C 
ENDROOT
BRANCH   1   2
ATOM      2  O   UNL A   1      43.376  27.144  25.845  1.00  0.00    -0.376 OA
BRANCH   2   3
ATOM      3  C   UNL A   1      43.579  25.957  25.098  1.00  0.00     0.202 C 
BRANCH   3   4
ATOM      4  C   UNL A   1      42.761  24.703  25.376  1.00  0.00     0.261 C 
BRANCH   4   5
ATOM      5  O   UNL A   1      42.130  24.615  26.661  1.00  0.00    -0.463 OA
BRANCH   5   6
ATOM      6  C   UNL A   1      40.789  24.692  26.820  1.00  0.00     0.311 C 
ATOM      7  O   UNL A   1      40.186  25.715  26.504  1.00  0.00    -0.252 OA
BRANCH   6   8
ATOM      8  C   UNL A   1      40.090  23.556  27.518  1.00  0.00     0.184 C 
BRANCH   8   9
ATOM      9  C   UNL A   1      39.867  22.362  26.600  1.00  0.00     0.274 C 
BRANCH   9  10
ATOM     10  N   UNL A   1      38.448  22.195  26.272  1.00  0.00    -0.334 N 
ATOM     11  C   UNL A   1      38.200  21.060  25.376  1.00  0.00     0.268 C 
ATOM     12  C   UNL A   1      37.752  23.414  25.881  1.00  0.00     0.268 C 
ATOM     13  H   UNL A   1      38.011  21.953  27.162  1.00  0.00     0.348 HD
ATOM     14  C   UNL A   1      36.844  21.123  24.664  1.00  0.00     0.126 C 
ATOM     15  C   UNL A   1      36.226  23.212  25.949  1.00  0.00     0.126 C 
ATOM     16  C   UNL A   1      35.777  21.787  25.546  1.00  0.00     0.195 C 
BRANCH  16  17
ATOM     17  N   UNL A   1      34.391  21.777  25.021  1.00  0.00    -0.331 N 
ATOM     18  C   UNL A   1      33.536  20.762  25.645  1.00  0.00     0.262 C 
ATOM     19  C   UNL A   1      33.790  23.124  25.036  1.00  0.00     0.275 C 
ATOM     20  H   UNL A   1      34.462  21.495  24.043  1.00  0.00     0.348 HD
ATOM     21  C   UNL A   1      32.153  20.720  25.006  1.00  0.00     0.062 C 
ATOM     22  C   UNL A   1      32.322  23.212  24.609  1.00  0.00     0.133 C 
ATOM     23  C   UNL A   1      31.455  22.061  25.110  1.00  0.00     0.025 C 
BRANCH  22  24
ATOM     24  C   UNL A   1      31.996  23.619  23.174  1.00  0.00     0.229 C 
ATOM     25  O   UNL A   1      32.699  23.148  22.268  1.00  0.00    -0.275 OA
ATOM     26  N   UNL A   1      31.044  24.496  22.789  1.00  0.00    -0.352 N 
ATOM     27  H   UNL A   1      31.061  24.695  21.826  1.00  0.00     0.163 HD
BRANCH  26  28
ATOM     28  C   UNL A   1      30.003  25.202  23.504  1.00  0.00     0.153 C 
BRANCH  28  29
ATOM     29  C   UNL A   1      30.310  26.638  23.827  1.00  0.00    -0.010 A 
ATOM     30  C   UNL A   1      31.419  26.948  24.627  1.00  0.00     0.009 A 
ATOM     31  C   UNL A   1      29.602  27.712  23.297  1.00  0.00     0.116 A 
ATOM     32  C   UNL A   1      31.772  28.277  24.850  1.00  0.00     0.020 A 
ATOM     33  N   UNL A   1      29.927  29.013  23.492  1.00  0.00    -0.264 NA
ATOM     34  C   UNL A   1      31.007  29.265  24.259  1.00  0.00     0.111 A 
ENDBRANCH  28  29
ENDBRANCH  26  28
ENDBRANCH  22  24
ENDBRANCH  16  17
ENDBRANCH   9  10
ENDBRANCH   8   9
ENDBRANCH   6   8
ENDBRANCH   5   6
ENDBRANCH   4   5
ENDBRANCH   3   4
ENDBRANCH   2   3
ENDBRANCH   1   2
BRANCH   1  35
ATOM     35  C   UNL A   1      41.877  29.014  26.544  1.00  0.00     0.188 C 
BRANCH  35  36
ATOM     36  O   UNL A   1      40.474  28.851  26.709  1.00  0.00    -0.377 OA
BRANCH  36  37
ATOM     37  C   UNL A   1      40.006  28.811  28.047  1.00  0.00     0.188 C 
BRANCH  37  38
ATOM     38  C   UNL A   1      38.496  29.072  28.275  1.00  0.00     0.188 C 
BRANCH  38  39
ATOM     39  O   UNL A   1      37.995  29.815  29.376  1.00  0.00    -0.376 OA
BRANCH  39  40
ATOM     40  C   UNL A   1      36.712  29.530  29.897  1.00  0.00     0.202 C 
BRANCH  40  41
ATOM     41  C   UNL A   1      36.267  30.290  31.155  1.00  0.00     0.261 C 
BRANCH  41  42
ATOM     42  O   UNL A   1      36.820  29.810  32.392  1.00  0.00    -0.460 OA
BRANCH  42  43
ATOM     43  C   UNL A   1      37.787  30.579  32.952  1.00  0.00     0.338 C 
ATOM     44  O   UNL A   1      37.634  31.577  33.637  1.00  0.00    -0.246 OA
BRANCH  43  45
ATOM     45  C   UNL A   1      39.104  29.913  32.782  1.00  0.00     0.060 A 
ATOM     46  C   UNL A   1      39.136  28.510  32.709  1.00  0.00     0.016 A 
ATOM     47  C   UNL A   1      40.288  30.643  32.667  1.00  0.00     0.016 A 
ATOM     48  C   UNL A   1      40.347  27.837  32.528  1.00  0.00     0.010 A 
ATOM     49  C   UNL A   1      41.504  29.966  32.523  1.00  0.00     0.010 A 
ATOM     50  C   UNL A   1      41.544  28.561  32.473  1.00  0.00    -0.014 A 
BRANCH  50  51
ATOM     51  C   UNL A   1      42.848  27.859  32.575  1.00  0.00     0.031 A 
ATOM     52  C   UNL A   1      43.425  27.637  33.945  1.00  0.00     0.074 A 
ATOM     53  C   UNL A   1      43.529  27.458  31.486  1.00  0.00     0.049 A 
ATOM     54  N   UNL A   1      44.602  27.183  34.289  1.00  0.00    -0.248 NA
ATOM     55  C   UNL A   1      42.557  27.985  35.083  1.00  0.00     0.031 C 
ATOM     56  C   UNL A   1      43.062  27.572  30.108  1.00  0.00     0.029 A 
ATOM     57  N   UNL A   1      44.773  26.886  31.376  1.00  0.00    -0.354 N 
ATOM     58  C   UNL A   1      44.628  27.223  35.676  1.00  0.00     0.074 A 
ATOM     59  C   UNL A   1      43.348  27.733  36.114  1.00  0.00     0.031 C 
ATOM     60  C   UNL A   1      44.019  27.105  29.287  1.00  0.00     0.029 A 
ATOM     61  C   UNL A   1      45.181  26.694  30.077  1.00  0.00     0.049 A 
ATOM     62  H   UNL A   1      45.322  26.637  32.154  1.00  0.00     0.167 HD
ATOM     63  C   UNL A   1      45.637  26.879  36.508  1.00  0.00     0.037 A 
ATOM     64  C   UNL A   1      46.366  26.271  29.587  1.00  0.00     0.037 A 
ATOM     65  C   UNL A   1      46.908  26.364  36.078  1.00  0.00     0.049 A 
ATOM     66  C   UNL A   1      47.492  25.948  30.543  1.00  0.00     0.074 A 
ATOM     67  C   UNL A   1      47.976  25.952  36.856  1.00  0.00     0.029 A 
ATOM     68  N   UNL A   1      47.289  26.202  34.756  1.00  0.00    -0.354 N 
ATOM     69  N   UNL A   1      47.502  25.964  31.855  1.00  0.00    -0.248 NA
ATOM     70  C   UNL A   1      48.785  25.574  29.947  1.00  0.00     0.031 C 
ATOM     71  C   UNL A   1      49.027  25.605  36.004  1.00  0.00     0.029 A 
ATOM     72  C   UNL A   1      48.592  25.740  34.697  1.00  0.00     0.049 A 
ATOM     73  H   UNL A   1      46.717  26.387  33.976  1.00  0.00     0.167 HD
ATOM     74  C   UNL A   1      48.786  25.586  32.234  1.00  0.00     0.074 A 
ATOM     75  C   UNL A   1      49.523  25.322  31.020  1.00  0.00     0.031 C 
ATOM     76  C   UNL A   1      49.313  25.481  33.479  1.00  0.00     0.037 A 
BRANCH  63  77
ATOM     77  C   UNL A   1      45.437  27.095  37.977  1.00  0.00     0.064 A 
ATOM     78  C   UNL A   1      44.934  26.089  38.814  1.00  0.00     0.173 A 
ATOM     79  C   UNL A   1      45.827  28.308  38.565  1.00  0.00     0.173 A 
ATOM     80  F   UNL A   1      44.531  24.919  38.296  1.00  0.00    -0.203 F 
ATOM     81  C   UNL A   1      44.824  26.293  40.187  1.00  0.00     0.198 A 
ATOM     82  C   UNL A   1      45.741  28.498  39.940  1.00  0.00     0.198 A 
ATOM     83  F   UNL A   1      46.313  29.302  37.806  1.00  0.00    -0.203 F 
ATOM     84  F   UNL A   1      44.316  25.328  40.967  1.00  0.00    -0.200 F 
ATOM     85  C   UNL A   1      45.238  27.491  40.750  1.00  0.00     0.200 A 
ATOM     86  F   UNL A   1      46.153  29.653  40.483  1.00  0.00    -0.200 F 
ATOM     87  F   UNL A   1      45.151  27.677  42.074  1.00  0.00    -0.200 F 
ENDBRANCH  63  77
BRANCH  64  88
ATOM     88  C   UNL A   1      46.594  26.180  28.116  1.00  0.00     0.064 A 
ATOM     89  C   UNL A   1      46.482  24.959  27.433  1.00  0.00     0.173 A 
ATOM     90  C   UNL A   1      47.010  27.298  27.375  1.00  0.00     0.173 A 
ATOM     91  F   UNL A   1      46.154  23.842  28.098  1.00  0.00    -0.203 F 
ATOM     92  C   UNL A   1      46.795  24.857  26.077  1.00  0.00     0.198 A 
ATOM     93  C   UNL A   1      47.290  27.201  26.013  1.00  0.00     0.198 A 
ATOM     94  F   UNL A   1      47.156  28.488  27.975  1.00  0.00    -0.203 F 
ATOM     95  F   UNL A   1      46.749  23.664  25.467  1.00  0.00    -0.200 F 
ATOM     96  C   UNL A   1      47.194  25.978  25.368  1.00  0.00     0.200 A 
ATOM     97  F   UNL A   1      47.671  28.289  25.331  1.00  0.00    -0.200 F 
ATOM     98  F   UNL A   1      47.506  25.878  24.069  1.00  0.00    -0.200 F 
ENDBRANCH  64  88
BRANCH  76  99
ATOM     99  C   UNL A   1      50.749  25.054  33.596  1.00  0.00     0.064 A 
ATOM    100  C   UNL A   1      51.789  25.994  33.655  1.00  0.00     0.173 A 
ATOM    101  C   UNL A   1      51.083  23.697  33.719  1.00  0.00     0.173 A 
ATOM    102  F   UNL A   1      51.524  27.302  33.532  1.00  0.00    -0.203 F 
ATOM    103  C   UNL A   1      53.112  25.589  33.816  1.00  0.00     0.198 A 
ATOM    104  C   UNL A   1      52.403  23.297  33.910  1.00  0.00     0.198 A 
ATOM    105  F   UNL A   1      50.126  22.758  33.680  1.00  0.00    -0.203 F 
ATOM    106  F   UNL A   1      54.092  26.502  33.832  1.00  0.00    -0.200 F 
ATOM    107  C   UNL A   1      53.417  24.243  33.952  1.00  0.00     0.200 A 
ATOM    108  F   UNL A   1      52.694  21.997  34.061  1.00  0.00    -0.200 F 
ATOM    109  F   UNL A   1      54.689  23.856  34.123  1.00  0.00    -0.200 F 
ENDBRANCH  76  99
ENDBRANCH  50  51
ENDBRANCH  43  45
ENDBRANCH  42  43
ENDBRANCH  41  42
ENDBRANCH  40  41
ENDBRANCH  39  40
ENDBRANCH  38  39
ENDBRANCH  37  38
ENDBRANCH  36  37
ENDBRANCH  35  36
ENDBRANCH   1  35
TORSDOF 26
ENDMDL
