MODEL 1
REMARK VINA RESULT:      -7.9      0.000      0.000
REMARK SMILES CC(C)[C@H](C[NH+](C)C)NC(=O)c1csc(/C=C/C(=O)OCCOCCOCCOCCOC(=O)c2ccc(-c3c4nc(c(-c5c(F)c(F)c(F)c(F)c5F)c5ccc([nH]5)c(-c5c(F)c(F)c(F)c(F)c5F)c5nc(c(-c6c(F)c(F)c(F)c(F)c6F)c6ccc3[nH]6)C=C5)C=C4)cc2)c1
REMARK SMILES IDX 24 1 23 2 22 3 21 4 20 5 18 6 19 7 17 8 16 9 15 10 12 11
REMARK SMILES IDX 13 12 98 13 14 14 10 15 9 16 11 18 4 19 2 20 1 21 3 22 5 23
REMARK SMILES IDX 6 24 7 25 8 26 25 28 26 29 27 30 28 31 29 32 30 33 31 34
REMARK SMILES IDX 32 35 33 36 34 37 35 38 36 39 97 40 37 41 96 42 38 43 39 44
REMARK SMILES IDX 40 45 90 46 41 47 95 48 89 49 91 50 42 51 94 52 88 53 87 54
REMARK SMILES IDX 43 56 75 57 55 58 74 59 56 60 59 61 73 62 92 63 57 64 58 65
REMARK SMILES IDX 72 67 93 68 60 69 44 70 45 71 53 72 46 73 47 74 51 75 54 76
REMARK SMILES IDX 48 77 49 78 52 79 50 80 76 81 77 82 85 83 78 84 79 85 83 86
REMARK SMILES IDX 86 87 80 88 81 89 84 90 82 91 61 92 62 93 70 94 63 95 64 96
REMARK SMILES IDX 68 97 71 98 65 99 66 100 69 101 67 102
REMARK H PARENT 9 17 6 27 91 55 59 66
REMARK Flexibility Score: inf
ROOT
ATOM      1  C   UNL A   1      37.625  34.131  33.699  1.00  0.00     0.188 C 
ENDROOT
BRANCH   1   2
ATOM      2  O   UNL A   1      38.634  34.921  34.301  1.00  0.00    -0.376 OA
BRANCH   2   3
ATOM      3  C   UNL A   1      39.251  34.493  35.502  1.00  0.00     0.202 C 
BRANCH   3   4
ATOM      4  C   UNL A   1      39.137  33.033  35.971  1.00  0.00     0.261 C 
BRANCH   4   5
ATOM      5  O   UNL A   1      38.740  32.831  37.329  1.00  0.00    -0.460 OA
BRANCH   5   6
ATOM      6  C   UNL A   1      37.440  33.037  37.615  1.00  0.00     0.330 C 
ATOM      7  O   UNL A   1      36.534  33.163  36.807  1.00  0.00    -0.247 OA
BRANCH   6   8
ATOM      8  C   UNL A   1      37.203  32.931  39.069  1.00  0.00     0.095 C 
ATOM      9  C   UNL A   1      36.844  31.800  39.700  1.00  0.00     0.026 C 
BRANCH   9  10
ATOM     10  C   UNL A   1      36.618  31.764  41.108  1.00  0.00     0.028 A 
ATOM     11  C   UNL A   1      35.511  31.584  43.192  1.00  0.00     0.051 A 
ATOM     12  C   UNL A   1      36.837  31.475  43.552  1.00  0.00     0.079 A 
ATOM     13  C   UNL A   1      35.402  31.779  41.770  1.00  0.00     0.033 A 
ATOM     14  S   UNL A   1      37.904  31.721  42.250  1.00  0.00    -0.144 S 
BRANCH  11  15
ATOM     15  C   UNL A   1      34.370  31.384  44.077  1.00  0.00     0.252 C 
ATOM     16  N   UNL A   1      33.672  32.455  44.564  1.00  0.00    -0.343 N 
ATOM     17  H   UNL A   1      33.131  32.261  45.364  1.00  0.00     0.164 HD
ATOM     18  O   UNL A   1      34.008  30.253  44.398  1.00  0.00    -0.269 OA
BRANCH  16  19
ATOM     19  C   UNL A   1      33.592  33.841  44.100  1.00  0.00     0.139 C 
BRANCH  19  20
ATOM     20  C   UNL A   1      33.202  34.777  45.283  1.00  0.00     0.011 C 
ATOM     21  C   UNL A   1      32.944  33.989  46.580  1.00  0.00     0.010 C 
ATOM     22  C   UNL A   1      34.305  35.802  45.581  1.00  0.00     0.010 C 
ENDBRANCH  19  20
BRANCH  19  23
ATOM     23  C   UNL A   1      32.664  33.953  42.841  1.00  0.00     0.287 C 
BRANCH  23  24
ATOM     24  N   UNL A   1      31.425  34.766  42.972  1.00  0.00    -0.338 N 
ATOM     25  C   UNL A   1      31.312  35.672  41.816  1.00  0.00     0.332 C 
ATOM     26  C   UNL A   1      30.221  33.915  42.977  1.00  0.00     0.332 C 
ATOM     27  H   UNL A   1      31.487  35.280  43.851  1.00  0.00     0.347 HD
ENDBRANCH  23  24
ENDBRANCH  19  23
ENDBRANCH  16  19
ENDBRANCH  11  15
ENDBRANCH   9  10
ENDBRANCH   6   8
ENDBRANCH   5   6
ENDBRANCH   4   5
ENDBRANCH   3   4
ENDBRANCH   2   3
ENDBRANCH   1   2
BRANCH   1  28
ATOM     28  C   UNL A   1      36.752  34.919  32.702  1.00  0.00     0.188 C 
BRANCH  28  29
ATOM     29  O   UNL A   1      35.416  34.472  32.530  1.00  0.00    -0.377 OA
BRANCH  29  30
ATOM     30  C   UNL A   1      34.373  35.424  32.311  1.00  0.00     0.188 C 
BRANCH  30  31
ATOM     31  C   UNL A   1      33.348  35.316  31.153  1.00  0.00     0.188 C 
BRANCH  31  32
ATOM     32  O   UNL A   1      33.540  34.212  30.285  1.00  0.00    -0.376 OA
BRANCH  32  33
ATOM     33  C   UNL A   1      33.983  34.473  28.966  1.00  0.00     0.202 C 
BRANCH  33  34
ATOM     34  C   UNL A   1      34.441  33.253  28.155  1.00  0.00     0.261 C 
BRANCH  34  35
ATOM     35  O   UNL A   1      34.596  32.034  28.899  1.00  0.00    -0.460 OA
BRANCH  35  36
ATOM     36  C   UNL A   1      34.627  30.890  28.188  1.00  0.00     0.338 C 
ATOM     37  O   UNL A   1      33.804  30.507  27.366  1.00  0.00    -0.246 OA
BRANCH  36  38
ATOM     38  C   UNL A   1      35.923  30.230  28.427  1.00  0.00     0.060 A 
ATOM     39  C   UNL A   1      36.154  29.622  29.668  1.00  0.00     0.016 A 
ATOM     40  C   UNL A   1      36.916  30.237  27.445  1.00  0.00     0.016 A 
ATOM     41  C   UNL A   1      37.407  29.084  29.957  1.00  0.00     0.010 A 
ATOM     42  C   UNL A   1      38.176  29.713  27.740  1.00  0.00     0.010 A 
ATOM     43  C   UNL A   1      38.441  29.187  29.018  1.00  0.00    -0.014 A 
BRANCH  43  44
ATOM     44  C   UNL A   1      39.843  28.996  29.467  1.00  0.00     0.031 A 
ATOM     45  C   UNL A   1      40.569  27.763  28.996  1.00  0.00     0.074 A 
ATOM     46  C   UNL A   1      40.476  29.909  30.221  1.00  0.00     0.049 A 
ATOM     47  N   UNL A   1      41.785  27.357  29.258  1.00  0.00    -0.248 NA
ATOM     48  C   UNL A   1      39.816  26.864  28.106  1.00  0.00     0.031 C 
ATOM     49  C   UNL A   1      39.899  31.163  30.697  1.00  0.00     0.029 A 
ATOM     50  N   UNL A   1      41.756  29.913  30.720  1.00  0.00    -0.354 N 
ATOM     51  C   UNL A   1      41.935  26.156  28.574  1.00  0.00     0.074 A 
ATOM     52  C   UNL A   1      40.678  25.877  27.919  1.00  0.00     0.031 C 
ATOM     53  C   UNL A   1      40.821  31.816  31.428  1.00  0.00     0.029 A 
ATOM     54  C   UNL A   1      42.040  31.010  31.496  1.00  0.00     0.049 A 
ATOM     55  H   UNL A   1      42.408  29.198  30.539  1.00  0.00     0.167 HD
ATOM     56  C   UNL A   1      43.030  25.364  28.487  1.00  0.00     0.037 A 
ATOM     57  C   UNL A   1      43.153  31.313  32.194  1.00  0.00     0.037 A 
ATOM     58  C   UNL A   1      44.280  25.645  29.140  1.00  0.00     0.049 A 
ATOM     59  C   UNL A   1      44.334  30.373  32.145  1.00  0.00     0.074 A 
ATOM     60  C   UNL A   1      45.452  24.911  29.112  1.00  0.00     0.029 A 
ATOM     61  N   UNL A   1      44.518  26.749  29.945  1.00  0.00    -0.354 N 
ATOM     62  N   UNL A   1      44.477  29.250  31.482  1.00  0.00    -0.248 NA
ATOM     63  C   UNL A   1      45.513  30.750  32.937  1.00  0.00     0.031 C 
ATOM     64  C   UNL A   1      46.380  25.537  29.949  1.00  0.00     0.029 A 
ATOM     65  C   UNL A   1      45.812  26.702  30.440  1.00  0.00     0.049 A 
ATOM     66  H   UNL A   1      43.865  27.461  30.137  1.00  0.00     0.167 HD
ATOM     67  C   UNL A   1      45.771  28.813  31.742  1.00  0.00     0.074 A 
ATOM     68  C   UNL A   1      46.374  29.796  32.616  1.00  0.00     0.031 C 
ATOM     69  C   UNL A   1      46.404  27.701  31.293  1.00  0.00     0.037 A 
BRANCH  56  70
ATOM     70  C   UNL A   1      42.909  24.102  27.683  1.00  0.00     0.064 A 
ATOM     71  C   UNL A   1      42.533  22.883  28.267  1.00  0.00     0.173 A 
ATOM     72  C   UNL A   1      43.153  24.118  26.300  1.00  0.00     0.173 A 
ATOM     73  F   UNL A   1      42.305  22.808  29.587  1.00  0.00    -0.203 F 
ATOM     74  C   UNL A   1      42.435  21.722  27.503  1.00  0.00     0.198 A 
ATOM     75  C   UNL A   1      43.019  22.963  25.535  1.00  0.00     0.198 A 
ATOM     76  F   UNL A   1      43.516  25.256  25.690  1.00  0.00    -0.203 F 
ATOM     77  F   UNL A   1      42.128  20.559  28.093  1.00  0.00    -0.200 F 
ATOM     78  C   UNL A   1      42.669  21.765  26.137  1.00  0.00     0.200 A 
ATOM     79  F   UNL A   1      43.233  23.010  24.212  1.00  0.00    -0.200 F 
ATOM     80  F   UNL A   1      42.566  20.649  25.403  1.00  0.00    -0.200 F 
ENDBRANCH  56  70
BRANCH  57  81
ATOM     81  C   UNL A   1      43.210  32.556  33.009  1.00  0.00     0.064 A 
ATOM     82  C   UNL A   1      43.732  33.747  32.483  1.00  0.00     0.173 A 
ATOM     83  C   UNL A   1      42.781  32.570  34.345  1.00  0.00     0.173 A 
ATOM     84  F   UNL A   1      44.181  33.779  31.220  1.00  0.00    -0.203 F 
ATOM     85  C   UNL A   1      43.848  34.892  33.268  1.00  0.00     0.198 A 
ATOM     86  C   UNL A   1      42.865  33.726  35.119  1.00  0.00     0.198 A 
ATOM     87  F   UNL A   1      42.276  31.459  34.901  1.00  0.00    -0.203 F 
ATOM     88  F   UNL A   1      44.406  35.998  32.757  1.00  0.00    -0.200 F 
ATOM     89  C   UNL A   1      43.410  34.883  34.583  1.00  0.00     0.200 A 
ATOM     90  F   UNL A   1      42.429  33.715  36.385  1.00  0.00    -0.200 F 
ATOM     91  F   UNL A   1      43.523  35.984  35.338  1.00  0.00    -0.200 F 
ENDBRANCH  57  81
BRANCH  69  92
ATOM     92  C   UNL A   1      47.846  27.516  31.682  1.00  0.00     0.064 A 
ATOM     93  C   UNL A   1      48.226  26.777  32.811  1.00  0.00     0.173 A 
ATOM     94  C   UNL A   1      48.865  28.056  30.881  1.00  0.00     0.173 A 
ATOM     95  F   UNL A   1      47.292  26.246  33.616  1.00  0.00    -0.203 F 
ATOM     96  C   UNL A   1      49.568  26.616  33.144  1.00  0.00     0.198 A 
ATOM     97  C   UNL A   1      50.207  27.861  31.194  1.00  0.00     0.198 A 
ATOM     98  F   UNL A   1      48.559  28.763  29.781  1.00  0.00    -0.203 F 
ATOM     99  F   UNL A   1      49.906  25.955  34.260  1.00  0.00    -0.200 F 
ATOM    100  C   UNL A   1      50.558  27.150  32.332  1.00  0.00     0.200 A 
ATOM    101  F   UNL A   1      51.160  28.362  30.397  1.00  0.00    -0.200 F 
ATOM    102  F   UNL A   1      51.849  26.987  32.649  1.00  0.00    -0.200 F 
ENDBRANCH  69  92
ENDBRANCH  43  44
ENDBRANCH  36  38
ENDBRANCH  35  36
ENDBRANCH  34  35
ENDBRANCH  33  34
ENDBRANCH  32  33
ENDBRANCH  31  32
ENDBRANCH  30  31
ENDBRANCH  29  30
ENDBRANCH  28  29
ENDBRANCH   1  28
TORSDOF 26
ENDMDL
MODEL 2
REMARK VINA RESULT:      -7.6      6.838     13.928
REMARK SMILES CC(C)[C@H](C[NH+](C)C)NC(=O)c1csc(/C=C/C(=O)OCCOCCOCCOCCOC(=O)c2ccc(-c3c4nc(c(-c5c(F)c(F)c(F)c(F)c5F)c5ccc([nH]5)c(-c5c(F)c(F)c(F)c(F)c5F)c5nc(c(-c6c(F)c(F)c(F)c(F)c6F)c6ccc3[nH]6)C=C5)C=C4)cc2)c1
REMARK SMILES IDX 24 1 23 2 22 3 21 4 20 5 18 6 19 7 17 8 16 9 15 10 12 11
REMARK SMILES IDX 13 12 98 13 14 14 10 15 9 16 11 18 4 19 2 20 1 21 3 22 5 23
REMARK SMILES IDX 6 24 7 25 8 26 25 28 26 29 27 30 28 31 29 32 30 33 31 34
REMARK SMILES IDX 32 35 33 36 34 37 35 38 36 39 97 40 37 41 96 42 38 43 39 44
REMARK SMILES IDX 40 45 90 46 41 47 95 48 89 49 91 50 42 51 94 52 88 53 87 54
REMARK SMILES IDX 43 56 75 57 55 58 74 59 56 60 59 61 73 62 92 63 57 64 58 65
REMARK SMILES IDX 72 67 93 68 60 69 44 70 45 71 53 72 46 73 47 74 51 75 54 76
REMARK SMILES IDX 48 77 49 78 52 79 50 80 76 81 77 82 85 83 78 84 79 85 83 86
REMARK SMILES IDX 86 87 80 88 81 89 84 90 82 91 61 92 62 93 70 94 63 95 64 96
REMARK SMILES IDX 68 97 71 98 65 99 66 100 69 101 67 102
REMARK H PARENT 9 17 6 27 91 55 59 66
REMARK Flexibility Score: inf
ROOT
ATOM      1  C   UNL A   1      42.721  22.439  27.609  1.00  0.00     0.188 C 
ENDROOT
BRANCH   1   2
ATOM      2  O   UNL A   1      42.018  21.979  26.468  1.00  0.00    -0.376 OA
BRANCH   2   3
ATOM      3  C   UNL A   1      40.704  22.439  26.210  1.00  0.00     0.202 C 
BRANCH   3   4
ATOM      4  C   UNL A   1      39.514  21.466  26.204  1.00  0.00     0.261 C 
BRANCH   4   5
ATOM      5  O   UNL A   1      38.383  21.850  25.419  1.00  0.00    -0.460 OA
BRANCH   5   6
ATOM      6  C   UNL A   1      37.573  20.858  25.003  1.00  0.00     0.330 C 
ATOM      7  O   UNL A   1      37.922  19.751  24.625  1.00  0.00    -0.247 OA
BRANCH   6   8
ATOM      8  C   UNL A   1      36.156  21.217  25.213  1.00  0.00     0.095 C 
ATOM      9  C   UNL A   1      35.452  22.035  24.412  1.00  0.00     0.026 C 
BRANCH   9  10
ATOM     10  C   UNL A   1      34.087  22.354  24.675  1.00  0.00     0.028 A 
ATOM     11  C   UNL A   1      32.165  23.317  25.664  1.00  0.00     0.051 A 
ATOM     12  C   UNL A   1      31.663  22.797  24.489  1.00  0.00     0.079 A 
ATOM     13  C   UNL A   1      33.570  23.026  25.770  1.00  0.00     0.033 A 
ATOM     14  S   UNL A   1      32.811  21.895  23.616  1.00  0.00    -0.144 S 
BRANCH  11  15
ATOM     15  C   UNL A   1      31.435  24.165  26.599  1.00  0.00     0.252 C 
ATOM     16  N   UNL A   1      31.785  25.476  26.767  1.00  0.00    -0.343 N 
ATOM     17  H   UNL A   1      31.458  25.882  27.603  1.00  0.00     0.164 HD
ATOM     18  O   UNL A   1      30.489  23.722  27.248  1.00  0.00    -0.269 OA
BRANCH  16  19
ATOM     19  C   UNL A   1      32.563  26.379  25.919  1.00  0.00     0.139 C 
BRANCH  19  20
ATOM     20  C   UNL A   1      32.879  27.695  26.690  1.00  0.00     0.011 C 
ATOM     21  C   UNL A   1      34.092  28.435  26.097  1.00  0.00     0.010 C 
ATOM     22  C   UNL A   1      31.691  28.667  26.662  1.00  0.00     0.010 C 
ENDBRANCH  19  20
BRANCH  19  23
ATOM     23  C   UNL A   1      31.858  26.584  24.532  1.00  0.00     0.287 C 
BRANCH  23  24
ATOM     24  N   UNL A   1      32.624  26.214  23.312  1.00  0.00    -0.338 N 
ATOM     25  C   UNL A   1      31.697  25.688  22.296  1.00  0.00     0.332 C 
ATOM     26  C   UNL A   1      33.297  27.386  22.722  1.00  0.00     0.332 C 
ATOM     27  H   UNL A   1      33.319  25.518  23.585  1.00  0.00     0.347 HD
ENDBRANCH  23  24
ENDBRANCH  19  23
ENDBRANCH  16  19
ENDBRANCH  11  15
ENDBRANCH   9  10
ENDBRANCH   6   8
ENDBRANCH   5   6
ENDBRANCH   4   5
ENDBRANCH   3   4
ENDBRANCH   2   3
ENDBRANCH   1   2
BRANCH   1  28
ATOM     28  C   UNL A   1      43.751  23.539  27.284  1.00  0.00     0.188 C 
BRANCH  28  29
ATOM     29  O   UNL A   1      43.256  24.864  27.167  1.00  0.00    -0.377 OA
BRANCH  29  30
ATOM     30  C   UNL A   1      42.377  25.383  28.167  1.00  0.00     0.188 C 
BRANCH  30  31
ATOM     31  C   UNL A   1      41.557  26.687  27.988  1.00  0.00     0.188 C 
BRANCH  31  32
ATOM     32  O   UNL A   1      40.181  26.494  27.711  1.00  0.00    -0.376 OA
BRANCH  32  33
ATOM     33  C   UNL A   1      39.286  27.544  28.030  1.00  0.00     0.202 C 
BRANCH  33  34
ATOM     34  C   UNL A   1      38.915  27.686  29.512  1.00  0.00     0.261 C 
BRANCH  34  35
ATOM     35  O   UNL A   1      37.835  28.589  29.799  1.00  0.00    -0.460 OA
BRANCH  35  36
ATOM     36  C   UNL A   1      37.906  29.815  29.245  1.00  0.00     0.338 C 
ATOM     37  O   UNL A   1      37.417  30.176  28.183  1.00  0.00    -0.246 OA
BRANCH  36  38
ATOM     38  C   UNL A   1      38.535  30.727  30.217  1.00  0.00     0.060 A 
ATOM     39  C   UNL A   1      37.995  32.009  30.389  1.00  0.00     0.016 A 
ATOM     40  C   UNL A   1      39.668  30.332  30.933  1.00  0.00     0.016 A 
ATOM     41  C   UNL A   1      38.632  32.926  31.224  1.00  0.00     0.010 A 
ATOM     42  C   UNL A   1      40.315  31.257  31.755  1.00  0.00     0.010 A 
ATOM     43  C   UNL A   1      39.831  32.573  31.857  1.00  0.00    -0.014 A 
BRANCH  43  44
ATOM     44  C   UNL A   1      40.704  33.647  32.395  1.00  0.00     0.031 A 
ATOM     45  C   UNL A   1      40.670  33.903  33.878  1.00  0.00     0.074 A 
ATOM     46  C   UNL A   1      41.544  34.338  31.607  1.00  0.00     0.049 A 
ATOM     47  N   UNL A   1      41.318  34.789  34.590  1.00  0.00    -0.248 NA
ATOM     48  C   UNL A   1      39.777  33.038  34.668  1.00  0.00     0.031 C 
ATOM     49  C   UNL A   1      41.705  34.148  30.168  1.00  0.00     0.029 A 
ATOM     50  N   UNL A   1      42.423  35.347  31.917  1.00  0.00    -0.354 N 
ATOM     51  C   UNL A   1      40.906  34.592  35.902  1.00  0.00     0.074 A 
ATOM     52  C   UNL A   1      39.923  33.533  35.887  1.00  0.00     0.031 C 
ATOM     53  C   UNL A   1      42.626  35.020  29.716  1.00  0.00     0.029 A 
ATOM     54  C   UNL A   1      43.092  35.848  30.827  1.00  0.00     0.049 A 
ATOM     55  H   UNL A   1      42.560  35.679  32.834  1.00  0.00     0.167 HD
ATOM     56  C   UNL A   1      41.321  35.227  37.023  1.00  0.00     0.037 A 
ATOM     57  C   UNL A   1      43.965  36.871  30.743  1.00  0.00     0.037 A 
ATOM     58  C   UNL A   1      42.300  36.280  37.036  1.00  0.00     0.049 A 
ATOM     59  C   UNL A   1      44.353  37.617  31.997  1.00  0.00     0.074 A 
ATOM     60  C   UNL A   1      42.795  36.986  38.118  1.00  0.00     0.029 A 
ATOM     61  N   UNL A   1      42.930  36.783  35.907  1.00  0.00    -0.354 N 
ATOM     62  N   UNL A   1      43.975  37.414  33.237  1.00  0.00    -0.248 NA
ATOM     63  C   UNL A   1      45.300  38.731  31.839  1.00  0.00     0.031 C 
ATOM     64  C   UNL A   1      43.678  37.958  37.638  1.00  0.00     0.029 A 
ATOM     65  C   UNL A   1      43.791  37.808  36.265  1.00  0.00     0.049 A 
ATOM     66  H   UNL A   1      42.787  36.461  34.988  1.00  0.00     0.167 HD
ATOM     67  C   UNL A   1      44.667  38.342  34.007  1.00  0.00     0.074 A 
ATOM     68  C   UNL A   1      45.495  39.102  33.096  1.00  0.00     0.031 C 
ATOM     69  C   UNL A   1      44.625  38.543  35.347  1.00  0.00     0.037 A 
BRANCH  56  70
ATOM     70  C   UNL A   1      40.690  34.820  38.324  1.00  0.00     0.064 A 
ATOM     71  C   UNL A   1      41.097  33.671  39.018  1.00  0.00     0.173 A 
ATOM     72  C   UNL A   1      39.678  35.607  38.896  1.00  0.00     0.173 A 
ATOM     73  F   UNL A   1      42.049  32.875  38.507  1.00  0.00    -0.203 F 
ATOM     74  C   UNL A   1      40.494  33.307  40.220  1.00  0.00     0.198 A 
ATOM     75  C   UNL A   1      39.102  35.259  40.115  1.00  0.00     0.198 A 
ATOM     76  F   UNL A   1      39.250  36.716  38.275  1.00  0.00    -0.203 F 
ATOM     77  F   UNL A   1      40.861  32.176  40.836  1.00  0.00    -0.200 F 
ATOM     78  C   UNL A   1      39.503  34.106  40.771  1.00  0.00     0.200 A 
ATOM     79  F   UNL A   1      38.154  36.040  40.652  1.00  0.00    -0.200 F 
ATOM     80  F   UNL A   1      38.930  33.760  41.931  1.00  0.00    -0.200 F 
ENDBRANCH  56  70
BRANCH  57  81
ATOM     81  C   UNL A   1      44.534  37.263  29.425  1.00  0.00     0.064 A 
ATOM     82  C   UNL A   1      43.855  38.149  28.575  1.00  0.00     0.173 A 
ATOM     83  C   UNL A   1      45.750  36.730  28.970  1.00  0.00     0.173 A 
ATOM     84  F   UNL A   1      42.676  38.665  28.951  1.00  0.00    -0.203 F 
ATOM     85  C   UNL A   1      44.355  38.463  27.313  1.00  0.00     0.198 A 
ATOM     86  C   UNL A   1      46.266  37.072  27.722  1.00  0.00     0.198 A 
ATOM     87  F   UNL A   1      46.439  35.877  29.740  1.00  0.00    -0.203 F 
ATOM     88  F   UNL A   1      43.655  39.264  26.498  1.00  0.00    -0.200 F 
ATOM     89  C   UNL A   1      45.562  37.929  26.889  1.00  0.00     0.200 A 
ATOM     90  F   UNL A   1      47.439  36.563  27.322  1.00  0.00    -0.200 F 
ATOM     91  F   UNL A   1      46.042  38.230  25.675  1.00  0.00    -0.200 F 
ENDBRANCH  57  81
BRANCH  69  92
ATOM     92  C   UNL A   1      45.548  39.581  35.925  1.00  0.00     0.064 A 
ATOM     93  C   UNL A   1      45.170  40.926  36.054  1.00  0.00     0.173 A 
ATOM     94  C   UNL A   1      46.818  39.211  36.396  1.00  0.00     0.173 A 
ATOM     95  F   UNL A   1      43.972  41.336  35.612  1.00  0.00    -0.203 F 
ATOM     96  C   UNL A   1      46.042  41.865  36.599  1.00  0.00     0.198 A 
ATOM     97  C   UNL A   1      47.672  40.144  36.976  1.00  0.00     0.198 A 
ATOM     98  F   UNL A   1      47.226  37.935  36.309  1.00  0.00    -0.203 F 
ATOM     99  F   UNL A   1      45.682  43.155  36.658  1.00  0.00    -0.200 F 
ATOM    100  C   UNL A   1      47.288  41.473  37.067  1.00  0.00     0.200 A 
ATOM    101  F   UNL A   1      48.866  39.758  37.445  1.00  0.00    -0.200 F 
ATOM    102  F   UNL A   1      48.121  42.377  37.598  1.00  0.00    -0.200 F 
ENDBRANCH  69  92
ENDBRANCH  43  44
ENDBRANCH  36  38
ENDBRANCH  35  36
ENDBRANCH  34  35
ENDBRANCH  33  34
ENDBRANCH  32  33
ENDBRANCH  31  32
ENDBRANCH  30  31
ENDBRANCH  29  30
ENDBRANCH  28  29
ENDBRANCH   1  28
TORSDOF 26
ENDMDL
MODEL 3
REMARK VINA RESULT:      -7.6      4.282      6.379
REMARK SMILES CC(C)[C@H](C[NH+](C)C)NC(=O)c1csc(/C=C/C(=O)OCCOCCOCCOCCOC(=O)c2ccc(-c3c4nc(c(-c5c(F)c(F)c(F)c(F)c5F)c5ccc([nH]5)c(-c5c(F)c(F)c(F)c(F)c5F)c5nc(c(-c6c(F)c(F)c(F)c(F)c6F)c6ccc3[nH]6)C=C5)C=C4)cc2)c1
REMARK SMILES IDX 24 1 23 2 22 3 21 4 20 5 18 6 19 7 17 8 16 9 15 10 12 11
REMARK SMILES IDX 13 12 98 13 14 14 10 15 9 16 11 18 4 19 2 20 1 21 3 22 5 23
REMARK SMILES IDX 6 24 7 25 8 26 25 28 26 29 27 30 28 31 29 32 30 33 31 34
REMARK SMILES IDX 32 35 33 36 34 37 35 38 36 39 97 40 37 41 96 42 38 43 39 44
REMARK SMILES IDX 40 45 90 46 41 47 95 48 89 49 91 50 42 51 94 52 88 53 87 54
REMARK SMILES IDX 43 56 75 57 55 58 74 59 56 60 59 61 73 62 92 63 57 64 58 65
REMARK SMILES IDX 72 67 93 68 60 69 44 70 45 71 53 72 46 73 47 74 51 75 54 76
REMARK SMILES IDX 48 77 49 78 52 79 50 80 76 81 77 82 85 83 78 84 79 85 83 86
REMARK SMILES IDX 86 87 80 88 81 89 84 90 82 91 61 92 62 93 70 94 63 95 64 96
REMARK SMILES IDX 68 97 71 98 65 99 66 100 69 101 67 102
REMARK H PARENT 9 17 6 27 91 55 59 66
REMARK Flexibility Score: inf
ROOT
ATOM      1  C   UNL A   1      38.457  33.388  33.471  1.00  0.00     0.188 C 
ENDROOT
BRANCH   1   2
ATOM      2  O   UNL A   1      39.605  34.181  33.716  1.00  0.00    -0.376 OA
BRANCH   2   3
ATOM      3  C   UNL A   1      39.749  34.862  34.949  1.00  0.00     0.202 C 
BRANCH   3   4
ATOM      4  C   UNL A   1      39.648  34.108  36.285  1.00  0.00     0.261 C 
BRANCH   4   5
ATOM      5  O   UNL A   1      40.467  34.592  37.351  1.00  0.00    -0.460 OA
BRANCH   5   6
ATOM      6  C   UNL A   1      40.020  35.678  38.011  1.00  0.00     0.330 C 
ATOM      7  O   UNL A   1      38.986  35.756  38.656  1.00  0.00    -0.247 OA
BRANCH   6   8
ATOM      8  C   UNL A   1      41.034  36.751  37.997  1.00  0.00     0.095 C 
ATOM      9  C   UNL A   1      42.186  36.718  38.688  1.00  0.00     0.026 C 
BRANCH   9  10
ATOM     10  C   UNL A   1      43.122  37.794  38.643  1.00  0.00     0.028 A 
ATOM     11  C   UNL A   1      44.869  39.209  37.908  1.00  0.00     0.051 A 
ATOM     12  C   UNL A   1      44.270  39.967  38.892  1.00  0.00     0.079 A 
ATOM     13  C   UNL A   1      44.207  37.937  37.796  1.00  0.00     0.033 A 
ATOM     14  S   UNL A   1      43.043  39.132  39.723  1.00  0.00    -0.144 S 
BRANCH  11  15
ATOM     15  C   UNL A   1      45.920  39.665  37.005  1.00  0.00     0.252 C 
ATOM     16  N   UNL A   1      45.622  40.023  35.719  1.00  0.00    -0.343 N 
ATOM     17  H   UNL A   1      46.395  40.026  35.107  1.00  0.00     0.164 HD
ATOM     18  O   UNL A   1      47.088  39.742  37.381  1.00  0.00    -0.269 OA
BRANCH  16  19
ATOM     19  C   UNL A   1      44.355  40.403  35.095  1.00  0.00     0.139 C 
BRANCH  19  20
ATOM     20  C   UNL A   1      43.951  39.348  34.023  1.00  0.00     0.011 C 
ATOM     21  C   UNL A   1      43.098  39.965  32.900  1.00  0.00     0.010 C 
ATOM     22  C   UNL A   1      45.181  38.708  33.366  1.00  0.00     0.010 C 
ENDBRANCH  19  20
BRANCH  19  23
ATOM     23  C   UNL A   1      44.413  41.881  34.572  1.00  0.00     0.287 C 
BRANCH  23  24
ATOM     24  N   UNL A   1      43.665  42.911  35.342  1.00  0.00    -0.338 N 
ATOM     25  C   UNL A   1      42.373  43.168  34.683  1.00  0.00     0.332 C 
ATOM     26  C   UNL A   1      43.370  42.450  36.712  1.00  0.00     0.332 C 
ATOM     27  H   UNL A   1      44.245  43.749  35.378  1.00  0.00     0.347 HD
ENDBRANCH  23  24
ENDBRANCH  19  23
ENDBRANCH  16  19
ENDBRANCH  11  15
ENDBRANCH   9  10
ENDBRANCH   6   8
ENDBRANCH   5   6
ENDBRANCH   4   5
ENDBRANCH   3   4
ENDBRANCH   2   3
ENDBRANCH   1   2
BRANCH   1  28
ATOM     28  C   UNL A   1      37.553  33.957  32.360  1.00  0.00     0.188 C 
BRANCH  28  29
ATOM     29  O   UNL A   1      36.152  33.836  32.550  1.00  0.00    -0.377 OA
BRANCH  29  30
ATOM     30  C   UNL A   1      35.323  34.997  32.465  1.00  0.00     0.188 C 
BRANCH  30  31
ATOM     31  C   UNL A   1      34.005  35.046  31.650  1.00  0.00     0.188 C 
BRANCH  31  32
ATOM     32  O   UNL A   1      33.851  34.007  30.699  1.00  0.00    -0.376 OA
BRANCH  32  33
ATOM     33  C   UNL A   1      33.911  34.349  29.326  1.00  0.00     0.202 C 
BRANCH  33  34
ATOM     34  C   UNL A   1      34.202  33.195  28.357  1.00  0.00     0.261 C 
BRANCH  34  35
ATOM     35  O   UNL A   1      34.534  31.938  28.968  1.00  0.00    -0.460 OA
BRANCH  35  36
ATOM     36  C   UNL A   1      34.618  30.871  28.150  1.00  0.00     0.338 C 
ATOM     37  O   UNL A   1      33.832  30.551  27.268  1.00  0.00    -0.246 OA
BRANCH  36  38
ATOM     38  C   UNL A   1      35.923  30.220  28.369  1.00  0.00     0.060 A 
ATOM     39  C   UNL A   1      36.185  29.632  29.613  1.00  0.00     0.016 A 
ATOM     40  C   UNL A   1      36.892  30.217  27.363  1.00  0.00     0.016 A 
ATOM     41  C   UNL A   1      37.447  29.104  29.880  1.00  0.00     0.010 A 
ATOM     42  C   UNL A   1      38.161  29.703  27.637  1.00  0.00     0.010 A 
ATOM     43  C   UNL A   1      38.458  29.197  28.916  1.00  0.00    -0.014 A 
BRANCH  43  44
ATOM     44  C   UNL A   1      39.871  29.019  29.334  1.00  0.00     0.031 A 
ATOM     45  C   UNL A   1      40.590  27.779  28.871  1.00  0.00     0.074 A 
ATOM     46  C   UNL A   1      40.520  29.949  30.054  1.00  0.00     0.049 A 
ATOM     47  N   UNL A   1      41.813  27.381  29.112  1.00  0.00    -0.248 NA
ATOM     48  C   UNL A   1      39.818  26.859  28.019  1.00  0.00     0.031 C 
ATOM     49  C   UNL A   1      39.951  31.211  30.517  1.00  0.00     0.029 A 
ATOM     50  N   UNL A   1      41.812  29.967  30.521  1.00  0.00    -0.354 N 
ATOM     51  C   UNL A   1      41.950  26.167  28.449  1.00  0.00     0.074 A 
ATOM     52  C   UNL A   1      40.679  25.871  27.831  1.00  0.00     0.031 C 
ATOM     53  C   UNL A   1      40.888  31.881  31.212  1.00  0.00     0.029 A 
ATOM     54  C   UNL A   1      42.111  31.080  31.268  1.00  0.00     0.049 A 
ATOM     55  H   UNL A   1      42.461  29.250  30.339  1.00  0.00     0.167 HD
ATOM     56  C   UNL A   1      43.045  25.376  28.352  1.00  0.00     0.037 A 
ATOM     57  C   UNL A   1      43.239  31.400  31.932  1.00  0.00     0.037 A 
ATOM     58  C   UNL A   1      44.310  25.674  28.968  1.00  0.00     0.049 A 
ATOM     59  C   UNL A   1      44.422  30.463  31.873  1.00  0.00     0.074 A 
ATOM     60  C   UNL A   1      45.483  24.942  28.926  1.00  0.00     0.029 A 
ATOM     61  N   UNL A   1      44.564  26.795  29.744  1.00  0.00    -0.354 N 
ATOM     62  N   UNL A   1      44.552  29.327  31.230  1.00  0.00    -0.248 NA
ATOM     63  C   UNL A   1      45.619  30.859  32.629  1.00  0.00     0.031 C 
ATOM     64  C   UNL A   1      46.429  25.588  29.728  1.00  0.00     0.029 A 
ATOM     65  C   UNL A   1      45.869  26.761  30.208  1.00  0.00     0.049 A 
ATOM     66  H   UNL A   1      43.913  27.508  29.938  1.00  0.00     0.167 HD
ATOM     67  C   UNL A   1      45.854  28.898  31.467  1.00  0.00     0.074 A 
ATOM     68  C   UNL A   1      46.475  29.901  32.306  1.00  0.00     0.031 C 
ATOM     69  C   UNL A   1      46.479  27.779  31.026  1.00  0.00     0.037 A 
BRANCH  56  70
ATOM     70  C   UNL A   1      42.909  24.097  27.577  1.00  0.00     0.064 A 
ATOM     71  C   UNL A   1      42.456  22.912  28.175  1.00  0.00     0.173 A 
ATOM     72  C   UNL A   1      43.216  24.064  26.207  1.00  0.00     0.173 A 
ATOM     73  F   UNL A   1      42.166  22.884  29.485  1.00  0.00    -0.203 F 
ATOM     74  C   UNL A   1      42.345  21.734  27.439  1.00  0.00     0.198 A 
ATOM     75  C   UNL A   1      43.069  22.894  25.467  1.00  0.00     0.198 A 
ATOM     76  F   UNL A   1      43.653  25.169  25.585  1.00  0.00    -0.203 F 
ATOM     77  F   UNL A   1      41.964  20.601  28.045  1.00  0.00    -0.200 F 
ATOM     78  C   UNL A   1      42.643  21.728  26.085  1.00  0.00     0.200 A 
ATOM     79  F   UNL A   1      43.344  22.894  24.155  1.00  0.00    -0.200 F 
ATOM     80  F   UNL A   1      42.527  20.597  25.376  1.00  0.00    -0.200 F 
ENDBRANCH  56  70
BRANCH  57  81
ATOM     81  C   UNL A   1      43.313  32.660  32.719  1.00  0.00     0.064 A 
ATOM     82  C   UNL A   1      43.231  32.649  34.120  1.00  0.00     0.173 A 
ATOM     83  C   UNL A   1      43.428  33.907  32.086  1.00  0.00     0.173 A 
ATOM     84  F   UNL A   1      43.094  31.485  34.772  1.00  0.00    -0.203 F 
ATOM     85  C   UNL A   1      43.232  33.834  34.852  1.00  0.00     0.198 A 
ATOM     86  C   UNL A   1      43.464  35.090  32.821  1.00  0.00     0.198 A 
ATOM     87  F   UNL A   1      43.507  33.977  30.750  1.00  0.00    -0.203 F 
ATOM     88  F   UNL A   1      43.092  33.796  36.184  1.00  0.00    -0.200 F 
ATOM     89  C   UNL A   1      43.354  35.054  34.203  1.00  0.00     0.200 A 
ATOM     90  F   UNL A   1      43.593  36.265  32.191  1.00  0.00    -0.200 F 
ATOM     91  F   UNL A   1      43.353  36.193  34.908  1.00  0.00    -0.200 F 
ENDBRANCH  57  81
BRANCH  69  92
ATOM     92  C   UNL A   1      47.931  27.606  31.383  1.00  0.00     0.064 A 
ATOM     93  C   UNL A   1      48.962  28.107  30.576  1.00  0.00     0.173 A 
ATOM     94  C   UNL A   1      48.290  26.964  32.579  1.00  0.00     0.173 A 
ATOM     95  F   UNL A   1      48.676  28.722  29.418  1.00  0.00    -0.203 F 
ATOM     96  C   UNL A   1      50.298  27.939  30.934  1.00  0.00     0.198 A 
ATOM     97  C   UNL A   1      49.623  26.832  32.954  1.00  0.00     0.198 A 
ATOM     98  F   UNL A   1      47.343  26.476  33.397  1.00  0.00    -0.203 F 
ATOM     99  F   UNL A   1      51.268  28.374  30.118  1.00  0.00    -0.200 F 
ATOM    100  C   UNL A   1      50.627  27.310  32.125  1.00  0.00     0.200 A 
ATOM    101  F   UNL A   1      49.937  26.241  34.115  1.00  0.00    -0.200 F 
ATOM    102  F   UNL A   1      51.912  27.157  32.472  1.00  0.00    -0.200 F 
ENDBRANCH  69  92
ENDBRANCH  43  44
ENDBRANCH  36  38
ENDBRANCH  35  36
ENDBRANCH  34  35
ENDBRANCH  33  34
ENDBRANCH  32  33
ENDBRANCH  31  32
ENDBRANCH  30  31
ENDBRANCH  29  30
ENDBRANCH  28  29
ENDBRANCH   1  28
TORSDOF 26
ENDMDL
