MODEL 1
REMARK VINA RESULT:     -11.2      0.000      0.000
REMARK SMILES O=C(OCCOCCOCCOCCOC(=O)[C@H]1CCCN(c2cc(-c3ccccn3)nc(-c3ccccc3F)n2)C1)c1ccc(-c2c3nc(c(-c4c(F)c(F)c(F)c(F)c4F)c4ccc([nH]4)c(-c4c(F)c(F)c(F)c(F)c4F)c4nc(c(-c5c(F)c(F)c(F)c(F)c5F)c5ccc2[nH]5)C=C4)C=C3)cc1
REMARK SMILES IDX 9 1 8 2 7 3 6 4 5 5 4 6 3 7 2 8 1 9 43 10 44 11 105 12 45 13
REMARK SMILES IDX 104 14 46 15 47 16 48 17 98 18 49 19 103 20 97 21 99 22
REMARK SMILES IDX 50 23 102 24 96 25 95 26 51 28 83 29 63 30 82 31 64 32 67 33
REMARK SMILES IDX 81 34 100 35 65 36 66 37 80 39 101 40 68 41 52 42 53 43
REMARK SMILES IDX 61 44 54 45 55 46 59 47 62 48 56 49 57 50 60 51 58 52 84 53
REMARK SMILES IDX 85 54 93 55 86 56 87 57 91 58 94 59 88 60 89 61 92 62 90 63
REMARK SMILES IDX 69 64 70 65 78 66 71 67 72 68 76 69 79 70 73 71 74 72 77 73
REMARK SMILES IDX 75 74 10 75 11 76 12 77 13 78 14 79 15 80 16 81 17 82 18 83
REMARK SMILES IDX 19 84 42 85 20 86 22 87 21 88 23 89 24 90 41 91 25 92 33 93
REMARK SMILES IDX 32 94 26 95 27 96 31 97 28 98 30 99 29 100 34 101 35 102
REMARK SMILES IDX 39 103 36 104 38 105 40 106 37 107
REMARK H PARENT 99 27 67 38
REMARK Flexibility Score: inf
ROOT
ATOM      1  O   UNL A   1      32.581  27.952  24.462  1.00  0.00    -0.377 OA
ENDROOT
BRANCH   1   2
ATOM      2  C   UNL A   1      32.023  28.741  25.501  1.00  0.00     0.188 C 
BRANCH   2   3
ATOM      3  C   UNL A   1      32.708  30.073  25.774  1.00  0.00     0.188 C 
BRANCH   3   4
ATOM      4  O   UNL A   1      31.983  30.809  26.750  1.00  0.00    -0.376 OA
BRANCH   4   5
ATOM      5  C   UNL A   1      32.677  31.787  27.525  1.00  0.00     0.202 C 
BRANCH   5   6
ATOM      6  C   UNL A   1      32.448  33.242  27.135  1.00  0.00     0.261 C 
BRANCH   6   7
ATOM      7  O   UNL A   1      32.428  34.196  28.214  1.00  0.00    -0.460 OA
BRANCH   7   8
ATOM      8  C   UNL A   1      33.398  34.664  29.031  1.00  0.00     0.338 C 
ATOM      9  O   UNL A   1      33.335  35.836  29.399  1.00  0.00    -0.246 OA
BRANCH   8  10
ATOM     10  C   UNL A   1      34.557  33.862  29.506  1.00  0.00     0.060 A 
ATOM     11  C   UNL A   1      34.457  32.680  30.223  1.00  0.00     0.016 A 
ATOM     12  C   UNL A   1      35.840  34.258  29.101  1.00  0.00     0.016 A 
ATOM     13  C   UNL A   1      35.546  31.948  30.623  1.00  0.00     0.010 A 
ATOM     14  C   UNL A   1      36.964  33.501  29.450  1.00  0.00     0.010 A 
ATOM     15  C   UNL A   1      36.805  32.353  30.232  1.00  0.00    -0.014 A 
BRANCH  15  16
ATOM     16  C   UNL A   1      37.909  31.620  30.850  1.00  0.00     0.031 A 
ATOM     17  C   UNL A   1      38.029  31.717  32.334  1.00  0.00     0.074 A 
ATOM     18  C   UNL A   1      38.595  30.723  30.120  1.00  0.00     0.049 A 
ATOM     19  N   UNL A   1      38.950  31.240  33.116  1.00  0.00    -0.248 NA
ATOM     20  C   UNL A   1      36.944  32.429  33.041  1.00  0.00     0.031 C 
ATOM     21  C   UNL A   1      38.344  30.410  28.707  1.00  0.00     0.029 A 
ATOM     22  N   UNL A   1      39.606  29.874  30.470  1.00  0.00    -0.354 N 
ATOM     23  C   UNL A   1      38.590  31.638  34.393  1.00  0.00     0.074 A 
ATOM     24  C   UNL A   1      37.357  32.379  34.297  1.00  0.00     0.031 C 
ATOM     25  C   UNL A   1      39.178  29.435  28.317  1.00  0.00     0.029 A 
ATOM     26  C   UNL A   1      40.082  29.132  29.417  1.00  0.00     0.049 A 
ATOM     27  H   UNL A   1      39.957  29.801  31.387  1.00  0.00     0.167 HD
ATOM     28  C   UNL A   1      39.268  31.407  35.535  1.00  0.00     0.037 A 
ATOM     29  C   UNL A   1      41.176  28.352  29.355  1.00  0.00     0.037 A 
ATOM     30  C   UNL A   1      40.480  30.642  35.564  1.00  0.00     0.049 A 
ATOM     31  C   UNL A   1      41.995  28.231  30.613  1.00  0.00     0.074 A 
ATOM     32  C   UNL A   1      41.320  30.394  36.630  1.00  0.00     0.029 A 
ATOM     33  N   UNL A   1      41.016  29.992  34.458  1.00  0.00    -0.354 N 
ATOM     34  N   UNL A   1      41.739  28.710  31.810  1.00  0.00    -0.248 NA
ATOM     35  C   UNL A   1      43.259  27.497  30.517  1.00  0.00     0.031 C 
ATOM     36  C   UNL A   1      42.395  29.642  36.155  1.00  0.00     0.029 A 
ATOM     37  C   UNL A   1      42.194  29.365  34.808  1.00  0.00     0.049 A 
ATOM     38  H   UNL A   1      40.615  29.982  33.559  1.00  0.00     0.167 HD
ATOM     39  C   UNL A   1      42.799  28.325  32.613  1.00  0.00     0.074 A 
ATOM     40  C   UNL A   1      43.691  27.552  31.770  1.00  0.00     0.031 C 
ATOM     41  C   UNL A   1      43.030  28.591  33.922  1.00  0.00     0.037 A 
BRANCH  28  42
ATOM     42  C   UNL A   1      38.771  32.052  36.788  1.00  0.00     0.064 A 
ATOM     43  C   UNL A   1      37.824  31.388  37.581  1.00  0.00     0.173 A 
ATOM     44  C   UNL A   1      39.199  33.322  37.196  1.00  0.00     0.173 A 
ATOM     45  F   UNL A   1      37.404  30.159  37.245  1.00  0.00    -0.203 F 
ATOM     46  C   UNL A   1      37.298  31.986  38.721  1.00  0.00     0.198 A 
ATOM     47  C   UNL A   1      38.686  33.909  38.351  1.00  0.00     0.198 A 
ATOM     48  F   UNL A   1      40.136  33.978  36.496  1.00  0.00    -0.203 F 
ATOM     49  F   UNL A   1      36.372  31.343  39.446  1.00  0.00    -0.200 F 
ATOM     50  C   UNL A   1      37.727  33.247  39.103  1.00  0.00     0.200 A 
ATOM     51  F   UNL A   1      39.128  35.113  38.742  1.00  0.00    -0.200 F 
ATOM     52  F   UNL A   1      37.221  33.821  40.204  1.00  0.00    -0.200 F 
ENDBRANCH  28  42
BRANCH  29  53
ATOM     53  C   UNL A   1      41.596  27.733  28.068  1.00  0.00     0.064 A 
ATOM     54  C   UNL A   1      40.900  26.639  27.524  1.00  0.00     0.173 A 
ATOM     55  C   UNL A   1      42.686  28.227  27.340  1.00  0.00     0.173 A 
ATOM     56  F   UNL A   1      39.843  26.125  28.169  1.00  0.00    -0.203 F 
ATOM     57  C   UNL A   1      41.288  26.057  26.319  1.00  0.00     0.198 A 
ATOM     58  C   UNL A   1      43.051  27.666  26.115  1.00  0.00     0.198 A 
ATOM     59  F   UNL A   1      43.376  29.281  27.799  1.00  0.00    -0.203 F 
ATOM     60  F   UNL A   1      40.620  24.996  25.844  1.00  0.00    -0.200 F 
ATOM     61  C   UNL A   1      42.356  26.579  25.609  1.00  0.00     0.200 A 
ATOM     62  F   UNL A   1      44.067  28.193  25.417  1.00  0.00    -0.200 F 
ATOM     63  F   UNL A   1      42.709  26.040  24.433  1.00  0.00    -0.200 F 
ENDBRANCH  29  53
BRANCH  41  64
ATOM     64  C   UNL A   1      44.275  28.023  34.524  1.00  0.00     0.064 A 
ATOM     65  C   UNL A   1      45.486  28.725  34.424  1.00  0.00     0.173 A 
ATOM     66  C   UNL A   1      44.293  26.739  35.082  1.00  0.00     0.173 A 
ATOM     67  F   UNL A   1      45.513  29.952  33.882  1.00  0.00    -0.203 F 
ATOM     68  C   UNL A   1      46.678  28.144  34.832  1.00  0.00     0.198 A 
ATOM     69  C   UNL A   1      45.484  26.176  35.523  1.00  0.00     0.198 A 
ATOM     70  F   UNL A   1      43.154  26.040  35.205  1.00  0.00    -0.203 F 
ATOM     71  F   UNL A   1      47.832  28.806  34.673  1.00  0.00    -0.200 F 
ATOM     72  C   UNL A   1      46.676  26.871  35.384  1.00  0.00     0.200 A 
ATOM     73  F   UNL A   1      45.479  24.956  36.077  1.00  0.00    -0.200 F 
ATOM     74  F   UNL A   1      47.828  26.311  35.778  1.00  0.00    -0.200 F 
ENDBRANCH  41  64
ENDBRANCH  15  16
ENDBRANCH   8  10
ENDBRANCH   7   8
ENDBRANCH   6   7
ENDBRANCH   5   6
ENDBRANCH   4   5
ENDBRANCH   3   4
ENDBRANCH   2   3
ENDBRANCH   1   2
BRANCH   1  75
ATOM     75  C   UNL A   1      32.656  28.538  23.175  1.00  0.00     0.188 C 
BRANCH  75  76
ATOM     76  C   UNL A   1      31.365  28.973  22.445  1.00  0.00     0.188 C 
BRANCH  76  77
ATOM     77  O   UNL A   1      30.335  28.031  22.209  1.00  0.00    -0.376 OA
BRANCH  77  78
ATOM     78  C   UNL A   1      29.209  27.939  23.077  1.00  0.00     0.202 C 
BRANCH  78  79
ATOM     79  C   UNL A   1      28.860  26.692  23.916  1.00  0.00     0.261 C 
BRANCH  79  80
ATOM     80  O   UNL A   1      29.658  25.545  23.621  1.00  0.00    -0.463 OA
BRANCH  80  81
ATOM     81  C   UNL A   1      30.615  25.172  24.519  1.00  0.00     0.310 C 
ATOM     82  O   UNL A   1      30.525  25.296  25.738  1.00  0.00    -0.252 OA
BRANCH  81  83
ATOM     83  C   UNL A   1      31.699  24.395  23.807  1.00  0.00     0.118 C 
ATOM     84  C   UNL A   1      32.128  25.040  22.476  1.00  0.00     0.019 C 
ATOM     85  C   UNL A   1      32.895  24.011  24.664  1.00  0.00     0.133 C 
ATOM     86  C   UNL A   1      33.081  24.127  21.707  1.00  0.00     0.022 C 
ATOM     87  N   UNL A   1      33.793  23.223  23.817  1.00  0.00    -0.356 N 
ATOM     88  C   UNL A   1      34.284  23.811  22.580  1.00  0.00     0.118 C 
BRANCH  87  89
ATOM     89  C   UNL A   1      34.455  22.130  24.326  1.00  0.00     0.133 A 
ATOM     90  C   UNL A   1      35.745  22.287  24.766  1.00  0.00     0.077 A 
ATOM     91  N   UNL A   1      33.857  20.927  24.298  1.00  0.00    -0.211 NA
ATOM     92  C   UNL A   1      36.420  21.162  25.182  1.00  0.00     0.095 A 
ATOM     93  C   UNL A   1      34.591  19.873  24.717  1.00  0.00     0.165 A 
ATOM     94  N   UNL A   1      35.859  19.939  25.159  1.00  0.00    -0.226 NA
BRANCH  92  95
ATOM     95  C   UNL A   1      37.793  21.298  25.669  1.00  0.00     0.089 A 
ATOM     96  C   UNL A   1      38.237  22.514  26.195  1.00  0.00     0.030 A 
ATOM     97  N   UNL A   1      38.633  20.257  25.440  1.00  0.00    -0.255 NA
ATOM     98  C   UNL A   1      39.586  22.672  26.489  1.00  0.00     0.004 A 
ATOM     99  C   UNL A   1      39.934  20.433  25.752  1.00  0.00     0.112 A 
ATOM    100  C   UNL A   1      40.453  21.613  26.262  1.00  0.00     0.020 A 
ENDBRANCH  92  95
BRANCH  93 101
ATOM    101  C   UNL A   1      34.003  18.538  24.625  1.00  0.00     0.055 A 
ATOM    102  C   UNL A   1      34.551  17.543  23.793  1.00  0.00     0.015 A 
ATOM    103  C   UNL A   1      32.901  18.187  25.413  1.00  0.00     0.134 A 
ATOM    104  C   UNL A   1      34.026  16.243  23.779  1.00  0.00     0.001 A 
ATOM    105  C   UNL A   1      32.367  16.897  25.397  1.00  0.00     0.040 A 
ATOM    106  F   UNL A   1      32.315  19.099  26.205  1.00  0.00    -0.206 F 
ATOM    107  C   UNL A   1      32.935  15.920  24.584  1.00  0.00     0.003 A 
ENDBRANCH  93 101
ENDBRANCH  87  89
ENDBRANCH  81  83
ENDBRANCH  80  81
ENDBRANCH  79  80
ENDBRANCH  78  79
ENDBRANCH  77  78
ENDBRANCH  76  77
ENDBRANCH  75  76
ENDBRANCH   1  75
TORSDOF 23
ENDMDL
MODEL 2
REMARK VINA RESULT:     -10.4      6.666     11.389
REMARK SMILES O=C(OCCOCCOCCOCCOC(=O)[C@H]1CCCN(c2cc(-c3ccccn3)nc(-c3ccccc3F)n2)C1)c1ccc(-c2c3nc(c(-c4c(F)c(F)c(F)c(F)c4F)c4ccc([nH]4)c(-c4c(F)c(F)c(F)c(F)c4F)c4nc(c(-c5c(F)c(F)c(F)c(F)c5F)c5ccc2[nH]5)C=C4)C=C3)cc1
REMARK SMILES IDX 9 1 8 2 7 3 6 4 5 5 4 6 3 7 2 8 1 9 43 10 44 11 105 12 45 13
REMARK SMILES IDX 104 14 46 15 47 16 48 17 98 18 49 19 103 20 97 21 99 22
REMARK SMILES IDX 50 23 102 24 96 25 95 26 51 28 83 29 63 30 82 31 64 32 67 33
REMARK SMILES IDX 81 34 100 35 65 36 66 37 80 39 101 40 68 41 52 42 53 43
REMARK SMILES IDX 61 44 54 45 55 46 59 47 62 48 56 49 57 50 60 51 58 52 84 53
REMARK SMILES IDX 85 54 93 55 86 56 87 57 91 58 94 59 88 60 89 61 92 62 90 63
REMARK SMILES IDX 69 64 70 65 78 66 71 67 72 68 76 69 79 70 73 71 74 72 77 73
REMARK SMILES IDX 75 74 10 75 11 76 12 77 13 78 14 79 15 80 16 81 17 82 18 83
REMARK SMILES IDX 19 84 42 85 20 86 22 87 21 88 23 89 24 90 41 91 25 92 33 93
REMARK SMILES IDX 32 94 26 95 27 96 31 97 28 98 30 99 29 100 34 101 35 102
REMARK SMILES IDX 39 103 36 104 38 105 40 106 37 107
REMARK H PARENT 99 27 67 38
REMARK Flexibility Score: inf
ROOT
ATOM      1  O   UNL A   1      34.950  23.120  24.273  1.00  0.00    -0.377 OA
ENDROOT
BRANCH   1   2
ATOM      2  C   UNL A   1      34.683  23.301  25.655  1.00  0.00     0.188 C 
BRANCH   2   3
ATOM      3  C   UNL A   1      35.872  23.142  26.593  1.00  0.00     0.188 C 
BRANCH   3   4
ATOM      4  O   UNL A   1      37.084  23.106  25.850  1.00  0.00    -0.376 OA
BRANCH   4   5
ATOM      5  C   UNL A   1      38.056  24.127  26.077  1.00  0.00     0.202 C 
BRANCH   5   6
ATOM      6  C   UNL A   1      39.027  23.889  27.227  1.00  0.00     0.261 C 
BRANCH   6   7
ATOM      7  O   UNL A   1      40.259  24.634  27.187  1.00  0.00    -0.460 OA
BRANCH   7   8
ATOM      8  C   UNL A   1      41.456  24.380  26.613  1.00  0.00     0.338 C 
ATOM      9  O   UNL A   1      41.623  23.289  26.071  1.00  0.00    -0.246 OA
BRANCH   8  10
ATOM     10  C   UNL A   1      42.603  25.328  26.603  1.00  0.00     0.060 A 
ATOM     11  C   UNL A   1      43.378  25.639  27.710  1.00  0.00     0.016 A 
ATOM     12  C   UNL A   1      43.009  25.856  25.369  1.00  0.00     0.016 A 
ATOM     13  C   UNL A   1      44.447  26.497  27.663  1.00  0.00     0.010 A 
ATOM     14  C   UNL A   1      44.128  26.690  25.284  1.00  0.00     0.010 A 
ATOM     15  C   UNL A   1      44.831  27.022  26.447  1.00  0.00    -0.014 A 
BRANCH  15  16
ATOM     16  C   UNL A   1      45.859  28.058  26.519  1.00  0.00     0.031 A 
ATOM     17  C   UNL A   1      45.408  29.422  26.923  1.00  0.00     0.074 A 
ATOM     18  C   UNL A   1      47.156  27.705  26.466  1.00  0.00     0.049 A 
ATOM     19  N   UNL A   1      46.090  30.527  26.986  1.00  0.00    -0.248 NA
ATOM     20  C   UNL A   1      43.997  29.556  27.339  1.00  0.00     0.031 C 
ATOM     21  C   UNL A   1      47.654  26.331  26.320  1.00  0.00     0.029 A 
ATOM     22  N   UNL A   1      48.290  28.457  26.578  1.00  0.00    -0.354 N 
ATOM     23  C   UNL A   1      45.184  31.493  27.393  1.00  0.00     0.074 A 
ATOM     24  C   UNL A   1      43.907  30.854  27.585  1.00  0.00     0.031 C 
ATOM     25  C   UNL A   1      48.995  26.343  26.356  1.00  0.00     0.029 A 
ATOM     26  C   UNL A   1      49.444  27.727  26.425  1.00  0.00     0.049 A 
ATOM     27  H   UNL A   1      48.282  29.426  26.753  1.00  0.00     0.167 HD
ATOM     28  C   UNL A   1      45.426  32.808  27.563  1.00  0.00     0.037 A 
ATOM     29  C   UNL A   1      50.709  28.159  26.286  1.00  0.00     0.037 A 
ATOM     30  C   UNL A   1      46.728  33.378  27.375  1.00  0.00     0.049 A 
ATOM     31  C   UNL A   1      50.926  29.649  26.336  1.00  0.00     0.074 A 
ATOM     32  C   UNL A   1      47.106  34.703  27.431  1.00  0.00     0.029 A 
ATOM     33  N   UNL A   1      47.870  32.634  27.101  1.00  0.00    -0.354 N 
ATOM     34  N   UNL A   1      50.055  30.598  26.594  1.00  0.00    -0.248 NA
ATOM     35  C   UNL A   1      52.278  30.135  26.049  1.00  0.00     0.031 C 
ATOM     36  C   UNL A   1      48.469  34.766  27.133  1.00  0.00     0.029 A 
ATOM     37  C   UNL A   1      48.953  33.475  26.956  1.00  0.00     0.049 A 
ATOM     38  H   UNL A   1      47.901  31.653  27.022  1.00  0.00     0.167 HD
ATOM     39  C   UNL A   1      50.752  31.792  26.514  1.00  0.00     0.074 A 
ATOM     40  C   UNL A   1      52.126  31.444  26.207  1.00  0.00     0.031 C 
ATOM     41  C   UNL A   1      50.306  33.063  26.668  1.00  0.00     0.037 A 
BRANCH  28  42
ATOM     42  C   UNL A   1      44.266  33.699  27.870  1.00  0.00     0.064 A 
ATOM     43  C   UNL A   1      43.697  34.473  26.847  1.00  0.00     0.173 A 
ATOM     44  C   UNL A   1      43.731  33.815  29.159  1.00  0.00     0.173 A 
ATOM     45  F   UNL A   1      44.158  34.376  25.591  1.00  0.00    -0.203 F 
ATOM     46  C   UNL A   1      42.656  35.356  27.111  1.00  0.00     0.198 A 
ATOM     47  C   UNL A   1      42.672  34.683  29.415  1.00  0.00     0.198 A 
ATOM     48  F   UNL A   1      44.210  33.062  30.160  1.00  0.00    -0.203 F 
ATOM     49  F   UNL A   1      42.149  36.106  26.123  1.00  0.00    -0.200 F 
ATOM     50  C   UNL A   1      42.146  35.463  28.396  1.00  0.00     0.200 A 
ATOM     51  F   UNL A   1      42.154  34.760  30.650  1.00  0.00    -0.200 F 
ATOM     52  F   UNL A   1      41.140  36.312  28.649  1.00  0.00    -0.200 F 
ENDBRANCH  28  42
BRANCH  29  53
ATOM     53  C   UNL A   1      51.812  27.203  25.994  1.00  0.00     0.064 A 
ATOM     54  C   UNL A   1      52.109  26.815  24.674  1.00  0.00     0.173 A 
ATOM     55  C   UNL A   1      52.609  26.669  27.014  1.00  0.00     0.173 A 
ATOM     56  F   UNL A   1      51.388  27.297  23.652  1.00  0.00    -0.203 F 
ATOM     57  C   UNL A   1      53.141  25.922  24.394  1.00  0.00     0.198 A 
ATOM     58  C   UNL A   1      53.665  25.802  26.729  1.00  0.00     0.198 A 
ATOM     59  F   UNL A   1      52.385  27.017  28.289  1.00  0.00    -0.203 F 
ATOM     60  F   UNL A   1      53.377  25.550  23.128  1.00  0.00    -0.200 F 
ATOM     61  C   UNL A   1      53.927  25.425  25.421  1.00  0.00     0.200 A 
ATOM     62  F   UNL A   1      54.442  25.348  27.723  1.00  0.00    -0.200 F 
ATOM     63  F   UNL A   1      54.941  24.592  25.149  1.00  0.00    -0.200 F 
ENDBRANCH  29  53
BRANCH  41  64
ATOM     64  C   UNL A   1      51.312  34.160  26.531  1.00  0.00     0.064 A 
ATOM     65  C   UNL A   1      52.020  34.607  27.656  1.00  0.00     0.173 A 
ATOM     66  C   UNL A   1      51.479  34.846  25.322  1.00  0.00     0.173 A 
ATOM     67  F   UNL A   1      51.876  33.985  28.837  1.00  0.00    -0.203 F 
ATOM     68  C   UNL A   1      52.837  35.726  27.581  1.00  0.00     0.198 A 
ATOM     69  C   UNL A   1      52.327  35.944  25.243  1.00  0.00     0.198 A 
ATOM     70  F   UNL A   1      50.827  34.443  24.220  1.00  0.00    -0.203 F 
ATOM     71  F   UNL A   1      53.459  36.174  28.681  1.00  0.00    -0.200 F 
ATOM     72  C   UNL A   1      52.992  36.392  26.375  1.00  0.00     0.200 A 
ATOM     73  F   UNL A   1      52.494  36.574  24.072  1.00  0.00    -0.200 F 
ATOM     74  F   UNL A   1      53.781  37.474  26.304  1.00  0.00    -0.200 F 
ENDBRANCH  41  64
ENDBRANCH  15  16
ENDBRANCH   8  10
ENDBRANCH   7   8
ENDBRANCH   6   7
ENDBRANCH   5   6
ENDBRANCH   4   5
ENDBRANCH   3   4
ENDBRANCH   2   3
ENDBRANCH   1   2
BRANCH   1  75
ATOM     75  C   UNL A   1      33.970  22.440  23.510  1.00  0.00     0.188 C 
BRANCH  75  76
ATOM     76  C   UNL A   1      33.238  23.169  22.361  1.00  0.00     0.188 C 
BRANCH  76  77
ATOM     77  O   UNL A   1      33.628  24.479  21.994  1.00  0.00    -0.376 OA
BRANCH  77  78
ATOM     78  C   UNL A   1      32.892  25.616  22.434  1.00  0.00     0.202 C 
BRANCH  78  79
ATOM     79  C   UNL A   1      33.159  27.060  21.961  1.00  0.00     0.261 C 
BRANCH  79  80
ATOM     80  O   UNL A   1      33.903  27.853  22.888  1.00  0.00    -0.463 OA
BRANCH  80  81
ATOM     81  C   UNL A   1      33.779  27.581  24.218  1.00  0.00     0.310 C 
ATOM     82  O   UNL A   1      34.116  26.530  24.759  1.00  0.00    -0.252 OA
BRANCH  81  83
ATOM     83  C   UNL A   1      33.369  28.837  24.953  1.00  0.00     0.118 C 
ATOM     84  C   UNL A   1      31.842  29.039  24.995  1.00  0.00     0.019 C 
ATOM     85  C   UNL A   1      34.006  29.032  26.320  1.00  0.00     0.133 C 
ATOM     86  C   UNL A   1      31.486  30.406  25.576  1.00  0.00     0.022 C 
ATOM     87  N   UNL A   1      33.533  30.318  26.834  1.00  0.00    -0.356 N 
ATOM     88  C   UNL A   1      32.099  30.536  26.960  1.00  0.00     0.118 C 
BRANCH  87  89
ATOM     89  C   UNL A   1      34.382  31.150  27.525  1.00  0.00     0.133 A 
ATOM     90  C   UNL A   1      35.665  30.728  27.769  1.00  0.00     0.077 A 
ATOM     91  N   UNL A   1      33.911  32.309  28.017  1.00  0.00    -0.211 NA
ATOM     92  C   UNL A   1      36.466  31.535  28.544  1.00  0.00     0.095 A 
ATOM     93  C   UNL A   1      34.761  33.038  28.773  1.00  0.00     0.165 A 
ATOM     94  N   UNL A   1      36.029  32.697  29.062  1.00  0.00    -0.226 NA
BRANCH  92  95
ATOM     95  C   UNL A   1      37.844  31.119  28.812  1.00  0.00     0.089 A 
ATOM     96  C   UNL A   1      38.347  29.945  28.248  1.00  0.00     0.030 A 
ATOM     97  N   UNL A   1      38.532  31.833  29.739  1.00  0.00    -0.255 NA
ATOM     98  C   UNL A   1      39.593  29.480  28.653  1.00  0.00     0.004 A 
ATOM     99  C   UNL A   1      39.747  31.367  30.099  1.00  0.00     0.112 A 
ATOM    100  C   UNL A   1      40.307  30.203  29.598  1.00  0.00     0.020 A 
ENDBRANCH  92  95
BRANCH  93 101
ATOM    101  C   UNL A   1      34.259  34.264  29.392  1.00  0.00     0.055 A 
ATOM    102  C   UNL A   1      33.861  35.373  28.622  1.00  0.00     0.015 A 
ATOM    103  C   UNL A   1      34.104  34.352  30.780  1.00  0.00     0.134 A 
ATOM    104  C   UNL A   1      33.304  36.510  29.226  1.00  0.00     0.001 A 
ATOM    105  C   UNL A   1      33.559  35.484  31.389  1.00  0.00     0.040 A 
ATOM    106  F   UNL A   1      34.493  33.340  31.572  1.00  0.00    -0.206 F 
ATOM    107  C   UNL A   1      33.151  36.563  30.610  1.00  0.00     0.003 A 
ENDBRANCH  93 101
ENDBRANCH  87  89
ENDBRANCH  81  83
ENDBRANCH  80  81
ENDBRANCH  79  80
ENDBRANCH  78  79
ENDBRANCH  77  78
ENDBRANCH  76  77
ENDBRANCH  75  76
ENDBRANCH   1  75
TORSDOF 23
ENDMDL
MODEL 3
REMARK VINA RESULT:     -10.4      5.343      9.024
REMARK SMILES O=C(OCCOCCOCCOCCOC(=O)[C@H]1CCCN(c2cc(-c3ccccn3)nc(-c3ccccc3F)n2)C1)c1ccc(-c2c3nc(c(-c4c(F)c(F)c(F)c(F)c4F)c4ccc([nH]4)c(-c4c(F)c(F)c(F)c(F)c4F)c4nc(c(-c5c(F)c(F)c(F)c(F)c5F)c5ccc2[nH]5)C=C4)C=C3)cc1
REMARK SMILES IDX 9 1 8 2 7 3 6 4 5 5 4 6 3 7 2 8 1 9 43 10 44 11 105 12 45 13
REMARK SMILES IDX 104 14 46 15 47 16 48 17 98 18 49 19 103 20 97 21 99 22
REMARK SMILES IDX 50 23 102 24 96 25 95 26 51 28 83 29 63 30 82 31 64 32 67 33
REMARK SMILES IDX 81 34 100 35 65 36 66 37 80 39 101 40 68 41 52 42 53 43
REMARK SMILES IDX 61 44 54 45 55 46 59 47 62 48 56 49 57 50 60 51 58 52 84 53
REMARK SMILES IDX 85 54 93 55 86 56 87 57 91 58 94 59 88 60 89 61 92 62 90 63
REMARK SMILES IDX 69 64 70 65 78 66 71 67 72 68 76 69 79 70 73 71 74 72 77 73
REMARK SMILES IDX 75 74 10 75 11 76 12 77 13 78 14 79 15 80 16 81 17 82 18 83
REMARK SMILES IDX 19 84 42 85 20 86 22 87 21 88 23 89 24 90 41 91 25 92 33 93
REMARK SMILES IDX 32 94 26 95 27 96 31 97 28 98 30 99 29 100 34 101 35 102
REMARK SMILES IDX 39 103 36 104 38 105 40 106 37 107
REMARK H PARENT 99 27 67 38
REMARK Flexibility Score: inf
ROOT
ATOM      1  O   UNL A   1      31.395  28.836  26.063  1.00  0.00    -0.377 OA
ENDROOT
BRANCH   1   2
ATOM      2  C   UNL A   1      32.047  29.677  27.002  1.00  0.00     0.188 C 
BRANCH   2   3
ATOM      3  C   UNL A   1      33.505  30.002  26.711  1.00  0.00     0.188 C 
BRANCH   3   4
ATOM      4  O   UNL A   1      34.049  30.801  27.754  1.00  0.00    -0.376 OA
BRANCH   4   5
ATOM      5  C   UNL A   1      35.464  30.982  27.811  1.00  0.00     0.202 C 
BRANCH   5   6
ATOM      6  C   UNL A   1      36.312  29.727  27.641  1.00  0.00     0.261 C 
BRANCH   6   7
ATOM      7  O   UNL A   1      37.141  29.361  28.760  1.00  0.00    -0.460 OA
BRANCH   7   8
ATOM      8  C   UNL A   1      37.134  29.739  30.058  1.00  0.00     0.338 C 
ATOM      9  O   UNL A   1      36.299  29.237  30.808  1.00  0.00    -0.246 OA
BRANCH   8  10
ATOM     10  C   UNL A   1      38.062  30.743  30.646  1.00  0.00     0.060 A 
ATOM     11  C   UNL A   1      39.357  30.472  31.060  1.00  0.00     0.016 A 
ATOM     12  C   UNL A   1      37.648  32.082  30.676  1.00  0.00     0.016 A 
ATOM     13  C   UNL A   1      40.199  31.426  31.573  1.00  0.00     0.010 A 
ATOM     14  C   UNL A   1      38.505  33.084  31.144  1.00  0.00     0.010 A 
ATOM     15  C   UNL A   1      39.778  32.739  31.611  1.00  0.00    -0.014 A 
BRANCH  15  16
ATOM     16  C   UNL A   1      40.663  33.651  32.334  1.00  0.00     0.031 A 
ATOM     17  C   UNL A   1      41.619  34.448  31.512  1.00  0.00     0.074 A 
ATOM     18  C   UNL A   1      40.422  33.912  33.631  1.00  0.00     0.049 A 
ATOM     19  N   UNL A   1      42.558  35.258  31.900  1.00  0.00    -0.248 NA
ATOM     20  C   UNL A   1      41.483  34.337  30.044  1.00  0.00     0.031 C 
ATOM     21  C   UNL A   1      39.328  33.336  34.422  1.00  0.00     0.029 A 
ATOM     22  N   UNL A   1      41.045  34.762  34.500  1.00  0.00    -0.354 N 
ATOM     23  C   UNL A   1      43.157  35.709  30.735  1.00  0.00     0.074 A 
ATOM     24  C   UNL A   1      42.473  35.106  29.619  1.00  0.00     0.031 C 
ATOM     25  C   UNL A   1      39.358  33.856  35.659  1.00  0.00     0.029 A 
ATOM     26  C   UNL A   1      40.527  34.716  35.771  1.00  0.00     0.049 A 
ATOM     27  H   UNL A   1      41.790  35.351  34.240  1.00  0.00     0.167 HD
ATOM     28  C   UNL A   1      44.210  36.545  30.638  1.00  0.00     0.037 A 
ATOM     29  C   UNL A   1      41.006  35.262  36.903  1.00  0.00     0.037 A 
ATOM     30  C   UNL A   1      44.834  37.129  31.789  1.00  0.00     0.049 A 
ATOM     31  C   UNL A   1      42.269  36.073  36.782  1.00  0.00     0.074 A 
ATOM     32  C   UNL A   1      45.957  37.927  31.852  1.00  0.00     0.029 A 
ATOM     33  N   UNL A   1      44.365  36.974  33.089  1.00  0.00    -0.354 N 
ATOM     34  N   UNL A   1      42.931  36.408  35.697  1.00  0.00    -0.248 NA
ATOM     35  C   UNL A   1      42.872  36.556  38.027  1.00  0.00     0.031 C 
ATOM     36  C   UNL A   1      46.201  38.207  33.198  1.00  0.00     0.029 A 
ATOM     37  C   UNL A   1      45.193  37.639  33.968  1.00  0.00     0.049 A 
ATOM     38  H   UNL A   1      43.561  36.466  33.344  1.00  0.00     0.167 HD
ATOM     39  C   UNL A   1      44.019  37.150  36.124  1.00  0.00     0.074 A 
ATOM     40  C   UNL A   1      43.914  37.237  37.569  1.00  0.00     0.031 C 
ATOM     41  C   UNL A   1      45.023  37.704  35.400  1.00  0.00     0.037 A 
BRANCH  28  42
ATOM     42  C   UNL A   1      44.789  36.788  29.282  1.00  0.00     0.064 A 
ATOM     43  C   UNL A   1      45.785  35.931  28.790  1.00  0.00     0.173 A 
ATOM     44  C   UNL A   1      44.391  37.865  28.479  1.00  0.00     0.173 A 
ATOM     45  F   UNL A   1      46.179  34.870  29.509  1.00  0.00    -0.203 F 
ATOM     46  C   UNL A   1      46.385  36.164  27.557  1.00  0.00     0.198 A 
ATOM     47  C   UNL A   1      44.978  38.082  27.235  1.00  0.00     0.198 A 
ATOM     48  F   UNL A   1      43.411  38.685  28.886  1.00  0.00    -0.203 F 
ATOM     49  F   UNL A   1      47.355  35.347  27.122  1.00  0.00    -0.200 F 
ATOM     50  C   UNL A   1      45.984  37.241  26.782  1.00  0.00     0.200 A 
ATOM     51  F   UNL A   1      44.565  39.101  26.469  1.00  0.00    -0.200 F 
ATOM     52  F   UNL A   1      46.561  37.462  25.593  1.00  0.00    -0.200 F 
ENDBRANCH  28  42
BRANCH  29  53
ATOM     53  C   UNL A   1      40.362  34.980  38.215  1.00  0.00     0.064 A 
ATOM     54  C   UNL A   1      40.562  33.754  38.876  1.00  0.00     0.173 A 
ATOM     55  C   UNL A   1      39.551  35.927  38.852  1.00  0.00     0.173 A 
ATOM     56  F   UNL A   1      41.334  32.808  38.322  1.00  0.00    -0.203 F 
ATOM     57  C   UNL A   1      39.964  33.485  40.105  1.00  0.00     0.198 A 
ATOM     58  C   UNL A   1      38.982  35.670  40.100  1.00  0.00     0.198 A 
ATOM     59  F   UNL A   1      39.340  37.121  38.279  1.00  0.00    -0.203 F 
ATOM     60  F   UNL A   1      40.151  32.295  40.693  1.00  0.00    -0.200 F 
ATOM     61  C   UNL A   1      39.184  34.448  40.722  1.00  0.00     0.200 A 
ATOM     62  F   UNL A   1      38.252  36.616  40.708  1.00  0.00    -0.200 F 
ATOM     63  F   UNL A   1      38.635  34.202  41.920  1.00  0.00    -0.200 F 
ENDBRANCH  29  53
BRANCH  41  64
ATOM     64  C   UNL A   1      46.065  38.467  36.152  1.00  0.00     0.064 A 
ATOM     65  C   UNL A   1      45.918  39.847  36.352  1.00  0.00     0.173 A 
ATOM     66  C   UNL A   1      47.258  37.858  36.560  1.00  0.00     0.173 A 
ATOM     67  F   UNL A   1      44.795  40.471  35.962  1.00  0.00    -0.203 F 
ATOM     68  C   UNL A   1      46.946  40.598  36.904  1.00  0.00     0.198 A 
ATOM     69  C   UNL A   1      48.271  38.607  37.146  1.00  0.00     0.198 A 
ATOM     70  F   UNL A   1      47.434  36.538  36.396  1.00  0.00    -0.203 F 
ATOM     71  F   UNL A   1      46.810  41.925  37.031  1.00  0.00    -0.200 F 
ATOM     72  C   UNL A   1      48.120  39.977  37.303  1.00  0.00     0.200 A 
ATOM     73  F   UNL A   1      49.396  38.004  37.553  1.00  0.00    -0.200 F 
ATOM     74  F   UNL A   1      49.113  40.704  37.836  1.00  0.00    -0.200 F 
ENDBRANCH  41  64
ENDBRANCH  15  16
ENDBRANCH   8  10
ENDBRANCH   7   8
ENDBRANCH   6   7
ENDBRANCH   5   6
ENDBRANCH   4   5
ENDBRANCH   3   4
ENDBRANCH   2   3
ENDBRANCH   1   2
BRANCH   1  75
ATOM     75  C   UNL A   1      31.570  29.141  24.692  1.00  0.00     0.188 C 
BRANCH  75  76
ATOM     76  C   UNL A   1      30.396  29.721  23.871  1.00  0.00     0.188 C 
BRANCH  76  77
ATOM     77  O   UNL A   1      29.949  29.052  22.707  1.00  0.00    -0.376 OA
BRANCH  77  78
ATOM     78  C   UNL A   1      28.711  28.347  22.692  1.00  0.00     0.202 C 
BRANCH  78  79
ATOM     79  C   UNL A   1      28.306  27.282  23.732  1.00  0.00     0.261 C 
BRANCH  79  80
ATOM     80  O   UNL A   1      29.026  26.053  23.622  1.00  0.00    -0.463 OA
BRANCH  80  81
ATOM     81  C   UNL A   1      29.977  25.773  24.558  1.00  0.00     0.310 C 
ATOM     82  O   UNL A   1      29.817  25.854  25.774  1.00  0.00    -0.252 OA
BRANCH  81  83
ATOM     83  C   UNL A   1      31.178  25.149  23.885  1.00  0.00     0.118 C 
ATOM     84  C   UNL A   1      31.597  25.884  22.598  1.00  0.00     0.019 C 
ATOM     85  C   UNL A   1      32.366  24.873  24.794  1.00  0.00     0.133 C 
ATOM     86  C   UNL A   1      32.687  25.111  21.856  1.00  0.00     0.022 C 
ATOM     87  N   UNL A   1      33.390  24.222  23.976  1.00  0.00    -0.356 N 
ATOM     88  C   UNL A   1      33.872  24.904  22.784  1.00  0.00     0.118 C 
BRANCH  87  89
ATOM     89  C   UNL A   1      34.146  23.194  24.489  1.00  0.00     0.133 A 
ATOM     90  C   UNL A   1      35.390  23.479  24.994  1.00  0.00     0.077 A 
ATOM     91  N   UNL A   1      33.688  21.933  24.403  1.00  0.00    -0.211 NA
ATOM     92  C   UNL A   1      36.167  22.424  25.413  1.00  0.00     0.095 A 
ATOM     93  C   UNL A   1      34.516  20.956  24.831  1.00  0.00     0.165 A 
ATOM     94  N   UNL A   1      35.748  21.148  25.335  1.00  0.00    -0.226 NA
BRANCH  92  95
ATOM     95  C   UNL A   1      37.493  22.696  25.968  1.00  0.00     0.089 A 
ATOM     96  C   UNL A   1      37.828  23.983  26.395  1.00  0.00     0.030 A 
ATOM     97  N   UNL A   1      38.406  21.694  25.898  1.00  0.00    -0.255 NA
ATOM     98  C   UNL A   1      39.142  24.257  26.754  1.00  0.00     0.004 A 
ATOM     99  C   UNL A   1      39.671  21.985  26.270  1.00  0.00     0.112 A 
ATOM    100  C   UNL A   1      40.084  23.240  26.690  1.00  0.00     0.020 A 
ENDBRANCH  92  95
BRANCH  93 101
ATOM    101  C   UNL A   1      34.085  19.567  24.679  1.00  0.00     0.055 A 
ATOM    102  C   UNL A   1      32.724  19.220  24.578  1.00  0.00     0.015 A 
ATOM    103  C   UNL A   1      35.024  18.535  24.569  1.00  0.00     0.134 A 
ATOM    104  C   UNL A   1      32.330  17.894  24.349  1.00  0.00     0.001 A 
ATOM    105  C   UNL A   1      34.640  17.211  24.350  1.00  0.00     0.040 A 
ATOM    106  F   UNL A   1      36.336  18.796  24.686  1.00  0.00    -0.206 F 
ATOM    107  C   UNL A   1      33.290  16.890  24.232  1.00  0.00     0.003 A 
ENDBRANCH  93 101
ENDBRANCH  87  89
ENDBRANCH  81  83
ENDBRANCH  80  81
ENDBRANCH  79  80
ENDBRANCH  78  79
ENDBRANCH  77  78
ENDBRANCH  76  77
ENDBRANCH  75  76
ENDBRANCH   1  75
TORSDOF 23
ENDMDL
