MODEL 1
REMARK VINA RESULT:      -9.9      0.000      0.000
REMARK SMILES COc1ccc(C(=O)OCCOCCOCCOCCOC(=O)c2ccc(-c3c4nc(c(-c5c(F)c(F)c(F)c(F)c5F)c5ccc([nH]5)c(-c5c(F)c(F)c(F)c(F)c5F)c5nc(c(-c6c(F)c(F)c(F)c(F)c6F)c6ccc3[nH]6)C=C5)C=C4)cc2)cc1NC(=O)c1ccccc1[N+](=O)[O-]
REMARK SMILES IDX 14 1 13 2 12 3 11 4 10 5 9 6 7 7 8 8 6 9 3 10 4 11 88 12
REMARK SMILES IDX 5 13 87 14 2 15 1 16 89 17 90 18 91 20 92 21 93 22 97 23
REMARK SMILES IDX 94 24 96 25 95 26 98 27 99 28 100 29 15 30 16 31 17 32 18 33
REMARK SMILES IDX 19 34 20 35 21 36 22 37 23 38 24 39 25 40 86 41 26 42 85 43
REMARK SMILES IDX 27 44 28 45 29 46 79 47 30 48 84 49 78 50 80 51 31 52 83 53
REMARK SMILES IDX 77 54 76 55 32 57 64 58 44 59 63 60 45 61 48 62 62 63 81 64
REMARK SMILES IDX 46 65 47 66 61 68 82 69 49 70 33 71 34 72 42 73 35 74 36 75
REMARK SMILES IDX 40 76 43 77 37 78 38 79 41 80 39 81 65 82 66 83 74 84 67 85
REMARK SMILES IDX 68 86 72 87 75 88 69 89 70 90 73 91 71 92 50 93 51 94 59 95
REMARK SMILES IDX 52 96 53 97 57 98 60 99 54 100 55 101 58 102 56 103
REMARK H PARENT 89 19 80 56 48 67
REMARK Flexibility Score: inf
ROOT
ATOM      1  C   UNL A   1      34.089  32.093  27.633  1.00  0.00     0.188 C 
ENDROOT
BRANCH   1   2
ATOM      2  C   UNL A   1      34.221  30.559  27.718  1.00  0.00     0.188 C 
BRANCH   2   3
ATOM      3  O   UNL A   1      33.184  29.709  27.253  1.00  0.00    -0.376 OA
BRANCH   3   4
ATOM      4  C   UNL A   1      32.095  30.156  26.463  1.00  0.00     0.202 C 
BRANCH   4   5
ATOM      5  C   UNL A   1      31.497  29.397  25.268  1.00  0.00     0.261 C 
BRANCH   5   6
ATOM      6  O   UNL A   1      32.283  29.332  24.085  1.00  0.00    -0.460 OA
BRANCH   6   7
ATOM      7  C   UNL A   1      31.699  28.765  23.005  1.00  0.00     0.338 C 
ATOM      8  O   UNL A   1      30.859  29.270  22.284  1.00  0.00    -0.246 OA
BRANCH   7   9
ATOM      9  C   UNL A   1      32.343  27.445  22.756  1.00  0.00     0.062 A 
ATOM     10  C   UNL A   1      33.413  24.910  22.412  1.00  0.00     0.142 A 
ATOM     11  C   UNL A   1      32.470  25.398  21.499  1.00  0.00     0.049 A 
ATOM     12  C   UNL A   1      33.859  25.696  23.487  1.00  0.00     0.084 A 
ATOM     13  C   UNL A   1      31.889  26.648  21.707  1.00  0.00     0.019 A 
ATOM     14  C   UNL A   1      33.406  27.003  23.555  1.00  0.00     0.045 A 
BRANCH  10  15
ATOM     15  O   UNL A   1      33.915  23.651  22.201  1.00  0.00    -0.495 OA
ATOM     16  C   UNL A   1      32.909  22.769  21.693  1.00  0.00     0.278 C 
ENDBRANCH  10  15
BRANCH  12  17
ATOM     17  N   UNL A   1      34.666  25.095  24.472  1.00  0.00    -0.319 N 
ATOM     18  C   UNL A   1      34.436  24.161  25.460  1.00  0.00     0.262 C 
ATOM     19  H   UNL A   1      35.598  25.411  24.451  1.00  0.00     0.170 HD
ATOM     20  O   UNL A   1      35.382  23.738  26.125  1.00  0.00    -0.269 OA
BRANCH  18  21
ATOM     21  C   UNL A   1      33.089  23.706  25.848  1.00  0.00     0.117 A 
ATOM     22  C   UNL A   1      32.234  24.730  26.293  1.00  0.00     0.021 A 
ATOM     23  C   UNL A   1      32.590  22.402  25.751  1.00  0.00     0.282 A 
ATOM     24  C   UNL A   1      30.883  24.476  26.533  1.00  0.00     0.001 A 
ATOM     25  C   UNL A   1      31.220  22.153  25.958  1.00  0.00     0.086 A 
ATOM     26  C   UNL A   1      30.369  23.196  26.332  1.00  0.00     0.007 A 
BRANCH  23  27
ATOM     27  N   UNL A   1      33.437  21.286  25.335  1.00  0.00     0.063 N 
ATOM     28  O   UNL A   1      33.298  20.875  24.174  1.00  0.00    -0.258 OA
ATOM     29  O   UNL A   1      34.235  20.822  26.156  1.00  0.00    -0.258 OA
ENDBRANCH  23  27
ENDBRANCH  18  21
ENDBRANCH  12  17
ENDBRANCH   7   9
ENDBRANCH   6   7
ENDBRANCH   5   6
ENDBRANCH   4   5
ENDBRANCH   3   4
ENDBRANCH   2   3
ENDBRANCH   1   2
BRANCH   1  30
ATOM     30  O   UNL A   1      33.631  32.698  28.829  1.00  0.00    -0.377 OA
BRANCH  30  31
ATOM     31  C   UNL A   1      34.584  33.501  29.522  1.00  0.00     0.188 C 
BRANCH  31  32
ATOM     32  C   UNL A   1      34.072  34.690  30.367  1.00  0.00     0.188 C 
BRANCH  32  33
ATOM     33  O   UNL A   1      33.818  34.366  31.727  1.00  0.00    -0.376 OA
BRANCH  33  34
ATOM     34  C   UNL A   1      34.650  34.911  32.737  1.00  0.00     0.202 C 
BRANCH  34  35
ATOM     35  C   UNL A   1      35.169  33.939  33.809  1.00  0.00     0.261 C 
BRANCH  35  36
ATOM     36  O   UNL A   1      36.356  33.208  33.466  1.00  0.00    -0.460 OA
BRANCH  36  37
ATOM     37  C   UNL A   1      36.210  32.139  32.659  1.00  0.00     0.338 C 
ATOM     38  O   UNL A   1      35.174  31.564  32.370  1.00  0.00    -0.246 OA
BRANCH  37  39
ATOM     39  C   UNL A   1      37.512  31.883  32.012  1.00  0.00     0.060 A 
ATOM     40  C   UNL A   1      37.658  32.167  30.648  1.00  0.00     0.016 A 
ATOM     41  C   UNL A   1      38.579  31.361  32.747  1.00  0.00     0.016 A 
ATOM     42  C   UNL A   1      38.863  31.887  30.004  1.00  0.00     0.010 A 
ATOM     43  C   UNL A   1      39.778  31.061  32.095  1.00  0.00     0.010 A 
ATOM     44  C   UNL A   1      39.911  31.288  30.713  1.00  0.00    -0.014 A 
BRANCH  44  45
ATOM     45  C   UNL A   1      41.064  30.714  29.976  1.00  0.00     0.031 A 
ATOM     46  C   UNL A   1      42.236  31.610  29.681  1.00  0.00     0.074 A 
ATOM     47  C   UNL A   1      41.076  29.426  29.588  1.00  0.00     0.049 A 
ATOM     48  N   UNL A   1      43.324  31.360  28.999  1.00  0.00    -0.248 NA
ATOM     49  C   UNL A   1      42.170  32.977  30.227  1.00  0.00     0.031 C 
ATOM     50  C   UNL A   1      40.020  28.452  29.851  1.00  0.00     0.029 A 
ATOM     51  N   UNL A   1      42.014  28.722  28.874  1.00  0.00    -0.354 N 
ATOM     52  C   UNL A   1      44.058  32.539  29.016  1.00  0.00     0.074 A 
ATOM     53  C   UNL A   1      43.290  33.510  29.762  1.00  0.00     0.031 C 
ATOM     54  C   UNL A   1      40.358  27.280  29.284  1.00  0.00     0.029 A 
ATOM     55  C   UNL A   1      41.635  27.433  28.589  1.00  0.00     0.049 A 
ATOM     56  H   UNL A   1      42.876  29.105  28.591  1.00  0.00     0.167 HD
ATOM     57  C   UNL A   1      45.266  32.786  28.459  1.00  0.00     0.037 A 
ATOM     58  C   UNL A   1      42.239  26.499  27.827  1.00  0.00     0.037 A 
ATOM     59  C   UNL A   1      46.036  31.811  27.736  1.00  0.00     0.049 A 
ATOM     60  C   UNL A   1      43.561  26.825  27.171  1.00  0.00     0.074 A 
ATOM     61  C   UNL A   1      47.295  31.950  27.180  1.00  0.00     0.029 A 
ATOM     62  N   UNL A   1      45.615  30.520  27.457  1.00  0.00    -0.354 N 
ATOM     63  N   UNL A   1      44.274  27.924  27.237  1.00  0.00    -0.248 NA
ATOM     64  C   UNL A   1      44.166  25.775  26.337  1.00  0.00     0.031 C 
ATOM     65  C   UNL A   1      47.606  30.768  26.503  1.00  0.00     0.029 A 
ATOM     66  C   UNL A   1      46.574  29.866  26.702  1.00  0.00     0.049 A 
ATOM     67  H   UNL A   1      44.762  30.127  27.753  1.00  0.00     0.167 HD
ATOM     68  C   UNL A   1      45.421  27.683  26.489  1.00  0.00     0.074 A 
ATOM     69  C   UNL A   1      45.319  26.329  25.992  1.00  0.00     0.031 C 
ATOM     70  C   UNL A   1      46.466  28.509  26.233  1.00  0.00     0.037 A 
BRANCH  57  71
ATOM     71  C   UNL A   1      45.827  34.173  28.572  1.00  0.00     0.064 A 
ATOM     72  C   UNL A   1      46.872  34.484  29.454  1.00  0.00     0.173 A 
ATOM     73  C   UNL A   1      45.362  35.187  27.721  1.00  0.00     0.173 A 
ATOM     74  F   UNL A   1      47.342  33.555  30.299  1.00  0.00    -0.203 F 
ATOM     75  C   UNL A   1      47.424  35.762  29.483  1.00  0.00     0.198 A 
ATOM     76  C   UNL A   1      45.936  36.454  27.732  1.00  0.00     0.198 A 
ATOM     77  F   UNL A   1      44.363  34.941  26.858  1.00  0.00    -0.203 F 
ATOM     78  F   UNL A   1      48.402  36.047  30.355  1.00  0.00    -0.200 F 
ATOM     79  C   UNL A   1      46.965  36.742  28.615  1.00  0.00     0.200 A 
ATOM     80  F   UNL A   1      45.500  37.393  26.881  1.00  0.00    -0.200 F 
ATOM     81  F   UNL A   1      47.516  37.964  28.629  1.00  0.00    -0.200 F 
ENDBRANCH  57  71
BRANCH  58  82
ATOM     82  C   UNL A   1      41.595  25.176  27.596  1.00  0.00     0.064 A 
ATOM     83  C   UNL A   1      40.475  25.046  26.763  1.00  0.00     0.173 A 
ATOM     84  C   UNL A   1      42.042  24.026  28.264  1.00  0.00     0.173 A 
ATOM     85  F   UNL A   1      39.992  26.118  26.118  1.00  0.00    -0.203 F 
ATOM     86  C   UNL A   1      39.803  23.831  26.640  1.00  0.00     0.198 A 
ATOM     87  C   UNL A   1      41.392  22.803  28.112  1.00  0.00     0.198 A 
ATOM     88  F   UNL A   1      43.109  24.090  29.073  1.00  0.00    -0.203 F 
ATOM     89  F   UNL A   1      38.691  23.755  25.896  1.00  0.00    -0.200 F 
ATOM     90  C   UNL A   1      40.263  22.709  27.313  1.00  0.00     0.200 A 
ATOM     91  F   UNL A   1      41.852  21.720  28.751  1.00  0.00    -0.200 F 
ATOM     92  F   UNL A   1      39.612  21.543  27.202  1.00  0.00    -0.200 F 
ENDBRANCH  58  82
BRANCH  70  93
ATOM     93  C   UNL A   1      47.610  27.958  25.429  1.00  0.00     0.064 A 
ATOM     94  C   UNL A   1      48.770  27.453  26.036  1.00  0.00     0.173 A 
ATOM     95  C   UNL A   1      47.523  27.892  24.029  1.00  0.00     0.173 A 
ATOM     96  F   UNL A   1      48.909  27.502  27.369  1.00  0.00    -0.203 F 
ATOM     97  C   UNL A   1      49.811  26.934  25.270  1.00  0.00     0.198 A 
ATOM     98  C   UNL A   1      48.550  27.338  23.269  1.00  0.00     0.198 A 
ATOM     99  F   UNL A   1      46.432  28.349  23.397  1.00  0.00    -0.203 F 
ATOM    100  F   UNL A   1      50.932  26.510  25.869  1.00  0.00    -0.200 F 
ATOM    101  C   UNL A   1      49.696  26.869  23.890  1.00  0.00     0.200 A 
ATOM    102  F   UNL A   1      48.426  27.257  21.937  1.00  0.00    -0.200 F 
ATOM    103  F   UNL A   1      50.695  26.359  23.156  1.00  0.00    -0.200 F 
ENDBRANCH  70  93
ENDBRANCH  44  45
ENDBRANCH  37  39
ENDBRANCH  36  37
ENDBRANCH  35  36
ENDBRANCH  34  35
ENDBRANCH  33  34
ENDBRANCH  32  33
ENDBRANCH  31  32
ENDBRANCH  30  31
ENDBRANCH   1  30
TORSDOF 24
ENDMDL
MODEL 2
REMARK VINA RESULT:      -9.5      3.121      7.796
REMARK SMILES COc1ccc(C(=O)OCCOCCOCCOCCOC(=O)c2ccc(-c3c4nc(c(-c5c(F)c(F)c(F)c(F)c5F)c5ccc([nH]5)c(-c5c(F)c(F)c(F)c(F)c5F)c5nc(c(-c6c(F)c(F)c(F)c(F)c6F)c6ccc3[nH]6)C=C5)C=C4)cc2)cc1NC(=O)c1ccccc1[N+](=O)[O-]
REMARK SMILES IDX 14 1 13 2 12 3 11 4 10 5 9 6 7 7 8 8 6 9 3 10 4 11 88 12
REMARK SMILES IDX 5 13 87 14 2 15 1 16 89 17 90 18 91 20 92 21 93 22 97 23
REMARK SMILES IDX 94 24 96 25 95 26 98 27 99 28 100 29 15 30 16 31 17 32 18 33
REMARK SMILES IDX 19 34 20 35 21 36 22 37 23 38 24 39 25 40 86 41 26 42 85 43
REMARK SMILES IDX 27 44 28 45 29 46 79 47 30 48 84 49 78 50 80 51 31 52 83 53
REMARK SMILES IDX 77 54 76 55 32 57 64 58 44 59 63 60 45 61 48 62 62 63 81 64
REMARK SMILES IDX 46 65 47 66 61 68 82 69 49 70 33 71 34 72 42 73 35 74 36 75
REMARK SMILES IDX 40 76 43 77 37 78 38 79 41 80 39 81 65 82 66 83 74 84 67 85
REMARK SMILES IDX 68 86 72 87 75 88 69 89 70 90 73 91 71 92 50 93 51 94 59 95
REMARK SMILES IDX 52 96 53 97 57 98 60 99 54 100 55 101 58 102 56 103
REMARK H PARENT 89 19 80 56 48 67
REMARK Flexibility Score: inf
ROOT
ATOM      1  C   UNL A   1      35.840  31.946  28.753  1.00  0.00     0.188 C 
ENDROOT
BRANCH   1   2
ATOM      2  C   UNL A   1      34.438  31.618  28.199  1.00  0.00     0.188 C 
BRANCH   2   3
ATOM      3  O   UNL A   1      34.245  30.550  27.284  1.00  0.00    -0.376 OA
BRANCH   3   4
ATOM      4  C   UNL A   1      32.992  29.927  27.056  1.00  0.00     0.202 C 
BRANCH   4   5
ATOM      5  C   UNL A   1      32.591  28.533  27.565  1.00  0.00     0.261 C 
BRANCH   5   6
ATOM      6  O   UNL A   1      31.504  27.894  26.909  1.00  0.00    -0.460 OA
BRANCH   6   7
ATOM      7  C   UNL A   1      31.688  26.602  26.558  1.00  0.00     0.338 C 
ATOM      8  O   UNL A   1      31.384  25.621  27.211  1.00  0.00    -0.246 OA
BRANCH   7   9
ATOM      9  C   UNL A   1      32.219  26.558  25.168  1.00  0.00     0.062 A 
ATOM     10  C   UNL A   1      33.118  26.308  22.557  1.00  0.00     0.142 A 
ATOM     11  C   UNL A   1      31.962  27.048  22.826  1.00  0.00     0.049 A 
ATOM     12  C   UNL A   1      33.860  25.714  23.591  1.00  0.00     0.084 A 
ATOM     13  C   UNL A   1      31.478  27.123  24.132  1.00  0.00     0.019 A 
ATOM     14  C   UNL A   1      33.460  25.967  24.892  1.00  0.00     0.045 A 
BRANCH  10  15
ATOM     15  O   UNL A   1      33.526  26.211  21.251  1.00  0.00    -0.495 OA
ATOM     16  C   UNL A   1      32.538  25.561  20.445  1.00  0.00     0.278 C 
ENDBRANCH  10  15
BRANCH  12  17
ATOM     17  N   UNL A   1      34.907  24.835  23.251  1.00  0.00    -0.319 N 
ATOM     18  C   UNL A   1      35.026  23.463  23.199  1.00  0.00     0.262 C 
ATOM     19  H   UNL A   1      35.735  25.302  22.996  1.00  0.00     0.170 HD
ATOM     20  O   UNL A   1      36.060  22.960  22.756  1.00  0.00    -0.269 OA
BRANCH  18  21
ATOM     21  C   UNL A   1      34.016  22.540  23.747  1.00  0.00     0.117 A 
ATOM     22  C   UNL A   1      33.011  22.167  22.836  1.00  0.00     0.021 A 
ATOM     23  C   UNL A   1      34.011  21.975  25.029  1.00  0.00     0.282 A 
ATOM     24  C   UNL A   1      32.087  21.174  23.162  1.00  0.00     0.001 A 
ATOM     25  C   UNL A   1      33.102  20.948  25.344  1.00  0.00     0.086 A 
ATOM     26  C   UNL A   1      32.154  20.541  24.402  1.00  0.00     0.007 A 
BRANCH  23  27
ATOM     27  N   UNL A   1      35.001  22.351  26.035  1.00  0.00     0.063 N 
ATOM     28  O   UNL A   1      34.738  23.332  26.746  1.00  0.00    -0.258 OA
ATOM     29  O   UNL A   1      36.033  21.677  26.119  1.00  0.00    -0.258 OA
ENDBRANCH  23  27
ENDBRANCH  18  21
ENDBRANCH  12  17
ENDBRANCH   7   9
ENDBRANCH   6   7
ENDBRANCH   5   6
ENDBRANCH   4   5
ENDBRANCH   3   4
ENDBRANCH   2   3
ENDBRANCH   1   2
BRANCH   1  30
ATOM     30  O   UNL A   1      35.969  33.270  29.241  1.00  0.00    -0.377 OA
BRANCH  30  31
ATOM     31  C   UNL A   1      37.292  33.683  29.574  1.00  0.00     0.188 C 
BRANCH  31  32
ATOM     32  C   UNL A   1      37.637  33.925  31.061  1.00  0.00     0.188 C 
BRANCH  32  33
ATOM     33  O   UNL A   1      36.519  34.283  31.863  1.00  0.00    -0.376 OA
BRANCH  33  34
ATOM     34  C   UNL A   1      36.156  33.456  32.956  1.00  0.00     0.202 C 
BRANCH  34  35
ATOM     35  C   UNL A   1      35.973  31.960  32.664  1.00  0.00     0.261 C 
BRANCH  35  36
ATOM     36  O   UNL A   1      37.027  31.100  33.123  1.00  0.00    -0.460 OA
BRANCH  36  37
ATOM     37  C   UNL A   1      37.349  30.048  32.344  1.00  0.00     0.338 C 
ATOM     38  O   UNL A   1      36.653  29.083  32.078  1.00  0.00    -0.246 OA
BRANCH  37  39
ATOM     39  C   UNL A   1      38.640  30.349  31.695  1.00  0.00     0.060 A 
ATOM     40  C   UNL A   1      39.753  30.630  32.498  1.00  0.00     0.016 A 
ATOM     41  C   UNL A   1      38.749  30.360  30.302  1.00  0.00     0.016 A 
ATOM     42  C   UNL A   1      40.971  30.966  31.907  1.00  0.00     0.010 A 
ATOM     43  C   UNL A   1      39.963  30.718  29.712  1.00  0.00     0.010 A 
ATOM     44  C   UNL A   1      41.069  31.060  30.513  1.00  0.00    -0.014 A 
BRANCH  44  45
ATOM     45  C   UNL A   1      42.255  31.707  29.901  1.00  0.00     0.031 A 
ATOM     46  C   UNL A   1      43.382  30.826  29.434  1.00  0.00     0.074 A 
ATOM     47  C   UNL A   1      42.327  33.041  29.752  1.00  0.00     0.049 A 
ATOM     48  N   UNL A   1      44.543  31.157  28.930  1.00  0.00    -0.248 NA
ATOM     49  C   UNL A   1      43.172  29.373  29.553  1.00  0.00     0.031 C 
ATOM     50  C   UNL A   1      41.283  33.993  30.128  1.00  0.00     0.029 A 
ATOM     51  N   UNL A   1      43.336  33.827  29.254  1.00  0.00    -0.354 N 
ATOM     52  C   UNL A   1      45.207  29.959  28.696  1.00  0.00     0.074 A 
ATOM     53  C   UNL A   1      44.329  28.893  29.122  1.00  0.00     0.031 C 
ATOM     54  C   UNL A   1      41.718  35.239  29.868  1.00  0.00     0.029 A 
ATOM     55  C   UNL A   1      43.081  35.173  29.342  1.00  0.00     0.049 A 
ATOM     56  H   UNL A   1      44.166  33.460  28.870  1.00  0.00     0.167 HD
ATOM     57  C   UNL A   1      46.439  29.770  28.169  1.00  0.00     0.037 A 
ATOM     58  C   UNL A   1      43.873  36.228  29.061  1.00  0.00     0.037 A 
ATOM     59  C   UNL A   1      47.301  30.832  27.726  1.00  0.00     0.049 A 
ATOM     60  C   UNL A   1      45.265  35.982  28.527  1.00  0.00     0.074 A 
ATOM     61  C   UNL A   1      48.545  30.738  27.130  1.00  0.00     0.029 A 
ATOM     62  N   UNL A   1      47.012  32.183  27.843  1.00  0.00    -0.354 N 
ATOM     63  N   UNL A   1      45.864  34.847  28.257  1.00  0.00    -0.248 NA
ATOM     64  C   UNL A   1      46.091  37.169  28.254  1.00  0.00     0.031 C 
ATOM     65  C   UNL A   1      49.042  32.031  26.952  1.00  0.00     0.029 A 
ATOM     66  C   UNL A   1      48.075  32.932  27.366  1.00  0.00     0.049 A 
ATOM     67  H   UNL A   1      46.177  32.554  28.211  1.00  0.00     0.167 HD
ATOM     68  C   UNL A   1      47.115  35.184  27.751  1.00  0.00     0.074 A 
ATOM     69  C   UNL A   1      47.183  36.628  27.733  1.00  0.00     0.031 C 
ATOM     70  C   UNL A   1      48.119  34.371  27.337  1.00  0.00     0.037 A 
BRANCH  57  71
ATOM     71  C   UNL A   1      46.956  28.365  28.069  1.00  0.00     0.064 A 
ATOM     72  C   UNL A   1      46.817  27.601  26.902  1.00  0.00     0.173 A 
ATOM     73  C   UNL A   1      47.677  27.808  29.137  1.00  0.00     0.173 A 
ATOM     74  F   UNL A   1      46.124  28.082  25.858  1.00  0.00    -0.203 F 
ATOM     75  C   UNL A   1      47.374  26.328  26.810  1.00  0.00     0.198 A 
ATOM     76  C   UNL A   1      48.258  26.548  29.031  1.00  0.00     0.198 A 
ATOM     77  F   UNL A   1      47.839  28.498  30.277  1.00  0.00    -0.203 F 
ATOM     78  F   UNL A   1      47.204  25.603  25.696  1.00  0.00    -0.200 F 
ATOM     79  C   UNL A   1      48.104  25.808  27.869  1.00  0.00     0.200 A 
ATOM     80  F   UNL A   1      48.974  26.055  30.050  1.00  0.00    -0.200 F 
ATOM     81  F   UNL A   1      48.659  24.592  27.770  1.00  0.00    -0.200 F 
ENDBRANCH  57  71
BRANCH  58  82
ATOM     82  C   UNL A   1      43.401  37.618  29.311  1.00  0.00     0.064 A 
ATOM     83  C   UNL A   1      42.611  38.300  28.374  1.00  0.00     0.173 A 
ATOM     84  C   UNL A   1      43.794  38.321  30.460  1.00  0.00     0.173 A 
ATOM     85  F   UNL A   1      42.226  37.682  27.248  1.00  0.00    -0.203 F 
ATOM     86  C   UNL A   1      42.268  39.638  28.556  1.00  0.00     0.198 A 
ATOM     87  C   UNL A   1      43.420  39.649  30.659  1.00  0.00     0.198 A 
ATOM     88  F   UNL A   1      44.549  37.720  31.391  1.00  0.00    -0.203 F 
ATOM     89  F   UNL A   1      41.576  40.285  27.608  1.00  0.00    -0.200 F 
ATOM     90  C   UNL A   1      42.671  40.312  29.700  1.00  0.00     0.200 A 
ATOM     91  F   UNL A   1      43.798  40.288  31.774  1.00  0.00    -0.200 F 
ATOM     92  F   UNL A   1      42.350  41.602  29.869  1.00  0.00    -0.200 F 
ENDBRANCH  58  82
BRANCH  70  93
ATOM     93  C   UNL A   1      49.354  35.019  26.776  1.00  0.00     0.064 A 
ATOM     94  C   UNL A   1      49.422  35.466  25.449  1.00  0.00     0.173 A 
ATOM     95  C   UNL A   1      50.473  35.236  27.598  1.00  0.00     0.173 A 
ATOM     96  F   UNL A   1      48.386  35.272  24.618  1.00  0.00    -0.203 F 
ATOM     97  C   UNL A   1      50.573  36.075  24.956  1.00  0.00     0.198 A 
ATOM     98  C   UNL A   1      51.607  35.880  27.112  1.00  0.00     0.198 A 
ATOM     99  F   UNL A   1      50.458  34.840  28.879  1.00  0.00    -0.203 F 
ATOM    100  F   UNL A   1      50.634  36.442  23.669  1.00  0.00    -0.200 F 
ATOM    101  C   UNL A   1      51.659  36.290  25.790  1.00  0.00     0.200 A 
ATOM    102  F   UNL A   1      52.647  36.105  27.927  1.00  0.00    -0.200 F 
ATOM    103  F   UNL A   1      52.762  36.887  25.316  1.00  0.00    -0.200 F 
ENDBRANCH  70  93
ENDBRANCH  44  45
ENDBRANCH  37  39
ENDBRANCH  36  37
ENDBRANCH  35  36
ENDBRANCH  34  35
ENDBRANCH  33  34
ENDBRANCH  32  33
ENDBRANCH  31  32
ENDBRANCH  30  31
ENDBRANCH   1  30
TORSDOF 24
ENDMDL
MODEL 3
REMARK VINA RESULT:      -9.4      3.320      5.534
REMARK SMILES COc1ccc(C(=O)OCCOCCOCCOCCOC(=O)c2ccc(-c3c4nc(c(-c5c(F)c(F)c(F)c(F)c5F)c5ccc([nH]5)c(-c5c(F)c(F)c(F)c(F)c5F)c5nc(c(-c6c(F)c(F)c(F)c(F)c6F)c6ccc3[nH]6)C=C5)C=C4)cc2)cc1NC(=O)c1ccccc1[N+](=O)[O-]
REMARK SMILES IDX 14 1 13 2 12 3 11 4 10 5 9 6 7 7 8 8 6 9 3 10 4 11 88 12
REMARK SMILES IDX 5 13 87 14 2 15 1 16 89 17 90 18 91 20 92 21 93 22 97 23
REMARK SMILES IDX 94 24 96 25 95 26 98 27 99 28 100 29 15 30 16 31 17 32 18 33
REMARK SMILES IDX 19 34 20 35 21 36 22 37 23 38 24 39 25 40 86 41 26 42 85 43
REMARK SMILES IDX 27 44 28 45 29 46 79 47 30 48 84 49 78 50 80 51 31 52 83 53
REMARK SMILES IDX 77 54 76 55 32 57 64 58 44 59 63 60 45 61 48 62 62 63 81 64
REMARK SMILES IDX 46 65 47 66 61 68 82 69 49 70 33 71 34 72 42 73 35 74 36 75
REMARK SMILES IDX 40 76 43 77 37 78 38 79 41 80 39 81 65 82 66 83 74 84 67 85
REMARK SMILES IDX 68 86 72 87 75 88 69 89 70 90 73 91 71 92 50 93 51 94 59 95
REMARK SMILES IDX 52 96 53 97 57 98 60 99 54 100 55 101 58 102 56 103
REMARK H PARENT 89 19 80 56 48 67
REMARK Flexibility Score: inf
ROOT
ATOM      1  C   UNL A   1      36.225  32.425  28.928  1.00  0.00     0.188 C 
ENDROOT
BRANCH   1   2
ATOM      2  C   UNL A   1      34.884  32.267  28.184  1.00  0.00     0.188 C 
BRANCH   2   3
ATOM      3  O   UNL A   1      34.606  31.106  27.416  1.00  0.00    -0.376 OA
BRANCH   3   4
ATOM      4  C   UNL A   1      33.296  30.634  27.151  1.00  0.00     0.202 C 
BRANCH   4   5
ATOM      5  C   UNL A   1      32.873  29.156  27.142  1.00  0.00     0.261 C 
BRANCH   5   6
ATOM      6  O   UNL A   1      32.069  28.720  26.053  1.00  0.00    -0.460 OA
BRANCH   6   7
ATOM      7  C   UNL A   1      31.794  27.398  25.999  1.00  0.00     0.338 C 
ATOM      8  O   UNL A   1      31.186  26.747  26.829  1.00  0.00    -0.246 OA
BRANCH   7   9
ATOM      9  C   UNL A   1      32.252  26.871  24.684  1.00  0.00     0.062 A 
ATOM     10  C   UNL A   1      33.007  25.725  22.274  1.00  0.00     0.142 A 
ATOM     11  C   UNL A   1      31.886  26.561  22.326  1.00  0.00     0.049 A 
ATOM     12  C   UNL A   1      33.786  25.480  23.417  1.00  0.00     0.084 A 
ATOM     13  C   UNL A   1      31.472  27.087  23.550  1.00  0.00     0.019 A 
ATOM     14  C   UNL A   1      33.461  26.170  24.573  1.00  0.00     0.045 A 
BRANCH  10  15
ATOM     15  O   UNL A   1      33.344  25.182  21.061  1.00  0.00    -0.495 OA
ATOM     16  C   UNL A   1      32.437  25.599  20.036  1.00  0.00     0.278 C 
ENDBRANCH  10  15
BRANCH  12  17
ATOM     17  N   UNL A   1      34.791  24.495  23.350  1.00  0.00    -0.319 N 
ATOM     18  C   UNL A   1      34.998  23.294  23.992  1.00  0.00     0.262 C 
ATOM     19  H   UNL A   1      35.501  24.713  22.704  1.00  0.00     0.170 HD
ATOM     20  O   UNL A   1      35.938  22.576  23.648  1.00  0.00    -0.269 OA
BRANCH  18  21
ATOM     21  C   UNL A   1      34.211  22.852  25.159  1.00  0.00     0.117 A 
ATOM     22  C   UNL A   1      34.842  23.059  26.399  1.00  0.00     0.021 A 
ATOM     23  C   UNL A   1      32.914  22.325  25.138  1.00  0.00     0.282 A 
ATOM     24  C   UNL A   1      34.152  22.846  27.592  1.00  0.00     0.001 A 
ATOM     25  C   UNL A   1      32.207  22.144  26.342  1.00  0.00     0.086 A 
ATOM     26  C   UNL A   1      32.825  22.421  27.563  1.00  0.00     0.007 A 
BRANCH  23  27
ATOM     27  N   UNL A   1      32.220  22.047  23.883  1.00  0.00     0.063 N 
ATOM     28  O   UNL A   1      31.451  22.922  23.458  1.00  0.00    -0.258 OA
ATOM     29  O   UNL A   1      32.437  20.968  23.322  1.00  0.00    -0.258 OA
ENDBRANCH  23  27
ENDBRANCH  18  21
ENDBRANCH  12  17
ENDBRANCH   7   9
ENDBRANCH   6   7
ENDBRANCH   5   6
ENDBRANCH   4   5
ENDBRANCH   3   4
ENDBRANCH   2   3
ENDBRANCH   1   2
BRANCH   1  30
ATOM     30  O   UNL A   1      36.589  33.772  29.175  1.00  0.00    -0.377 OA
BRANCH  30  31
ATOM     31  C   UNL A   1      37.881  33.971  29.744  1.00  0.00     0.188 C 
BRANCH  31  32
ATOM     32  C   UNL A   1      37.991  34.176  31.272  1.00  0.00     0.188 C 
BRANCH  32  33
ATOM     33  O   UNL A   1      36.755  34.477  31.905  1.00  0.00    -0.376 OA
BRANCH  33  34
ATOM     34  C   UNL A   1      36.271  33.620  32.926  1.00  0.00     0.202 C 
BRANCH  34  35
ATOM     35  C   UNL A   1      36.099  32.137  32.564  1.00  0.00     0.261 C 
BRANCH  35  36
ATOM     36  O   UNL A   1      37.225  31.291  32.847  1.00  0.00    -0.460 OA
BRANCH  36  37
ATOM     37  C   UNL A   1      37.501  30.315  31.959  1.00  0.00     0.338 C 
ATOM     38  O   UNL A   1      36.728  29.494  31.496  1.00  0.00    -0.246 OA
BRANCH  37  39
ATOM     39  C   UNL A   1      38.882  30.523  31.479  1.00  0.00     0.060 A 
ATOM     40  C   UNL A   1      39.880  30.850  32.406  1.00  0.00     0.016 A 
ATOM     41  C   UNL A   1      39.186  30.404  30.121  1.00  0.00     0.016 A 
ATOM     42  C   UNL A   1      41.180  31.100  31.970  1.00  0.00     0.010 A 
ATOM     43  C   UNL A   1      40.484  30.676  29.683  1.00  0.00     0.010 A 
ATOM     44  C   UNL A   1      41.478  31.062  30.602  1.00  0.00    -0.014 A 
BRANCH  44  45
ATOM     45  C   UNL A   1      42.761  31.621  30.112  1.00  0.00     0.031 A 
ATOM     46  C   UNL A   1      42.805  33.077  29.736  1.00  0.00     0.074 A 
ATOM     47  C   UNL A   1      43.865  30.859  30.014  1.00  0.00     0.049 A 
ATOM     48  N   UNL A   1      43.785  33.775  29.224  1.00  0.00    -0.248 NA
ATOM     49  C   UNL A   1      41.573  33.851  29.966  1.00  0.00     0.031 C 
ATOM     50  C   UNL A   1      43.957  29.449  30.386  1.00  0.00     0.029 A 
ATOM     51  N   UNL A   1      45.121  31.168  29.554  1.00  0.00    -0.354 N 
ATOM     52  C   UNL A   1      43.283  35.059  29.050  1.00  0.00     0.074 A 
ATOM     53  C   UNL A   1      41.909  35.044  29.498  1.00  0.00     0.031 C 
ATOM     54  C   UNL A   1      45.199  29.008  30.117  1.00  0.00     0.029 A 
ATOM     55  C   UNL A   1      45.976  30.094  29.522  1.00  0.00     0.049 A 
ATOM     56  H   UNL A   1      45.384  32.075  29.273  1.00  0.00     0.167 HD
ATOM     57  C   UNL A   1      43.916  36.151  28.563  1.00  0.00     0.037 A 
ATOM     58  C   UNL A   1      47.230  29.997  29.036  1.00  0.00     0.037 A 
ATOM     59  C   UNL A   1      45.289  36.167  28.138  1.00  0.00     0.049 A 
ATOM     60  C   UNL A   1      47.889  31.222  28.445  1.00  0.00     0.074 A 
ATOM     61  C   UNL A   1      46.035  37.237  27.680  1.00  0.00     0.029 A 
ATOM     62  N   UNL A   1      46.119  35.057  28.109  1.00  0.00    -0.354 N 
ATOM     63  N   UNL A   1      47.426  32.444  28.336  1.00  0.00    -0.248 NA
ATOM     64  C   UNL A   1      49.251  31.053  27.914  1.00  0.00     0.031 C 
ATOM     65  C   UNL A   1      47.294  36.762  27.304  1.00  0.00     0.029 A 
ATOM     66  C   UNL A   1      47.359  35.411  27.601  1.00  0.00     0.049 A 
ATOM     67  H   UNL A   1      45.866  34.153  28.405  1.00  0.00     0.167 HD
ATOM     68  C   UNL A   1      48.448  33.192  27.762  1.00  0.00     0.074 A 
ATOM     69  C   UNL A   1      49.562  32.292  27.562  1.00  0.00     0.031 C 
ATOM     70  C   UNL A   1      48.465  34.506  27.428  1.00  0.00     0.037 A 
BRANCH  57  71
ATOM     71  C   UNL A   1      43.129  37.420  28.423  1.00  0.00     0.064 A 
ATOM     72  C   UNL A   1      43.181  38.439  29.386  1.00  0.00     0.173 A 
ATOM     73  C   UNL A   1      42.374  37.652  27.263  1.00  0.00     0.173 A 
ATOM     74  F   UNL A   1      43.876  38.262  30.520  1.00  0.00    -0.203 F 
ATOM     75  C   UNL A   1      42.500  39.639  29.194  1.00  0.00     0.198 A 
ATOM     76  C   UNL A   1      41.720  38.863  27.061  1.00  0.00     0.198 A 
ATOM     77  F   UNL A   1      42.292  36.709  26.311  1.00  0.00    -0.203 F 
ATOM     78  F   UNL A   1      42.539  40.587  30.140  1.00  0.00    -0.200 F 
ATOM     79  C   UNL A   1      41.781  39.855  28.028  1.00  0.00     0.200 A 
ATOM     80  F   UNL A   1      41.038  39.074  25.926  1.00  0.00    -0.200 F 
ATOM     81  F   UNL A   1      41.147  41.019  27.835  1.00  0.00    -0.200 F 
ENDBRANCH  57  71
BRANCH  58  82
ATOM     82  C   UNL A   1      47.945  28.690  29.040  1.00  0.00     0.064 A 
ATOM     83  C   UNL A   1      47.789  27.770  27.993  1.00  0.00     0.173 A 
ATOM     84  C   UNL A   1      48.742  28.303  30.128  1.00  0.00     0.173 A 
ATOM     85  F   UNL A   1      47.020  28.080  26.939  1.00  0.00    -0.203 F 
ATOM     86  C   UNL A   1      48.366  26.503  28.054  1.00  0.00     0.198 A 
ATOM     87  C   UNL A   1      49.349  27.050  30.171  1.00  0.00     0.198 A 
ATOM     88  F   UNL A   1      48.928  29.143  31.157  1.00  0.00    -0.203 F 
ATOM     89  F   UNL A   1      48.137  25.618  27.073  1.00  0.00    -0.200 F 
ATOM     90  C   UNL A   1      49.147  26.144  29.142  1.00  0.00     0.200 A 
ATOM     91  F   UNL A   1      50.116  26.716  31.217  1.00  0.00    -0.200 F 
ATOM     92  F   UNL A   1      49.694  24.922  29.204  1.00  0.00    -0.200 F 
ENDBRANCH  58  82
BRANCH  70  93
ATOM     93  C   UNL A   1      49.742  35.067  26.867  1.00  0.00     0.064 A 
ATOM     94  C   UNL A   1      49.896  35.341  25.500  1.00  0.00     0.173 A 
ATOM     95  C   UNL A   1      50.812  35.379  27.722  1.00  0.00     0.173 A 
ATOM     96  F   UNL A   1      48.908  35.051  24.639  1.00  0.00    -0.203 F 
ATOM     97  C   UNL A   1      51.084  35.873  25.005  1.00  0.00     0.198 A 
ATOM     98  C   UNL A   1      51.983  35.948  27.229  1.00  0.00     0.198 A 
ATOM     99  F   UNL A   1      50.715  35.150  29.039  1.00  0.00    -0.203 F 
ATOM    100  F   UNL A   1      51.228  36.073  23.688  1.00  0.00    -0.200 F 
ATOM    101  C   UNL A   1      52.121  36.184  25.870  1.00  0.00     0.200 A 
ATOM    102  F   UNL A   1      52.976  36.266  28.070  1.00  0.00    -0.200 F 
ATOM    103  F   UNL A   1      53.260  36.708  25.394  1.00  0.00    -0.200 F 
ENDBRANCH  70  93
ENDBRANCH  44  45
ENDBRANCH  37  39
ENDBRANCH  36  37
ENDBRANCH  35  36
ENDBRANCH  34  35
ENDBRANCH  33  34
ENDBRANCH  32  33
ENDBRANCH  31  32
ENDBRANCH  30  31
ENDBRANCH   1  30
TORSDOF 24
ENDMDL
