MODEL 1
REMARK VINA RESULT:     -10.8      0.000      0.000
REMARK SMILES O=C(OCCOCCOCCOCCOC(=O)c1c(S(=O)(=O)N2CCO[C@@H](CCO)C2)sc2c1CC[NH2+]C2)c1ccc(-c2c3nc(c(-c4c(F)c(F)c(F)c(F)c4F)c4ccc([nH]4)c(-c4c(F)c(F)c(F)c(F)c4F)c4nc(c(-c5c(F)c(F)c(F)c(F)c5F)c5ccc2[nH]5)C=C4)C=C3)cc1
REMARK SMILES IDX 10 1 9 2 8 3 7 4 6 5 5 6 4 7 3 8 2 9 1 10 39 11 40 12 101 13
REMARK SMILES IDX 41 14 100 15 42 16 43 17 44 18 94 19 45 20 99 21 93 22 95 23
REMARK SMILES IDX 46 24 98 25 92 26 91 27 47 29 79 30 59 31 78 32 60 33 63 34
REMARK SMILES IDX 77 35 96 36 61 37 62 38 76 40 97 41 64 42 48 43 49 44 57 45
REMARK SMILES IDX 50 46 51 47 55 48 58 49 52 50 53 51 56 52 54 53 80 54 81 55
REMARK SMILES IDX 89 56 82 57 83 58 87 59 90 60 84 61 85 62 88 63 86 64 65 65
REMARK SMILES IDX 66 66 74 67 67 68 68 69 72 70 75 71 69 72 70 73 73 74 71 75
REMARK SMILES IDX 11 76 12 77 13 78 14 79 15 80 16 81 17 82 18 83 19 84 34 85
REMARK SMILES IDX 32 86 33 87 35 88 38 89 36 90 37 91 20 94 21 95 22 96 23 97
REMARK SMILES IDX 24 98 31 99 25 100 27 101 26 102 28 103 29 104 30 105
REMARK H PARENT 95 28 63 39 37 92 37 93 30 106
REMARK Flexibility Score: inf
ROOT
ATOM      1  C   UNL A   1      41.168  22.221  26.167  1.00  0.00     0.188 C 
ENDROOT
BRANCH   1   2
ATOM      2  O   UNL A   1      41.623  20.932  25.813  1.00  0.00    -0.377 OA
BRANCH   2   3
ATOM      3  C   UNL A   1      42.086  20.140  26.888  1.00  0.00     0.188 C 
BRANCH   3   4
ATOM      4  C   UNL A   1      42.407  18.700  26.481  1.00  0.00     0.188 C 
BRANCH   4   5
ATOM      5  O   UNL A   1      43.067  18.483  25.233  1.00  0.00    -0.376 OA
BRANCH   5   6
ATOM      6  C   UNL A   1      44.431  18.805  25.058  1.00  0.00     0.202 C 
BRANCH   6   7
ATOM      7  C   UNL A   1      44.771  19.428  23.698  1.00  0.00     0.261 C 
BRANCH   7   8
ATOM      8  O   UNL A   1      44.834  20.864  23.647  1.00  0.00    -0.460 OA
BRANCH   8   9
ATOM      9  C   UNL A   1      45.473  21.733  24.464  1.00  0.00     0.338 C 
ATOM     10  O   UNL A   1      46.683  21.596  24.648  1.00  0.00    -0.246 OA
BRANCH   9  11
ATOM     11  C   UNL A   1      44.783  22.794  25.244  1.00  0.00     0.060 A 
ATOM     12  C   UNL A   1      44.104  23.872  24.673  1.00  0.00     0.016 A 
ATOM     13  C   UNL A   1      44.878  22.709  26.648  1.00  0.00     0.016 A 
ATOM     14  C   UNL A   1      43.568  24.866  25.467  1.00  0.00     0.010 A 
ATOM     15  C   UNL A   1      44.378  23.725  27.451  1.00  0.00     0.010 A 
ATOM     16  C   UNL A   1      43.789  24.832  26.840  1.00  0.00    -0.014 A 
BRANCH  16  17
ATOM     17  C   UNL A   1      43.592  26.098  27.528  1.00  0.00     0.031 A 
ATOM     18  C   UNL A   1      44.655  27.131  27.425  1.00  0.00     0.074 A 
ATOM     19  C   UNL A   1      42.486  26.260  28.281  1.00  0.00     0.049 A 
ATOM     20  N   UNL A   1      45.261  27.762  28.384  1.00  0.00    -0.248 NA
ATOM     21  C   UNL A   1      45.126  27.487  26.080  1.00  0.00     0.031 C 
ATOM     22  C   UNL A   1      41.290  25.408  28.311  1.00  0.00     0.029 A 
ATOM     23  N   UNL A   1      42.160  27.286  29.111  1.00  0.00    -0.354 N 
ATOM     24  C   UNL A   1      46.076  28.708  27.766  1.00  0.00     0.074 A 
ATOM     25  C   UNL A   1      46.017  28.441  26.351  1.00  0.00     0.031 C 
ATOM     26  C   UNL A   1      40.291  26.076  28.923  1.00  0.00     0.029 A 
ATOM     27  C   UNL A   1      40.815  27.331  29.429  1.00  0.00     0.049 A 
ATOM     28  H   UNL A   1      42.817  27.936  29.452  1.00  0.00     0.167 HD
ATOM     29  C   UNL A   1      46.597  29.768  28.443  1.00  0.00     0.037 A 
ATOM     30  C   UNL A   1      40.150  28.374  29.972  1.00  0.00     0.037 A 
ATOM     31  C   UNL A   1      46.733  29.498  29.847  1.00  0.00     0.049 A 
ATOM     32  C   UNL A   1      41.140  29.254  30.637  1.00  0.00     0.074 A 
ATOM     33  C   UNL A   1      47.444  28.577  30.594  1.00  0.00     0.029 A 
ATOM     34  N   UNL A   1      45.863  30.083  30.731  1.00  0.00    -0.354 N 
ATOM     35  N   UNL A   1      41.795  28.938  31.719  1.00  0.00    -0.248 NA
ATOM     36  C   UNL A   1      41.704  30.351  29.864  1.00  0.00     0.031 C 
ATOM     37  C   UNL A   1      46.640  28.323  31.743  1.00  0.00     0.029 A 
ATOM     38  C   UNL A   1      45.496  29.111  31.624  1.00  0.00     0.049 A 
ATOM     39  H   UNL A   1      45.561  31.019  30.726  1.00  0.00     0.167 HD
ATOM     40  C   UNL A   1      43.049  29.506  31.554  1.00  0.00     0.074 A 
ATOM     41  C   UNL A   1      42.898  30.452  30.454  1.00  0.00     0.031 C 
ATOM     42  C   UNL A   1      44.156  28.959  32.135  1.00  0.00     0.037 A 
BRANCH  29  43
ATOM     43  C   UNL A   1      46.682  31.162  27.868  1.00  0.00     0.064 A 
ATOM     44  C   UNL A   1      45.509  31.812  27.435  1.00  0.00     0.173 A 
ATOM     45  C   UNL A   1      47.894  31.754  27.448  1.00  0.00     0.173 A 
ATOM     46  F   UNL A   1      44.299  31.328  27.756  1.00  0.00    -0.203 F 
ATOM     47  C   UNL A   1      45.548  32.917  26.578  1.00  0.00     0.198 A 
ATOM     48  C   UNL A   1      47.930  32.888  26.637  1.00  0.00     0.198 A 
ATOM     49  F   UNL A   1      49.084  31.202  27.713  1.00  0.00    -0.203 F 
ATOM     50  F   UNL A   1      44.407  33.422  26.090  1.00  0.00    -0.200 F 
ATOM     51  C   UNL A   1      46.759  33.449  26.174  1.00  0.00     0.200 A 
ATOM     52  F   UNL A   1      49.113  33.378  26.242  1.00  0.00    -0.200 F 
ATOM     53  F   UNL A   1      46.800  34.465  25.302  1.00  0.00    -0.200 F 
ENDBRANCH  29  43
BRANCH  30  54
ATOM     54  C   UNL A   1      38.772  28.789  29.638  1.00  0.00     0.064 A 
ATOM     55  C   UNL A   1      37.837  29.081  30.638  1.00  0.00     0.173 A 
ATOM     56  C   UNL A   1      38.407  29.126  28.316  1.00  0.00     0.173 A 
ATOM     57  F   UNL A   1      38.132  28.846  31.924  1.00  0.00    -0.203 F 
ATOM     58  C   UNL A   1      36.608  29.674  30.335  1.00  0.00     0.198 A 
ATOM     59  C   UNL A   1      37.175  29.699  28.013  1.00  0.00     0.198 A 
ATOM     60  F   UNL A   1      39.274  28.989  27.303  1.00  0.00    -0.203 F 
ATOM     61  F   UNL A   1      35.757  29.989  31.322  1.00  0.00    -0.200 F 
ATOM     62  C   UNL A   1      36.278  29.983  29.024  1.00  0.00     0.200 A 
ATOM     63  F   UNL A   1      36.887  30.024  26.745  1.00  0.00    -0.200 F 
ATOM     64  F   UNL A   1      35.117  30.588  28.740  1.00  0.00    -0.200 F 
ENDBRANCH  30  54
BRANCH  42  65
ATOM     65  C   UNL A   1      43.944  27.895  33.172  1.00  0.00     0.064 A 
ATOM     66  C   UNL A   1      43.867  26.527  32.862  1.00  0.00     0.173 A 
ATOM     67  C   UNL A   1      43.970  28.253  34.525  1.00  0.00     0.173 A 
ATOM     68  F   UNL A   1      43.952  26.104  31.594  1.00  0.00    -0.203 F 
ATOM     69  C   UNL A   1      43.766  25.564  33.864  1.00  0.00     0.198 A 
ATOM     70  C   UNL A   1      43.903  27.286  35.527  1.00  0.00     0.198 A 
ATOM     71  F   UNL A   1      44.113  29.540  34.880  1.00  0.00    -0.203 F 
ATOM     72  F   UNL A   1      43.685  24.264  33.543  1.00  0.00    -0.200 F 
ATOM     73  C   UNL A   1      43.789  25.944  35.195  1.00  0.00     0.200 A 
ATOM     74  F   UNL A   1      43.982  27.652  36.813  1.00  0.00    -0.200 F 
ATOM     75  F   UNL A   1      43.736  25.017  36.161  1.00  0.00    -0.200 F 
ENDBRANCH  42  65
ENDBRANCH  16  17
ENDBRANCH   9  11
ENDBRANCH   8   9
ENDBRANCH   7   8
ENDBRANCH   6   7
ENDBRANCH   5   6
ENDBRANCH   4   5
ENDBRANCH   3   4
ENDBRANCH   2   3
ENDBRANCH   1   2
BRANCH   1  76
ATOM     76  C   UNL A   1      39.659  22.287  26.498  1.00  0.00     0.188 C 
BRANCH  76  77
ATOM     77  O   UNL A   1      38.716  21.585  25.699  1.00  0.00    -0.376 OA
BRANCH  77  78
ATOM     78  C   UNL A   1      37.374  22.039  25.633  1.00  0.00     0.202 C 
BRANCH  78  79
ATOM     79  C   UNL A   1      37.146  23.551  25.727  1.00  0.00     0.261 C 
BRANCH  79  80
ATOM     80  O   UNL A   1      35.794  23.909  26.048  1.00  0.00    -0.460 OA
BRANCH  80  81
ATOM     81  C   UNL A   1      34.999  24.407  25.046  1.00  0.00     0.340 C 
ATOM     82  O   UNL A   1      35.204  24.294  23.860  1.00  0.00    -0.246 OA
BRANCH  81  83
ATOM     83  C   UNL A   1      33.738  24.906  25.609  1.00  0.00     0.095 A 
ATOM     84  C   UNL A   1      32.682  24.056  25.912  1.00  0.00     0.150 A 
ATOM     85  C   UNL A   1      33.376  26.283  25.894  1.00  0.00    -0.007 A 
ATOM     86  S   UNL A   1      31.230  24.936  26.114  1.00  0.00    -0.120 S 
ATOM     87  C   UNL A   1      32.094  26.360  26.403  1.00  0.00     0.064 A 
ATOM     88  C   UNL A   1      34.146  27.556  25.677  1.00  0.00     0.099 C 
ATOM     89  C   UNL A   1      31.498  27.573  27.041  1.00  0.00     0.308 C 
ATOM     90  C   UNL A   1      33.516  28.760  26.426  1.00  0.00     0.265 C 
ATOM     91  N   UNL A   1      32.037  28.787  26.410  1.00  0.00    -0.342 N 
ATOM     92  H   UNL A   1      31.712  28.837  25.444  1.00  0.00     0.346 HD
ATOM     93  H   UNL A   1      31.716  29.603  26.931  1.00  0.00     0.346 HD
BRANCH  84  94
ATOM     94  S   UNL A   1      32.571  22.289  26.075  1.00  0.00     0.253 S 
ATOM     95  O   UNL A   1      33.314  21.958  27.269  1.00  0.00    -0.206 OA
ATOM     96  O   UNL A   1      31.150  22.017  25.969  1.00  0.00    -0.206 OA
BRANCH  94  97
ATOM     97  N   UNL A   1      33.303  21.558  24.740  1.00  0.00    -0.192 NA
ATOM     98  C   UNL A   1      32.746  21.713  23.373  1.00  0.00     0.131 C 
ATOM     99  C   UNL A   1      34.015  20.270  24.938  1.00  0.00     0.134 C 
ATOM    100  C   UNL A   1      32.106  20.428  22.816  1.00  0.00     0.177 C 
ATOM    101  C   UNL A   1      33.101  19.109  24.522  1.00  0.00     0.135 C 
ATOM    102  O   UNL A   1      32.831  19.224  23.110  1.00  0.00    -0.375 OA
BRANCH 101 103
ATOM    103  C   UNL A   1      33.665  17.716  24.809  1.00  0.00     0.061 C 
BRANCH 103 104
ATOM    104  C   UNL A   1      33.252  16.658  23.792  1.00  0.00     0.159 C 
BRANCH 104 105
ATOM    105  O   UNL A   1      34.069  16.747  22.632  1.00  0.00    -0.396 OA
ATOM    106  H   UNL A   1      33.914  15.973  22.068  1.00  0.00     0.210 HD
ENDBRANCH 104 105
ENDBRANCH 103 104
ENDBRANCH 101 103
ENDBRANCH  94  97
ENDBRANCH  84  94
ENDBRANCH  81  83
ENDBRANCH  80  81
ENDBRANCH  79  80
ENDBRANCH  78  79
ENDBRANCH  77  78
ENDBRANCH  76  77
ENDBRANCH   1  76
TORSDOF 25
ENDMDL
MODEL 2
REMARK VINA RESULT:     -10.2      1.281      3.250
REMARK SMILES O=C(OCCOCCOCCOCCOC(=O)c1c(S(=O)(=O)N2CCO[C@@H](CCO)C2)sc2c1CC[NH2+]C2)c1ccc(-c2c3nc(c(-c4c(F)c(F)c(F)c(F)c4F)c4ccc([nH]4)c(-c4c(F)c(F)c(F)c(F)c4F)c4nc(c(-c5c(F)c(F)c(F)c(F)c5F)c5ccc2[nH]5)C=C4)C=C3)cc1
REMARK SMILES IDX 10 1 9 2 8 3 7 4 6 5 5 6 4 7 3 8 2 9 1 10 39 11 40 12 101 13
REMARK SMILES IDX 41 14 100 15 42 16 43 17 44 18 94 19 45 20 99 21 93 22 95 23
REMARK SMILES IDX 46 24 98 25 92 26 91 27 47 29 79 30 59 31 78 32 60 33 63 34
REMARK SMILES IDX 77 35 96 36 61 37 62 38 76 40 97 41 64 42 48 43 49 44 57 45
REMARK SMILES IDX 50 46 51 47 55 48 58 49 52 50 53 51 56 52 54 53 80 54 81 55
REMARK SMILES IDX 89 56 82 57 83 58 87 59 90 60 84 61 85 62 88 63 86 64 65 65
REMARK SMILES IDX 66 66 74 67 67 68 68 69 72 70 75 71 69 72 70 73 73 74 71 75
REMARK SMILES IDX 11 76 12 77 13 78 14 79 15 80 16 81 17 82 18 83 19 84 34 85
REMARK SMILES IDX 32 86 33 87 35 88 38 89 36 90 37 91 20 94 21 95 22 96 23 97
REMARK SMILES IDX 24 98 31 99 25 100 27 101 26 102 28 103 29 104 30 105
REMARK H PARENT 95 28 63 39 37 92 37 93 30 106
REMARK Flexibility Score: inf
ROOT
ATOM      1  C   UNL A   1      41.253  21.932  26.116  1.00  0.00     0.188 C 
ENDROOT
BRANCH   1   2
ATOM      2  O   UNL A   1      41.693  20.621  25.830  1.00  0.00    -0.377 OA
BRANCH   2   3
ATOM      3  C   UNL A   1      42.190  19.897  26.938  1.00  0.00     0.188 C 
BRANCH   3   4
ATOM      4  C   UNL A   1      42.530  18.443  26.604  1.00  0.00     0.188 C 
BRANCH   4   5
ATOM      5  O   UNL A   1      43.245  18.178  25.396  1.00  0.00    -0.376 OA
BRANCH   5   6
ATOM      6  C   UNL A   1      44.469  18.823  25.110  1.00  0.00     0.202 C 
BRANCH   6   7
ATOM      7  C   UNL A   1      44.581  19.377  23.685  1.00  0.00     0.261 C 
BRANCH   7   8
ATOM      8  O   UNL A   1      44.812  20.791  23.561  1.00  0.00    -0.460 OA
BRANCH   8   9
ATOM      9  C   UNL A   1      45.463  21.638  24.391  1.00  0.00     0.338 C 
ATOM     10  O   UNL A   1      46.673  21.488  24.565  1.00  0.00    -0.246 OA
BRANCH   9  11
ATOM     11  C   UNL A   1      44.787  22.690  25.196  1.00  0.00     0.060 A 
ATOM     12  C   UNL A   1      44.087  23.767  24.650  1.00  0.00     0.016 A 
ATOM     13  C   UNL A   1      44.918  22.595  26.596  1.00  0.00     0.016 A 
ATOM     14  C   UNL A   1      43.565  24.753  25.464  1.00  0.00     0.010 A 
ATOM     15  C   UNL A   1      44.432  23.603  27.419  1.00  0.00     0.010 A 
ATOM     16  C   UNL A   1      43.822  24.710  26.831  1.00  0.00    -0.014 A 
BRANCH  16  17
ATOM     17  C   UNL A   1      43.634  25.970  27.532  1.00  0.00     0.031 A 
ATOM     18  C   UNL A   1      44.712  26.990  27.454  1.00  0.00     0.074 A 
ATOM     19  C   UNL A   1      42.523  26.138  28.276  1.00  0.00     0.049 A 
ATOM     20  N   UNL A   1      45.316  27.600  28.427  1.00  0.00    -0.248 NA
ATOM     21  C   UNL A   1      45.203  27.355  26.119  1.00  0.00     0.031 C 
ATOM     22  C   UNL A   1      41.314  25.303  28.282  1.00  0.00     0.029 A 
ATOM     23  N   UNL A   1      42.201  27.158  29.115  1.00  0.00    -0.354 N 
ATOM     24  C   UNL A   1      46.151  28.542  27.830  1.00  0.00     0.074 A 
ATOM     25  C   UNL A   1      46.104  28.294  26.412  1.00  0.00     0.031 C 
ATOM     26  C   UNL A   1      40.318  25.976  28.892  1.00  0.00     0.029 A 
ATOM     27  C   UNL A   1      40.854  27.217  29.419  1.00  0.00     0.049 A 
ATOM     28  H   UNL A   1      42.863  27.794  29.471  1.00  0.00     0.167 HD
ATOM     29  C   UNL A   1      46.679  29.586  28.526  1.00  0.00     0.037 A 
ATOM     30  C   UNL A   1      40.197  28.263  29.968  1.00  0.00     0.037 A 
ATOM     31  C   UNL A   1      46.796  29.297  29.928  1.00  0.00     0.049 A 
ATOM     32  C   UNL A   1      41.191  29.120  30.655  1.00  0.00     0.074 A 
ATOM     33  C   UNL A   1      47.486  28.357  30.671  1.00  0.00     0.029 A 
ATOM     34  N   UNL A   1      45.925  29.882  30.810  1.00  0.00    -0.354 N 
ATOM     35  N   UNL A   1      41.831  28.782  31.740  1.00  0.00    -0.248 NA
ATOM     36  C   UNL A   1      41.780  30.219  29.902  1.00  0.00     0.031 C 
ATOM     37  C   UNL A   1      46.666  28.099  31.808  1.00  0.00     0.029 A 
ATOM     38  C   UNL A   1      45.534  28.904  31.687  1.00  0.00     0.049 A 
ATOM     39  H   UNL A   1      45.635  30.823  30.813  1.00  0.00     0.167 HD
ATOM     40  C   UNL A   1      43.094  29.334  31.595  1.00  0.00     0.074 A 
ATOM     41  C   UNL A   1      42.968  30.296  30.506  1.00  0.00     0.031 C 
ATOM     42  C   UNL A   1      44.187  28.765  32.181  1.00  0.00     0.037 A 
BRANCH  29  43
ATOM     43  C   UNL A   1      46.789  30.986  27.970  1.00  0.00     0.064 A 
ATOM     44  C   UNL A   1      45.628  31.666  27.551  1.00  0.00     0.173 A 
ATOM     45  C   UNL A   1      48.011  31.559  27.553  1.00  0.00     0.173 A 
ATOM     46  F   UNL A   1      44.410  31.201  27.871  1.00  0.00    -0.203 F 
ATOM     47  C   UNL A   1      45.686  32.781  26.710  1.00  0.00     0.198 A 
ATOM     48  C   UNL A   1      48.066  32.703  26.757  1.00  0.00     0.198 A 
ATOM     49  F   UNL A   1      49.191  30.980  27.805  1.00  0.00    -0.203 F 
ATOM     50  F   UNL A   1      44.553  33.315  26.233  1.00  0.00    -0.200 F 
ATOM     51  C   UNL A   1      46.905  33.294  26.307  1.00  0.00     0.200 A 
ATOM     52  F   UNL A   1      49.258  33.175  26.363  1.00  0.00    -0.200 F 
ATOM     53  F   UNL A   1      46.962  34.321  25.449  1.00  0.00    -0.200 F 
ENDBRANCH  29  43
BRANCH  30  54
ATOM     54  C   UNL A   1      38.829  28.701  29.624  1.00  0.00     0.064 A 
ATOM     55  C   UNL A   1      37.879  28.970  30.618  1.00  0.00     0.173 A 
ATOM     56  C   UNL A   1      38.490  29.084  28.308  1.00  0.00     0.173 A 
ATOM     57  F   UNL A   1      38.150  28.691  31.900  1.00  0.00    -0.203 F 
ATOM     58  C   UNL A   1      36.661  29.583  30.313  1.00  0.00     0.198 A 
ATOM     59  C   UNL A   1      37.268  29.678  28.003  1.00  0.00     0.198 A 
ATOM     60  F   UNL A   1      39.373  28.971  27.306  1.00  0.00    -0.203 F 
ATOM     61  F   UNL A   1      35.795  29.874  31.295  1.00  0.00    -0.200 F 
ATOM     62  C   UNL A   1      36.356  29.937  29.007  1.00  0.00     0.200 A 
ATOM     63  F   UNL A   1      37.004  30.046  26.741  1.00  0.00    -0.200 F 
ATOM     64  F   UNL A   1      35.205  30.562  28.723  1.00  0.00    -0.200 F 
ENDBRANCH  30  54
BRANCH  42  65
ATOM     65  C   UNL A   1      43.949  27.691  33.202  1.00  0.00     0.064 A 
ATOM     66  C   UNL A   1      43.871  26.327  32.876  1.00  0.00     0.173 A 
ATOM     67  C   UNL A   1      43.950  28.034  34.559  1.00  0.00     0.173 A 
ATOM     68  F   UNL A   1      43.980  25.917  31.606  1.00  0.00    -0.203 F 
ATOM     69  C   UNL A   1      43.745  25.354  33.865  1.00  0.00     0.198 A 
ATOM     70  C   UNL A   1      43.858  27.058  35.549  1.00  0.00     0.198 A 
ATOM     71  F   UNL A   1      44.091  29.317  34.930  1.00  0.00    -0.203 F 
ATOM     72  F   UNL A   1      43.665  24.058  33.529  1.00  0.00    -0.200 F 
ATOM     73  C   UNL A   1      43.744  25.720  35.201  1.00  0.00     0.200 A 
ATOM     74  F   UNL A   1      43.913  27.409  36.841  1.00  0.00    -0.200 F 
ATOM     75  F   UNL A   1      43.667  24.783  36.155  1.00  0.00    -0.200 F 
ENDBRANCH  42  65
ENDBRANCH  16  17
ENDBRANCH   9  11
ENDBRANCH   8   9
ENDBRANCH   7   8
ENDBRANCH   6   7
ENDBRANCH   5   6
ENDBRANCH   4   5
ENDBRANCH   3   4
ENDBRANCH   2   3
ENDBRANCH   1   2
BRANCH   1  76
ATOM     76  C   UNL A   1      39.729  22.045  26.351  1.00  0.00     0.188 C 
BRANCH  76  77
ATOM     77  O   UNL A   1      38.815  21.408  25.468  1.00  0.00    -0.376 OA
BRANCH  77  78
ATOM     78  C   UNL A   1      37.426  21.677  25.579  1.00  0.00     0.202 C 
BRANCH  78  79
ATOM     79  C   UNL A   1      37.024  23.093  26.006  1.00  0.00     0.261 C 
BRANCH  79  80
ATOM     80  O   UNL A   1      35.632  23.378  25.805  1.00  0.00    -0.460 OA
BRANCH  80  81
ATOM     81  C   UNL A   1      34.721  22.799  26.652  1.00  0.00     0.340 C 
ATOM     82  O   UNL A   1      34.696  22.925  27.855  1.00  0.00    -0.246 OA
BRANCH  81  83
ATOM     83  C   UNL A   1      33.638  22.182  25.877  1.00  0.00     0.095 A 
ATOM     84  C   UNL A   1      32.428  22.830  25.662  1.00  0.00     0.150 A 
ATOM     85  C   UNL A   1      33.619  20.863  25.270  1.00  0.00    -0.007 A 
ATOM     86  S   UNL A   1      31.231  21.728  25.138  1.00  0.00    -0.120 S 
ATOM     87  C   UNL A   1      32.414  20.629  24.636  1.00  0.00     0.064 A 
ATOM     88  C   UNL A   1      34.654  19.772  25.285  1.00  0.00     0.099 C 
ATOM     89  C   UNL A   1      32.147  19.496  23.699  1.00  0.00     0.308 C 
ATOM     90  C   UNL A   1      34.355  18.665  24.239  1.00  0.00     0.265 C 
ATOM     91  N   UNL A   1      32.924  18.316  24.105  1.00  0.00    -0.342 N 
ATOM     92  H   UNL A   1      32.576  17.976  25.001  1.00  0.00     0.346 HD
ATOM     93  H   UNL A   1      32.825  17.592  23.393  1.00  0.00     0.346 HD
BRANCH  84  94
ATOM     94  S   UNL A   1      31.917  24.520  25.870  1.00  0.00     0.253 S 
ATOM     95  O   UNL A   1      30.823  24.715  24.947  1.00  0.00    -0.206 OA
ATOM     96  O   UNL A   1      31.731  24.655  27.302  1.00  0.00    -0.206 OA
BRANCH  94  97
ATOM     97  N   UNL A   1      33.193  25.545  25.450  1.00  0.00    -0.192 NA
ATOM     98  C   UNL A   1      33.408  26.836  26.147  1.00  0.00     0.131 C 
ATOM     99  C   UNL A   1      33.656  25.558  24.039  1.00  0.00     0.134 C 
ATOM    100  C   UNL A   1      33.086  28.068  25.282  1.00  0.00     0.177 C 
ATOM    101  C   UNL A   1      33.031  26.753  23.305  1.00  0.00     0.135 C 
ATOM    102  O   UNL A   1      33.515  27.967  23.915  1.00  0.00    -0.375 OA
BRANCH 101 103
ATOM    103  C   UNL A   1      33.318  26.803  21.803  1.00  0.00     0.061 C 
BRANCH 103 104
ATOM    104  C   UNL A   1      32.776  25.608  21.026  1.00  0.00     0.159 C 
BRANCH 104 105
ATOM    105  O   UNL A   1      31.591  25.971  20.332  1.00  0.00    -0.396 OA
ATOM    106  H   UNL A   1      31.007  25.199  20.264  1.00  0.00     0.210 HD
ENDBRANCH 104 105
ENDBRANCH 103 104
ENDBRANCH 101 103
ENDBRANCH  94  97
ENDBRANCH  84  94
ENDBRANCH  81  83
ENDBRANCH  80  81
ENDBRANCH  79  80
ENDBRANCH  78  79
ENDBRANCH  77  78
ENDBRANCH  76  77
ENDBRANCH   1  76
TORSDOF 25
ENDMDL
MODEL 3
REMARK VINA RESULT:     -10.1      1.869      4.148
REMARK SMILES O=C(OCCOCCOCCOCCOC(=O)c1c(S(=O)(=O)N2CCO[C@@H](CCO)C2)sc2c1CC[NH2+]C2)c1ccc(-c2c3nc(c(-c4c(F)c(F)c(F)c(F)c4F)c4ccc([nH]4)c(-c4c(F)c(F)c(F)c(F)c4F)c4nc(c(-c5c(F)c(F)c(F)c(F)c5F)c5ccc2[nH]5)C=C4)C=C3)cc1
REMARK SMILES IDX 10 1 9 2 8 3 7 4 6 5 5 6 4 7 3 8 2 9 1 10 39 11 40 12 101 13
REMARK SMILES IDX 41 14 100 15 42 16 43 17 44 18 94 19 45 20 99 21 93 22 95 23
REMARK SMILES IDX 46 24 98 25 92 26 91 27 47 29 79 30 59 31 78 32 60 33 63 34
REMARK SMILES IDX 77 35 96 36 61 37 62 38 76 40 97 41 64 42 48 43 49 44 57 45
REMARK SMILES IDX 50 46 51 47 55 48 58 49 52 50 53 51 56 52 54 53 80 54 81 55
REMARK SMILES IDX 89 56 82 57 83 58 87 59 90 60 84 61 85 62 88 63 86 64 65 65
REMARK SMILES IDX 66 66 74 67 67 68 68 69 72 70 75 71 69 72 70 73 73 74 71 75
REMARK SMILES IDX 11 76 12 77 13 78 14 79 15 80 16 81 17 82 18 83 19 84 34 85
REMARK SMILES IDX 32 86 33 87 35 88 38 89 36 90 37 91 20 94 21 95 22 96 23 97
REMARK SMILES IDX 24 98 31 99 25 100 27 101 26 102 28 103 29 104 30 105
REMARK H PARENT 95 28 63 39 37 92 37 93 30 106
REMARK Flexibility Score: inf
ROOT
ATOM      1  C   UNL A   1      40.734  22.644  26.479  1.00  0.00     0.188 C 
ENDROOT
BRANCH   1   2
ATOM      2  O   UNL A   1      41.221  22.094  27.685  1.00  0.00    -0.377 OA
BRANCH   2   3
ATOM      3  C   UNL A   1      41.689  20.764  27.594  1.00  0.00     0.188 C 
BRANCH   3   4
ATOM      4  C   UNL A   1      40.778  19.860  26.759  1.00  0.00     0.188 C 
BRANCH   4   5
ATOM      5  O   UNL A   1      41.383  19.004  25.789  1.00  0.00    -0.376 OA
BRANCH   5   6
ATOM      6  C   UNL A   1      42.620  18.371  26.039  1.00  0.00     0.202 C 
BRANCH   6   7
ATOM      7  C   UNL A   1      43.762  18.814  25.115  1.00  0.00     0.261 C 
BRANCH   7   8
ATOM      8  O   UNL A   1      43.917  20.230  24.919  1.00  0.00    -0.460 OA
BRANCH   8   9
ATOM      9  C   UNL A   1      45.043  20.978  24.851  1.00  0.00     0.338 C 
ATOM     10  O   UNL A   1      46.107  20.426  24.567  1.00  0.00    -0.246 OA
BRANCH   9  11
ATOM     11  C   UNL A   1      45.099  22.421  25.200  1.00  0.00     0.060 A 
ATOM     12  C   UNL A   1      46.018  22.979  26.092  1.00  0.00     0.016 A 
ATOM     13  C   UNL A   1      44.119  23.250  24.617  1.00  0.00     0.016 A 
ATOM     14  C   UNL A   1      45.944  24.314  26.434  1.00  0.00     0.010 A 
ATOM     15  C   UNL A   1      44.013  24.584  24.988  1.00  0.00     0.010 A 
ATOM     16  C   UNL A   1      44.889  25.082  25.952  1.00  0.00    -0.014 A 
BRANCH  16  17
ATOM     17  C   UNL A   1      44.634  26.310  26.689  1.00  0.00     0.031 A 
ATOM     18  C   UNL A   1      45.562  27.455  26.496  1.00  0.00     0.074 A 
ATOM     19  C   UNL A   1      43.608  26.340  27.561  1.00  0.00     0.049 A 
ATOM     20  N   UNL A   1      46.199  28.135  27.399  1.00  0.00    -0.248 NA
ATOM     21  C   UNL A   1      45.841  27.876  25.117  1.00  0.00     0.031 C 
ATOM     22  C   UNL A   1      42.520  25.362  27.700  1.00  0.00     0.029 A 
ATOM     23  N   UNL A   1      43.267  27.314  28.447  1.00  0.00    -0.354 N 
ATOM     24  C   UNL A   1      46.835  29.172  26.719  1.00  0.00     0.074 A 
ATOM     25  C   UNL A   1      46.648  28.919  25.314  1.00  0.00     0.031 C 
ATOM     26  C   UNL A   1      41.530  25.908  28.433  1.00  0.00     0.029 A 
ATOM     27  C   UNL A   1      41.968  27.207  28.910  1.00  0.00     0.049 A 
ATOM     28  H   UNL A   1      43.884  28.027  28.730  1.00  0.00     0.167 HD
ATOM     29  C   UNL A   1      47.310  30.274  27.362  1.00  0.00     0.037 A 
ATOM     30  C   UNL A   1      41.259  28.164  29.548  1.00  0.00     0.037 A 
ATOM     31  C   UNL A   1      47.629  30.003  28.736  1.00  0.00     0.049 A 
ATOM     32  C   UNL A   1      42.216  29.138  30.122  1.00  0.00     0.074 A 
ATOM     33  C   UNL A   1      48.513  29.156  29.378  1.00  0.00     0.029 A 
ATOM     34  N   UNL A   1      46.805  30.478  29.724  1.00  0.00    -0.354 N 
ATOM     35  N   UNL A   1      43.017  28.882  31.119  1.00  0.00    -0.248 NA
ATOM     36  C   UNL A   1      42.571  30.300  29.320  1.00  0.00     0.031 C 
ATOM     37  C   UNL A   1      47.873  28.801  30.601  1.00  0.00     0.029 A 
ATOM     38  C   UNL A   1      46.645  29.460  30.627  1.00  0.00     0.049 A 
ATOM     39  H   UNL A   1      46.405  31.376  29.774  1.00  0.00     0.167 HD
ATOM     40  C   UNL A   1      44.177  29.586  30.833  1.00  0.00     0.074 A 
ATOM     41  C   UNL A   1      43.804  30.524  29.779  1.00  0.00     0.031 C 
ATOM     42  C   UNL A   1      45.394  29.156  31.277  1.00  0.00     0.037 A 
BRANCH  29  43
ATOM     43  C   UNL A   1      47.181  31.677  26.817  1.00  0.00     0.064 A 
ATOM     44  C   UNL A   1      48.312  32.518  26.775  1.00  0.00     0.173 A 
ATOM     45  C   UNL A   1      45.939  32.322  26.623  1.00  0.00     0.173 A 
ATOM     46  F   UNL A   1      49.543  32.019  26.966  1.00  0.00    -0.203 F 
ATOM     47  C   UNL A   1      48.198  33.904  26.635  1.00  0.00     0.198 A 
ATOM     48  C   UNL A   1      45.834  33.699  26.432  1.00  0.00     0.198 A 
ATOM     49  F   UNL A   1      44.775  31.667  26.719  1.00  0.00    -0.203 F 
ATOM     50  F   UNL A   1      49.291  34.674  26.730  1.00  0.00    -0.200 F 
ATOM     51  C   UNL A   1      46.959  34.494  26.472  1.00  0.00     0.200 A 
ATOM     52  F   UNL A   1      44.622  34.255  26.291  1.00  0.00    -0.200 F 
ATOM     53  F   UNL A   1      46.842  35.827  26.404  1.00  0.00    -0.200 F 
ENDBRANCH  29  43
BRANCH  30  54
ATOM     54  C   UNL A   1      39.816  28.429  29.375  1.00  0.00     0.064 A 
ATOM     55  C   UNL A   1      38.940  28.428  30.468  1.00  0.00     0.173 A 
ATOM     56  C   UNL A   1      39.300  28.916  28.155  1.00  0.00     0.173 A 
ATOM     57  F   UNL A   1      39.371  28.037  31.675  1.00  0.00    -0.203 F 
ATOM     58  C   UNL A   1      37.624  28.883  30.346  1.00  0.00     0.198 A 
ATOM     59  C   UNL A   1      37.983  29.352  28.030  1.00  0.00     0.198 A 
ATOM     60  F   UNL A   1      40.088  29.062  27.080  1.00  0.00    -0.203 F 
ATOM     61  F   UNL A   1      36.827  28.917  31.424  1.00  0.00    -0.200 F 
ATOM     62  C   UNL A   1      37.147  29.345  29.129  1.00  0.00     0.200 A 
ATOM     63  F   UNL A   1      37.550  29.829  26.855  1.00  0.00    -0.200 F 
ATOM     64  F   UNL A   1      35.898  29.819  29.024  1.00  0.00    -0.200 F 
ENDBRANCH  30  54
BRANCH  42  65
ATOM     65  C   UNL A   1      45.413  28.063  32.304  1.00  0.00     0.064 A 
ATOM     66  C   UNL A   1      45.359  28.308  33.686  1.00  0.00     0.173 A 
ATOM     67  C   UNL A   1      45.334  26.731  31.878  1.00  0.00     0.173 A 
ATOM     68  F   UNL A   1      45.314  29.559  34.160  1.00  0.00    -0.203 F 
ATOM     69  C   UNL A   1      45.282  27.262  34.602  1.00  0.00     0.198 A 
ATOM     70  C   UNL A   1      45.224  25.688  32.795  1.00  0.00     0.198 A 
ATOM     71  F   UNL A   1      45.312  26.443  30.567  1.00  0.00    -0.203 F 
ATOM     72  F   UNL A   1      45.239  27.521  35.918  1.00  0.00    -0.200 F 
ATOM     73  C   UNL A   1      45.210  25.953  34.156  1.00  0.00     0.200 A 
ATOM     74  F   UNL A   1      45.098  24.427  32.359  1.00  0.00    -0.200 F 
ATOM     75  F   UNL A   1      45.093  24.948  35.034  1.00  0.00    -0.200 F 
ENDBRANCH  42  65
ENDBRANCH  16  17
ENDBRANCH   9  11
ENDBRANCH   8   9
ENDBRANCH   7   8
ENDBRANCH   6   7
ENDBRANCH   5   6
ENDBRANCH   4   5
ENDBRANCH   3   4
ENDBRANCH   2   3
ENDBRANCH   1   2
BRANCH   1  76
ATOM     76  C   UNL A   1      39.281  23.165  26.567  1.00  0.00     0.188 C 
BRANCH  76  77
ATOM     77  O   UNL A   1      38.213  22.415  26.003  1.00  0.00    -0.376 OA
BRANCH  77  78
ATOM     78  C   UNL A   1      36.883  22.899  26.103  1.00  0.00     0.202 C 
BRANCH  78  79
ATOM     79  C   UNL A   1      36.504  24.081  25.204  1.00  0.00     0.261 C 
BRANCH  79  80
ATOM     80  O   UNL A   1      35.090  24.307  25.120  1.00  0.00    -0.460 OA
BRANCH  80  81
ATOM     81  C   UNL A   1      34.412  23.792  24.043  1.00  0.00     0.340 C 
ATOM     82  O   UNL A   1      34.689  23.978  22.880  1.00  0.00    -0.246 OA
BRANCH  81  83
ATOM     83  C   UNL A   1      33.435  22.794  24.496  1.00  0.00     0.095 A 
ATOM     84  C   UNL A   1      32.125  23.137  24.803  1.00  0.00     0.150 A 
ATOM     85  C   UNL A   1      33.654  21.378  24.727  1.00  0.00    -0.007 A 
ATOM     86  S   UNL A   1      31.368  21.902  25.710  1.00  0.00    -0.120 S 
ATOM     87  C   UNL A   1      32.496  20.766  25.168  1.00  0.00     0.064 A 
ATOM     88  C   UNL A   1      34.906  20.555  24.603  1.00  0.00     0.099 C 
ATOM     89  C   UNL A   1      32.289  19.288  25.254  1.00  0.00     0.308 C 
ATOM     90  C   UNL A   1      34.613  19.031  24.626  1.00  0.00     0.265 C 
ATOM     91  N   UNL A   1      33.559  18.623  25.580  1.00  0.00    -0.342 N 
ATOM     92  H   UNL A   1      33.842  18.883  26.526  1.00  0.00     0.346 HD
ATOM     93  H   UNL A   1      33.430  17.613  25.519  1.00  0.00     0.346 HD
BRANCH  84  94
ATOM     94  S   UNL A   1      31.153  24.589  24.471  1.00  0.00     0.253 S 
ATOM     95  O   UNL A   1      30.621  24.410  23.141  1.00  0.00    -0.206 OA
ATOM     96  O   UNL A   1      30.283  24.699  25.626  1.00  0.00    -0.206 OA
BRANCH  94  97
ATOM     97  N   UNL A   1      32.157  25.949  24.493  1.00  0.00    -0.192 NA
ATOM     98  C   UNL A   1      32.507  26.629  25.764  1.00  0.00     0.131 C 
ATOM     99  C   UNL A   1      32.132  26.866  23.326  1.00  0.00     0.134 C 
ATOM    100  C   UNL A   1      31.845  28.009  25.931  1.00  0.00     0.177 C 
ATOM    101  C   UNL A   1      31.230  28.068  23.637  1.00  0.00     0.135 C 
ATOM    102  O   UNL A   1      31.810  28.803  24.734  1.00  0.00    -0.375 OA
BRANCH 101 103
ATOM    103  C   UNL A   1      31.008  29.023  22.462  1.00  0.00     0.061 C 
BRANCH 103 104
ATOM    104  C   UNL A   1      29.768  29.901  22.601  1.00  0.00     0.159 C 
BRANCH 104 105
ATOM    105  O   UNL A   1      29.836  30.658  23.802  1.00  0.00    -0.396 OA
ATOM    106  H   UNL A   1      29.140  30.362  24.410  1.00  0.00     0.210 HD
ENDBRANCH 104 105
ENDBRANCH 103 104
ENDBRANCH 101 103
ENDBRANCH  94  97
ENDBRANCH  84  94
ENDBRANCH  81  83
ENDBRANCH  80  81
ENDBRANCH  79  80
ENDBRANCH  78  79
ENDBRANCH  77  78
ENDBRANCH  76  77
ENDBRANCH   1  76
TORSDOF 25
ENDMDL
