MODEL 1
REMARK VINA RESULT:      -8.4      0.000      0.000
REMARK SMILES O=C(OCCOCCOCCOCCOC(=O)C1CCN(C(=O)CCN2C(=O)[C@H]3Cc4ccccc4CN3C2=O)CC1)c1ccc(-c2c3nc(c(-c4c(F)c(F)c(F)c(F)c4F)c4ccc([nH]4)c(-c4c(F)c(F)c(F)c(F)c4F)c4nc(c(-c5c(F)c(F)c(F)c(F)c5F)c5ccc2[nH]5)C=C4)C=C3)cc1
REMARK SMILES IDX 10 1 9 2 8 3 7 4 6 5 5 6 4 7 3 8 2 9 1 10 43 11 44 12 105 13
REMARK SMILES IDX 45 14 104 15 46 16 47 17 48 18 98 19 49 20 103 21 97 22
REMARK SMILES IDX 99 23 50 24 102 25 96 26 95 27 51 29 83 30 63 31 82 32 64 33
REMARK SMILES IDX 67 34 81 35 100 36 65 37 66 38 80 40 101 41 68 42 52 43
REMARK SMILES IDX 53 44 61 45 54 46 55 47 59 48 62 49 56 50 57 51 60 52 58 53
REMARK SMILES IDX 84 54 85 55 93 56 86 57 87 58 91 59 94 60 88 61 89 62 92 63
REMARK SMILES IDX 90 64 69 65 70 66 78 67 71 68 72 69 76 70 79 71 73 72 74 73
REMARK SMILES IDX 77 74 75 75 11 76 12 77 13 78 14 79 15 80 16 81 17 82 18 83
REMARK SMILES IDX 19 84 42 85 20 86 41 87 21 88 22 89 23 90 24 91 25 92 26 93
REMARK SMILES IDX 27 94 39 95 28 96 29 97 38 98 40 99 30 100 37 101 31 102
REMARK SMILES IDX 36 103 32 104 35 105 33 106 34 107
REMARK H PARENT 99 28 67 39
REMARK Flexibility Score: inf
ROOT
ATOM      1  C   UNL A   1      37.270  31.756  38.940  1.00  0.00     0.188 C 
ENDROOT
BRANCH   1   2
ATOM      2  O   UNL A   1      38.296  32.046  39.881  1.00  0.00    -0.377 OA
BRANCH   2   3
ATOM      3  C   UNL A   1      39.140  33.176  39.677  1.00  0.00     0.188 C 
BRANCH   3   4
ATOM      4  C   UNL A   1      40.612  33.068  40.054  1.00  0.00     0.188 C 
BRANCH   4   5
ATOM      5  O   UNL A   1      41.066  34.146  40.868  1.00  0.00    -0.376 OA
BRANCH   5   6
ATOM      6  C   UNL A   1      40.036  34.963  41.398  1.00  0.00     0.202 C 
BRANCH   6   7
ATOM      7  C   UNL A   1      40.357  36.427  41.135  1.00  0.00     0.261 C 
BRANCH   7   8
ATOM      8  O   UNL A   1      40.871  36.656  39.802  1.00  0.00    -0.460 OA
BRANCH   8   9
ATOM      9  C   UNL A   1      40.261  36.711  38.596  1.00  0.00     0.338 C 
ATOM     10  O   UNL A   1      39.248  37.405  38.505  1.00  0.00    -0.246 OA
BRANCH   9  11
ATOM     11  C   UNL A   1      40.702  35.989  37.352  1.00  0.00     0.060 A 
ATOM     12  C   UNL A   1      42.093  35.813  37.192  1.00  0.00     0.016 A 
ATOM     13  C   UNL A   1      39.872  35.463  36.359  1.00  0.00     0.016 A 
ATOM     14  C   UNL A   1      42.633  35.167  36.074  1.00  0.00     0.010 A 
ATOM     15  C   UNL A   1      40.407  34.832  35.227  1.00  0.00     0.010 A 
ATOM     16  C   UNL A   1      41.788  34.677  35.077  1.00  0.00    -0.014 A 
BRANCH  16  17
ATOM     17  C   UNL A   1      42.322  33.780  34.028  1.00  0.00     0.031 A 
ATOM     18  C   UNL A   1      42.455  32.304  34.219  1.00  0.00     0.074 A 
ATOM     19  C   UNL A   1      42.699  34.367  32.878  1.00  0.00     0.049 A 
ATOM     20  N   UNL A   1      42.815  31.393  33.350  1.00  0.00    -0.248 NA
ATOM     21  C   UNL A   1      42.175  31.777  35.560  1.00  0.00     0.031 C 
ATOM     22  C   UNL A   1      42.646  35.809  32.632  1.00  0.00     0.029 A 
ATOM     23  N   UNL A   1      43.181  33.843  31.710  1.00  0.00    -0.354 N 
ATOM     24  C   UNL A   1      42.805  30.183  34.032  1.00  0.00     0.074 A 
ATOM     25  C   UNL A   1      42.438  30.485  35.402  1.00  0.00     0.031 C 
ATOM     26  C   UNL A   1      43.051  36.055  31.381  1.00  0.00     0.029 A 
ATOM     27  C   UNL A   1      43.389  34.789  30.739  1.00  0.00     0.049 A 
ATOM     28  H   UNL A   1      43.361  32.884  31.579  1.00  0.00     0.167 HD
ATOM     29  C   UNL A   1      43.072  28.947  33.542  1.00  0.00     0.037 A 
ATOM     30  C   UNL A   1      43.774  34.652  29.458  1.00  0.00     0.037 A 
ATOM     31  C   UNL A   1      43.415  28.690  32.160  1.00  0.00     0.049 A 
ATOM     32  C   UNL A   1      43.996  33.269  28.923  1.00  0.00     0.074 A 
ATOM     33  C   UNL A   1      43.612  27.473  31.530  1.00  0.00     0.029 A 
ATOM     34  N   UNL A   1      43.618  29.671  31.197  1.00  0.00    -0.354 N 
ATOM     35  N   UNL A   1      43.889  32.121  29.546  1.00  0.00    -0.248 NA
ATOM     36  C   UNL A   1      44.372  33.159  27.509  1.00  0.00     0.031 C 
ATOM     37  C   UNL A   1      43.984  27.719  30.204  1.00  0.00     0.029 A 
ATOM     38  C   UNL A   1      43.968  29.089  29.988  1.00  0.00     0.049 A 
ATOM     39  H   UNL A   1      43.527  30.640  31.351  1.00  0.00     0.167 HD
ATOM     40  C   UNL A   1      44.185  31.148  28.606  1.00  0.00     0.074 A 
ATOM     41  C   UNL A   1      44.441  31.842  27.358  1.00  0.00     0.031 C 
ATOM     42  C   UNL A   1      44.247  29.803  28.763  1.00  0.00     0.037 A 
BRANCH  29  43
ATOM     43  C   UNL A   1      43.001  27.770  34.483  1.00  0.00     0.064 A 
ATOM     44  C   UNL A   1      44.066  27.437  35.333  1.00  0.00     0.173 A 
ATOM     45  C   UNL A   1      41.823  27.013  34.595  1.00  0.00     0.173 A 
ATOM     46  F   UNL A   1      45.215  28.127  35.280  1.00  0.00    -0.203 F 
ATOM     47  C   UNL A   1      43.968  26.378  36.235  1.00  0.00     0.198 A 
ATOM     48  C   UNL A   1      41.714  25.977  35.523  1.00  0.00     0.198 A 
ATOM     49  F   UNL A   1      40.762  27.291  33.822  1.00  0.00    -0.203 F 
ATOM     50  F   UNL A   1      45.016  26.056  37.005  1.00  0.00    -0.200 F 
ATOM     51  C   UNL A   1      42.789  25.655  36.335  1.00  0.00     0.200 A 
ATOM     52  F   UNL A   1      40.565  25.295  35.634  1.00  0.00    -0.200 F 
ATOM     53  F   UNL A   1      42.690  24.648  37.215  1.00  0.00    -0.200 F 
ENDBRANCH  29  43
BRANCH  30  54
ATOM     54  C   UNL A   1      43.863  35.865  28.610  1.00  0.00     0.064 A 
ATOM     55  C   UNL A   1      42.700  36.494  28.145  1.00  0.00     0.173 A 
ATOM     56  C   UNL A   1      45.093  36.493  28.363  1.00  0.00     0.173 A 
ATOM     57  F   UNL A   1      41.503  35.930  28.357  1.00  0.00    -0.203 F 
ATOM     58  C   UNL A   1      42.764  37.713  27.472  1.00  0.00     0.198 A 
ATOM     59  C   UNL A   1      45.152  37.724  27.715  1.00  0.00     0.198 A 
ATOM     60  F   UNL A   1      46.230  35.942  28.811  1.00  0.00    -0.203 F 
ATOM     61  F   UNL A   1      41.639  38.294  27.037  1.00  0.00    -0.200 F 
ATOM     62  C   UNL A   1      43.988  38.333  27.271  1.00  0.00     0.200 A 
ATOM     63  F   UNL A   1      46.334  38.335  27.548  1.00  0.00    -0.200 F 
ATOM     64  F   UNL A   1      44.045  39.524  26.658  1.00  0.00    -0.200 F 
ENDBRANCH  30  54
BRANCH  42  65
ATOM     65  C   UNL A   1      44.645  28.994  27.564  1.00  0.00     0.064 A 
ATOM     66  C   UNL A   1      45.950  28.496  27.428  1.00  0.00     0.173 A 
ATOM     67  C   UNL A   1      43.706  28.655  26.579  1.00  0.00     0.173 A 
ATOM     68  F   UNL A   1      46.889  28.806  28.335  1.00  0.00    -0.203 F 
ATOM     69  C   UNL A   1      46.302  27.697  26.343  1.00  0.00     0.198 A 
ATOM     70  C   UNL A   1      44.054  27.831  25.512  1.00  0.00     0.198 A 
ATOM     71  F   UNL A   1      42.444  29.103  26.666  1.00  0.00    -0.203 F 
ATOM     72  F   UNL A   1      47.563  27.262  26.216  1.00  0.00    -0.200 F 
ATOM     73  C   UNL A   1      45.351  27.357  25.393  1.00  0.00     0.200 A 
ATOM     74  F   UNL A   1      43.130  27.491  24.601  1.00  0.00    -0.200 F 
ATOM     75  F   UNL A   1      45.687  26.573  24.360  1.00  0.00    -0.200 F 
ENDBRANCH  42  65
ENDBRANCH  16  17
ENDBRANCH   9  11
ENDBRANCH   8   9
ENDBRANCH   7   8
ENDBRANCH   6   7
ENDBRANCH   5   6
ENDBRANCH   4   5
ENDBRANCH   3   4
ENDBRANCH   2   3
ENDBRANCH   1   2
BRANCH   1  76
ATOM     76  C   UNL A   1      37.437  32.513  37.622  1.00  0.00     0.188 C 
BRANCH  76  77
ATOM     77  O   UNL A   1      37.521  31.663  36.484  1.00  0.00    -0.376 OA
BRANCH  77  78
ATOM     78  C   UNL A   1      37.844  32.319  35.258  1.00  0.00     0.202 C 
BRANCH  78  79
ATOM     79  C   UNL A   1      37.293  31.685  33.960  1.00  0.00     0.261 C 
BRANCH  79  80
ATOM     80  O   UNL A   1      38.281  31.159  33.018  1.00  0.00    -0.463 OA
BRANCH  80  81
ATOM     81  C   UNL A   1      38.962  32.082  32.287  1.00  0.00     0.309 C 
ATOM     82  O   UNL A   1      39.290  33.182  32.725  1.00  0.00    -0.252 OA
BRANCH  81  83
ATOM     83  C   UNL A   1      39.404  31.641  30.882  1.00  0.00     0.103 C 
ATOM     84  C   UNL A   1      38.442  31.921  29.708  1.00  0.00     0.037 C 
ATOM     85  C   UNL A   1      40.077  30.266  30.860  1.00  0.00     0.037 C 
ATOM     86  C   UNL A   1      38.001  30.733  28.828  1.00  0.00     0.120 C 
ATOM     87  C   UNL A   1      39.176  29.205  30.264  1.00  0.00     0.120 C 
ATOM     88  N   UNL A   1      38.877  29.567  28.908  1.00  0.00    -0.343 N 
ATOM     89  C   UNL A   1      39.302  28.887  27.774  1.00  0.00     0.224 C 
ATOM     90  O   UNL A   1      39.101  29.343  26.645  1.00  0.00    -0.275 OA
BRANCH  89  91
ATOM     91  C   UNL A   1      39.913  27.478  27.898  1.00  0.00     0.122 C 
BRANCH  91  92
ATOM     92  C   UNL A   1      40.489  26.778  26.650  1.00  0.00     0.140 C 
BRANCH  92  93
ATOM     93  N   UNL A   1      40.827  25.361  26.808  1.00  0.00    -0.262 N 
ATOM     94  C   UNL A   1      42.077  24.860  27.089  1.00  0.00     0.253 C 
ATOM     95  C   UNL A   1      39.926  24.316  26.838  1.00  0.00     0.327 C 
ATOM     96  O   UNL A   1      43.073  25.470  27.444  1.00  0.00    -0.272 OA
ATOM     97  C   UNL A   1      42.036  23.425  26.620  1.00  0.00     0.181 C 
ATOM     98  N   UNL A   1      40.662  23.136  26.880  1.00  0.00    -0.308 N 
ATOM     99  O   UNL A   1      38.707  24.395  26.833  1.00  0.00    -0.248 OA
ATOM    100  C   UNL A   1      43.042  22.433  27.119  1.00  0.00     0.071 C 
ATOM    101  C   UNL A   1      40.169  21.768  26.841  1.00  0.00     0.158 C 
ATOM    102  C   UNL A   1      42.627  21.084  26.580  1.00  0.00    -0.040 A 
ATOM    103  C   UNL A   1      41.256  20.745  26.538  1.00  0.00    -0.025 A 
ATOM    104  C   UNL A   1      43.586  20.176  26.113  1.00  0.00     0.004 A 
ATOM    105  C   UNL A   1      40.899  19.442  26.162  1.00  0.00     0.006 A 
ATOM    106  C   UNL A   1      43.208  18.904  25.695  1.00  0.00     0.000 A 
ATOM    107  C   UNL A   1      41.871  18.525  25.754  1.00  0.00     0.000 A 
ENDBRANCH  92  93
ENDBRANCH  91  92
ENDBRANCH  89  91
ENDBRANCH  81  83
ENDBRANCH  80  81
ENDBRANCH  79  80
ENDBRANCH  78  79
ENDBRANCH  77  78
ENDBRANCH  76  77
ENDBRANCH   1  76
TORSDOF 23
ENDMDL
MODEL 2
REMARK VINA RESULT:      -8.3      5.126      8.949
REMARK SMILES O=C(OCCOCCOCCOCCOC(=O)C1CCN(C(=O)CCN2C(=O)[C@H]3Cc4ccccc4CN3C2=O)CC1)c1ccc(-c2c3nc(c(-c4c(F)c(F)c(F)c(F)c4F)c4ccc([nH]4)c(-c4c(F)c(F)c(F)c(F)c4F)c4nc(c(-c5c(F)c(F)c(F)c(F)c5F)c5ccc2[nH]5)C=C4)C=C3)cc1
REMARK SMILES IDX 10 1 9 2 8 3 7 4 6 5 5 6 4 7 3 8 2 9 1 10 43 11 44 12 105 13
REMARK SMILES IDX 45 14 104 15 46 16 47 17 48 18 98 19 49 20 103 21 97 22
REMARK SMILES IDX 99 23 50 24 102 25 96 26 95 27 51 29 83 30 63 31 82 32 64 33
REMARK SMILES IDX 67 34 81 35 100 36 65 37 66 38 80 40 101 41 68 42 52 43
REMARK SMILES IDX 53 44 61 45 54 46 55 47 59 48 62 49 56 50 57 51 60 52 58 53
REMARK SMILES IDX 84 54 85 55 93 56 86 57 87 58 91 59 94 60 88 61 89 62 92 63
REMARK SMILES IDX 90 64 69 65 70 66 78 67 71 68 72 69 76 70 79 71 73 72 74 73
REMARK SMILES IDX 77 74 75 75 11 76 12 77 13 78 14 79 15 80 16 81 17 82 18 83
REMARK SMILES IDX 19 84 42 85 20 86 41 87 21 88 22 89 23 90 24 91 25 92 26 93
REMARK SMILES IDX 27 94 39 95 28 96 29 97 38 98 40 99 30 100 37 101 31 102
REMARK SMILES IDX 36 103 32 104 35 105 33 106 34 107
REMARK H PARENT 99 28 67 39
REMARK Flexibility Score: inf
ROOT
ATOM      1  C   UNL A   1      35.443  29.031  27.617  1.00  0.00     0.188 C 
ENDROOT
BRANCH   1   2
ATOM      2  O   UNL A   1      36.235  29.682  28.602  1.00  0.00    -0.377 OA
BRANCH   2   3
ATOM      3  C   UNL A   1      36.127  31.092  28.774  1.00  0.00     0.188 C 
BRANCH   3   4
ATOM      4  C   UNL A   1      37.297  31.845  29.394  1.00  0.00     0.188 C 
BRANCH   4   5
ATOM      5  O   UNL A   1      36.921  33.086  29.985  1.00  0.00    -0.376 OA
BRANCH   5   6
ATOM      6  C   UNL A   1      37.240  33.206  31.361  1.00  0.00     0.202 C 
BRANCH   6   7
ATOM      7  C   UNL A   1      36.361  32.268  32.176  1.00  0.00     0.261 C 
BRANCH   7   8
ATOM      8  O   UNL A   1      37.119  31.235  32.847  1.00  0.00    -0.460 OA
BRANCH   8   9
ATOM      9  C   UNL A   1      37.460  29.980  32.477  1.00  0.00     0.338 C 
ATOM     10  O   UNL A   1      36.561  29.246  32.068  1.00  0.00    -0.246 OA
BRANCH   9  11
ATOM     11  C   UNL A   1      38.844  29.391  32.531  1.00  0.00     0.060 A 
ATOM     12  C   UNL A   1      39.916  30.305  32.431  1.00  0.00     0.016 A 
ATOM     13  C   UNL A   1      39.167  28.042  32.688  1.00  0.00     0.016 A 
ATOM     14  C   UNL A   1      41.251  29.885  32.457  1.00  0.00     0.010 A 
ATOM     15  C   UNL A   1      40.501  27.612  32.696  1.00  0.00     0.010 A 
ATOM     16  C   UNL A   1      41.552  28.527  32.583  1.00  0.00    -0.014 A 
BRANCH  16  17
ATOM     17  C   UNL A   1      42.939  28.099  32.864  1.00  0.00     0.031 A 
ATOM     18  C   UNL A   1      43.472  27.945  34.252  1.00  0.00     0.074 A 
ATOM     19  C   UNL A   1      43.717  27.860  31.793  1.00  0.00     0.049 A 
ATOM     20  N   UNL A   1      44.636  27.486  34.638  1.00  0.00    -0.248 NA
ATOM     21  C   UNL A   1      42.605  28.387  35.351  1.00  0.00     0.031 C 
ATOM     22  C   UNL A   1      43.285  28.034  30.404  1.00  0.00     0.029 A 
ATOM     23  N   UNL A   1      45.007  27.415  31.692  1.00  0.00    -0.354 N 
ATOM     24  C   UNL A   1      44.646  27.577  36.024  1.00  0.00     0.074 A 
ATOM     25  C   UNL A   1      43.382  28.174  36.408  1.00  0.00     0.031 C 
ATOM     26  C   UNL A   1      44.281  27.672  29.588  1.00  0.00     0.029 A 
ATOM     27  C   UNL A   1      45.417  27.240  30.394  1.00  0.00     0.049 A 
ATOM     28  H   UNL A   1      45.582  27.238  32.471  1.00  0.00     0.167 HD
ATOM     29  C   UNL A   1      45.624  27.187  36.879  1.00  0.00     0.037 A 
ATOM     30  C   UNL A   1      46.570  26.750  29.905  1.00  0.00     0.037 A 
ATOM     31  C   UNL A   1      46.864  26.576  36.451  1.00  0.00     0.049 A 
ATOM     32  C   UNL A   1      47.607  26.262  30.871  1.00  0.00     0.074 A 
ATOM     33  C   UNL A   1      47.884  26.054  37.228  1.00  0.00     0.029 A 
ATOM     34  N   UNL A   1      47.253  26.410  35.127  1.00  0.00    -0.354 N 
ATOM     35  N   UNL A   1      47.571  26.260  32.181  1.00  0.00    -0.248 NA
ATOM     36  C   UNL A   1      48.831  25.694  30.297  1.00  0.00     0.031 C 
ATOM     37  C   UNL A   1      48.908  25.623  36.379  1.00  0.00     0.029 A 
ATOM     38  C   UNL A   1      48.509  25.824  35.067  1.00  0.00     0.049 A 
ATOM     39  H   UNL A   1      46.715  26.672  34.345  1.00  0.00     0.167 HD
ATOM     40  C   UNL A   1      48.765  25.693  32.595  1.00  0.00     0.074 A 
ATOM     41  C   UNL A   1      49.489  25.330  31.391  1.00  0.00     0.031 C 
ATOM     42  C   UNL A   1      49.223  25.498  33.855  1.00  0.00     0.037 A 
BRANCH  29  43
ATOM     43  C   UNL A   1      45.410  27.392  38.357  1.00  0.00     0.064 A 
ATOM     44  C   UNL A   1      44.900  26.376  39.179  1.00  0.00     0.173 A 
ATOM     45  C   UNL A   1      45.796  28.592  38.977  1.00  0.00     0.173 A 
ATOM     46  F   UNL A   1      44.522  25.203  38.648  1.00  0.00    -0.203 F 
ATOM     47  C   UNL A   1      44.756  26.561  40.554  1.00  0.00     0.198 A 
ATOM     48  C   UNL A   1      45.683  28.763  40.358  1.00  0.00     0.198 A 
ATOM     49  F   UNL A   1      46.305  29.598  38.250  1.00  0.00    -0.203 F 
ATOM     50  F   UNL A   1      44.226  25.588  41.307  1.00  0.00    -0.200 F 
ATOM     51  C   UNL A   1      45.156  27.751  41.143  1.00  0.00     0.200 A 
ATOM     52  F   UNL A   1      46.093  29.905  40.926  1.00  0.00    -0.200 F 
ATOM     53  F   UNL A   1      45.032  27.921  42.466  1.00  0.00    -0.200 F 
ENDBRANCH  29  43
BRANCH  30  54
ATOM     54  C   UNL A   1      46.719  26.622  28.435  1.00  0.00     0.064 A 
ATOM     55  C   UNL A   1      46.338  25.443  27.782  1.00  0.00     0.173 A 
ATOM     56  C   UNL A   1      47.111  27.713  27.645  1.00  0.00     0.173 A 
ATOM     57  F   UNL A   1      45.957  24.375  28.496  1.00  0.00    -0.203 F 
ATOM     58  C   UNL A   1      46.335  25.362  26.391  1.00  0.00     0.198 A 
ATOM     59  C   UNL A   1      47.082  27.640  26.254  1.00  0.00     0.198 A 
ATOM     60  F   UNL A   1      47.459  28.871  28.225  1.00  0.00    -0.203 F 
ATOM     61  F   UNL A   1      45.967  24.223  25.789  1.00  0.00    -0.200 F 
ATOM     62  C   UNL A   1      46.693  26.465  25.628  1.00  0.00     0.200 A 
ATOM     63  F   UNL A   1      47.400  28.716  25.522  1.00  0.00    -0.200 F 
ATOM     64  F   UNL A   1      46.652  26.398  24.291  1.00  0.00    -0.200 F 
ENDBRANCH  30  54
BRANCH  42  65
ATOM     65  C   UNL A   1      50.592  24.899  33.998  1.00  0.00     0.064 A 
ATOM     66  C   UNL A   1      51.729  25.712  34.125  1.00  0.00     0.173 A 
ATOM     67  C   UNL A   1      50.765  23.509  34.076  1.00  0.00     0.173 A 
ATOM     68  F   UNL A   1      51.617  27.046  34.040  1.00  0.00    -0.203 F 
ATOM     69  C   UNL A   1      52.990  25.155  34.315  1.00  0.00     0.198 A 
ATOM     70  C   UNL A   1      52.024  22.956  34.297  1.00  0.00     0.198 A 
ATOM     71  F   UNL A   1      49.710  22.689  33.964  1.00  0.00    -0.203 F 
ATOM     72  F   UNL A   1      54.065  25.949  34.399  1.00  0.00    -0.200 F 
ATOM     73  C   UNL A   1      53.134  23.779  34.412  1.00  0.00     0.200 A 
ATOM     74  F   UNL A   1      52.161  21.627  34.404  1.00  0.00    -0.200 F 
ATOM     75  F   UNL A   1      54.347  23.245  34.613  1.00  0.00    -0.200 F 
ENDBRANCH  42  65
ENDBRANCH  16  17
ENDBRANCH   9  11
ENDBRANCH   8   9
ENDBRANCH   7   8
ENDBRANCH   6   7
ENDBRANCH   5   6
ENDBRANCH   4   5
ENDBRANCH   3   4
ENDBRANCH   2   3
ENDBRANCH   1   2
BRANCH   1  76
ATOM     76  C   UNL A   1      34.116  29.743  27.351  1.00  0.00     0.188 C 
BRANCH  76  77
ATOM     77  O   UNL A   1      33.288  29.071  26.408  1.00  0.00    -0.376 OA
BRANCH  77  78
ATOM     78  C   UNL A   1      32.528  29.922  25.551  1.00  0.00     0.202 C 
BRANCH  78  79
ATOM     79  C   UNL A   1      31.512  29.237  24.609  1.00  0.00     0.261 C 
BRANCH  79  80
ATOM     80  O   UNL A   1      32.007  28.106  23.824  1.00  0.00    -0.463 OA
BRANCH  80  81
ATOM     81  C   UNL A   1      31.062  27.357  23.192  1.00  0.00     0.309 C 
ATOM     82  O   UNL A   1      29.957  27.790  22.876  1.00  0.00    -0.252 OA
BRANCH  81  83
ATOM     83  C   UNL A   1      31.484  25.935  22.788  1.00  0.00     0.103 C 
ATOM     84  C   UNL A   1      30.594  24.765  23.254  1.00  0.00     0.037 C 
ATOM     85  C   UNL A   1      32.993  25.694  22.903  1.00  0.00     0.037 C 
ATOM     86  C   UNL A   1      31.249  23.627  24.066  1.00  0.00     0.120 C 
ATOM     87  C   UNL A   1      33.336  24.820  24.091  1.00  0.00     0.120 C 
ATOM     88  N   UNL A   1      32.700  23.545  23.922  1.00  0.00    -0.343 N 
ATOM     89  C   UNL A   1      33.350  22.337  23.700  1.00  0.00     0.224 C 
ATOM     90  O   UNL A   1      32.716  21.311  23.442  1.00  0.00    -0.275 OA
BRANCH  89  91
ATOM     91  C   UNL A   1      34.873  22.226  23.911  1.00  0.00     0.122 C 
BRANCH  91  92
ATOM     92  C   UNL A   1      35.427  21.762  25.274  1.00  0.00     0.140 C 
BRANCH  92  93
ATOM     93  N   UNL A   1      36.796  22.181  25.585  1.00  0.00    -0.262 N 
ATOM     94  C   UNL A   1      37.920  21.394  25.486  1.00  0.00     0.253 C 
ATOM     95  C   UNL A   1      37.195  23.467  25.893  1.00  0.00     0.327 C 
ATOM     96  O   UNL A   1      38.031  20.301  24.955  1.00  0.00    -0.272 OA
ATOM     97  C   UNL A   1      38.934  22.047  26.394  1.00  0.00     0.181 C 
ATOM     98  N   UNL A   1      38.542  23.411  26.238  1.00  0.00    -0.308 N 
ATOM     99  O   UNL A   1      36.508  24.477  25.867  1.00  0.00    -0.248 OA
ATOM    100  C   UNL A   1      40.394  21.741  26.248  1.00  0.00     0.071 C 
ATOM    101  C   UNL A   1      39.392  24.490  26.717  1.00  0.00     0.158 C 
ATOM    102  C   UNL A   1      41.128  22.662  27.193  1.00  0.00    -0.040 A 
ATOM    103  C   UNL A   1      40.693  23.998  27.339  1.00  0.00    -0.025 A 
ATOM    104  C   UNL A   1      42.224  22.200  27.933  1.00  0.00     0.004 A 
ATOM    105  C   UNL A   1      41.466  24.874  28.116  1.00  0.00     0.006 A 
ATOM    106  C   UNL A   1      42.949  23.072  28.740  1.00  0.00     0.000 A 
ATOM    107  C   UNL A   1      42.592  24.414  28.803  1.00  0.00     0.000 A 
ENDBRANCH  92  93
ENDBRANCH  91  92
ENDBRANCH  89  91
ENDBRANCH  81  83
ENDBRANCH  80  81
ENDBRANCH  79  80
ENDBRANCH  78  79
ENDBRANCH  77  78
ENDBRANCH  76  77
ENDBRANCH   1  76
TORSDOF 23
ENDMDL
MODEL 3
REMARK VINA RESULT:      -8.3      4.355      9.395
REMARK SMILES O=C(OCCOCCOCCOCCOC(=O)C1CCN(C(=O)CCN2C(=O)[C@H]3Cc4ccccc4CN3C2=O)CC1)c1ccc(-c2c3nc(c(-c4c(F)c(F)c(F)c(F)c4F)c4ccc([nH]4)c(-c4c(F)c(F)c(F)c(F)c4F)c4nc(c(-c5c(F)c(F)c(F)c(F)c5F)c5ccc2[nH]5)C=C4)C=C3)cc1
REMARK SMILES IDX 10 1 9 2 8 3 7 4 6 5 5 6 4 7 3 8 2 9 1 10 43 11 44 12 105 13
REMARK SMILES IDX 45 14 104 15 46 16 47 17 48 18 98 19 49 20 103 21 97 22
REMARK SMILES IDX 99 23 50 24 102 25 96 26 95 27 51 29 83 30 63 31 82 32 64 33
REMARK SMILES IDX 67 34 81 35 100 36 65 37 66 38 80 40 101 41 68 42 52 43
REMARK SMILES IDX 53 44 61 45 54 46 55 47 59 48 62 49 56 50 57 51 60 52 58 53
REMARK SMILES IDX 84 54 85 55 93 56 86 57 87 58 91 59 94 60 88 61 89 62 92 63
REMARK SMILES IDX 90 64 69 65 70 66 78 67 71 68 72 69 76 70 79 71 73 72 74 73
REMARK SMILES IDX 77 74 75 75 11 76 12 77 13 78 14 79 15 80 16 81 17 82 18 83
REMARK SMILES IDX 19 84 42 85 20 86 41 87 21 88 22 89 23 90 24 91 25 92 26 93
REMARK SMILES IDX 27 94 39 95 28 96 29 97 38 98 40 99 30 100 37 101 31 102
REMARK SMILES IDX 36 103 32 104 35 105 33 106 34 107
REMARK H PARENT 99 28 67 39
REMARK Flexibility Score: inf
ROOT
ATOM      1  C   UNL A   1      35.156  29.847  27.605  1.00  0.00     0.188 C 
ENDROOT
BRANCH   1   2
ATOM      2  O   UNL A   1      35.505  30.717  28.674  1.00  0.00    -0.377 OA
BRANCH   2   3
ATOM      3  C   UNL A   1      34.676  31.838  28.969  1.00  0.00     0.188 C 
BRANCH   3   4
ATOM      4  C   UNL A   1      35.321  33.095  29.539  1.00  0.00     0.188 C 
BRANCH   4   5
ATOM      5  O   UNL A   1      34.502  33.768  30.490  1.00  0.00    -0.376 OA
BRANCH   5   6
ATOM      6  C   UNL A   1      35.054  33.851  31.793  1.00  0.00     0.202 C 
BRANCH   6   7
ATOM      7  C   UNL A   1      34.801  32.551  32.542  1.00  0.00     0.261 C 
BRANCH   7   8
ATOM      8  O   UNL A   1      36.024  31.890  32.941  1.00  0.00    -0.460 OA
BRANCH   8   9
ATOM      9  C   UNL A   1      36.785  30.953  32.331  1.00  0.00     0.338 C 
ATOM     10  O   UNL A   1      36.302  29.827  32.201  1.00  0.00    -0.246 OA
BRANCH   9  11
ATOM     11  C   UNL A   1      38.180  31.157  31.805  1.00  0.00     0.060 A 
ATOM     12  C   UNL A   1      38.311  31.242  30.402  1.00  0.00     0.016 A 
ATOM     13  C   UNL A   1      39.343  31.289  32.566  1.00  0.00     0.016 A 
ATOM     14  C   UNL A   1      39.555  31.420  29.785  1.00  0.00     0.010 A 
ATOM     15  C   UNL A   1      40.595  31.449  31.954  1.00  0.00     0.010 A 
ATOM     16  C   UNL A   1      40.711  31.518  30.563  1.00  0.00    -0.014 A 
BRANCH  16  17
ATOM     17  C   UNL A   1      41.983  31.954  29.947  1.00  0.00     0.031 A 
ATOM     18  C   UNL A   1      42.377  33.392  29.842  1.00  0.00     0.074 A 
ATOM     19  C   UNL A   1      42.778  30.981  29.468  1.00  0.00     0.049 A 
ATOM     20  N   UNL A   1      43.504  33.906  29.415  1.00  0.00    -0.248 NA
ATOM     21  C   UNL A   1      41.376  34.389  30.241  1.00  0.00     0.031 C 
ATOM     22  C   UNL A   1      42.442  29.556  29.489  1.00  0.00     0.029 A 
ATOM     23  N   UNL A   1      44.017  31.027  28.890  1.00  0.00    -0.354 N 
ATOM     24  C   UNL A   1      43.354  35.284  29.493  1.00  0.00     0.074 A 
ATOM     25  C   UNL A   1      42.008  35.527  29.974  1.00  0.00     0.031 C 
ATOM     26  C   UNL A   1      43.461  28.859  28.976  1.00  0.00     0.029 A 
ATOM     27  C   UNL A   1      44.520  29.786  28.593  1.00  0.00     0.049 A 
ATOM     28  H   UNL A   1      44.499  31.865  28.707  1.00  0.00     0.167 HD
ATOM     29  C   UNL A   1      44.268  36.241  29.194  1.00  0.00     0.037 A 
ATOM     30  C   UNL A   1      45.718  29.428  28.099  1.00  0.00     0.037 A 
ATOM     31  C   UNL A   1      45.609  35.951  28.734  1.00  0.00     0.049 A 
ATOM     32  C   UNL A   1      46.735  30.499  27.842  1.00  0.00     0.074 A 
ATOM     33  C   UNL A   1      46.649  36.832  28.493  1.00  0.00     0.029 A 
ATOM     34  N   UNL A   1      46.092  34.681  28.442  1.00  0.00    -0.354 N 
ATOM     35  N   UNL A   1      46.622  31.794  28.011  1.00  0.00    -0.248 NA
ATOM     36  C   UNL A   1      48.045  30.064  27.347  1.00  0.00     0.031 C 
ATOM     37  C   UNL A   1      47.739  36.103  28.006  1.00  0.00     0.029 A 
ATOM     38  C   UNL A   1      47.402  34.759  27.993  1.00  0.00     0.049 A 
ATOM     39  H   UNL A   1      45.577  33.847  28.538  1.00  0.00     0.167 HD
ATOM     40  C   UNL A   1      47.843  32.334  27.643  1.00  0.00     0.074 A 
ATOM     41  C   UNL A   1      48.695  31.219  27.275  1.00  0.00     0.031 C 
ATOM     42  C   UNL A   1      48.222  33.635  27.605  1.00  0.00     0.037 A 
BRANCH  29  43
ATOM     43  C   UNL A   1      43.873  37.687  29.354  1.00  0.00     0.064 A 
ATOM     44  C   UNL A   1      44.039  38.369  30.569  1.00  0.00     0.173 A 
ATOM     45  C   UNL A   1      43.397  38.426  28.258  1.00  0.00     0.173 A 
ATOM     46  F   UNL A   1      44.497  37.722  31.651  1.00  0.00    -0.203 F 
ATOM     47  C   UNL A   1      43.717  39.721  30.689  1.00  0.00     0.198 A 
ATOM     48  C   UNL A   1      43.109  39.786  28.372  1.00  0.00     0.198 A 
ATOM     49  F   UNL A   1      43.231  37.836  27.064  1.00  0.00    -0.203 F 
ATOM     50  F   UNL A   1      43.846  40.335  31.873  1.00  0.00    -0.200 F 
ATOM     51  C   UNL A   1      43.262  40.430  29.589  1.00  0.00     0.200 A 
ATOM     52  F   UNL A   1      42.692  40.474  27.299  1.00  0.00    -0.200 F 
ATOM     53  F   UNL A   1      42.969  41.733  29.702  1.00  0.00    -0.200 F 
ENDBRANCH  29  43
BRANCH  30  54
ATOM     54  C   UNL A   1      46.013  27.984  27.929  1.00  0.00     0.064 A 
ATOM     55  C   UNL A   1      45.723  27.337  26.721  1.00  0.00     0.173 A 
ATOM     56  C   UNL A   1      46.711  27.262  28.910  1.00  0.00     0.173 A 
ATOM     57  F   UNL A   1      45.057  27.987  25.756  1.00  0.00    -0.203 F 
ATOM     58  C   UNL A   1      46.127  26.022  26.497  1.00  0.00     0.198 A 
ATOM     59  C   UNL A   1      47.138  25.958  28.673  1.00  0.00     0.198 A 
ATOM     60  F   UNL A   1      47.034  27.849  30.072  1.00  0.00    -0.203 F 
ATOM     61  F   UNL A   1      45.836  25.425  25.334  1.00  0.00    -0.200 F 
ATOM     62  C   UNL A   1      46.846  25.339  27.466  1.00  0.00     0.200 A 
ATOM     63  F   UNL A   1      47.858  25.313  29.601  1.00  0.00    -0.200 F 
ATOM     64  F   UNL A   1      47.268  24.089  27.234  1.00  0.00    -0.200 F 
ENDBRANCH  30  54
BRANCH  42  65
ATOM     65  C   UNL A   1      49.608  33.927  27.110  1.00  0.00     0.064 A 
ATOM     66  C   UNL A   1      50.727  33.733  27.934  1.00  0.00     0.173 A 
ATOM     67  C   UNL A   1      49.829  34.339  25.788  1.00  0.00     0.173 A 
ATOM     68  F   UNL A   1      50.566  33.357  29.212  1.00  0.00    -0.203 F 
ATOM     69  C   UNL A   1      52.016  33.950  27.455  1.00  0.00     0.198 A 
ATOM     70  C   UNL A   1      51.122  34.525  25.303  1.00  0.00     0.198 A 
ATOM     71  F   UNL A   1      48.793  34.535  24.958  1.00  0.00    -0.203 F 
ATOM     72  F   UNL A   1      53.067  33.792  28.271  1.00  0.00    -0.200 F 
ATOM     73  C   UNL A   1      52.212  34.335  26.138  1.00  0.00     0.200 A 
ATOM     74  F   UNL A   1      51.311  34.884  24.025  1.00  0.00    -0.200 F 
ATOM     75  F   UNL A   1      53.454  34.526  25.673  1.00  0.00    -0.200 F 
ENDBRANCH  42  65
ENDBRANCH  16  17
ENDBRANCH   9  11
ENDBRANCH   8   9
ENDBRANCH   7   8
ENDBRANCH   6   7
ENDBRANCH   5   6
ENDBRANCH   4   5
ENDBRANCH   3   4
ENDBRANCH   2   3
ENDBRANCH   1   2
BRANCH   1  76
ATOM     76  C   UNL A   1      33.700  29.999  27.161  1.00  0.00     0.188 C 
BRANCH  76  77
ATOM     77  O   UNL A   1      33.403  29.323  25.945  1.00  0.00    -0.376 OA
BRANCH  77  78
ATOM     78  C   UNL A   1      32.224  29.769  25.274  1.00  0.00     0.202 C 
BRANCH  78  79
ATOM     79  C   UNL A   1      31.380  28.692  24.555  1.00  0.00     0.261 C 
BRANCH  79  80
ATOM     80  O   UNL A   1      32.118  27.668  23.817  1.00  0.00    -0.463 OA
BRANCH  80  81
ATOM     81  C   UNL A   1      31.398  26.586  23.412  1.00  0.00     0.309 C 
ATOM     82  O   UNL A   1      30.238  26.658  23.014  1.00  0.00    -0.252 OA
BRANCH  81  83
ATOM     83  C   UNL A   1      32.150  25.246  23.378  1.00  0.00     0.103 C 
ATOM     84  C   UNL A   1      31.336  23.961  23.633  1.00  0.00     0.037 C 
ATOM     85  C   UNL A   1      33.518  25.299  24.065  1.00  0.00     0.037 C 
ATOM     86  C   UNL A   1      31.794  23.020  24.768  1.00  0.00     0.120 C 
ATOM     87  C   UNL A   1      33.508  24.583  25.399  1.00  0.00     0.120 C 
ATOM     88  N   UNL A   1      33.184  23.203  25.176  1.00  0.00    -0.343 N 
ATOM     89  C   UNL A   1      34.043  22.127  25.364  1.00  0.00     0.224 C 
ATOM     90  O   UNL A   1      33.717  20.985  25.027  1.00  0.00    -0.275 OA
BRANCH  89  91
ATOM     91  C   UNL A   1      35.367  22.317  26.129  1.00  0.00     0.122 C 
BRANCH  91  92
ATOM     92  C   UNL A   1      36.490  23.180  25.515  1.00  0.00     0.140 C 
BRANCH  92  93
ATOM     93  N   UNL A   1      37.859  22.796  25.870  1.00  0.00    -0.262 N 
ATOM     94  C   UNL A   1      38.742  23.554  26.604  1.00  0.00     0.253 C 
ATOM     95  C   UNL A   1      38.434  21.562  25.644  1.00  0.00     0.327 C 
ATOM     96  O   UNL A   1      38.513  24.564  27.250  1.00  0.00    -0.272 OA
ATOM     97  C   UNL A   1      40.107  23.023  26.240  1.00  0.00     0.181 C 
ATOM     98  N   UNL A   1      39.772  21.654  26.016  1.00  0.00    -0.308 N 
ATOM     99  O   UNL A   1      37.884  20.563  25.205  1.00  0.00    -0.248 OA
ATOM    100  C   UNL A   1      41.288  23.294  27.123  1.00  0.00     0.071 C 
ATOM    101  C   UNL A   1      40.811  20.643  25.890  1.00  0.00     0.158 C 
ATOM    102  C   UNL A   1      42.445  22.505  26.556  1.00  0.00    -0.040 A 
ATOM    103  C   UNL A   1      42.218  21.204  26.054  1.00  0.00    -0.025 A 
ATOM    104  C   UNL A   1      43.733  23.055  26.515  1.00  0.00     0.004 A 
ATOM    105  C   UNL A   1      43.322  20.436  25.657  1.00  0.00     0.006 A 
ATOM    106  C   UNL A   1      44.810  22.295  26.070  1.00  0.00     0.000 A 
ATOM    107  C   UNL A   1      44.611  20.976  25.676  1.00  0.00     0.000 A 
ENDBRANCH  92  93
ENDBRANCH  91  92
ENDBRANCH  89  91
ENDBRANCH  81  83
ENDBRANCH  80  81
ENDBRANCH  79  80
ENDBRANCH  78  79
ENDBRANCH  77  78
ENDBRANCH  76  77
ENDBRANCH   1  76
TORSDOF 23
ENDMDL
