MODEL 1
REMARK VINA RESULT:      -9.7      0.000      0.000
REMARK SMILES C=CCN(CC(=O)OCCOCCOCCOCCOC(=O)c1ccc(-c2c3nc(c(-c4c(F)c(F)c(F)c(F)c4F)c4ccc([nH]4)c(-c4c(F)c(F)c(F)c(F)c4F)c4nc(c(-c5c(F)c(F)c(F)c(F)c5F)c5ccc2[nH]5)C=C4)C=C3)cc1)c1nccn(C)c1=O
REMARK SMILES IDX 13 1 12 2 11 3 10 4 9 5 8 6 6 7 7 8 5 9 4 10 3 11 2 12 1 13
REMARK SMILES IDX 86 14 87 15 92 16 88 17 90 18 93 19 89 20 91 21 14 22 15 23
REMARK SMILES IDX 16 24 17 25 18 26 19 27 20 28 21 29 22 30 23 31 24 32 85 33
REMARK SMILES IDX 25 34 84 35 26 36 27 37 28 38 78 39 29 40 83 41 77 42 79 43
REMARK SMILES IDX 30 44 82 45 76 46 75 47 31 49 63 50 43 51 62 52 44 53 47 54
REMARK SMILES IDX 61 55 80 56 45 57 46 58 60 60 81 61 48 62 32 63 33 64 41 65
REMARK SMILES IDX 34 66 35 67 39 68 42 69 36 70 37 71 40 72 38 73 64 74 65 75
REMARK SMILES IDX 73 76 66 77 67 78 71 79 74 80 68 81 69 82 72 83 70 84 49 85
REMARK SMILES IDX 50 86 58 87 51 88 52 89 56 90 59 91 53 92 54 93 57 94 55 95
REMARK H PARENT 79 48 47 59
REMARK Flexibility Score: inf
ROOT
ATOM      1  C   UNL A   1      38.242  19.852  25.041  1.00  0.00     0.188 C 
ENDROOT
BRANCH   1   2
ATOM      2  C   UNL A   1      38.238  21.389  25.059  1.00  0.00     0.188 C 
BRANCH   2   3
ATOM      3  O   UNL A   1      37.553  22.034  26.135  1.00  0.00    -0.376 OA
BRANCH   3   4
ATOM      4  C   UNL A   1      37.044  23.342  25.891  1.00  0.00     0.202 C 
BRANCH   4   5
ATOM      5  C   UNL A   1      35.568  23.427  25.479  1.00  0.00     0.261 C 
BRANCH   5   6
ATOM      6  O   UNL A   1      35.219  24.735  24.983  1.00  0.00    -0.462 OA
BRANCH   6   7
ATOM      7  C   UNL A   1      34.146  24.805  24.159  1.00  0.00     0.325 C 
ATOM      8  O   UNL A   1      33.575  25.857  23.885  1.00  0.00    -0.250 OA
BRANCH   7   9
ATOM      9  C   UNL A   1      33.741  23.462  23.530  1.00  0.00     0.241 C 
BRANCH   9  10
ATOM     10  N   UNL A   1      32.651  22.699  24.182  1.00  0.00    -0.337 N 
BRANCH  10  11
ATOM     11  C   UNL A   1      31.428  23.464  24.454  1.00  0.00     0.146 C 
BRANCH  11  12
ATOM     12  C   UNL A   1      31.137  23.494  25.930  1.00  0.00    -0.014 C 
ATOM     13  C   UNL A   1      32.055  23.764  26.871  1.00  0.00     0.006 C 
ENDBRANCH  11  12
ENDBRANCH  10  11
BRANCH  10  14
ATOM     14  C   UNL A   1      32.626  21.291  24.288  1.00  0.00     0.196 A 
ATOM     15  N   UNL A   1      33.039  20.723  25.399  1.00  0.00    -0.233 NA
ATOM     16  C   UNL A   1      32.189  20.371  23.082  1.00  0.00     0.293 A 
ATOM     17  C   UNL A   1      33.016  19.364  25.514  1.00  0.00     0.131 A 
ATOM     18  N   UNL A   1      32.386  19.002  23.280  1.00  0.00    -0.314 N 
ATOM     19  O   UNL A   1      31.777  20.859  22.039  1.00  0.00    -0.265 OA
ATOM     20  C   UNL A   1      32.733  18.521  24.519  1.00  0.00     0.109 A 
ATOM     21  C   UNL A   1      32.305  18.081  22.158  1.00  0.00     0.153 C 
ENDBRANCH  10  14
ENDBRANCH   9  10
ENDBRANCH   7   9
ENDBRANCH   6   7
ENDBRANCH   5   6
ENDBRANCH   4   5
ENDBRANCH   3   4
ENDBRANCH   2   3
ENDBRANCH   1   2
BRANCH   1  22
ATOM     22  O   UNL A   1      39.465  19.318  25.519  1.00  0.00    -0.377 OA
BRANCH  22  23
ATOM     23  C   UNL A   1      40.388  20.204  26.122  1.00  0.00     0.188 C 
BRANCH  23  24
ATOM     24  C   UNL A   1      41.833  19.704  26.210  1.00  0.00     0.188 C 
BRANCH  24  25
ATOM     25  O   UNL A   1      42.867  20.659  26.463  1.00  0.00    -0.376 OA
BRANCH  25  26
ATOM     26  C   UNL A   1      43.715  21.084  25.399  1.00  0.00     0.202 C 
BRANCH  26  27
ATOM     27  C   UNL A   1      44.506  22.360  25.662  1.00  0.00     0.261 C 
BRANCH  27  28
ATOM     28  O   UNL A   1      43.804  23.438  25.039  1.00  0.00    -0.460 OA
BRANCH  28  29
ATOM     29  C   UNL A   1      44.392  24.643  25.215  1.00  0.00     0.338 C 
ATOM     30  O   UNL A   1      45.354  25.077  24.626  1.00  0.00    -0.246 OA
BRANCH  29  31
ATOM     31  C   UNL A   1      43.515  25.458  26.090  1.00  0.00     0.060 A 
ATOM     32  C   UNL A   1      43.996  26.716  26.469  1.00  0.00     0.016 A 
ATOM     33  C   UNL A   1      42.236  25.039  26.484  1.00  0.00     0.016 A 
ATOM     34  C   UNL A   1      43.238  27.525  27.303  1.00  0.00     0.010 A 
ATOM     35  C   UNL A   1      41.475  25.847  27.327  1.00  0.00     0.010 A 
ATOM     36  C   UNL A   1      42.005  27.064  27.779  1.00  0.00    -0.014 A 
BRANCH  36  37
ATOM     37  C   UNL A   1      41.437  27.740  28.960  1.00  0.00     0.031 A 
ATOM     38  C   UNL A   1      42.175  27.589  30.259  1.00  0.00     0.074 A 
ATOM     39  C   UNL A   1      40.360  28.532  28.848  1.00  0.00     0.049 A 
ATOM     40  N   UNL A   1      41.986  28.200  31.397  1.00  0.00    -0.248 NA
ATOM     41  C   UNL A   1      43.291  26.624  30.272  1.00  0.00     0.031 C 
ATOM     42  C   UNL A   1      39.584  28.740  27.628  1.00  0.00     0.029 A 
ATOM     43  N   UNL A   1      39.743  29.320  29.783  1.00  0.00    -0.354 N 
ATOM     44  C   UNL A   1      42.966  27.710  32.250  1.00  0.00     0.074 A 
ATOM     45  C   UNL A   1      43.725  26.723  31.518  1.00  0.00     0.031 C 
ATOM     46  C   UNL A   1      38.587  29.604  27.890  1.00  0.00     0.029 A 
ATOM     47  C   UNL A   1      38.660  30.004  29.294  1.00  0.00     0.049 A 
ATOM     48  H   UNL A   1      40.048  29.387  30.717  1.00  0.00     0.167 HD
ATOM     49  C   UNL A   1      43.218  28.067  33.529  1.00  0.00     0.037 A 
ATOM     50  C   UNL A   1      37.834  30.861  29.922  1.00  0.00     0.037 A 
ATOM     51  C   UNL A   1      42.446  29.041  34.248  1.00  0.00     0.049 A 
ATOM     52  C   UNL A   1      38.118  31.218  31.358  1.00  0.00     0.074 A 
ATOM     53  C   UNL A   1      42.619  29.500  35.540  1.00  0.00     0.029 A 
ATOM     54  N   UNL A   1      41.340  29.698  33.729  1.00  0.00    -0.354 N 
ATOM     55  N   UNL A   1      39.091  30.807  32.139  1.00  0.00    -0.248 NA
ATOM     56  C   UNL A   1      37.202  32.173  31.997  1.00  0.00     0.031 C 
ATOM     57  C   UNL A   1      41.586  30.401  35.820  1.00  0.00     0.029 A 
ATOM     58  C   UNL A   1      40.798  30.537  34.686  1.00  0.00     0.049 A 
ATOM     59  H   UNL A   1      40.991  29.583  32.816  1.00  0.00     0.167 HD
ATOM     60  C   UNL A   1      38.916  31.464  33.349  1.00  0.00     0.074 A 
ATOM     61  C   UNL A   1      37.757  32.320  33.191  1.00  0.00     0.031 C 
ATOM     62  C   UNL A   1      39.640  31.370  34.492  1.00  0.00     0.037 A 
BRANCH  49  63
ATOM     63  C   UNL A   1      44.351  27.380  34.227  1.00  0.00     0.064 A 
ATOM     64  C   UNL A   1      44.229  26.070  34.716  1.00  0.00     0.173 A 
ATOM     65  C   UNL A   1      45.579  28.036  34.398  1.00  0.00     0.173 A 
ATOM     66  F   UNL A   1      43.067  25.412  34.599  1.00  0.00    -0.203 F 
ATOM     67  C   UNL A   1      45.293  25.448  35.365  1.00  0.00     0.198 A 
ATOM     68  C   UNL A   1      46.646  27.402  35.027  1.00  0.00     0.198 A 
ATOM     69  F   UNL A   1      45.741  29.292  33.957  1.00  0.00    -0.203 F 
ATOM     70  F   UNL A   1      45.143  24.211  35.859  1.00  0.00    -0.200 F 
ATOM     71  C   UNL A   1      46.501  26.111  35.513  1.00  0.00     0.200 A 
ATOM     72  F   UNL A   1      47.814  28.043  35.169  1.00  0.00    -0.200 F 
ATOM     73  F   UNL A   1      47.525  25.509  36.135  1.00  0.00    -0.200 F 
ENDBRANCH  49  63
BRANCH  50  74
ATOM     74  C   UNL A   1      36.671  31.440  29.201  1.00  0.00     0.064 A 
ATOM     75  C   UNL A   1      36.637  32.793  28.835  1.00  0.00     0.173 A 
ATOM     76  C   UNL A   1      35.557  30.650  28.879  1.00  0.00     0.173 A 
ATOM     77  F   UNL A   1      37.668  33.594  29.139  1.00  0.00    -0.203 F 
ATOM     78  C   UNL A   1      35.523  33.339  28.199  1.00  0.00     0.198 A 
ATOM     79  C   UNL A   1      34.455  31.190  28.220  1.00  0.00     0.198 A 
ATOM     80  F   UNL A   1      35.539  29.349  29.205  1.00  0.00    -0.203 F 
ATOM     81  F   UNL A   1      35.495  34.646  27.907  1.00  0.00    -0.200 F 
ATOM     82  C   UNL A   1      34.435  32.536  27.888  1.00  0.00     0.200 A 
ATOM     83  F   UNL A   1      33.412  30.408  27.912  1.00  0.00    -0.200 F 
ATOM     84  F   UNL A   1      33.364  33.062  27.279  1.00  0.00    -0.200 F 
ENDBRANCH  50  74
BRANCH  62  85
ATOM     85  C   UNL A   1      39.199  32.216  35.647  1.00  0.00     0.064 A 
ATOM     86  C   UNL A   1      38.342  31.711  36.636  1.00  0.00     0.173 A 
ATOM     87  C   UNL A   1      39.664  33.532  35.785  1.00  0.00     0.173 A 
ATOM     88  F   UNL A   1      37.863  30.462  36.540  1.00  0.00    -0.203 F 
ATOM     89  C   UNL A   1      37.942  32.505  37.707  1.00  0.00     0.198 A 
ATOM     90  C   UNL A   1      39.285  34.313  36.872  1.00  0.00     0.198 A 
ATOM     91  F   UNL A   1      40.494  34.056  34.869  1.00  0.00    -0.203 F 
ATOM     92  F   UNL A   1      37.085  32.019  38.615  1.00  0.00    -0.200 F 
ATOM     93  C   UNL A   1      38.420  33.803  37.827  1.00  0.00     0.200 A 
ATOM     94  F   UNL A   1      39.756  35.562  36.995  1.00  0.00    -0.200 F 
ATOM     95  F   UNL A   1      38.036  34.563  38.861  1.00  0.00    -0.200 F 
ENDBRANCH  62  85
ENDBRANCH  36  37
ENDBRANCH  29  31
ENDBRANCH  28  29
ENDBRANCH  27  28
ENDBRANCH  26  27
ENDBRANCH  25  26
ENDBRANCH  24  25
ENDBRANCH  23  24
ENDBRANCH  22  23
ENDBRANCH   1  22
TORSDOF 24
ENDMDL
MODEL 2
REMARK VINA RESULT:      -9.6      4.415      8.681
REMARK SMILES C=CCN(CC(=O)OCCOCCOCCOCCOC(=O)c1ccc(-c2c3nc(c(-c4c(F)c(F)c(F)c(F)c4F)c4ccc([nH]4)c(-c4c(F)c(F)c(F)c(F)c4F)c4nc(c(-c5c(F)c(F)c(F)c(F)c5F)c5ccc2[nH]5)C=C4)C=C3)cc1)c1nccn(C)c1=O
REMARK SMILES IDX 13 1 12 2 11 3 10 4 9 5 8 6 6 7 7 8 5 9 4 10 3 11 2 12 1 13
REMARK SMILES IDX 86 14 87 15 92 16 88 17 90 18 93 19 89 20 91 21 14 22 15 23
REMARK SMILES IDX 16 24 17 25 18 26 19 27 20 28 21 29 22 30 23 31 24 32 85 33
REMARK SMILES IDX 25 34 84 35 26 36 27 37 28 38 78 39 29 40 83 41 77 42 79 43
REMARK SMILES IDX 30 44 82 45 76 46 75 47 31 49 63 50 43 51 62 52 44 53 47 54
REMARK SMILES IDX 61 55 80 56 45 57 46 58 60 60 81 61 48 62 32 63 33 64 41 65
REMARK SMILES IDX 34 66 35 67 39 68 42 69 36 70 37 71 40 72 38 73 64 74 65 75
REMARK SMILES IDX 73 76 66 77 67 78 71 79 74 80 68 81 69 82 72 83 70 84 49 85
REMARK SMILES IDX 50 86 58 87 51 88 52 89 56 90 59 91 53 92 54 93 57 94 55 95
REMARK H PARENT 79 48 47 59
REMARK Flexibility Score: inf
ROOT
ATOM      1  C   UNL A   1      33.278  26.323  24.725  1.00  0.00     0.188 C 
ENDROOT
BRANCH   1   2
ATOM      2  C   UNL A   1      33.044  26.596  26.219  1.00  0.00     0.188 C 
BRANCH   2   3
ATOM      3  O   UNL A   1      31.808  26.154  26.785  1.00  0.00    -0.376 OA
BRANCH   3   4
ATOM      4  C   UNL A   1      30.878  25.524  25.907  1.00  0.00     0.202 C 
BRANCH   4   5
ATOM      5  C   UNL A   1      30.281  24.197  26.395  1.00  0.00     0.261 C 
BRANCH   5   6
ATOM      6  O   UNL A   1      31.171  23.501  27.292  1.00  0.00    -0.462 OA
BRANCH   6   7
ATOM      7  C   UNL A   1      31.974  22.561  26.740  1.00  0.00     0.325 C 
ATOM      8  O   UNL A   1      33.089  22.288  27.176  1.00  0.00    -0.250 OA
BRANCH   7   9
ATOM      9  C   UNL A   1      31.346  21.803  25.560  1.00  0.00     0.241 C 
BRANCH   9  10
ATOM     10  N   UNL A   1      32.247  21.360  24.469  1.00  0.00    -0.337 N 
BRANCH  10  11
ATOM     11  C   UNL A   1      33.165  22.386  23.962  1.00  0.00     0.146 C 
BRANCH  11  12
ATOM     12  C   UNL A   1      32.550  23.124  22.803  1.00  0.00    -0.014 C 
ATOM     13  C   UNL A   1      33.187  23.373  21.648  1.00  0.00     0.006 C 
ENDBRANCH  11  12
ENDBRANCH  10  11
BRANCH  10  14
ATOM     14  C   UNL A   1      32.451  20.009  24.113  1.00  0.00     0.196 A 
ATOM     15  N   UNL A   1      32.154  19.614  22.894  1.00  0.00    -0.233 NA
ATOM     16  C   UNL A   1      32.954  18.937  25.157  1.00  0.00     0.293 A 
ATOM     17  C   UNL A   1      32.351  18.313  22.538  1.00  0.00     0.131 A 
ATOM     18  N   UNL A   1      32.938  17.617  24.703  1.00  0.00    -0.314 N 
ATOM     19  O   UNL A   1      33.263  19.267  26.294  1.00  0.00    -0.265 OA
ATOM     20  C   UNL A   1      32.700  17.338  23.380  1.00  0.00     0.109 A 
ATOM     21  C   UNL A   1      33.091  16.518  25.643  1.00  0.00     0.153 C 
ENDBRANCH  10  14
ENDBRANCH   9  10
ENDBRANCH   7   9
ENDBRANCH   6   7
ENDBRANCH   5   6
ENDBRANCH   4   5
ENDBRANCH   3   4
ENDBRANCH   2   3
ENDBRANCH   1   2
BRANCH   1  22
ATOM     22  O   UNL A   1      34.498  25.638  24.494  1.00  0.00    -0.377 OA
BRANCH  22  23
ATOM     23  C   UNL A   1      34.966  24.757  25.497  1.00  0.00     0.188 C 
BRANCH  23  24
ATOM     24  C   UNL A   1      36.103  23.819  25.081  1.00  0.00     0.188 C 
BRANCH  24  25
ATOM     25  O   UNL A   1      36.230  22.564  25.758  1.00  0.00    -0.376 OA
BRANCH  25  26
ATOM     26  C   UNL A   1      36.505  21.381  25.012  1.00  0.00     0.202 C 
BRANCH  26  27
ATOM     27  C   UNL A   1      37.954  20.912  25.041  1.00  0.00     0.261 C 
BRANCH  27  28
ATOM     28  O   UNL A   1      38.431  21.066  26.381  1.00  0.00    -0.460 OA
BRANCH  28  29
ATOM     29  C   UNL A   1      39.777  21.023  26.487  1.00  0.00     0.338 C 
ATOM     30  O   UNL A   1      40.511  20.144  26.097  1.00  0.00    -0.246 OA
BRANCH  29  31
ATOM     31  C   UNL A   1      40.245  22.352  26.949  1.00  0.00     0.060 A 
ATOM     32  C   UNL A   1      39.637  23.471  26.368  1.00  0.00     0.016 A 
ATOM     33  C   UNL A   1      41.204  22.510  27.959  1.00  0.00     0.016 A 
ATOM     34  C   UNL A   1      40.038  24.746  26.737  1.00  0.00     0.010 A 
ATOM     35  C   UNL A   1      41.614  23.790  28.328  1.00  0.00     0.010 A 
ATOM     36  C   UNL A   1      41.068  24.903  27.672  1.00  0.00    -0.014 A 
BRANCH  36  37
ATOM     37  C   UNL A   1      41.742  26.213  27.728  1.00  0.00     0.031 A 
ATOM     38  C   UNL A   1      41.031  27.320  28.453  1.00  0.00     0.074 A 
ATOM     39  C   UNL A   1      42.979  26.374  27.234  1.00  0.00     0.049 A 
ATOM     40  N   UNL A   1      41.462  28.507  28.785  1.00  0.00    -0.248 NA
ATOM     41  C   UNL A   1      39.644  27.046  28.873  1.00  0.00     0.031 C 
ATOM     42  C   UNL A   1      43.746  25.355  26.521  1.00  0.00     0.029 A 
ATOM     43  N   UNL A   1      43.811  27.461  27.273  1.00  0.00    -0.354 N 
ATOM     44  C   UNL A   1      40.413  29.108  29.465  1.00  0.00     0.074 A 
ATOM     45  C   UNL A   1      39.307  28.178  29.469  1.00  0.00     0.031 C 
ATOM     46  C   UNL A   1      44.942  25.869  26.185  1.00  0.00     0.029 A 
ATOM     47  C   UNL A   1      45.020  27.249  26.662  1.00  0.00     0.049 A 
ATOM     48  H   UNL A   1      43.563  28.314  27.699  1.00  0.00     0.167 HD
ATOM     49  C   UNL A   1      40.382  30.326  30.051  1.00  0.00     0.037 A 
ATOM     50  C   UNL A   1      46.065  28.083  26.519  1.00  0.00     0.037 A 
ATOM     51  C   UNL A   1      41.485  31.246  30.029  1.00  0.00     0.049 A 
ATOM     52  C   UNL A   1      45.994  29.448  27.155  1.00  0.00     0.074 A 
ATOM     53  C   UNL A   1      41.579  32.499  30.604  1.00  0.00     0.029 A 
ATOM     54  N   UNL A   1      42.687  31.006  29.379  1.00  0.00    -0.354 N 
ATOM     55  N   UNL A   1      45.025  29.984  27.862  1.00  0.00    -0.248 NA
ATOM     56  C   UNL A   1      47.167  30.318  26.990  1.00  0.00     0.031 C 
ATOM     57  C   UNL A   1      42.823  33.038  30.261  1.00  0.00     0.029 A 
ATOM     58  C   UNL A   1      43.520  32.102  29.512  1.00  0.00     0.049 A 
ATOM     59  H   UNL A   1      42.913  30.180  28.895  1.00  0.00     0.167 HD
ATOM     60  C   UNL A   1      45.477  31.241  28.240  1.00  0.00     0.074 A 
ATOM     61  C   UNL A   1      46.817  31.377  27.704  1.00  0.00     0.031 C 
ATOM     62  C   UNL A   1      44.846  32.202  28.959  1.00  0.00     0.037 A 
BRANCH  49  63
ATOM     63  C   UNL A   1      39.112  30.732  30.733  1.00  0.00     0.064 A 
ATOM     64  C   UNL A   1      38.927  30.552  32.113  1.00  0.00     0.173 A 
ATOM     65  C   UNL A   1      38.072  31.321  30.000  1.00  0.00     0.173 A 
ATOM     66  F   UNL A   1      39.883  29.970  32.851  1.00  0.00    -0.203 F 
ATOM     67  C   UNL A   1      37.738  30.933  32.730  1.00  0.00     0.198 A 
ATOM     68  C   UNL A   1      36.894  31.720  30.625  1.00  0.00     0.198 A 
ATOM     69  F   UNL A   1      38.197  31.504  28.678  1.00  0.00    -0.203 F 
ATOM     70  F   UNL A   1      37.567  30.716  34.042  1.00  0.00    -0.200 F 
ATOM     71  C   UNL A   1      36.727  31.523  31.988  1.00  0.00     0.200 A 
ATOM     72  F   UNL A   1      35.918  32.292  29.907  1.00  0.00    -0.200 F 
ATOM     73  F   UNL A   1      35.585  31.893  32.584  1.00  0.00    -0.200 F 
ENDBRANCH  49  63
BRANCH  50  74
ATOM     74  C   UNL A   1      47.263  27.654  25.753  1.00  0.00     0.064 A 
ATOM     75  C   UNL A   1      48.412  27.174  26.397  1.00  0.00     0.173 A 
ATOM     76  C   UNL A   1      47.288  27.734  24.352  1.00  0.00     0.173 A 
ATOM     77  F   UNL A   1      48.445  27.098  27.735  1.00  0.00    -0.203 F 
ATOM     78  C   UNL A   1      49.548  26.816  25.672  1.00  0.00     0.198 A 
ATOM     79  C   UNL A   1      48.415  27.351  23.627  1.00  0.00     0.198 A 
ATOM     80  F   UNL A   1      46.215  28.186  23.685  1.00  0.00    -0.203 F 
ATOM     81  F   UNL A   1      50.650  26.409  26.317  1.00  0.00    -0.200 F 
ATOM     82  C   UNL A   1      49.546  26.901  24.288  1.00  0.00     0.200 A 
ATOM     83  F   UNL A   1      48.404  27.425  22.289  1.00  0.00    -0.200 F 
ATOM     84  F   UNL A   1      50.640  26.559  23.592  1.00  0.00    -0.200 F 
ENDBRANCH  50  74
BRANCH  62  85
ATOM     85  C   UNL A   1      45.603  33.471  29.208  1.00  0.00     0.064 A 
ATOM     86  C   UNL A   1      45.505  34.562  28.332  1.00  0.00     0.173 A 
ATOM     87  C   UNL A   1      46.404  33.611  30.351  1.00  0.00     0.173 A 
ATOM     88  F   UNL A   1      44.760  34.470  27.221  1.00  0.00    -0.203 F 
ATOM     89  C   UNL A   1      46.209  35.737  28.576  1.00  0.00     0.198 A 
ATOM     90  C   UNL A   1      47.083  34.798  30.607  1.00  0.00     0.198 A 
ATOM     91  F   UNL A   1      46.519  32.598  31.224  1.00  0.00    -0.203 F 
ATOM     92  F   UNL A   1      46.141  36.750  27.701  1.00  0.00    -0.200 F 
ATOM     93  C   UNL A   1      46.992  35.856  29.716  1.00  0.00     0.200 A 
ATOM     94  F   UNL A   1      47.828  34.917  31.714  1.00  0.00    -0.200 F 
ATOM     95  F   UNL A   1      47.665  36.990  29.950  1.00  0.00    -0.200 F 
ENDBRANCH  62  85
ENDBRANCH  36  37
ENDBRANCH  29  31
ENDBRANCH  28  29
ENDBRANCH  27  28
ENDBRANCH  26  27
ENDBRANCH  25  26
ENDBRANCH  24  25
ENDBRANCH  23  24
ENDBRANCH  22  23
ENDBRANCH   1  22
TORSDOF 24
ENDMDL
MODEL 3
REMARK VINA RESULT:      -9.0      1.775      3.364
REMARK SMILES C=CCN(CC(=O)OCCOCCOCCOCCOC(=O)c1ccc(-c2c3nc(c(-c4c(F)c(F)c(F)c(F)c4F)c4ccc([nH]4)c(-c4c(F)c(F)c(F)c(F)c4F)c4nc(c(-c5c(F)c(F)c(F)c(F)c5F)c5ccc2[nH]5)C=C4)C=C3)cc1)c1nccn(C)c1=O
REMARK SMILES IDX 13 1 12 2 11 3 10 4 9 5 8 6 6 7 7 8 5 9 4 10 3 11 2 12 1 13
REMARK SMILES IDX 86 14 87 15 92 16 88 17 90 18 93 19 89 20 91 21 14 22 15 23
REMARK SMILES IDX 16 24 17 25 18 26 19 27 20 28 21 29 22 30 23 31 24 32 85 33
REMARK SMILES IDX 25 34 84 35 26 36 27 37 28 38 78 39 29 40 83 41 77 42 79 43
REMARK SMILES IDX 30 44 82 45 76 46 75 47 31 49 63 50 43 51 62 52 44 53 47 54
REMARK SMILES IDX 61 55 80 56 45 57 46 58 60 60 81 61 48 62 32 63 33 64 41 65
REMARK SMILES IDX 34 66 35 67 39 68 42 69 36 70 37 71 40 72 38 73 64 74 65 75
REMARK SMILES IDX 73 76 66 77 67 78 71 79 74 80 68 81 69 82 72 83 70 84 49 85
REMARK SMILES IDX 50 86 58 87 51 88 52 89 56 90 59 91 53 92 54 93 57 94 55 95
REMARK H PARENT 79 48 47 59
REMARK Flexibility Score: inf
ROOT
ATOM      1  C   UNL A   1      38.275  19.407  25.050  1.00  0.00     0.188 C 
ENDROOT
BRANCH   1   2
ATOM      2  C   UNL A   1      38.040  20.915  25.235  1.00  0.00     0.188 C 
BRANCH   2   3
ATOM      3  O   UNL A   1      36.850  21.317  25.918  1.00  0.00    -0.376 OA
BRANCH   3   4
ATOM      4  C   UNL A   1      36.488  22.693  25.839  1.00  0.00     0.202 C 
BRANCH   4   5
ATOM      5  C   UNL A   1      34.990  22.990  25.690  1.00  0.00     0.261 C 
BRANCH   5   6
ATOM      6  O   UNL A   1      34.746  24.109  24.813  1.00  0.00    -0.462 OA
BRANCH   6   7
ATOM      7  C   UNL A   1      33.850  23.913  23.817  1.00  0.00     0.325 C 
ATOM      8  O   UNL A   1      33.918  22.977  23.025  1.00  0.00    -0.250 OA
BRANCH   7   9
ATOM      9  C   UNL A   1      32.689  24.920  23.800  1.00  0.00     0.241 C 
BRANCH   9  10
ATOM     10  N   UNL A   1      32.933  26.241  23.173  1.00  0.00    -0.337 N 
BRANCH  10  11
ATOM     11  C   UNL A   1      33.556  26.196  21.845  1.00  0.00     0.146 C 
BRANCH  11  12
ATOM     12  C   UNL A   1      32.516  25.996  20.776  1.00  0.00    -0.014 C 
ATOM     13  C   UNL A   1      32.679  25.199  19.710  1.00  0.00     0.006 C 
ENDBRANCH  11  12
ENDBRANCH  10  11
BRANCH  10  14
ATOM     14  C   UNL A   1      32.371  27.451  23.635  1.00  0.00     0.196 A 
ATOM     15  N   UNL A   1      32.964  28.103  24.610  1.00  0.00    -0.233 NA
ATOM     16  C   UNL A   1      31.007  28.008  23.069  1.00  0.00     0.293 A 
ATOM     17  C   UNL A   1      32.432  29.275  25.062  1.00  0.00     0.131 A 
ATOM     18  N   UNL A   1      30.493  29.115  23.746  1.00  0.00    -0.314 N 
ATOM     19  O   UNL A   1      30.434  27.443  22.147  1.00  0.00    -0.265 OA
ATOM     20  C   UNL A   1      31.250  29.769  24.688  1.00  0.00     0.109 A 
ATOM     21  C   UNL A   1      29.121  29.539  23.521  1.00  0.00     0.153 C 
ENDBRANCH  10  14
ENDBRANCH   9  10
ENDBRANCH   7   9
ENDBRANCH   6   7
ENDBRANCH   5   6
ENDBRANCH   4   5
ENDBRANCH   3   4
ENDBRANCH   2   3
ENDBRANCH   1   2
BRANCH   1  22
ATOM     22  O   UNL A   1      39.524  18.995  25.580  1.00  0.00    -0.377 OA
BRANCH  22  23
ATOM     23  C   UNL A   1      40.408  19.993  26.052  1.00  0.00     0.188 C 
BRANCH  23  24
ATOM     24  C   UNL A   1      41.820  19.518  26.408  1.00  0.00     0.188 C 
BRANCH  24  25
ATOM     25  O   UNL A   1      42.838  20.505  26.606  1.00  0.00    -0.376 OA
BRANCH  25  26
ATOM     26  C   UNL A   1      43.630  20.938  25.502  1.00  0.00     0.202 C 
BRANCH  26  27
ATOM     27  C   UNL A   1      44.310  22.290  25.676  1.00  0.00     0.261 C 
BRANCH  27  28
ATOM     28  O   UNL A   1      43.427  23.287  25.156  1.00  0.00    -0.460 OA
BRANCH  28  29
ATOM     29  C   UNL A   1      43.958  24.530  25.145  1.00  0.00     0.338 C 
ATOM     30  O   UNL A   1      44.815  24.949  24.402  1.00  0.00    -0.246 OA
BRANCH  29  31
ATOM     31  C   UNL A   1      43.143  25.386  26.041  1.00  0.00     0.060 A 
ATOM     32  C   UNL A   1      43.612  26.684  26.271  1.00  0.00     0.016 A 
ATOM     33  C   UNL A   1      41.928  24.961  26.597  1.00  0.00     0.016 A 
ATOM     34  C   UNL A   1      42.912  27.533  27.116  1.00  0.00     0.010 A 
ATOM     35  C   UNL A   1      41.225  25.810  27.450  1.00  0.00     0.010 A 
ATOM     36  C   UNL A   1      41.753  27.074  27.751  1.00  0.00    -0.014 A 
BRANCH  36  37
ATOM     37  C   UNL A   1      41.281  27.824  28.930  1.00  0.00     0.031 A 
ATOM     38  C   UNL A   1      42.093  27.707  30.188  1.00  0.00     0.074 A 
ATOM     39  C   UNL A   1      40.226  28.649  28.845  1.00  0.00     0.049 A 
ATOM     40  N   UNL A   1      41.995  28.377  31.305  1.00  0.00    -0.248 NA
ATOM     41  C   UNL A   1      43.174  26.704  30.181  1.00  0.00     0.031 C 
ATOM     42  C   UNL A   1      39.384  28.829  27.665  1.00  0.00     0.029 A 
ATOM     43  N   UNL A   1      39.695  29.502  29.776  1.00  0.00    -0.354 N 
ATOM     44  C   UNL A   1      43.009  27.892  32.119  1.00  0.00     0.074 A 
ATOM     45  C   UNL A   1      43.688  26.845  31.392  1.00  0.00     0.031 C 
ATOM     46  C   UNL A   1      38.435  29.739  27.944  1.00  0.00     0.029 A 
ATOM     47  C   UNL A   1      38.608  30.201  29.321  1.00  0.00     0.049 A 
ATOM     48  H   UNL A   1      40.060  29.601  30.685  1.00  0.00     0.167 HD
ATOM     49  C   UNL A   1      43.351  28.298  33.362  1.00  0.00     0.037 A 
ATOM     50  C   UNL A   1      37.851  31.116  29.955  1.00  0.00     0.037 A 
ATOM     51  C   UNL A   1      42.659  29.332  34.079  1.00  0.00     0.049 A 
ATOM     52  C   UNL A   1      38.236  31.529  31.352  1.00  0.00     0.074 A 
ATOM     53  C   UNL A   1      42.926  29.843  35.334  1.00  0.00     0.029 A 
ATOM     54  N   UNL A   1      41.545  30.003  33.595  1.00  0.00    -0.354 N 
ATOM     55  N   UNL A   1      39.241  31.119  32.092  1.00  0.00    -0.248 NA
ATOM     56  C   UNL A   1      37.394  32.545  31.998  1.00  0.00     0.031 C 
ATOM     57  C   UNL A   1      41.943  30.793  35.631  1.00  0.00     0.029 A 
ATOM     58  C   UNL A   1      41.092  30.905  34.542  1.00  0.00     0.049 A 
ATOM     59  H   UNL A   1      41.137  29.859  32.712  1.00  0.00     0.167 HD
ATOM     60  C   UNL A   1      39.163  31.837  33.277  1.00  0.00     0.074 A 
ATOM     61  C   UNL A   1      38.026  32.726  33.148  1.00  0.00     0.031 C 
ATOM     62  C   UNL A   1      39.953  31.770  34.377  1.00  0.00     0.037 A 
BRANCH  49  63
ATOM     63  C   UNL A   1      44.502  27.603  34.023  1.00  0.00     0.064 A 
ATOM     64  C   UNL A   1      45.787  28.167  34.046  1.00  0.00     0.173 A 
ATOM     65  C   UNL A   1      44.314  26.365  34.652  1.00  0.00     0.173 A 
ATOM     66  F   UNL A   1      46.022  29.337  33.435  1.00  0.00    -0.203 F 
ATOM     67  C   UNL A   1      46.847  27.506  34.663  1.00  0.00     0.198 A 
ATOM     68  C   UNL A   1      45.371  25.718  35.287  1.00  0.00     0.198 A 
ATOM     69  F   UNL A   1      43.108  25.781  34.648  1.00  0.00    -0.203 F 
ATOM     70  F   UNL A   1      48.075  28.043  34.639  1.00  0.00    -0.200 F 
ATOM     71  C   UNL A   1      46.636  26.287  35.288  1.00  0.00     0.200 A 
ATOM     72  F   UNL A   1      45.166  24.540  35.893  1.00  0.00    -0.200 F 
ATOM     73  F   UNL A   1      47.656  25.653  35.885  1.00  0.00    -0.200 F 
ENDBRANCH  49  63
BRANCH  50  74
ATOM     74  C   UNL A   1      36.667  31.704  29.277  1.00  0.00     0.064 A 
ATOM     75  C   UNL A   1      35.552  30.923  28.945  1.00  0.00     0.173 A 
ATOM     76  C   UNL A   1      36.637  33.063  28.930  1.00  0.00     0.173 A 
ATOM     77  F   UNL A   1      35.540  29.614  29.237  1.00  0.00    -0.203 F 
ATOM     78  C   UNL A   1      34.463  31.472  28.269  1.00  0.00     0.198 A 
ATOM     79  C   UNL A   1      35.538  33.617  28.278  1.00  0.00     0.198 A 
ATOM     80  F   UNL A   1      37.678  33.855  29.226  1.00  0.00    -0.203 F 
ATOM     81  F   UNL A   1      33.432  30.691  27.918  1.00  0.00    -0.200 F 
ATOM     82  C   UNL A   1      34.456  32.819  27.940  1.00  0.00     0.200 A 
ATOM     83  F   UNL A   1      35.531  34.922  27.972  1.00  0.00    -0.200 F 
ATOM     84  F   UNL A   1      33.410  33.347  27.287  1.00  0.00    -0.200 F 
ENDBRANCH  50  74
BRANCH  62  85
ATOM     85  C   UNL A   1      39.612  32.685  35.515  1.00  0.00     0.064 A 
ATOM     86  C   UNL A   1      38.912  32.221  36.638  1.00  0.00     0.173 A 
ATOM     87  C   UNL A   1      40.020  34.026  35.497  1.00  0.00     0.173 A 
ATOM     88  F   UNL A   1      38.493  30.949  36.695  1.00  0.00    -0.203 F 
ATOM     89  C   UNL A   1      38.606  33.079  37.691  1.00  0.00     0.198 A 
ATOM     90  C   UNL A   1      39.737  34.873  36.564  1.00  0.00     0.198 A 
ATOM     91  F   UNL A   1      40.702  34.512  34.448  1.00  0.00    -0.203 F 
ATOM     92  F   UNL A   1      37.894  32.629  38.733  1.00  0.00    -0.200 F 
ATOM     93  C   UNL A   1      39.024  34.402  37.655  1.00  0.00     0.200 A 
ATOM     94  F   UNL A   1      40.152  36.147  36.534  1.00  0.00    -0.200 F 
ATOM     95  F   UNL A   1      38.731  35.224  38.671  1.00  0.00    -0.200 F 
ENDBRANCH  62  85
ENDBRANCH  36  37
ENDBRANCH  29  31
ENDBRANCH  28  29
ENDBRANCH  27  28
ENDBRANCH  26  27
ENDBRANCH  25  26
ENDBRANCH  24  25
ENDBRANCH  23  24
ENDBRANCH  22  23
ENDBRANCH   1  22
TORSDOF 24
ENDMDL
