MODEL 1
REMARK VINA RESULT:     -10.6      0.000      0.000
REMARK SMILES O=C(OCCOCCOCCOCCOC(=O)[C@H]1CCC[C@@H]1C[NH2+][C@@H]1CCOC2(CCC2)C1)c1ccc(-c2c3nc(c(-c4c(F)c(F)c(F)c(F)c4F)c4ccc([nH]4)c(-c4c(F)c(F)c(F)c(F)c4F)c4nc(c(-c5c(F)c(F)c(F)c(F)c5F)c5ccc2[nH]5)C=C4)C=C3)cc1
REMARK SMILES IDX 10 1 9 2 8 3 7 4 6 5 5 6 4 7 3 8 2 9 1 10 34 11 35 12 96 13
REMARK SMILES IDX 36 14 95 15 37 16 38 17 39 18 89 19 40 20 94 21 88 22 90 23
REMARK SMILES IDX 41 24 93 25 87 26 86 27 42 29 74 30 54 31 73 32 55 33 58 34
REMARK SMILES IDX 72 35 91 36 56 37 57 38 71 40 92 41 59 42 43 43 44 44 52 45
REMARK SMILES IDX 45 46 46 47 50 48 53 49 47 50 48 51 51 52 49 53 75 54 76 55
REMARK SMILES IDX 84 56 77 57 78 58 82 59 85 60 79 61 80 62 83 63 81 64 60 65
REMARK SMILES IDX 61 66 69 67 62 68 63 69 67 70 70 71 64 72 65 73 68 74 66 75
REMARK SMILES IDX 11 76 12 77 13 78 14 79 15 80 16 81 17 82 18 83 19 84 22 85
REMARK SMILES IDX 20 86 21 87 23 88 24 89 25 92 26 93 33 94 27 95 29 96 28 97
REMARK SMILES IDX 30 98 32 99 31 100
REMARK H PARENT 90 28 58 39 24 90 24 91
REMARK Flexibility Score: inf
ROOT
ATOM      1  C   UNL A   1      39.490  21.755  26.141  1.00  0.00     0.188 C 
ENDROOT
BRANCH   1   2
ATOM      2  O   UNL A   1      39.983  20.429  26.271  1.00  0.00    -0.377 OA
BRANCH   2   3
ATOM      3  C   UNL A   1      41.057  20.244  27.182  1.00  0.00     0.188 C 
BRANCH   3   4
ATOM      4  C   UNL A   1      42.166  19.335  26.664  1.00  0.00     0.188 C 
BRANCH   4   5
ATOM      5  O   UNL A   1      42.632  19.808  25.403  1.00  0.00    -0.376 OA
BRANCH   5   6
ATOM      6  C   UNL A   1      44.015  20.116  25.272  1.00  0.00     0.202 C 
BRANCH   6   7
ATOM      7  C   UNL A   1      44.452  21.514  25.691  1.00  0.00     0.261 C 
BRANCH   7   8
ATOM      8  O   UNL A   1      43.409  22.495  25.634  1.00  0.00    -0.460 OA
BRANCH   8   9
ATOM      9  C   UNL A   1      43.517  23.835  25.468  1.00  0.00     0.338 C 
ATOM     10  O   UNL A   1      44.146  24.254  24.498  1.00  0.00    -0.246 OA
BRANCH   9  11
ATOM     11  C   UNL A   1      42.913  24.843  26.386  1.00  0.00     0.060 A 
ATOM     12  C   UNL A   1      43.184  26.208  26.383  1.00  0.00     0.016 A 
ATOM     13  C   UNL A   1      41.925  24.386  27.269  1.00  0.00     0.016 A 
ATOM     14  C   UNL A   1      42.598  27.088  27.264  1.00  0.00     0.010 A 
ATOM     15  C   UNL A   1      41.289  25.267  28.146  1.00  0.00     0.010 A 
ATOM     16  C   UNL A   1      41.660  26.616  28.161  1.00  0.00    -0.014 A 
BRANCH  16  17
ATOM     17  C   UNL A   1      41.282  27.532  29.239  1.00  0.00     0.031 A 
ATOM     18  C   UNL A   1      42.186  27.584  30.426  1.00  0.00     0.074 A 
ATOM     19  C   UNL A   1      40.284  28.410  29.048  1.00  0.00     0.049 A 
ATOM     20  N   UNL A   1      42.034  28.207  31.558  1.00  0.00    -0.248 NA
ATOM     21  C   UNL A   1      43.452  26.832  30.316  1.00  0.00     0.031 C 
ATOM     22  C   UNL A   1      39.502  28.550  27.815  1.00  0.00     0.029 A 
ATOM     23  N   UNL A   1      39.783  29.377  29.872  1.00  0.00    -0.354 N 
ATOM     24  C   UNL A   1      43.148  27.872  32.315  1.00  0.00     0.074 A 
ATOM     25  C   UNL A   1      43.979  27.004  31.515  1.00  0.00     0.031 C 
ATOM     26  C   UNL A   1      38.621  29.552  27.967  1.00  0.00     0.029 A 
ATOM     27  C   UNL A   1      38.717  30.051  29.332  1.00  0.00     0.049 A 
ATOM     28  H   UNL A   1      40.150  29.570  30.764  1.00  0.00     0.167 HD
ATOM     29  C   UNL A   1      43.422  28.255  33.580  1.00  0.00     0.037 A 
ATOM     30  C   UNL A   1      37.881  30.924  29.919  1.00  0.00     0.037 A 
ATOM     31  C   UNL A   1      42.559  29.134  34.318  1.00  0.00     0.049 A 
ATOM     32  C   UNL A   1      38.136  31.242  31.369  1.00  0.00     0.074 A 
ATOM     33  C   UNL A   1      42.652  29.549  35.630  1.00  0.00     0.029 A 
ATOM     34  N   UNL A   1      41.426  29.738  33.778  1.00  0.00    -0.354 N 
ATOM     35  N   UNL A   1      39.118  30.836  32.143  1.00  0.00    -0.248 NA
ATOM     36  C   UNL A   1      37.163  32.110  32.036  1.00  0.00     0.031 C 
ATOM     37  C   UNL A   1      41.546  30.363  35.899  1.00  0.00     0.029 A 
ATOM     38  C   UNL A   1      40.799  30.509  34.737  1.00  0.00     0.049 A 
ATOM     39  H   UNL A   1      41.118  29.632  32.849  1.00  0.00     0.167 HD
ATOM     40  C   UNL A   1      38.895  31.413  33.382  1.00  0.00     0.074 A 
ATOM     41  C   UNL A   1      37.691  32.214  33.247  1.00  0.00     0.031 C 
ATOM     42  C   UNL A   1      39.606  31.295  34.532  1.00  0.00     0.037 A 
BRANCH  29  43
ATOM     43  C   UNL A   1      44.622  27.640  34.235  1.00  0.00     0.064 A 
ATOM     44  C   UNL A   1      45.891  28.237  34.194  1.00  0.00     0.173 A 
ATOM     45  C   UNL A   1      44.510  26.387  34.857  1.00  0.00     0.173 A 
ATOM     46  F   UNL A   1      46.065  29.415  33.574  1.00  0.00    -0.203 F 
ATOM     47  C   UNL A   1      47.007  27.588  34.722  1.00  0.00     0.198 A 
ATOM     48  C   UNL A   1      45.620  25.756  35.411  1.00  0.00     0.198 A 
ATOM     49  F   UNL A   1      43.324  25.761  34.908  1.00  0.00    -0.203 F 
ATOM     50  F   UNL A   1      48.221  28.144  34.606  1.00  0.00    -0.200 F 
ATOM     51  C   UNL A   1      46.870  26.351  35.333  1.00  0.00     0.200 A 
ATOM     52  F   UNL A   1      45.484  24.559  35.999  1.00  0.00    -0.200 F 
ATOM     53  F   UNL A   1      47.944  25.723  35.830  1.00  0.00    -0.200 F 
ENDBRANCH  29  43
BRANCH  30  54
ATOM     54  C   UNL A   1      36.713  31.472  29.179  1.00  0.00     0.064 A 
ATOM     55  C   UNL A   1      36.651  32.822  28.810  1.00  0.00     0.173 A 
ATOM     56  C   UNL A   1      35.621  30.658  28.832  1.00  0.00     0.173 A 
ATOM     57  F   UNL A   1      37.656  33.651  29.131  1.00  0.00    -0.203 F 
ATOM     58  C   UNL A   1      35.540  33.339  28.143  1.00  0.00     0.198 A 
ATOM     59  C   UNL A   1      34.527  31.167  28.134  1.00  0.00     0.198 A 
ATOM     60  F   UNL A   1      35.620  29.357  29.160  1.00  0.00    -0.203 F 
ATOM     61  F   UNL A   1      35.487  34.645  27.847  1.00  0.00    -0.200 F 
ATOM     62  C   UNL A   1      34.483  32.510  27.800  1.00  0.00     0.200 A 
ATOM     63  F   UNL A   1      33.517  30.355  27.792  1.00  0.00    -0.200 F 
ATOM     64  F   UNL A   1      33.417  33.008  27.157  1.00  0.00    -0.200 F 
ENDBRANCH  30  54
BRANCH  42  65
ATOM     65  C   UNL A   1      39.118  32.089  35.704  1.00  0.00     0.064 A 
ATOM     66  C   UNL A   1      38.328  31.510  36.706  1.00  0.00     0.173 A 
ATOM     67  C   UNL A   1      39.499  33.431  35.848  1.00  0.00     0.173 A 
ATOM     68  F   UNL A   1      37.928  30.234  36.600  1.00  0.00    -0.203 F 
ATOM     69  C   UNL A   1      37.914  32.259  37.803  1.00  0.00     0.198 A 
ATOM     70  C   UNL A   1      39.114  34.164  36.963  1.00  0.00     0.198 A 
ATOM     71  F   UNL A   1      40.262  34.022  34.916  1.00  0.00    -0.203 F 
ATOM     72  F   UNL A   1      37.118  31.704  38.727  1.00  0.00    -0.200 F 
ATOM     73  C   UNL A   1      38.316  33.580  37.935  1.00  0.00     0.200 A 
ATOM     74  F   UNL A   1      39.519  35.434  37.098  1.00  0.00    -0.200 F 
ATOM     75  F   UNL A   1      37.929  34.294  39.001  1.00  0.00    -0.200 F 
ENDBRANCH  42  65
ENDBRANCH  16  17
ENDBRANCH   9  11
ENDBRANCH   8   9
ENDBRANCH   7   8
ENDBRANCH   6   7
ENDBRANCH   5   6
ENDBRANCH   4   5
ENDBRANCH   3   4
ENDBRANCH   2   3
ENDBRANCH   1   2
BRANCH   1  76
ATOM     76  C   UNL A   1      38.192  22.006  25.333  1.00  0.00     0.188 C 
BRANCH  76  77
ATOM     77  O   UNL A   1      37.406  23.087  25.805  1.00  0.00    -0.376 OA
BRANCH  77  78
ATOM     78  C   UNL A   1      36.065  22.737  26.137  1.00  0.00     0.202 C 
BRANCH  78  79
ATOM     79  C   UNL A   1      35.597  21.349  25.666  1.00  0.00     0.261 C 
BRANCH  79  80
ATOM     80  O   UNL A   1      34.472  21.325  24.756  1.00  0.00    -0.463 OA
BRANCH  80  81
ATOM     81  C   UNL A   1      33.205  21.284  25.241  1.00  0.00     0.309 C 
ATOM     82  O   UNL A   1      32.859  20.580  26.184  1.00  0.00    -0.252 OA
BRANCH  81  83
ATOM     83  C   UNL A   1      32.303  22.293  24.496  1.00  0.00     0.108 C 
ATOM     84  C   UNL A   1      31.021  22.521  25.288  1.00  0.00     0.016 C 
ATOM     85  C   UNL A   1      32.890  23.724  24.386  1.00  0.00     0.058 C 
ATOM     86  C   UNL A   1      31.359  23.633  26.282  1.00  0.00     0.001 C 
ATOM     87  C   UNL A   1      32.645  24.295  25.786  1.00  0.00     0.010 C 
BRANCH  85  88
ATOM     88  C   UNL A   1      32.245  24.643  23.311  1.00  0.00     0.265 C 
BRANCH  88  89
ATOM     89  N   UNL A   1      31.637  25.856  23.858  1.00  0.00    -0.343 N 
ATOM     90  H   UNL A   1      31.631  25.781  24.875  1.00  0.00     0.346 HD
ATOM     91  H   UNL A   1      30.698  25.920  23.464  1.00  0.00     0.346 HD
BRANCH  89  92
ATOM     92  C   UNL A   1      32.344  27.103  23.488  1.00  0.00     0.187 C 
ATOM     93  C   UNL A   1      32.695  27.901  24.758  1.00  0.00     0.093 C 
ATOM     94  C   UNL A   1      31.607  28.033  22.500  1.00  0.00     0.100 C 
ATOM     95  C   UNL A   1      31.484  28.599  25.356  1.00  0.00     0.167 C 
ATOM     96  C   UNL A   1      30.427  28.746  23.159  1.00  0.00     0.074 C 
ATOM     97  O   UNL A   1      30.865  29.422  24.365  1.00  0.00    -0.375 OA
ATOM     98  C   UNL A   1      29.591  29.647  22.197  1.00  0.00     0.036 C 
ATOM     99  C   UNL A   1      29.153  27.889  23.310  1.00  0.00     0.036 C 
ATOM    100  C   UNL A   1      28.322  29.105  22.876  1.00  0.00     0.006 C 
ENDBRANCH  89  92
ENDBRANCH  88  89
ENDBRANCH  85  88
ENDBRANCH  81  83
ENDBRANCH  80  81
ENDBRANCH  79  80
ENDBRANCH  78  79
ENDBRANCH  77  78
ENDBRANCH  76  77
ENDBRANCH   1  76
TORSDOF 23
ENDMDL
MODEL 2
REMARK VINA RESULT:     -10.4      1.021      2.052
REMARK SMILES O=C(OCCOCCOCCOCCOC(=O)[C@H]1CCC[C@@H]1C[NH2+][C@@H]1CCOC2(CCC2)C1)c1ccc(-c2c3nc(c(-c4c(F)c(F)c(F)c(F)c4F)c4ccc([nH]4)c(-c4c(F)c(F)c(F)c(F)c4F)c4nc(c(-c5c(F)c(F)c(F)c(F)c5F)c5ccc2[nH]5)C=C4)C=C3)cc1
REMARK SMILES IDX 10 1 9 2 8 3 7 4 6 5 5 6 4 7 3 8 2 9 1 10 34 11 35 12 96 13
REMARK SMILES IDX 36 14 95 15 37 16 38 17 39 18 89 19 40 20 94 21 88 22 90 23
REMARK SMILES IDX 41 24 93 25 87 26 86 27 42 29 74 30 54 31 73 32 55 33 58 34
REMARK SMILES IDX 72 35 91 36 56 37 57 38 71 40 92 41 59 42 43 43 44 44 52 45
REMARK SMILES IDX 45 46 46 47 50 48 53 49 47 50 48 51 51 52 49 53 75 54 76 55
REMARK SMILES IDX 84 56 77 57 78 58 82 59 85 60 79 61 80 62 83 63 81 64 60 65
REMARK SMILES IDX 61 66 69 67 62 68 63 69 67 70 70 71 64 72 65 73 68 74 66 75
REMARK SMILES IDX 11 76 12 77 13 78 14 79 15 80 16 81 17 82 18 83 19 84 22 85
REMARK SMILES IDX 20 86 21 87 23 88 24 89 25 92 26 93 33 94 27 95 29 96 28 97
REMARK SMILES IDX 30 98 32 99 31 100
REMARK H PARENT 90 28 58 39 24 90 24 91
REMARK Flexibility Score: inf
ROOT
ATOM      1  C   UNL A   1      42.265  20.282  26.422  1.00  0.00     0.188 C 
ENDROOT
BRANCH   1   2
ATOM      2  O   UNL A   1      42.904  19.052  26.113  1.00  0.00    -0.377 OA
BRANCH   2   3
ATOM      3  C   UNL A   1      43.761  19.056  24.980  1.00  0.00     0.188 C 
BRANCH   3   4
ATOM      4  C   UNL A   1      45.245  18.966  25.319  1.00  0.00     0.188 C 
BRANCH   4   5
ATOM      5  O   UNL A   1      45.940  20.072  24.750  1.00  0.00    -0.376 OA
BRANCH   5   6
ATOM      6  C   UNL A   1      45.837  21.334  25.398  1.00  0.00     0.202 C 
BRANCH   6   7
ATOM      7  C   UNL A   1      45.400  22.515  24.541  1.00  0.00     0.261 C 
BRANCH   7   8
ATOM      8  O   UNL A   1      44.746  23.560  25.272  1.00  0.00    -0.460 OA
BRANCH   8   9
ATOM      9  C   UNL A   1      43.420  23.813  25.382  1.00  0.00     0.338 C 
ATOM     10  O   UNL A   1      42.643  23.169  24.679  1.00  0.00    -0.246 OA
BRANCH   9  11
ATOM     11  C   UNL A   1      42.835  24.822  26.312  1.00  0.00     0.060 A 
ATOM     12  C   UNL A   1      43.121  26.184  26.312  1.00  0.00     0.016 A 
ATOM     13  C   UNL A   1      41.852  24.370  27.203  1.00  0.00     0.016 A 
ATOM     14  C   UNL A   1      42.554  27.065  27.204  1.00  0.00     0.010 A 
ATOM     15  C   UNL A   1      41.234  25.254  28.090  1.00  0.00     0.010 A 
ATOM     16  C   UNL A   1      41.620  26.598  28.108  1.00  0.00    -0.014 A 
BRANCH  16  17
ATOM     17  C   UNL A   1      41.262  27.512  29.195  1.00  0.00     0.031 A 
ATOM     18  C   UNL A   1      42.195  27.570  30.359  1.00  0.00     0.074 A 
ATOM     19  C   UNL A   1      40.255  28.385  29.028  1.00  0.00     0.049 A 
ATOM     20  N   UNL A   1      42.067  28.193  31.495  1.00  0.00    -0.248 NA
ATOM     21  C   UNL A   1      43.462  26.826  30.219  1.00  0.00     0.031 C 
ATOM     22  C   UNL A   1      39.442  28.519  27.815  1.00  0.00     0.029 A 
ATOM     23  N   UNL A   1      39.768  29.348  29.864  1.00  0.00    -0.354 N 
ATOM     24  C   UNL A   1      43.201  27.866  32.224  1.00  0.00     0.074 A 
ATOM     25  C   UNL A   1      44.017  27.002  31.405  1.00  0.00     0.031 C 
ATOM     26  C   UNL A   1      38.559  29.515  27.987  1.00  0.00     0.029 A 
ATOM     27  C   UNL A   1      38.685  30.015  29.350  1.00  0.00     0.049 A 
ATOM     28  H   UNL A   1      40.155  29.544  30.747  1.00  0.00     0.167 HD
ATOM     29  C   UNL A   1      43.503  28.251  33.482  1.00  0.00     0.037 A 
ATOM     30  C   UNL A   1      37.858  30.883  29.957  1.00  0.00     0.037 A 
ATOM     31  C   UNL A   1      42.653  29.125  34.241  1.00  0.00     0.049 A 
ATOM     32  C   UNL A   1      38.146  31.203  31.400  1.00  0.00     0.074 A 
ATOM     33  C   UNL A   1      42.776  29.541  35.550  1.00  0.00     0.029 A 
ATOM     34  N   UNL A   1      41.504  29.721  33.728  1.00  0.00    -0.354 N 
ATOM     35  N   UNL A   1      39.149  30.805  32.149  1.00  0.00    -0.248 NA
ATOM     36  C   UNL A   1      37.184  32.066  32.090  1.00  0.00     0.031 C 
ATOM     37  C   UNL A   1      41.671  30.348  35.845  1.00  0.00     0.029 A 
ATOM     38  C   UNL A   1      40.895  30.489  34.702  1.00  0.00     0.049 A 
ATOM     39  H   UNL A   1      41.173  29.613  32.808  1.00  0.00     0.167 HD
ATOM     40  C   UNL A   1      38.953  31.380  33.394  1.00  0.00     0.074 A 
ATOM     41  C   UNL A   1      37.741  32.174  33.288  1.00  0.00     0.031 C 
ATOM     42  C   UNL A   1      39.692  31.267  34.526  1.00  0.00     0.037 A 
BRANCH  29  43
ATOM     43  C   UNL A   1      44.722  27.644  34.108  1.00  0.00     0.064 A 
ATOM     44  C   UNL A   1      45.990  28.240  34.021  1.00  0.00     0.173 A 
ATOM     45  C   UNL A   1      44.629  26.398  34.749  1.00  0.00     0.173 A 
ATOM     46  F   UNL A   1      46.144  29.410  33.382  1.00  0.00    -0.203 F 
ATOM     47  C   UNL A   1      47.121  27.597  34.524  1.00  0.00     0.198 A 
ATOM     48  C   UNL A   1      45.756  25.774  35.277  1.00  0.00     0.198 A 
ATOM     49  F   UNL A   1      43.445  25.774  34.844  1.00  0.00    -0.203 F 
ATOM     50  F   UNL A   1      48.330  28.151  34.363  1.00  0.00    -0.200 F 
ATOM     51  C   UNL A   1      47.003  26.368  35.153  1.00  0.00     0.200 A 
ATOM     52  F   UNL A   1      45.638  24.584  35.883  1.00  0.00    -0.200 F 
ATOM     53  F   UNL A   1      48.092  25.746  35.625  1.00  0.00    -0.200 F 
ENDBRANCH  29  43
BRANCH  30  54
ATOM     54  C   UNL A   1      36.669  31.424  29.245  1.00  0.00     0.064 A 
ATOM     55  C   UNL A   1      35.561  30.617  28.957  1.00  0.00     0.173 A 
ATOM     56  C   UNL A   1      36.618  32.764  28.823  1.00  0.00     0.173 A 
ATOM     57  F   UNL A   1      35.561  29.326  29.319  1.00  0.00    -0.203 F 
ATOM     58  C   UNL A   1      34.461  31.120  28.261  1.00  0.00     0.198 A 
ATOM     59  C   UNL A   1      35.505  33.275  28.159  1.00  0.00     0.198 A 
ATOM     60  F   UNL A   1      37.650  33.586  29.066  1.00  0.00    -0.203 F 
ATOM     61  F   UNL A   1      33.437  30.311  27.956  1.00  0.00    -0.200 F 
ATOM     62  C   UNL A   1      34.431  32.450  27.869  1.00  0.00     0.200 A 
ATOM     63  F   UNL A   1      35.477  34.566  27.797  1.00  0.00    -0.200 F 
ATOM     64  F   UNL A   1      33.373  32.932  27.203  1.00  0.00    -0.200 F 
ENDBRANCH  30  54
BRANCH  42  65
ATOM     65  C   UNL A   1      39.228  32.059  35.710  1.00  0.00     0.064 A 
ATOM     66  C   UNL A   1      38.321  31.531  36.637  1.00  0.00     0.173 A 
ATOM     67  C   UNL A   1      39.748  33.341  35.942  1.00  0.00     0.173 A 
ATOM     68  F   UNL A   1      37.787  30.315  36.444  1.00  0.00    -0.203 F 
ATOM     69  C   UNL A   1      37.929  32.272  37.747  1.00  0.00     0.198 A 
ATOM     70  C   UNL A   1      39.382  34.063  37.071  1.00  0.00     0.198 A 
ATOM     71  F   UNL A   1      40.627  33.881  35.083  1.00  0.00    -0.203 F 
ATOM     72  F   UNL A   1      37.023  31.771  38.597  1.00  0.00    -0.200 F 
ATOM     73  C   UNL A   1      38.468  33.531  37.968  1.00  0.00     0.200 A 
ATOM     74  F   UNL A   1      39.919  35.270  37.293  1.00  0.00    -0.200 F 
ATOM     75  F   UNL A   1      38.102  34.236  39.047  1.00  0.00    -0.200 F 
ENDBRANCH  42  65
ENDBRANCH  16  17
ENDBRANCH   9  11
ENDBRANCH   8   9
ENDBRANCH   7   8
ENDBRANCH   6   7
ENDBRANCH   5   6
ENDBRANCH   4   5
ENDBRANCH   3   4
ENDBRANCH   2   3
ENDBRANCH   1   2
BRANCH   1  76
ATOM     76  C   UNL A   1      41.036  20.282  27.366  1.00  0.00     0.188 C 
BRANCH  76  77
ATOM     77  O   UNL A   1      40.196  21.417  27.237  1.00  0.00    -0.376 OA
BRANCH  77  78
ATOM     78  C   UNL A   1      39.688  21.625  25.922  1.00  0.00     0.202 C 
BRANCH  78  79
ATOM     79  C   UNL A   1      38.171  21.436  25.750  1.00  0.00     0.261 C 
BRANCH  79  80
ATOM     80  O   UNL A   1      37.478  22.455  24.992  1.00  0.00    -0.463 OA
BRANCH  80  81
ATOM     81  C   UNL A   1      36.511  23.202  25.581  1.00  0.00     0.309 C 
ATOM     82  O   UNL A   1      36.393  23.328  26.796  1.00  0.00    -0.252 OA
BRANCH  81  83
ATOM     83  C   UNL A   1      35.650  23.919  24.518  1.00  0.00     0.108 C 
ATOM     84  C   UNL A   1      35.301  22.949  23.397  1.00  0.00     0.016 C 
ATOM     85  C   UNL A   1      34.254  24.373  25.018  1.00  0.00     0.058 C 
ATOM     86  C   UNL A   1      34.034  22.233  23.869  1.00  0.00     0.001 C 
ATOM     87  C   UNL A   1      33.456  23.066  25.014  1.00  0.00     0.010 C 
BRANCH  85  88
ATOM     88  C   UNL A   1      33.536  25.444  24.150  1.00  0.00     0.265 C 
BRANCH  88  89
ATOM     89  N   UNL A   1      32.096  25.534  24.395  1.00  0.00    -0.343 N 
ATOM     90  H   UNL A   1      31.946  26.131  25.209  1.00  0.00     0.346 HD
ATOM     91  H   UNL A   1      31.761  24.581  24.541  1.00  0.00     0.346 HD
BRANCH  89  92
ATOM     92  C   UNL A   1      31.325  26.092  23.261  1.00  0.00     0.187 C 
ATOM     93  C   UNL A   1      32.286  26.499  22.128  1.00  0.00     0.093 C 
ATOM     94  C   UNL A   1      30.402  27.285  23.589  1.00  0.00     0.100 C 
ATOM     95  C   UNL A   1      33.031  27.787  22.436  1.00  0.00     0.167 C 
ATOM     96  C   UNL A   1      31.195  28.566  23.846  1.00  0.00     0.074 C 
ATOM     97  O   UNL A   1      32.096  28.824  22.739  1.00  0.00    -0.375 OA
ATOM     98  C   UNL A   1      30.328  29.798  24.256  1.00  0.00     0.036 C 
ATOM     99  C   UNL A   1      31.831  28.666  25.249  1.00  0.00     0.036 C 
ATOM    100  C   UNL A   1      31.402  30.140  25.303  1.00  0.00     0.006 C 
ENDBRANCH  89  92
ENDBRANCH  88  89
ENDBRANCH  85  88
ENDBRANCH  81  83
ENDBRANCH  80  81
ENDBRANCH  79  80
ENDBRANCH  78  79
ENDBRANCH  77  78
ENDBRANCH  76  77
ENDBRANCH   1  76
TORSDOF 23
ENDMDL
MODEL 3
REMARK VINA RESULT:     -10.4      0.648      2.209
REMARK SMILES O=C(OCCOCCOCCOCCOC(=O)[C@H]1CCC[C@@H]1C[NH2+][C@@H]1CCOC2(CCC2)C1)c1ccc(-c2c3nc(c(-c4c(F)c(F)c(F)c(F)c4F)c4ccc([nH]4)c(-c4c(F)c(F)c(F)c(F)c4F)c4nc(c(-c5c(F)c(F)c(F)c(F)c5F)c5ccc2[nH]5)C=C4)C=C3)cc1
REMARK SMILES IDX 10 1 9 2 8 3 7 4 6 5 5 6 4 7 3 8 2 9 1 10 34 11 35 12 96 13
REMARK SMILES IDX 36 14 95 15 37 16 38 17 39 18 89 19 40 20 94 21 88 22 90 23
REMARK SMILES IDX 41 24 93 25 87 26 86 27 42 29 74 30 54 31 73 32 55 33 58 34
REMARK SMILES IDX 72 35 91 36 56 37 57 38 71 40 92 41 59 42 43 43 44 44 52 45
REMARK SMILES IDX 45 46 46 47 50 48 53 49 47 50 48 51 51 52 49 53 75 54 76 55
REMARK SMILES IDX 84 56 77 57 78 58 82 59 85 60 79 61 80 62 83 63 81 64 60 65
REMARK SMILES IDX 61 66 69 67 62 68 63 69 67 70 70 71 64 72 65 73 68 74 66 75
REMARK SMILES IDX 11 76 12 77 13 78 14 79 15 80 16 81 17 82 18 83 19 84 22 85
REMARK SMILES IDX 20 86 21 87 23 88 24 89 25 92 26 93 33 94 27 95 29 96 28 97
REMARK SMILES IDX 30 98 32 99 31 100
REMARK H PARENT 90 28 58 39 24 90 24 91
REMARK Flexibility Score: inf
ROOT
ATOM      1  C   UNL A   1      39.010  22.767  26.130  1.00  0.00     0.188 C 
ENDROOT
BRANCH   1   2
ATOM      2  O   UNL A   1      39.540  21.452  26.212  1.00  0.00    -0.377 OA
BRANCH   2   3
ATOM      3  C   UNL A   1      40.487  21.220  27.245  1.00  0.00     0.188 C 
BRANCH   3   4
ATOM      4  C   UNL A   1      41.472  20.094  26.948  1.00  0.00     0.188 C 
BRANCH   4   5
ATOM      5  O   UNL A   1      41.995  20.242  25.631  1.00  0.00    -0.376 OA
BRANCH   5   6
ATOM      6  C   UNL A   1      43.409  20.263  25.470  1.00  0.00     0.202 C 
BRANCH   6   7
ATOM      7  C   UNL A   1      44.079  21.631  25.451  1.00  0.00     0.261 C 
BRANCH   7   8
ATOM      8  O   UNL A   1      43.166  22.728  25.321  1.00  0.00    -0.460 OA
BRANCH   8   9
ATOM      9  C   UNL A   1      43.434  24.056  25.339  1.00  0.00     0.338 C 
ATOM     10  O   UNL A   1      44.223  24.505  24.509  1.00  0.00    -0.246 OA
BRANCH   9  11
ATOM     11  C   UNL A   1      42.823  25.019  26.301  1.00  0.00     0.060 A 
ATOM     12  C   UNL A   1      42.989  26.400  26.279  1.00  0.00     0.016 A 
ATOM     13  C   UNL A   1      41.941  24.492  27.253  1.00  0.00     0.016 A 
ATOM     14  C   UNL A   1      42.403  27.237  27.202  1.00  0.00     0.010 A 
ATOM     15  C   UNL A   1      41.305  25.326  28.175  1.00  0.00     0.010 A 
ATOM     16  C   UNL A   1      41.572  26.699  28.165  1.00  0.00    -0.014 A 
BRANCH  16  17
ATOM     17  C   UNL A   1      41.205  27.587  29.269  1.00  0.00     0.031 A 
ATOM     18  C   UNL A   1      42.119  27.606  30.450  1.00  0.00     0.074 A 
ATOM     19  C   UNL A   1      40.209  28.474  29.109  1.00  0.00     0.049 A 
ATOM     20  N   UNL A   1      41.978  28.201  31.599  1.00  0.00    -0.248 NA
ATOM     21  C   UNL A   1      43.382  26.854  30.310  1.00  0.00     0.031 C 
ATOM     22  C   UNL A   1      39.417  28.647  27.886  1.00  0.00     0.029 A 
ATOM     23  N   UNL A   1      39.717  29.420  29.961  1.00  0.00    -0.354 N 
ATOM     24  C   UNL A   1      43.097  27.844  32.338  1.00  0.00     0.074 A 
ATOM     25  C   UNL A   1      43.918  26.994  31.510  1.00  0.00     0.031 C 
ATOM     26  C   UNL A   1      38.540  29.647  28.070  1.00  0.00     0.029 A 
ATOM     27  C   UNL A   1      38.648  30.110  29.447  1.00  0.00     0.049 A 
ATOM     28  H   UNL A   1      40.091  29.589  30.855  1.00  0.00     0.167 HD
ATOM     29  C   UNL A   1      43.382  28.193  33.610  1.00  0.00     0.037 A 
ATOM     30  C   UNL A   1      37.819  30.970  30.064  1.00  0.00     0.037 A 
ATOM     31  C   UNL A   1      42.527  29.055  34.377  1.00  0.00     0.049 A 
ATOM     32  C   UNL A   1      38.087  31.250  31.519  1.00  0.00     0.074 A 
ATOM     33  C   UNL A   1      42.632  29.435  35.699  1.00  0.00     0.029 A 
ATOM     34  N   UNL A   1      41.392  29.675  33.862  1.00  0.00    -0.354 N 
ATOM     35  N   UNL A   1      39.074  30.822  32.274  1.00  0.00    -0.248 NA
ATOM     36  C   UNL A   1      37.122  32.104  32.216  1.00  0.00     0.031 C 
ATOM     37  C   UNL A   1      41.530  30.246  35.997  1.00  0.00     0.029 A 
ATOM     38  C   UNL A   1      40.774  30.424  34.846  1.00  0.00     0.049 A 
ATOM     39  H   UNL A   1      41.076  29.594  32.933  1.00  0.00     0.167 HD
ATOM     40  C   UNL A   1      38.862  31.367  33.530  1.00  0.00     0.074 A 
ATOM     41  C   UNL A   1      37.660  32.175  33.425  1.00  0.00     0.031 C 
ATOM     42  C   UNL A   1      39.582  31.218  34.670  1.00  0.00     0.037 A 
BRANCH  29  43
ATOM     43  C   UNL A   1      44.585  27.558  34.239  1.00  0.00     0.064 A 
ATOM     44  C   UNL A   1      44.539  26.290  34.839  1.00  0.00     0.173 A 
ATOM     45  C   UNL A   1      45.794  28.268  34.304  1.00  0.00     0.173 A 
ATOM     46  F   UNL A   1      43.398  25.585  34.844  1.00  0.00    -0.203 F 
ATOM     47  C   UNL A   1      45.649  25.772  35.507  1.00  0.00     0.198 A 
ATOM     48  C   UNL A   1      46.909  27.735  34.945  1.00  0.00     0.198 A 
ATOM     49  F   UNL A   1      45.888  29.492  33.764  1.00  0.00    -0.203 F 
ATOM     50  F   UNL A   1      45.559  24.593  36.136  1.00  0.00    -0.200 F 
ATOM     51  C   UNL A   1      46.832  26.493  35.557  1.00  0.00     0.200 A 
ATOM     52  F   UNL A   1      48.051  28.436  34.992  1.00  0.00    -0.200 F 
ATOM     53  F   UNL A   1      47.894  26.000  36.209  1.00  0.00    -0.200 F 
ENDBRANCH  29  43
BRANCH  30  54
ATOM     54  C   UNL A   1      36.647  31.541  29.347  1.00  0.00     0.064 A 
ATOM     55  C   UNL A   1      35.566  30.738  28.961  1.00  0.00     0.173 A 
ATOM     56  C   UNL A   1      36.587  32.906  29.018  1.00  0.00     0.173 A 
ATOM     57  F   UNL A   1      35.577  29.425  29.232  1.00  0.00    -0.203 F 
ATOM     58  C   UNL A   1      34.483  31.271  28.261  1.00  0.00     0.198 A 
ATOM     59  C   UNL A   1      35.489  33.445  28.350  1.00  0.00     0.198 A 
ATOM     60  F   UNL A   1      37.593  33.725  29.357  1.00  0.00    -0.203 F 
ATOM     61  F   UNL A   1      33.486  30.469  27.862  1.00  0.00    -0.200 F 
ATOM     62  C   UNL A   1      34.443  32.625  27.962  1.00  0.00     0.200 A 
ATOM     63  F   UNL A   1      35.450  34.757  28.079  1.00  0.00    -0.200 F 
ATOM     64  F   UNL A   1      33.401  33.136  27.292  1.00  0.00    -0.200 F 
ENDBRANCH  30  54
BRANCH  42  65
ATOM     65  C   UNL A   1      39.105  31.982  35.867  1.00  0.00     0.064 A 
ATOM     66  C   UNL A   1      39.455  33.324  36.069  1.00  0.00     0.173 A 
ATOM     67  C   UNL A   1      38.241  31.373  36.788  1.00  0.00     0.173 A 
ATOM     68  F   UNL A   1      40.293  33.940  35.221  1.00  0.00    -0.203 F 
ATOM     69  C   UNL A   1      38.974  34.023  37.170  1.00  0.00     0.198 A 
ATOM     70  C   UNL A   1      37.733  32.087  37.866  1.00  0.00     0.198 A 
ATOM     71  F   UNL A   1      37.873  30.092  36.627  1.00  0.00    -0.203 F 
ATOM     72  F   UNL A   1      39.358  35.290  37.375  1.00  0.00    -0.200 F 
ATOM     73  C   UNL A   1      38.105  33.408  38.060  1.00  0.00     0.200 A 
ATOM     74  F   UNL A   1      36.879  31.496  38.713  1.00  0.00    -0.200 F 
ATOM     75  F   UNL A   1      37.630  34.089  39.111  1.00  0.00    -0.200 F 
ENDBRANCH  42  65
ENDBRANCH  16  17
ENDBRANCH   9  11
ENDBRANCH   8   9
ENDBRANCH   7   8
ENDBRANCH   6   7
ENDBRANCH   5   6
ENDBRANCH   4   5
ENDBRANCH   3   4
ENDBRANCH   2   3
ENDBRANCH   1   2
BRANCH   1  76
ATOM     76  C   UNL A   1      37.646  22.993  25.429  1.00  0.00     0.188 C 
BRANCH  76  77
ATOM     77  O   UNL A   1      36.584  23.330  26.304  1.00  0.00    -0.376 OA
BRANCH  77  78
ATOM     78  C   UNL A   1      35.365  22.638  26.043  1.00  0.00     0.202 C 
BRANCH  78  79
ATOM     79  C   UNL A   1      35.228  22.027  24.637  1.00  0.00     0.261 C 
BRANCH  79  80
ATOM     80  O   UNL A   1      33.894  21.642  24.231  1.00  0.00    -0.463 OA
BRANCH  80  81
ATOM     81  C   UNL A   1      32.981  21.267  25.161  1.00  0.00     0.309 C 
ATOM     82  O   UNL A   1      33.207  20.452  26.049  1.00  0.00    -0.252 OA
BRANCH  81  83
ATOM     83  C   UNL A   1      31.667  22.062  24.988  1.00  0.00     0.108 C 
ATOM     84  C   UNL A   1      31.025  22.300  26.349  1.00  0.00     0.016 C 
ATOM     85  C   UNL A   1      31.852  23.503  24.445  1.00  0.00     0.058 C 
ATOM     86  C   UNL A   1      31.672  23.582  26.876  1.00  0.00     0.001 C 
ATOM     87  C   UNL A   1      32.337  24.266  25.681  1.00  0.00     0.010 C 
BRANCH  85  88
ATOM     88  C   UNL A   1      30.579  24.178  23.862  1.00  0.00     0.265 C 
BRANCH  88  89
ATOM     89  N   UNL A   1      30.819  25.511  23.307  1.00  0.00    -0.343 N 
ATOM     90  H   UNL A   1      30.354  25.570  22.402  1.00  0.00     0.346 HD
ATOM     91  H   UNL A   1      31.831  25.623  23.236  1.00  0.00     0.346 HD
BRANCH  89  92
ATOM     92  C   UNL A   1      30.324  26.616  24.159  1.00  0.00     0.187 C 
ATOM     93  C   UNL A   1      29.386  27.524  23.342  1.00  0.00     0.093 C 
ATOM     94  C   UNL A   1      31.404  27.489  24.834  1.00  0.00     0.100 C 
ATOM     95  C   UNL A   1      30.145  28.421  22.377  1.00  0.00     0.167 C 
ATOM     96  C   UNL A   1      32.106  28.405  23.832  1.00  0.00     0.074 C 
ATOM     97  O   UNL A   1      31.126  29.175  23.091  1.00  0.00    -0.375 OA
ATOM     98  C   UNL A   1      33.262  29.264  24.435  1.00  0.00     0.036 C 
ATOM     99  C   UNL A   1      33.190  27.719  22.975  1.00  0.00     0.036 C 
ATOM    100  C   UNL A   1      34.081  28.955  23.169  1.00  0.00     0.006 C 
ENDBRANCH  89  92
ENDBRANCH  88  89
ENDBRANCH  85  88
ENDBRANCH  81  83
ENDBRANCH  80  81
ENDBRANCH  79  80
ENDBRANCH  78  79
ENDBRANCH  77  78
ENDBRANCH  76  77
ENDBRANCH   1  76
TORSDOF 23
ENDMDL
