MODEL 1
REMARK VINA RESULT:      -7.9      0.000      0.000
REMARK SMILES C#CC[N@@H+](CC(=O)OCCOCCOCCOCCOC(=O)c1ccc(-c2c3nc(c(-c4c(F)c(F)c(F)c(F)c4F)c4ccc([nH]4)c(-c4c(F)c(F)c(F)c(F)c4F)c4nc(c(-c5c(F)c(F)c(F)c(F)c5F)c5ccc2[nH]5)C=C4)C=C3)cc1)Cc1cn(CC)c2ccccc12
REMARK SMILES IDX 13 1 12 2 11 3 10 4 9 5 8 6 6 7 7 8 5 9 4 10 3 12 2 13 1 14
REMARK SMILES IDX 86 15 87 16 88 17 97 18 89 19 92 20 96 21 93 22 95 23 94 24
REMARK SMILES IDX 90 25 91 26 14 27 15 28 16 29 17 30 18 31 19 32 20 33 21 34
REMARK SMILES IDX 22 35 23 36 24 37 85 38 25 39 84 40 26 41 27 42 28 43 78 44
REMARK SMILES IDX 29 45 83 46 77 47 79 48 30 49 82 50 76 51 75 52 31 54 63 55
REMARK SMILES IDX 43 56 62 57 44 58 47 59 61 60 80 61 45 62 46 63 60 65 81 66
REMARK SMILES IDX 48 67 32 68 33 69 41 70 34 71 35 72 39 73 42 74 36 75 37 76
REMARK SMILES IDX 40 77 38 78 64 79 65 80 73 81 66 82 67 83 71 84 74 85 68 86
REMARK SMILES IDX 69 87 72 88 70 89 49 90 50 91 58 92 51 93 52 94 56 95 59 96
REMARK SMILES IDX 53 97 54 98 57 99 55 100
REMARK H PARENT 4 11 79 53 47 64
REMARK Flexibility Score: inf
ROOT
ATOM      1  C   UNL A   1      34.052  25.457  24.394  1.00  0.00     0.188 C 
ENDROOT
BRANCH   1   2
ATOM      2  C   UNL A   1      33.217  26.274  23.409  1.00  0.00     0.188 C 
BRANCH   2   3
ATOM      3  O   UNL A   1      32.641  27.431  23.987  1.00  0.00    -0.376 OA
BRANCH   3   4
ATOM      4  C   UNL A   1      32.209  27.378  25.347  1.00  0.00     0.202 C 
BRANCH   4   5
ATOM      5  C   UNL A   1      31.769  28.631  26.140  1.00  0.00     0.261 C 
BRANCH   5   6
ATOM      6  O   UNL A   1      32.565  29.044  27.288  1.00  0.00    -0.459 OA
BRANCH   6   7
ATOM      7  C   UNL A   1      32.935  30.364  27.233  1.00  0.00     0.361 C 
ATOM      8  O   UNL A   1      32.374  31.150  26.463  1.00  0.00    -0.245 OA
BRANCH   7   9
ATOM      9  C   UNL A   1      34.116  30.891  28.088  1.00  0.00     0.387 C 
BRANCH   9  10
ATOM     10  N   UNL A   1      35.364  31.496  27.527  1.00  0.00    -0.312 N 
ATOM     11  H   UNL A   1      35.104  31.705  26.563  1.00  0.00     0.349 HD
BRANCH  10  12
ATOM     12  C   UNL A   1      36.413  30.547  27.673  1.00  0.00     0.354 C 
BRANCH  12  13
ATOM     13  C   UNL A   1      36.661  29.823  28.986  1.00  0.00    -0.047 C 
ATOM     14  C   UNL A   1      36.874  29.202  30.113  1.00  0.00     0.010 C 
ENDBRANCH  12  13
ENDBRANCH  10  12
BRANCH  10  15
ATOM     15  C   UNL A   1      35.814  32.821  27.970  1.00  0.00     0.302 C 
BRANCH  15  16
ATOM     16  C   UNL A   1      34.862  33.390  28.945  1.00  0.00     0.032 A 
ATOM     17  C   UNL A   1      33.998  34.410  28.638  1.00  0.00     0.096 A 
ATOM     18  C   UNL A   1      34.795  33.209  30.349  1.00  0.00     0.008 A 
ATOM     19  N   UNL A   1      33.564  34.986  29.787  1.00  0.00    -0.347 N 
ATOM     20  C   UNL A   1      33.939  34.200  30.852  1.00  0.00     0.048 A 
ATOM     21  C   UNL A   1      35.481  32.368  31.242  1.00  0.00     0.011 A 
ATOM     22  C   UNL A   1      33.684  34.327  32.220  1.00  0.00     0.027 A 
ATOM     23  C   UNL A   1      35.259  32.511  32.611  1.00  0.00     0.001 A 
ATOM     24  C   UNL A   1      34.361  33.464  33.087  1.00  0.00     0.002 A 
BRANCH  19  25
ATOM     25  C   UNL A   1      33.127  36.371  29.820  1.00  0.00     0.119 C 
ATOM     26  C   UNL A   1      33.675  37.208  28.689  1.00  0.00     0.027 C 
ENDBRANCH  19  25
ENDBRANCH  15  16
ENDBRANCH  10  15
ENDBRANCH   9  10
ENDBRANCH   7   9
ENDBRANCH   6   7
ENDBRANCH   5   6
ENDBRANCH   4   5
ENDBRANCH   3   4
ENDBRANCH   2   3
ENDBRANCH   1   2
BRANCH   1  27
ATOM     27  O   UNL A   1      34.287  24.121  23.961  1.00  0.00    -0.377 OA
BRANCH  27  28
ATOM     28  C   UNL A   1      35.336  23.415  24.624  1.00  0.00     0.188 C 
BRANCH  28  29
ATOM     29  C   UNL A   1      36.094  24.195  25.703  1.00  0.00     0.188 C 
BRANCH  29  30
ATOM     30  O   UNL A   1      37.517  24.079  25.725  1.00  0.00    -0.376 OA
BRANCH  30  31
ATOM     31  C   UNL A   1      38.144  23.643  26.927  1.00  0.00     0.202 C 
BRANCH  31  32
ATOM     32  C   UNL A   1      39.570  24.147  27.166  1.00  0.00     0.261 C 
BRANCH  32  33
ATOM     33  O   UNL A   1      39.642  25.550  27.454  1.00  0.00    -0.460 OA
BRANCH  33  34
ATOM     34  C   UNL A   1      40.889  26.080  27.433  1.00  0.00     0.338 C 
ATOM     35  O   UNL A   1      41.851  25.714  26.790  1.00  0.00    -0.246 OA
BRANCH  34  36
ATOM     36  C   UNL A   1      40.881  27.302  28.255  1.00  0.00     0.060 A 
ATOM     37  C   UNL A   1      40.198  28.439  27.798  1.00  0.00     0.016 A 
ATOM     38  C   UNL A   1      41.620  27.334  29.437  1.00  0.00     0.016 A 
ATOM     39  C   UNL A   1      40.266  29.625  28.519  1.00  0.00     0.010 A 
ATOM     40  C   UNL A   1      41.715  28.530  30.141  1.00  0.00     0.010 A 
ATOM     41  C   UNL A   1      41.065  29.682  29.665  1.00  0.00    -0.014 A 
BRANCH  41  42
ATOM     42  C   UNL A   1      41.396  30.986  30.268  1.00  0.00     0.031 A 
ATOM     43  C   UNL A   1      42.572  31.735  29.720  1.00  0.00     0.074 A 
ATOM     44  C   UNL A   1      40.678  31.461  31.297  1.00  0.00     0.049 A 
ATOM     45  N   UNL A   1      43.159  32.809  30.175  1.00  0.00    -0.248 NA
ATOM     46  C   UNL A   1      43.177  31.189  28.492  1.00  0.00     0.031 C 
ATOM     47  C   UNL A   1      39.483  30.833  31.855  1.00  0.00     0.029 A 
ATOM     48  N   UNL A   1      40.872  32.575  32.069  1.00  0.00    -0.354 N 
ATOM     49  C   UNL A   1      44.210  33.059  29.302  1.00  0.00     0.074 A 
ATOM     50  C   UNL A   1      44.198  32.009  28.308  1.00  0.00     0.031 C 
ATOM     51  C   UNL A   1      39.061  31.561  32.902  1.00  0.00     0.029 A 
ATOM     52  C   UNL A   1      39.986  32.671  33.112  1.00  0.00     0.049 A 
ATOM     53  H   UNL A   1      41.576  33.240  31.894  1.00  0.00     0.167 HD
ATOM     54  C   UNL A   1      45.099  34.077  29.334  1.00  0.00     0.037 A 
ATOM     55  C   UNL A   1      39.962  33.542  34.139  1.00  0.00     0.037 A 
ATOM     56  C   UNL A   1      45.099  35.100  30.346  1.00  0.00     0.049 A 
ATOM     57  C   UNL A   1      41.029  34.604  34.213  1.00  0.00     0.074 A 
ATOM     58  C   UNL A   1      45.947  36.183  30.482  1.00  0.00     0.029 A 
ATOM     59  N   UNL A   1      44.206  35.152  31.408  1.00  0.00    -0.354 N 
ATOM     60  N   UNL A   1      42.015  34.850  33.384  1.00  0.00    -0.248 NA
ATOM     61  C   UNL A   1      40.981  35.508  35.370  1.00  0.00     0.031 C 
ATOM     62  C   UNL A   1      45.605  36.856  31.660  1.00  0.00     0.029 A 
ATOM     63  C   UNL A   1      44.501  36.233  32.222  1.00  0.00     0.049 A 
ATOM     64  H   UNL A   1      43.469  34.516  31.560  1.00  0.00     0.167 HD
ATOM     65  C   UNL A   1      42.684  35.953  33.898  1.00  0.00     0.074 A 
ATOM     66  C   UNL A   1      41.982  36.334  35.107  1.00  0.00     0.031 C 
ATOM     67  C   UNL A   1      43.777  36.595  33.416  1.00  0.00     0.037 A 
BRANCH  54  68
ATOM     68  C   UNL A   1      46.161  34.103  28.272  1.00  0.00     0.064 A 
ATOM     69  C   UNL A   1      46.018  34.863  27.101  1.00  0.00     0.173 A 
ATOM     70  C   UNL A   1      47.341  33.362  28.430  1.00  0.00     0.173 A 
ATOM     71  F   UNL A   1      44.902  35.577  26.890  1.00  0.00    -0.203 F 
ATOM     72  C   UNL A   1      47.000  34.850  26.113  1.00  0.00     0.198 A 
ATOM     73  C   UNL A   1      48.337  33.380  27.457  1.00  0.00     0.198 A 
ATOM     74  F   UNL A   1      47.532  32.618  29.530  1.00  0.00    -0.203 F 
ATOM     75  F   UNL A   1      46.813  35.536  24.976  1.00  0.00    -0.200 F 
ATOM     76  C   UNL A   1      48.162  34.116  26.295  1.00  0.00     0.200 A 
ATOM     77  F   UNL A   1      49.464  32.679  27.641  1.00  0.00    -0.200 F 
ATOM     78  F   UNL A   1      49.108  34.107  25.347  1.00  0.00    -0.200 F 
ENDBRANCH  54  68
BRANCH  55  79
ATOM     79  C   UNL A   1      38.906  33.436  35.179  1.00  0.00     0.064 A 
ATOM     80  C   UNL A   1      37.636  33.989  34.970  1.00  0.00     0.173 A 
ATOM     81  C   UNL A   1      39.140  32.786  36.400  1.00  0.00     0.173 A 
ATOM     82  F   UNL A   1      37.370  34.637  33.825  1.00  0.00    -0.203 F 
ATOM     83  C   UNL A   1      36.646  33.913  35.948  1.00  0.00     0.198 A 
ATOM     84  C   UNL A   1      38.141  32.684  37.365  1.00  0.00     0.198 A 
ATOM     85  F   UNL A   1      40.338  32.238  36.652  1.00  0.00    -0.203 F 
ATOM     86  F   UNL A   1      35.456  34.490  35.737  1.00  0.00    -0.200 F 
ATOM     87  C   UNL A   1      36.898  33.255  37.142  1.00  0.00     0.200 A 
ATOM     88  F   UNL A   1      38.382  32.032  38.511  1.00  0.00    -0.200 F 
ATOM     89  F   UNL A   1      35.943  33.177  38.079  1.00  0.00    -0.200 F 
ENDBRANCH  55  79
BRANCH  67  90
ATOM     90  C   UNL A   1      44.256  37.803  34.170  1.00  0.00     0.064 A 
ATOM     91  C   UNL A   1      45.112  37.694  35.275  1.00  0.00     0.173 A 
ATOM     92  C   UNL A   1      43.895  39.090  33.743  1.00  0.00     0.173 A 
ATOM     93  F   UNL A   1      45.474  36.485  35.733  1.00  0.00    -0.203 F 
ATOM     94  C   UNL A   1      45.571  38.829  35.938  1.00  0.00     0.198 A 
ATOM     95  C   UNL A   1      44.385  40.223  34.386  1.00  0.00     0.198 A 
ATOM     96  F   UNL A   1      43.084  39.250  32.686  1.00  0.00    -0.203 F 
ATOM     97  F   UNL A   1      46.349  38.700  37.021  1.00  0.00    -0.200 F 
ATOM     98  C   UNL A   1      45.215  40.091  35.487  1.00  0.00     0.200 A 
ATOM     99  F   UNL A   1      44.054  41.442  33.937  1.00  0.00    -0.200 F 
ATOM    100  F   UNL A   1      45.670  41.182  36.118  1.00  0.00    -0.200 F 
ENDBRANCH  67  90
ENDBRANCH  41  42
ENDBRANCH  34  36
ENDBRANCH  33  34
ENDBRANCH  32  33
ENDBRANCH  31  32
ENDBRANCH  30  31
ENDBRANCH  29  30
ENDBRANCH  28  29
ENDBRANCH  27  28
ENDBRANCH   1  27
TORSDOF 26
ENDMDL
MODEL 2
REMARK VINA RESULT:      -7.8      3.288      5.112
REMARK SMILES C#CC[N@@H+](CC(=O)OCCOCCOCCOCCOC(=O)c1ccc(-c2c3nc(c(-c4c(F)c(F)c(F)c(F)c4F)c4ccc([nH]4)c(-c4c(F)c(F)c(F)c(F)c4F)c4nc(c(-c5c(F)c(F)c(F)c(F)c5F)c5ccc2[nH]5)C=C4)C=C3)cc1)Cc1cn(CC)c2ccccc12
REMARK SMILES IDX 13 1 12 2 11 3 10 4 9 5 8 6 6 7 7 8 5 9 4 10 3 12 2 13 1 14
REMARK SMILES IDX 86 15 87 16 88 17 97 18 89 19 92 20 96 21 93 22 95 23 94 24
REMARK SMILES IDX 90 25 91 26 14 27 15 28 16 29 17 30 18 31 19 32 20 33 21 34
REMARK SMILES IDX 22 35 23 36 24 37 85 38 25 39 84 40 26 41 27 42 28 43 78 44
REMARK SMILES IDX 29 45 83 46 77 47 79 48 30 49 82 50 76 51 75 52 31 54 63 55
REMARK SMILES IDX 43 56 62 57 44 58 47 59 61 60 80 61 45 62 46 63 60 65 81 66
REMARK SMILES IDX 48 67 32 68 33 69 41 70 34 71 35 72 39 73 42 74 36 75 37 76
REMARK SMILES IDX 40 77 38 78 64 79 65 80 73 81 66 82 67 83 71 84 74 85 68 86
REMARK SMILES IDX 69 87 72 88 70 89 49 90 50 91 58 92 51 93 52 94 56 95 59 96
REMARK SMILES IDX 53 97 54 98 57 99 55 100
REMARK H PARENT 4 11 79 53 47 64
REMARK Flexibility Score: inf
ROOT
ATOM      1  C   UNL A   1      33.040  26.319  24.670  1.00  0.00     0.188 C 
ENDROOT
BRANCH   1   2
ATOM      2  C   UNL A   1      33.399  27.321  23.574  1.00  0.00     0.188 C 
BRANCH   2   3
ATOM      3  O   UNL A   1      33.174  28.668  23.949  1.00  0.00    -0.376 OA
BRANCH   3   4
ATOM      4  C   UNL A   1      31.853  29.067  24.319  1.00  0.00     0.202 C 
BRANCH   4   5
ATOM      5  C   UNL A   1      31.571  30.205  25.328  1.00  0.00     0.261 C 
BRANCH   5   6
ATOM      6  O   UNL A   1      31.693  29.920  26.751  1.00  0.00    -0.459 OA
BRANCH   6   7
ATOM      7  C   UNL A   1      32.996  29.880  27.178  1.00  0.00     0.361 C 
ATOM      8  O   UNL A   1      33.649  28.832  27.127  1.00  0.00    -0.245 OA
BRANCH   7   9
ATOM      9  C   UNL A   1      33.665  31.133  27.800  1.00  0.00     0.387 C 
BRANCH   9  10
ATOM     10  N   UNL A   1      35.104  31.500  27.624  1.00  0.00    -0.312 N 
ATOM     11  H   UNL A   1      35.220  31.490  26.610  1.00  0.00     0.349 HD
BRANCH  10  12
ATOM     12  C   UNL A   1      35.888  30.544  28.327  1.00  0.00     0.354 C 
BRANCH  12  13
ATOM     13  C   UNL A   1      37.377  30.743  28.557  1.00  0.00    -0.047 C 
ATOM     14  C   UNL A   1      38.655  30.914  28.754  1.00  0.00     0.010 C 
ENDBRANCH  12  13
ENDBRANCH  10  12
BRANCH  10  15
ATOM     15  C   UNL A   1      35.569  32.858  27.927  1.00  0.00     0.302 C 
BRANCH  15  16
ATOM     16  C   UNL A   1      34.722  33.472  28.970  1.00  0.00     0.032 A 
ATOM     17  C   UNL A   1      33.954  34.586  28.749  1.00  0.00     0.096 A 
ATOM     18  C   UNL A   1      34.699  33.233  30.366  1.00  0.00     0.008 A 
ATOM     19  N   UNL A   1      33.630  35.148  29.941  1.00  0.00    -0.347 N 
ATOM     20  C   UNL A   1      33.970  34.279  30.952  1.00  0.00     0.048 A 
ATOM     21  C   UNL A   1      35.334  32.287  31.188  1.00  0.00     0.011 A 
ATOM     22  C   UNL A   1      33.789  34.365  32.335  1.00  0.00     0.027 A 
ATOM     23  C   UNL A   1      35.187  32.385  32.572  1.00  0.00     0.001 A 
ATOM     24  C   UNL A   1      34.412  33.399  33.131  1.00  0.00     0.002 A 
BRANCH  19  25
ATOM     25  C   UNL A   1      33.338  36.566  30.055  1.00  0.00     0.119 C 
ATOM     26  C   UNL A   1      33.439  37.314  28.746  1.00  0.00     0.027 C 
ENDBRANCH  19  25
ENDBRANCH  15  16
ENDBRANCH  10  15
ENDBRANCH   9  10
ENDBRANCH   7   9
ENDBRANCH   6   7
ENDBRANCH   5   6
ENDBRANCH   4   5
ENDBRANCH   3   4
ENDBRANCH   2   3
ENDBRANCH   1   2
BRANCH   1  27
ATOM     27  O   UNL A   1      32.530  25.089  24.165  1.00  0.00    -0.377 OA
BRANCH  27  28
ATOM     28  C   UNL A   1      33.249  23.909  24.524  1.00  0.00     0.188 C 
BRANCH  28  29
ATOM     29  C   UNL A   1      34.730  24.102  24.866  1.00  0.00     0.188 C 
BRANCH  29  30
ATOM     30  O   UNL A   1      35.679  23.289  24.175  1.00  0.00    -0.376 OA
BRANCH  30  31
ATOM     31  C   UNL A   1      35.914  21.967  24.650  1.00  0.00     0.202 C 
BRANCH  31  32
ATOM     32  C   UNL A   1      37.362  21.630  25.016  1.00  0.00     0.261 C 
BRANCH  32  33
ATOM     33  O   UNL A   1      38.009  22.644  25.796  1.00  0.00    -0.460 OA
BRANCH  33  34
ATOM     34  C   UNL A   1      39.220  22.300  26.298  1.00  0.00     0.338 C 
ATOM     35  O   UNL A   1      39.838  21.270  26.133  1.00  0.00    -0.246 OA
BRANCH  34  36
ATOM     36  C   UNL A   1      39.765  23.465  27.017  1.00  0.00     0.060 A 
ATOM     37  C   UNL A   1      39.279  24.748  26.723  1.00  0.00     0.016 A 
ATOM     38  C   UNL A   1      40.810  23.281  27.920  1.00  0.00     0.016 A 
ATOM     39  C   UNL A   1      39.854  25.861  27.325  1.00  0.00     0.010 A 
ATOM     40  C   UNL A   1      41.407  24.398  28.497  1.00  0.00     0.010 A 
ATOM     41  C   UNL A   1      40.951  25.688  28.175  1.00  0.00    -0.014 A 
BRANCH  41  42
ATOM     42  C   UNL A   1      41.761  26.851  28.578  1.00  0.00     0.031 A 
ATOM     43  C   UNL A   1      43.133  26.989  27.992  1.00  0.00     0.074 A 
ATOM     44  C   UNL A   1      41.286  27.734  29.469  1.00  0.00     0.049 A 
ATOM     45  N   UNL A   1      44.090  27.821  28.305  1.00  0.00    -0.248 NA
ATOM     46  C   UNL A   1      43.475  26.050  26.910  1.00  0.00     0.031 C 
ATOM     47  C   UNL A   1      39.943  27.715  30.044  1.00  0.00     0.029 A 
ATOM     48  N   UNL A   1      41.897  28.807  30.062  1.00  0.00    -0.354 N 
ATOM     49  C   UNL A   1      45.152  27.496  27.471  1.00  0.00     0.074 A 
ATOM     50  C   UNL A   1      44.734  26.375  26.660  1.00  0.00     0.031 C 
ATOM     51  C   UNL A   1      39.838  28.718  30.931  1.00  0.00     0.029 A 
ATOM     52  C   UNL A   1      41.120  29.412  31.017  1.00  0.00     0.049 A 
ATOM     53  H   UNL A   1      42.802  29.112  29.827  1.00  0.00     0.167 HD
ATOM     54  C   UNL A   1      46.366  28.089  27.395  1.00  0.00     0.037 A 
ATOM     55  C   UNL A   1      41.438  30.390  31.887  1.00  0.00     0.037 A 
ATOM     56  C   UNL A   1      46.764  29.194  28.226  1.00  0.00     0.049 A 
ATOM     57  C   UNL A   1      42.832  30.962  31.856  1.00  0.00     0.074 A 
ATOM     58  C   UNL A   1      47.964  29.879  28.237  1.00  0.00     0.029 A 
ATOM     59  N   UNL A   1      45.964  29.765  29.206  1.00  0.00    -0.354 N 
ATOM     60  N   UNL A   1      43.833  30.666  31.062  1.00  0.00    -0.248 NA
ATOM     61  C   UNL A   1      43.140  32.002  32.846  1.00  0.00     0.031 C 
ATOM     62  C   UNL A   1      47.913  30.824  29.267  1.00  0.00     0.029 A 
ATOM     63  C   UNL A   1      46.656  30.775  29.852  1.00  0.00     0.049 A 
ATOM     64  H   UNL A   1      45.040  29.494  29.412  1.00  0.00     0.167 HD
ATOM     65  C   UNL A   1      44.878  31.504  31.432  1.00  0.00     0.074 A 
ATOM     66  C   UNL A   1      44.382  32.327  32.517  1.00  0.00     0.031 C 
ATOM     67  C   UNL A   1      46.132  31.587  30.923  1.00  0.00     0.037 A 
BRANCH  54  68
ATOM     68  C   UNL A   1      47.352  27.524  26.411  1.00  0.00     0.064 A 
ATOM     69  C   UNL A   1      48.327  26.591  26.793  1.00  0.00     0.173 A 
ATOM     70  C   UNL A   1      47.316  27.920  25.065  1.00  0.00     0.173 A 
ATOM     71  F   UNL A   1      48.417  26.191  28.070  1.00  0.00    -0.203 F 
ATOM     72  C   UNL A   1      49.252  26.103  25.872  1.00  0.00     0.198 A 
ATOM     73  C   UNL A   1      48.219  27.402  24.141  1.00  0.00     0.198 A 
ATOM     74  F   UNL A   1      46.404  28.809  24.645  1.00  0.00    -0.203 F 
ATOM     75  F   UNL A   1      50.213  25.259  26.274  1.00  0.00    -0.200 F 
ATOM     76  C   UNL A   1      49.192  26.503  24.546  1.00  0.00     0.200 A 
ATOM     77  F   UNL A   1      48.151  27.781  22.857  1.00  0.00    -0.200 F 
ATOM     78  F   UNL A   1      50.080  26.030  23.661  1.00  0.00    -0.200 F 
ENDBRANCH  54  68
BRANCH  55  79
ATOM     79  C   UNL A   1      40.427  30.876  32.861  1.00  0.00     0.064 A 
ATOM     80  C   UNL A   1      40.225  30.211  34.078  1.00  0.00     0.173 A 
ATOM     81  C   UNL A   1      39.640  32.008  32.599  1.00  0.00     0.173 A 
ATOM     82  F   UNL A   1      40.940  29.112  34.364  1.00  0.00    -0.203 F 
ATOM     83  C   UNL A   1      39.264  30.647  34.987  1.00  0.00     0.198 A 
ATOM     84  C   UNL A   1      38.701  32.462  33.523  1.00  0.00     0.198 A 
ATOM     85  F   UNL A   1      39.793  32.683  31.451  1.00  0.00    -0.203 F 
ATOM     86  F   UNL A   1      39.063  29.965  36.123  1.00  0.00    -0.200 F 
ATOM     87  C   UNL A   1      38.507  31.776  34.712  1.00  0.00     0.200 A 
ATOM     88  F   UNL A   1      37.984  33.563  33.261  1.00  0.00    -0.200 F 
ATOM     89  F   UNL A   1      37.588  32.198  35.591  1.00  0.00    -0.200 F 
ENDBRANCH  55  79
BRANCH  67  90
ATOM     90  C   UNL A   1      47.042  32.634  31.501  1.00  0.00     0.064 A 
ATOM     91  C   UNL A   1      46.983  33.973  31.090  1.00  0.00     0.173 A 
ATOM     92  C   UNL A   1      47.946  32.299  32.521  1.00  0.00     0.173 A 
ATOM     93  F   UNL A   1      46.147  34.342  30.107  1.00  0.00    -0.203 F 
ATOM     94  C   UNL A   1      47.812  34.934  31.663  1.00  0.00     0.198 A 
ATOM     95  C   UNL A   1      48.747  33.268  33.116  1.00  0.00     0.198 A 
ATOM     96  F   UNL A   1      48.036  31.033  32.956  1.00  0.00    -0.203 F 
ATOM     97  F   UNL A   1      47.773  36.198  31.221  1.00  0.00    -0.200 F 
ATOM     98  C   UNL A   1      48.685  34.583  32.682  1.00  0.00     0.200 A 
ATOM     99  F   UNL A   1      49.576  32.930  34.113  1.00  0.00    -0.200 F 
ATOM    100  F   UNL A   1      49.471  35.512  33.242  1.00  0.00    -0.200 F 
ENDBRANCH  67  90
ENDBRANCH  41  42
ENDBRANCH  34  36
ENDBRANCH  33  34
ENDBRANCH  32  33
ENDBRANCH  31  32
ENDBRANCH  30  31
ENDBRANCH  29  30
ENDBRANCH  28  29
ENDBRANCH  27  28
ENDBRANCH   1  27
TORSDOF 26
ENDMDL
MODEL 3
REMARK VINA RESULT:      -7.6      6.121      9.555
REMARK SMILES C#CC[N@@H+](CC(=O)OCCOCCOCCOCCOC(=O)c1ccc(-c2c3nc(c(-c4c(F)c(F)c(F)c(F)c4F)c4ccc([nH]4)c(-c4c(F)c(F)c(F)c(F)c4F)c4nc(c(-c5c(F)c(F)c(F)c(F)c5F)c5ccc2[nH]5)C=C4)C=C3)cc1)Cc1cn(CC)c2ccccc12
REMARK SMILES IDX 13 1 12 2 11 3 10 4 9 5 8 6 6 7 7 8 5 9 4 10 3 12 2 13 1 14
REMARK SMILES IDX 86 15 87 16 88 17 97 18 89 19 92 20 96 21 93 22 95 23 94 24
REMARK SMILES IDX 90 25 91 26 14 27 15 28 16 29 17 30 18 31 19 32 20 33 21 34
REMARK SMILES IDX 22 35 23 36 24 37 85 38 25 39 84 40 26 41 27 42 28 43 78 44
REMARK SMILES IDX 29 45 83 46 77 47 79 48 30 49 82 50 76 51 75 52 31 54 63 55
REMARK SMILES IDX 43 56 62 57 44 58 47 59 61 60 80 61 45 62 46 63 60 65 81 66
REMARK SMILES IDX 48 67 32 68 33 69 41 70 34 71 35 72 39 73 42 74 36 75 37 76
REMARK SMILES IDX 40 77 38 78 64 79 65 80 73 81 66 82 67 83 71 84 74 85 68 86
REMARK SMILES IDX 69 87 72 88 70 89 49 90 50 91 58 92 51 93 52 94 56 95 59 96
REMARK SMILES IDX 53 97 54 98 57 99 55 100
REMARK H PARENT 4 11 79 53 47 64
REMARK Flexibility Score: inf
ROOT
ATOM      1  C   UNL A   1      37.377  22.850  25.511  1.00  0.00     0.188 C 
ENDROOT
BRANCH   1   2
ATOM      2  C   UNL A   1      36.224  22.255  24.703  1.00  0.00     0.188 C 
BRANCH   2   3
ATOM      3  O   UNL A   1      35.041  22.078  25.461  1.00  0.00    -0.376 OA
BRANCH   3   4
ATOM      4  C   UNL A   1      34.286  20.878  25.285  1.00  0.00     0.202 C 
BRANCH   4   5
ATOM      5  C   UNL A   1      32.760  20.874  25.035  1.00  0.00     0.261 C 
BRANCH   5   6
ATOM      6  O   UNL A   1      32.256  21.444  23.792  1.00  0.00    -0.459 OA
BRANCH   6   7
ATOM      7  C   UNL A   1      32.159  22.812  23.833  1.00  0.00     0.361 C 
ATOM      8  O   UNL A   1      32.946  23.524  23.200  1.00  0.00    -0.245 OA
BRANCH   7   9
ATOM      9  C   UNL A   1      31.101  23.504  24.731  1.00  0.00     0.387 C 
BRANCH   9  10
ATOM     10  N   UNL A   1      30.888  24.983  24.802  1.00  0.00    -0.312 N 
ATOM     11  H   UNL A   1      31.626  25.350  24.202  1.00  0.00     0.349 HD
BRANCH  10  12
ATOM     12  C   UNL A   1      30.977  25.371  26.168  1.00  0.00     0.354 C 
BRANCH  12  13
ATOM     13  C   UNL A   1      31.408  26.770  26.576  1.00  0.00    -0.047 C 
ATOM     14  C   UNL A   1      31.779  27.971  26.925  1.00  0.00     0.010 C 
ENDBRANCH  12  13
ENDBRANCH  10  12
BRANCH  10  15
ATOM     15  C   UNL A   1      29.711  25.597  24.176  1.00  0.00     0.302 C 
BRANCH  15  16
ATOM     16  C   UNL A   1      30.113  26.747  23.342  1.00  0.00     0.032 A 
ATOM     17  C   UNL A   1      31.409  26.973  22.954  1.00  0.00     0.096 A 
ATOM     18  C   UNL A   1      29.376  27.905  22.990  1.00  0.00     0.008 A 
ATOM     19  N   UNL A   1      31.540  28.268  22.571  1.00  0.00    -0.347 N 
ATOM     20  C   UNL A   1      30.289  28.834  22.469  1.00  0.00     0.048 A 
ATOM     21  C   UNL A   1      28.036  28.284  23.181  1.00  0.00     0.011 A 
ATOM     22  C   UNL A   1      29.889  30.108  22.057  1.00  0.00     0.027 A 
ATOM     23  C   UNL A   1      27.636  29.566  22.806  1.00  0.00     0.001 A 
ATOM     24  C   UNL A   1      28.547  30.454  22.237  1.00  0.00     0.002 A 
BRANCH  19  25
ATOM     25  C   UNL A   1      32.816  28.956  22.651  1.00  0.00     0.119 C 
ATOM     26  C   UNL A   1      33.784  28.329  23.627  1.00  0.00     0.027 C 
ENDBRANCH  19  25
ENDBRANCH  15  16
ENDBRANCH  10  15
ENDBRANCH   9  10
ENDBRANCH   7   9
ENDBRANCH   6   7
ENDBRANCH   5   6
ENDBRANCH   4   5
ENDBRANCH   3   4
ENDBRANCH   2   3
ENDBRANCH   1   2
BRANCH   1  27
ATOM     27  O   UNL A   1      38.357  21.888  25.887  1.00  0.00    -0.377 OA
BRANCH  27  28
ATOM     28  C   UNL A   1      39.649  22.395  26.220  1.00  0.00     0.188 C 
BRANCH  28  29
ATOM     29  C   UNL A   1      40.484  21.536  27.174  1.00  0.00     0.188 C 
BRANCH  29  30
ATOM     30  O   UNL A   1      41.186  22.204  28.222  1.00  0.00    -0.376 OA
BRANCH  30  31
ATOM     31  C   UNL A   1      41.155  23.627  28.262  1.00  0.00     0.202 C 
BRANCH  31  32
ATOM     32  C   UNL A   1      42.511  24.328  28.382  1.00  0.00     0.261 C 
BRANCH  32  33
ATOM     33  O   UNL A   1      43.625  23.483  28.066  1.00  0.00    -0.460 OA
BRANCH  33  34
ATOM     34  C   UNL A   1      44.004  23.492  26.765  1.00  0.00     0.338 C 
ATOM     35  O   UNL A   1      43.553  22.842  25.845  1.00  0.00    -0.246 OA
BRANCH  34  36
ATOM     36  C   UNL A   1      45.017  24.547  26.590  1.00  0.00     0.060 A 
ATOM     37  C   UNL A   1      45.652  25.089  27.718  1.00  0.00     0.016 A 
ATOM     38  C   UNL A   1      45.270  25.046  25.313  1.00  0.00     0.016 A 
ATOM     39  C   UNL A   1      46.537  26.151  27.572  1.00  0.00     0.010 A 
ATOM     40  C   UNL A   1      46.131  26.129  25.171  1.00  0.00     0.010 A 
ATOM     41  C   UNL A   1      46.738  26.702  26.303  1.00  0.00    -0.014 A 
BRANCH  41  42
ATOM     42  C   UNL A   1      47.422  28.000  26.163  1.00  0.00     0.031 A 
ATOM     43  C   UNL A   1      48.893  27.993  25.882  1.00  0.00     0.074 A 
ATOM     44  C   UNL A   1      46.742  29.146  26.318  1.00  0.00     0.049 A 
ATOM     45  N   UNL A   1      49.744  28.984  25.877  1.00  0.00    -0.248 NA
ATOM     46  C   UNL A   1      49.491  26.681  25.575  1.00  0.00     0.031 C 
ATOM     47  C   UNL A   1      45.301  29.251  26.532  1.00  0.00     0.029 A 
ATOM     48  N   UNL A   1      47.187  30.441  26.342  1.00  0.00    -0.354 N 
ATOM     49  C   UNL A   1      50.976  28.417  25.582  1.00  0.00     0.074 A 
ATOM     50  C   UNL A   1      50.770  26.992  25.445  1.00  0.00     0.031 C 
ATOM     51  C   UNL A   1      44.981  30.546  26.691  1.00  0.00     0.029 A 
ATOM     52  C   UNL A   1      46.201  31.347  26.640  1.00  0.00     0.049 A 
ATOM     53  H   UNL A   1      48.121  30.696  26.164  1.00  0.00     0.167 HD
ATOM     54  C   UNL A   1      52.169  29.038  25.440  1.00  0.00     0.037 A 
ATOM     55  C   UNL A   1      46.296  32.667  26.884  1.00  0.00     0.037 A 
ATOM     56  C   UNL A   1      52.350  30.456  25.599  1.00  0.00     0.049 A 
ATOM     57  C   UNL A   1      47.653  33.320  26.825  1.00  0.00     0.074 A 
ATOM     58  C   UNL A   1      53.509  31.200  25.476  1.00  0.00     0.029 A 
ATOM     59  N   UNL A   1      51.335  31.344  25.931  1.00  0.00    -0.354 N 
ATOM     60  N   UNL A   1      48.818  32.789  26.536  1.00  0.00    -0.248 NA
ATOM     61  C   UNL A   1      47.709  34.755  27.132  1.00  0.00     0.031 C 
ATOM     62  C   UNL A   1      53.207  32.528  25.795  1.00  0.00     0.029 A 
ATOM     63  C   UNL A   1      51.847  32.625  26.049  1.00  0.00     0.049 A 
ATOM     64  H   UNL A   1      50.391  31.099  26.063  1.00  0.00     0.167 HD
ATOM     65  C   UNL A   1      49.738  33.828  26.592  1.00  0.00     0.074 A 
ATOM     66  C   UNL A   1      48.992  35.022  26.933  1.00  0.00     0.031 C 
ATOM     67  C   UNL A   1      51.078  33.799  26.380  1.00  0.00     0.037 A 
BRANCH  54  68
ATOM     68  C   UNL A   1      53.365  28.180  25.138  1.00  0.00     0.064 A 
ATOM     69  C   UNL A   1      54.063  27.500  26.148  1.00  0.00     0.173 A 
ATOM     70  C   UNL A   1      53.817  28.032  23.818  1.00  0.00     0.173 A 
ATOM     71  F   UNL A   1      53.684  27.619  27.429  1.00  0.00    -0.203 F 
ATOM     72  C   UNL A   1      55.188  26.733  25.851  1.00  0.00     0.198 A 
ATOM     73  C   UNL A   1      54.920  27.236  23.521  1.00  0.00     0.198 A 
ATOM     74  F   UNL A   1      53.188  28.659  22.813  1.00  0.00    -0.203 F 
ATOM     75  F   UNL A   1      55.874  26.143  26.840  1.00  0.00    -0.200 F 
ATOM     76  C   UNL A   1      55.611  26.596  24.538  1.00  0.00     0.200 A 
ATOM     77  F   UNL A   1      55.320  27.096  22.249  1.00  0.00    -0.200 F 
ATOM     78  F   UNL A   1      56.691  25.856  24.253  1.00  0.00    -0.200 F 
ENDBRANCH  54  68
BRANCH  55  79
ATOM     79  C   UNL A   1      45.078  33.451  27.215  1.00  0.00     0.064 A 
ATOM     80  C   UNL A   1      44.384  34.153  26.221  1.00  0.00     0.173 A 
ATOM     81  C   UNL A   1      44.583  33.520  28.526  1.00  0.00     0.173 A 
ATOM     82  F   UNL A   1      44.830  34.135  24.955  1.00  0.00    -0.203 F 
ATOM     83  C   UNL A   1      43.254  34.909  26.526  1.00  0.00     0.198 A 
ATOM     84  C   UNL A   1      43.434  34.250  28.826  1.00  0.00     0.198 A 
ATOM     85  F   UNL A   1      45.207  32.865  29.517  1.00  0.00    -0.203 F 
ATOM     86  F   UNL A   1      42.637  35.605  25.562  1.00  0.00    -0.200 F 
ATOM     87  C   UNL A   1      42.776  34.951  27.827  1.00  0.00     0.200 A 
ATOM     88  F   UNL A   1      42.966  34.274  30.081  1.00  0.00    -0.200 F 
ATOM     89  F   UNL A   1      41.685  35.672  28.118  1.00  0.00    -0.200 F 
ENDBRANCH  55  79
BRANCH  67  90
ATOM     90  C   UNL A   1      51.817  35.104  26.465  1.00  0.00     0.064 A 
ATOM     91  C   UNL A   1      51.953  35.950  25.356  1.00  0.00     0.173 A 
ATOM     92  C   UNL A   1      52.346  35.537  27.691  1.00  0.00     0.173 A 
ATOM     93  F   UNL A   1      51.479  35.575  24.157  1.00  0.00    -0.203 F 
ATOM     94  C   UNL A   1      52.613  37.172  25.465  1.00  0.00     0.198 A 
ATOM     95  C   UNL A   1      52.971  36.774  27.805  1.00  0.00     0.198 A 
ATOM     96  F   UNL A   1      52.235  34.769  28.785  1.00  0.00    -0.203 F 
ATOM     97  F   UNL A   1      52.774  37.942  24.381  1.00  0.00    -0.200 F 
ATOM     98  C   UNL A   1      53.112  37.587  26.691  1.00  0.00     0.200 A 
ATOM     99  F   UNL A   1      53.437  37.181  28.994  1.00  0.00    -0.200 F 
ATOM    100  F   UNL A   1      53.732  38.769  26.796  1.00  0.00    -0.200 F 
ENDBRANCH  67  90
ENDBRANCH  41  42
ENDBRANCH  34  36
ENDBRANCH  33  34
ENDBRANCH  32  33
ENDBRANCH  31  32
ENDBRANCH  30  31
ENDBRANCH  29  30
ENDBRANCH  28  29
ENDBRANCH  27  28
ENDBRANCH   1  27
TORSDOF 26
ENDMDL
