MODEL 1
REMARK VINA RESULT:     -11.1      0.000      0.000
REMARK SMILES O=C(Cn1cnc(-c2ccccc2)c1-c1ccccc1)OCCOCCOCCOCCOC(=O)c1ccc(-c2c3nc(c(-c4c(F)c(F)c(F)c(F)c4F)c4ccc([nH]4)c(-c4c(F)c(F)c(F)c(F)c4F)c4nc(c(-c5c(F)c(F)c(F)c(F)c5F)c5ccc2[nH]5)C=C4)C=C3)cc1
REMARK SMILES IDX 27 1 26 2 25 3 24 4 23 5 22 6 21 7 2 8 1 9 3 10 4 11 5 12
REMARK SMILES IDX 14 13 6 14 7 15 15 16 16 17 20 18 17 19 19 20 18 21 8 22
REMARK SMILES IDX 9 23 13 24 10 25 12 26 11 27 28 28 29 29 30 30 31 31 32 32
REMARK SMILES IDX 33 33 34 34 35 35 36 36 37 37 98 38 38 39 97 40 39 41 40 42
REMARK SMILES IDX 41 43 91 44 42 45 96 46 90 47 92 48 43 49 95 50 89 51 88 52
REMARK SMILES IDX 44 54 76 55 56 56 75 57 57 58 60 59 74 60 93 61 58 62 59 63
REMARK SMILES IDX 73 65 94 66 61 67 45 68 46 69 54 70 47 71 48 72 52 73 55 74
REMARK SMILES IDX 49 75 50 76 53 77 51 78 77 79 78 80 86 81 79 82 80 83 84 84
REMARK SMILES IDX 87 85 81 86 82 87 85 88 83 89 62 90 63 91 71 92 64 93 65 94
REMARK SMILES IDX 69 95 72 96 66 97 67 98 70 99 68 100
REMARK H PARENT 92 53 60 64
REMARK Flexibility Score: inf
ROOT
ATOM      1  O   UNL A   1      34.897  20.970  24.605  1.00  0.00    -0.377 OA
ENDROOT
BRANCH   1   2
ATOM      2  C   UNL A   1      33.845  20.096  24.993  1.00  0.00     0.188 C 
BRANCH   2   3
ATOM      3  C   UNL A   1      32.441  20.550  24.584  1.00  0.00     0.188 C 
BRANCH   3   4
ATOM      4  O   UNL A   1      32.239  20.886  23.220  1.00  0.00    -0.376 OA
BRANCH   4   5
ATOM      5  C   UNL A   1      32.190  22.214  22.721  1.00  0.00     0.202 C 
BRANCH   5   6
ATOM      6  C   UNL A   1      33.474  23.001  22.542  1.00  0.00     0.261 C 
BRANCH   6   7
ATOM      7  O   UNL A   1      33.538  24.103  21.604  1.00  0.00    -0.462 OA
BRANCH   7   8
ATOM      8  C   UNL A   1      32.792  25.199  21.388  1.00  0.00     0.326 C 
ATOM      9  O   UNL A   1      33.135  25.979  20.497  1.00  0.00    -0.250 OA
BRANCH   8  10
ATOM     10  C   UNL A   1      31.561  25.473  22.196  1.00  0.00     0.246 C 
BRANCH  10  11
ATOM     11  N   UNL A   1      31.707  26.668  22.983  1.00  0.00    -0.319 N 
ATOM     12  C   UNL A   1      31.195  27.887  22.642  1.00  0.00     0.201 A 
ATOM     13  C   UNL A   1      32.333  26.782  24.203  1.00  0.00     0.076 A 
ATOM     14  N   UNL A   1      31.513  28.804  23.519  1.00  0.00    -0.236 NA
ATOM     15  C   UNL A   1      32.260  28.143  24.464  1.00  0.00     0.096 A 
BRANCH  13  16
ATOM     16  C   UNL A   1      32.842  25.655  24.983  1.00  0.00     0.000 A 
ATOM     17  C   UNL A   1      34.208  25.351  24.944  1.00  0.00     0.010 A 
ATOM     18  C   UNL A   1      32.005  24.912  25.828  1.00  0.00     0.010 A 
ATOM     19  C   UNL A   1      34.734  24.340  25.751  1.00  0.00     0.001 A 
ATOM     20  C   UNL A   1      32.535  23.914  26.648  1.00  0.00     0.001 A 
ATOM     21  C   UNL A   1      33.898  23.629  26.610  1.00  0.00     0.000 A 
ENDBRANCH  13  16
BRANCH  15  22
ATOM     22  C   UNL A   1      32.886  28.842  25.559  1.00  0.00     0.002 A 
ATOM     23  C   UNL A   1      32.189  29.859  26.218  1.00  0.00     0.010 A 
ATOM     24  C   UNL A   1      34.211  28.562  25.912  1.00  0.00     0.010 A 
ATOM     25  C   UNL A   1      32.811  30.581  27.236  1.00  0.00     0.001 A 
ATOM     26  C   UNL A   1      34.832  29.288  26.923  1.00  0.00     0.001 A 
ATOM     27  C   UNL A   1      34.131  30.296  27.586  1.00  0.00     0.000 A 
ENDBRANCH  15  22
ENDBRANCH  10  11
ENDBRANCH   8  10
ENDBRANCH   7   8
ENDBRANCH   6   7
ENDBRANCH   5   6
ENDBRANCH   4   5
ENDBRANCH   3   4
ENDBRANCH   2   3
ENDBRANCH   1   2
BRANCH   1  28
ATOM     28  C   UNL A   1      36.083  20.806  25.365  1.00  0.00     0.188 C 
BRANCH  28  29
ATOM     29  C   UNL A   1      37.317  21.572  24.840  1.00  0.00     0.188 C 
BRANCH  29  30
ATOM     30  O   UNL A   1      38.136  22.406  25.653  1.00  0.00    -0.376 OA
BRANCH  30  31
ATOM     31  C   UNL A   1      39.339  21.954  26.263  1.00  0.00     0.202 C 
BRANCH  31  32
ATOM     32  C   UNL A   1      40.049  22.827  27.296  1.00  0.00     0.261 C 
BRANCH  32  33
ATOM     33  O   UNL A   1      40.003  24.201  26.943  1.00  0.00    -0.460 OA
BRANCH  33  34
ATOM     34  C   UNL A   1      41.029  24.926  27.409  1.00  0.00     0.338 C 
ATOM     35  O   UNL A   1      42.208  24.853  27.067  1.00  0.00    -0.246 OA
BRANCH  34  36
ATOM     36  C   UNL A   1      40.541  25.874  28.417  1.00  0.00     0.060 A 
ATOM     37  C   UNL A   1      39.324  26.504  28.146  1.00  0.00     0.016 A 
ATOM     38  C   UNL A   1      41.335  26.246  29.514  1.00  0.00     0.016 A 
ATOM     39  C   UNL A   1      39.036  27.678  28.799  1.00  0.00     0.010 A 
ATOM     40  C   UNL A   1      41.045  27.417  30.176  1.00  0.00     0.010 A 
ATOM     41  C   UNL A   1      39.972  28.173  29.710  1.00  0.00    -0.014 A 
BRANCH  41  42
ATOM     42  C   UNL A   1      39.951  29.603  29.934  1.00  0.00     0.031 A 
ATOM     43  C   UNL A   1      41.201  30.342  29.715  1.00  0.00     0.074 A 
ATOM     44  C   UNL A   1      38.800  30.203  30.298  1.00  0.00     0.049 A 
ATOM     45  N   UNL A   1      41.879  31.023  30.578  1.00  0.00    -0.248 NA
ATOM     46  C   UNL A   1      41.799  30.276  28.377  1.00  0.00     0.031 C 
ATOM     47  C   UNL A   1      37.446  29.639  30.266  1.00  0.00     0.029 A 
ATOM     48  N   UNL A   1      38.596  31.493  30.678  1.00  0.00    -0.354 N 
ATOM     49  C   UNL A   1      42.908  31.612  29.860  1.00  0.00     0.074 A 
ATOM     50  C   UNL A   1      42.884  31.031  28.540  1.00  0.00     0.031 C 
ATOM     51  C   UNL A   1      36.550  30.640  30.410  1.00  0.00     0.029 A 
ATOM     52  C   UNL A   1      37.266  31.878  30.660  1.00  0.00     0.049 A 
ATOM     53  H   UNL A   1      39.326  32.097  30.942  1.00  0.00     0.167 HD
ATOM     54  C   UNL A   1      43.580  32.694  30.332  1.00  0.00     0.037 A 
ATOM     55  C   UNL A   1      36.799  33.144  30.756  1.00  0.00     0.037 A 
ATOM     56  C   UNL A   1      43.428  32.862  31.750  1.00  0.00     0.049 A 
ATOM     57  C   UNL A   1      37.873  33.982  31.348  1.00  0.00     0.074 A 
ATOM     58  C   UNL A   1      43.730  32.088  32.853  1.00  0.00     0.029 A 
ATOM     59  N   UNL A   1      42.591  33.848  32.209  1.00  0.00    -0.354 N 
ATOM     60  N   UNL A   1      38.261  33.918  32.591  1.00  0.00    -0.248 NA
ATOM     61  C   UNL A   1      38.797  34.650  30.443  1.00  0.00     0.031 C 
ATOM     62  C   UNL A   1      42.713  32.374  33.809  1.00  0.00     0.029 A 
ATOM     63  C   UNL A   1      41.856  33.312  33.236  1.00  0.00     0.049 A 
ATOM     64  H   UNL A   1      42.529  34.768  31.865  1.00  0.00     0.167 HD
ATOM     65  C   UNL A   1      39.626  34.160  32.549  1.00  0.00     0.074 A 
ATOM     66  C   UNL A   1      39.873  34.723  31.229  1.00  0.00     0.031 C 
ATOM     67  C   UNL A   1      40.466  33.619  33.479  1.00  0.00     0.037 A 
BRANCH  54  68
ATOM     68  C   UNL A   1      44.123  33.767  29.436  1.00  0.00     0.064 A 
ATOM     69  C   UNL A   1      43.245  34.578  28.699  1.00  0.00     0.173 A 
ATOM     70  C   UNL A   1      45.487  33.847  29.083  1.00  0.00     0.173 A 
ATOM     71  F   UNL A   1      41.924  34.533  28.925  1.00  0.00    -0.203 F 
ATOM     72  C   UNL A   1      43.702  35.396  27.664  1.00  0.00     0.198 A 
ATOM     73  C   UNL A   1      45.947  34.705  28.089  1.00  0.00     0.198 A 
ATOM     74  F   UNL A   1      46.402  33.023  29.613  1.00  0.00    -0.203 F 
ATOM     75  F   UNL A   1      42.822  36.078  26.918  1.00  0.00    -0.200 F 
ATOM     76  C   UNL A   1      45.052  35.463  27.363  1.00  0.00     0.200 A 
ATOM     77  F   UNL A   1      47.255  34.737  27.797  1.00  0.00    -0.200 F 
ATOM     78  F   UNL A   1      45.486  36.217  26.345  1.00  0.00    -0.200 F 
ENDBRANCH  54  68
BRANCH  55  79
ATOM     79  C   UNL A   1      35.589  33.715  30.125  1.00  0.00     0.064 A 
ATOM     80  C   UNL A   1      34.551  34.248  30.903  1.00  0.00     0.173 A 
ATOM     81  C   UNL A   1      35.529  33.972  28.740  1.00  0.00     0.173 A 
ATOM     82  F   UNL A   1      34.559  34.093  32.235  1.00  0.00    -0.203 F 
ATOM     83  C   UNL A   1      33.523  35.004  30.333  1.00  0.00     0.198 A 
ATOM     84  C   UNL A   1      34.493  34.712  28.169  1.00  0.00     0.198 A 
ATOM     85  F   UNL A   1      36.521  33.593  27.921  1.00  0.00    -0.203 F 
ATOM     86  F   UNL A   1      32.583  35.550  31.117  1.00  0.00    -0.200 F 
ATOM     87  C   UNL A   1      33.497  35.238  28.968  1.00  0.00     0.200 A 
ATOM     88  F   UNL A   1      34.500  34.959  26.852  1.00  0.00    -0.200 F 
ATOM     89  F   UNL A   1      32.540  36.005  28.428  1.00  0.00    -0.200 F 
ENDBRANCH  55  79
BRANCH  67  90
ATOM     90  C   UNL A   1      39.848  33.046  34.720  1.00  0.00     0.064 A 
ATOM     91  C   UNL A   1      39.641  33.786  35.897  1.00  0.00     0.173 A 
ATOM     92  C   UNL A   1      39.334  31.743  34.674  1.00  0.00     0.173 A 
ATOM     93  F   UNL A   1      40.008  35.072  35.974  1.00  0.00    -0.203 F 
ATOM     94  C   UNL A   1      38.998  33.222  36.998  1.00  0.00     0.198 A 
ATOM     95  C   UNL A   1      38.660  31.195  35.763  1.00  0.00     0.198 A 
ATOM     96  F   UNL A   1      39.447  31.014  33.553  1.00  0.00    -0.203 F 
ATOM     97  F   UNL A   1      38.828  33.941  38.117  1.00  0.00    -0.200 F 
ATOM     98  C   UNL A   1      38.505  31.930  36.928  1.00  0.00     0.200 A 
ATOM     99  F   UNL A   1      38.139  29.964  35.674  1.00  0.00    -0.200 F 
ATOM    100  F   UNL A   1      37.855  31.400  37.974  1.00  0.00    -0.200 F 
ENDBRANCH  67  90
ENDBRANCH  41  42
ENDBRANCH  34  36
ENDBRANCH  33  34
ENDBRANCH  32  33
ENDBRANCH  31  32
ENDBRANCH  30  31
ENDBRANCH  29  30
ENDBRANCH  28  29
ENDBRANCH   1  28
TORSDOF 23
ENDMDL
MODEL 2
REMARK VINA RESULT:     -10.6      1.412      2.515
REMARK SMILES O=C(Cn1cnc(-c2ccccc2)c1-c1ccccc1)OCCOCCOCCOCCOC(=O)c1ccc(-c2c3nc(c(-c4c(F)c(F)c(F)c(F)c4F)c4ccc([nH]4)c(-c4c(F)c(F)c(F)c(F)c4F)c4nc(c(-c5c(F)c(F)c(F)c(F)c5F)c5ccc2[nH]5)C=C4)C=C3)cc1
REMARK SMILES IDX 27 1 26 2 25 3 24 4 23 5 22 6 21 7 2 8 1 9 3 10 4 11 5 12
REMARK SMILES IDX 14 13 6 14 7 15 15 16 16 17 20 18 17 19 19 20 18 21 8 22
REMARK SMILES IDX 9 23 13 24 10 25 12 26 11 27 28 28 29 29 30 30 31 31 32 32
REMARK SMILES IDX 33 33 34 34 35 35 36 36 37 37 98 38 38 39 97 40 39 41 40 42
REMARK SMILES IDX 41 43 91 44 42 45 96 46 90 47 92 48 43 49 95 50 89 51 88 52
REMARK SMILES IDX 44 54 76 55 56 56 75 57 57 58 60 59 74 60 93 61 58 62 59 63
REMARK SMILES IDX 73 65 94 66 61 67 45 68 46 69 54 70 47 71 48 72 52 73 55 74
REMARK SMILES IDX 49 75 50 76 53 77 51 78 77 79 78 80 86 81 79 82 80 83 84 84
REMARK SMILES IDX 87 85 81 86 82 87 85 88 83 89 62 90 63 91 71 92 64 93 65 94
REMARK SMILES IDX 69 95 72 96 66 97 67 98 70 99 68 100
REMARK H PARENT 92 53 60 64
REMARK Flexibility Score: inf
ROOT
ATOM      1  O   UNL A   1      34.842  20.740  24.589  1.00  0.00    -0.377 OA
ENDROOT
BRANCH   1   2
ATOM      2  C   UNL A   1      33.732  19.940  24.972  1.00  0.00     0.188 C 
BRANCH   2   3
ATOM      3  C   UNL A   1      32.362  20.506  24.587  1.00  0.00     0.188 C 
BRANCH   3   4
ATOM      4  O   UNL A   1      32.183  20.915  23.240  1.00  0.00    -0.376 OA
BRANCH   4   5
ATOM      5  C   UNL A   1      32.213  22.265  22.802  1.00  0.00     0.202 C 
BRANCH   5   6
ATOM      6  C   UNL A   1      33.542  22.938  22.516  1.00  0.00     0.261 C 
BRANCH   6   7
ATOM      7  O   UNL A   1      33.602  24.140  21.711  1.00  0.00    -0.462 OA
BRANCH   7   8
ATOM      8  C   UNL A   1      32.780  25.185  21.519  1.00  0.00     0.326 C 
ATOM      9  O   UNL A   1      33.080  26.021  20.663  1.00  0.00    -0.250 OA
BRANCH   8  10
ATOM     10  C   UNL A   1      31.518  25.338  22.310  1.00  0.00     0.246 C 
BRANCH  10  11
ATOM     11  N   UNL A   1      31.527  26.553  23.080  1.00  0.00    -0.319 N 
ATOM     12  C   UNL A   1      30.778  27.658  22.794  1.00  0.00     0.201 A 
ATOM     13  C   UNL A   1      32.240  26.794  24.233  1.00  0.00     0.076 A 
ATOM     14  N   UNL A   1      31.013  28.629  23.636  1.00  0.00    -0.236 NA
ATOM     15  C   UNL A   1      31.954  28.125  24.501  1.00  0.00     0.096 A 
BRANCH  13  16
ATOM     16  C   UNL A   1      33.013  25.786  24.957  1.00  0.00     0.000 A 
ATOM     17  C   UNL A   1      32.354  24.897  25.815  1.00  0.00     0.010 A 
ATOM     18  C   UNL A   1      34.393  25.641  24.759  1.00  0.00     0.010 A 
ATOM     19  C   UNL A   1      33.055  23.867  26.445  1.00  0.00     0.001 A 
ATOM     20  C   UNL A   1      35.090  24.599  25.375  1.00  0.00     0.001 A 
ATOM     21  C   UNL A   1      34.421  23.713  26.216  1.00  0.00     0.000 A 
ENDBRANCH  13  16
BRANCH  15  22
ATOM     22  C   UNL A   1      32.550  28.941  25.531  1.00  0.00     0.002 A 
ATOM     23  C   UNL A   1      33.617  28.438  26.280  1.00  0.00     0.010 A 
ATOM     24  C   UNL A   1      32.015  30.198  25.834  1.00  0.00     0.010 A 
ATOM     25  C   UNL A   1      34.157  29.197  27.318  1.00  0.00     0.001 A 
ATOM     26  C   UNL A   1      32.550  30.951  26.876  1.00  0.00     0.001 A 
ATOM     27  C   UNL A   1      33.621  30.451  27.615  1.00  0.00     0.000 A 
ENDBRANCH  15  22
ENDBRANCH  10  11
ENDBRANCH   8  10
ENDBRANCH   7   8
ENDBRANCH   6   7
ENDBRANCH   5   6
ENDBRANCH   4   5
ENDBRANCH   3   4
ENDBRANCH   2   3
ENDBRANCH   1   2
BRANCH   1  28
ATOM     28  C   UNL A   1      36.012  20.492  25.351  1.00  0.00     0.188 C 
BRANCH  28  29
ATOM     29  C   UNL A   1      37.320  21.058  24.758  1.00  0.00     0.188 C 
BRANCH  29  30
ATOM     30  O   UNL A   1      38.216  21.901  25.475  1.00  0.00    -0.376 OA
BRANCH  30  31
ATOM     31  C   UNL A   1      39.384  21.417  26.126  1.00  0.00     0.202 C 
BRANCH  31  32
ATOM     32  C   UNL A   1      40.203  22.344  27.023  1.00  0.00     0.261 C 
BRANCH  32  33
ATOM     33  O   UNL A   1      40.249  23.666  26.508  1.00  0.00    -0.460 OA
BRANCH  33  34
ATOM     34  C   UNL A   1      41.353  24.350  26.838  1.00  0.00     0.338 C 
ATOM     35  O   UNL A   1      42.487  24.196  26.386  1.00  0.00    -0.246 OA
BRANCH  34  36
ATOM     36  C   UNL A   1      41.018  25.364  27.845  1.00  0.00     0.060 A 
ATOM     37  C   UNL A   1      39.838  26.081  27.641  1.00  0.00     0.016 A 
ATOM     38  C   UNL A   1      41.919  25.702  28.867  1.00  0.00     0.016 A 
ATOM     39  C   UNL A   1      39.693  27.294  28.271  1.00  0.00     0.010 A 
ATOM     40  C   UNL A   1      41.774  26.913  29.506  1.00  0.00     0.010 A 
ATOM     41  C   UNL A   1      40.731  27.739  29.093  1.00  0.00    -0.014 A 
BRANCH  41  42
ATOM     42  C   UNL A   1      40.839  29.172  29.267  1.00  0.00     0.031 A 
ATOM     43  C   UNL A   1      42.034  29.832  28.724  1.00  0.00     0.074 A 
ATOM     44  C   UNL A   1      39.845  29.845  29.879  1.00  0.00     0.049 A 
ATOM     45  N   UNL A   1      42.937  30.490  29.373  1.00  0.00    -0.248 NA
ATOM     46  C   UNL A   1      42.281  29.704  27.284  1.00  0.00     0.031 C 
ATOM     47  C   UNL A   1      38.497  29.360  30.198  1.00  0.00     0.029 A 
ATOM     48  N   UNL A   1      39.807  31.152  30.253  1.00  0.00    -0.354 N 
ATOM     49  C   UNL A   1      43.787  31.003  28.406  1.00  0.00     0.074 A 
ATOM     50  C   UNL A   1      43.410  30.397  27.152  1.00  0.00     0.031 C 
ATOM     51  C   UNL A   1      37.717  30.414  30.522  1.00  0.00     0.029 A 
ATOM     52  C   UNL A   1      38.535  31.614  30.547  1.00  0.00     0.049 A 
ATOM     53  H   UNL A   1      40.610  31.718  30.311  1.00  0.00     0.167 HD
ATOM     54  C   UNL A   1      44.609  32.053  28.663  1.00  0.00     0.037 A 
ATOM     55  C   UNL A   1      38.172  32.906  30.711  1.00  0.00     0.037 A 
ATOM     56  C   UNL A   1      44.818  32.259  30.069  1.00  0.00     0.049 A 
ATOM     57  C   UNL A   1      39.400  33.692  30.996  1.00  0.00     0.074 A 
ATOM     58  C   UNL A   1      45.342  31.491  31.091  1.00  0.00     0.029 A 
ATOM     59  N   UNL A   1      44.171  33.301  30.684  1.00  0.00    -0.354 N 
ATOM     60  N   UNL A   1      40.076  33.631  32.108  1.00  0.00    -0.248 NA
ATOM     61  C   UNL A   1      40.106  34.286  29.870  1.00  0.00     0.031 C 
ATOM     62  C   UNL A   1      44.606  31.855  32.256  1.00  0.00     0.029 A 
ATOM     63  C   UNL A   1      43.684  32.830  31.877  1.00  0.00     0.049 A 
ATOM     64  H   UNL A   1      44.074  34.216  30.334  1.00  0.00     0.167 HD
ATOM     65  C   UNL A   1      41.400  33.792  31.726  1.00  0.00     0.074 A 
ATOM     66  C   UNL A   1      41.345  34.313  30.367  1.00  0.00     0.031 C 
ATOM     67  C   UNL A   1      42.414  33.222  32.441  1.00  0.00     0.037 A 
BRANCH  54  68
ATOM     68  C   UNL A   1      44.970  33.074  27.626  1.00  0.00     0.064 A 
ATOM     69  C   UNL A   1      46.270  33.111  27.098  1.00  0.00     0.173 A 
ATOM     70  C   UNL A   1      44.146  34.182  27.328  1.00  0.00     0.173 A 
ATOM     71  F   UNL A   1      47.144  32.130  27.369  1.00  0.00    -0.203 F 
ATOM     72  C   UNL A   1      46.721  34.195  26.343  1.00  0.00     0.198 A 
ATOM     73  C   UNL A   1      44.580  35.234  26.527  1.00  0.00     0.198 A 
ATOM     74  F   UNL A   1      42.937  34.331  27.887  1.00  0.00    -0.203 F 
ATOM     75  F   UNL A   1      47.999  34.241  25.942  1.00  0.00    -0.200 F 
ATOM     76  C   UNL A   1      45.875  35.253  26.053  1.00  0.00     0.200 A 
ATOM     77  F   UNL A   1      43.752  36.259  26.279  1.00  0.00    -0.200 F 
ATOM     78  F   UNL A   1      46.319  36.311  25.363  1.00  0.00    -0.200 F 
ENDBRANCH  54  68
BRANCH  55  79
ATOM     79  C   UNL A   1      36.874  33.534  30.375  1.00  0.00     0.064 A 
ATOM     80  C   UNL A   1      36.438  33.625  29.046  1.00  0.00     0.173 A 
ATOM     81  C   UNL A   1      35.922  33.838  31.369  1.00  0.00     0.173 A 
ATOM     82  F   UNL A   1      37.266  33.302  28.041  1.00  0.00    -0.203 F 
ATOM     83  C   UNL A   1      35.126  33.985  28.729  1.00  0.00     0.198 A 
ATOM     84  C   UNL A   1      34.618  34.216  31.052  1.00  0.00     0.198 A 
ATOM     85  F   UNL A   1      36.207  33.688  32.671  1.00  0.00    -0.203 F 
ATOM     86  F   UNL A   1      34.728  34.001  27.449  1.00  0.00    -0.200 F 
ATOM     87  C   UNL A   1      34.216  34.277  29.732  1.00  0.00     0.200 A 
ATOM     88  F   UNL A   1      33.740  34.462  32.035  1.00  0.00    -0.200 F 
ATOM     89  F   UNL A   1      32.945  34.574  29.431  1.00  0.00    -0.200 F 
ENDBRANCH  55  79
BRANCH  67  90
ATOM     90  C   UNL A   1      42.090  32.711  33.814  1.00  0.00     0.064 A 
ATOM     91  C   UNL A   1      41.564  31.432  34.062  1.00  0.00     0.173 A 
ATOM     92  C   UNL A   1      42.443  33.493  34.922  1.00  0.00     0.173 A 
ATOM     93  F   UNL A   1      41.306  30.587  33.054  1.00  0.00    -0.203 F 
ATOM     94  C   UNL A   1      41.347  30.983  35.363  1.00  0.00     0.198 A 
ATOM     95  C   UNL A   1      42.259  33.027  36.221  1.00  0.00     0.198 A 
ATOM     96  F   UNL A   1      43.009  34.697  34.743  1.00  0.00    -0.203 F 
ATOM     97  F   UNL A   1      40.826  29.765  35.576  1.00  0.00    -0.200 F 
ATOM     98  C   UNL A   1      41.700  31.779  36.441  1.00  0.00     0.200 A 
ATOM     99  F   UNL A   1      42.649  33.778  37.260  1.00  0.00    -0.200 F 
ATOM    100  F   UNL A   1      41.525  31.332  37.693  1.00  0.00    -0.200 F 
ENDBRANCH  67  90
ENDBRANCH  41  42
ENDBRANCH  34  36
ENDBRANCH  33  34
ENDBRANCH  32  33
ENDBRANCH  31  32
ENDBRANCH  30  31
ENDBRANCH  29  30
ENDBRANCH  28  29
ENDBRANCH   1  28
TORSDOF 23
ENDMDL
MODEL 3
REMARK VINA RESULT:     -10.3      5.589     10.712
REMARK SMILES O=C(Cn1cnc(-c2ccccc2)c1-c1ccccc1)OCCOCCOCCOCCOC(=O)c1ccc(-c2c3nc(c(-c4c(F)c(F)c(F)c(F)c4F)c4ccc([nH]4)c(-c4c(F)c(F)c(F)c(F)c4F)c4nc(c(-c5c(F)c(F)c(F)c(F)c5F)c5ccc2[nH]5)C=C4)C=C3)cc1
REMARK SMILES IDX 27 1 26 2 25 3 24 4 23 5 22 6 21 7 2 8 1 9 3 10 4 11 5 12
REMARK SMILES IDX 14 13 6 14 7 15 15 16 16 17 20 18 17 19 19 20 18 21 8 22
REMARK SMILES IDX 9 23 13 24 10 25 12 26 11 27 28 28 29 29 30 30 31 31 32 32
REMARK SMILES IDX 33 33 34 34 35 35 36 36 37 37 98 38 38 39 97 40 39 41 40 42
REMARK SMILES IDX 41 43 91 44 42 45 96 46 90 47 92 48 43 49 95 50 89 51 88 52
REMARK SMILES IDX 44 54 76 55 56 56 75 57 57 58 60 59 74 60 93 61 58 62 59 63
REMARK SMILES IDX 73 65 94 66 61 67 45 68 46 69 54 70 47 71 48 72 52 73 55 74
REMARK SMILES IDX 49 75 50 76 53 77 51 78 77 79 78 80 86 81 79 82 80 83 84 84
REMARK SMILES IDX 87 85 81 86 82 87 85 88 83 89 62 90 63 91 71 92 64 93 65 94
REMARK SMILES IDX 69 95 72 96 66 97 67 98 70 99 68 100
REMARK H PARENT 92 53 60 64
REMARK Flexibility Score: inf
ROOT
ATOM      1  O   UNL A   1      33.936  33.037  28.057  1.00  0.00    -0.377 OA
ENDROOT
BRANCH   1   2
ATOM      2  C   UNL A   1      34.201  31.782  27.444  1.00  0.00     0.188 C 
BRANCH   2   3
ATOM      3  C   UNL A   1      33.018  30.810  27.422  1.00  0.00     0.188 C 
BRANCH   3   4
ATOM      4  O   UNL A   1      32.965  29.877  26.354  1.00  0.00    -0.376 OA
BRANCH   4   5
ATOM      5  C   UNL A   1      31.976  29.881  25.335  1.00  0.00     0.202 C 
BRANCH   5   6
ATOM      6  C   UNL A   1      32.077  28.902  24.181  1.00  0.00     0.261 C 
BRANCH   6   7
ATOM      7  O   UNL A   1      31.918  27.479  24.406  1.00  0.00    -0.462 OA
BRANCH   7   8
ATOM      8  C   UNL A   1      32.740  26.419  24.339  1.00  0.00     0.326 C 
ATOM      9  O   UNL A   1      33.389  26.241  23.307  1.00  0.00    -0.250 OA
BRANCH   8  10
ATOM     10  C   UNL A   1      32.885  25.474  25.492  1.00  0.00     0.246 C 
BRANCH  10  11
ATOM     11  N   UNL A   1      32.361  24.173  25.170  1.00  0.00    -0.319 N 
ATOM     12  C   UNL A   1      31.033  23.882  25.045  1.00  0.00     0.201 A 
ATOM     13  C   UNL A   1      33.087  23.036  24.896  1.00  0.00     0.076 A 
ATOM     14  N   UNL A   1      30.842  22.614  24.787  1.00  0.00    -0.236 NA
ATOM     15  C   UNL A   1      32.103  22.070  24.742  1.00  0.00     0.096 A 
BRANCH  13  16
ATOM     16  C   UNL A   1      34.541  22.995  24.747  1.00  0.00     0.000 A 
ATOM     17  C   UNL A   1      35.107  23.135  23.474  1.00  0.00     0.010 A 
ATOM     18  C   UNL A   1      35.388  22.890  25.859  1.00  0.00     0.010 A 
ATOM     19  C   UNL A   1      36.493  23.194  23.316  1.00  0.00     0.001 A 
ATOM     20  C   UNL A   1      36.773  22.967  25.702  1.00  0.00     0.001 A 
ATOM     21  C   UNL A   1      37.325  23.120  24.431  1.00  0.00     0.000 A 
ENDBRANCH  13  16
BRANCH  15  22
ATOM     22  C   UNL A   1      32.310  20.652  24.574  1.00  0.00     0.002 A 
ATOM     23  C   UNL A   1      32.643  19.866  25.681  1.00  0.00     0.010 A 
ATOM     24  C   UNL A   1      32.257  20.077  23.300  1.00  0.00     0.010 A 
ATOM     25  C   UNL A   1      32.906  18.508  25.515  1.00  0.00     0.001 A 
ATOM     26  C   UNL A   1      32.527  18.722  23.134  1.00  0.00     0.001 A 
ATOM     27  C   UNL A   1      32.849  17.938  24.242  1.00  0.00     0.000 A 
ENDBRANCH  15  22
ENDBRANCH  10  11
ENDBRANCH   8  10
ENDBRANCH   7   8
ENDBRANCH   6   7
ENDBRANCH   5   6
ENDBRANCH   4   5
ENDBRANCH   3   4
ENDBRANCH   2   3
ENDBRANCH   1   2
BRANCH   1  28
ATOM     28  C   UNL A   1      34.915  33.423  29.008  1.00  0.00     0.188 C 
BRANCH  28  29
ATOM     29  C   UNL A   1      34.374  33.750  30.417  1.00  0.00     0.188 C 
BRANCH  29  30
ATOM     30  O   UNL A   1      34.483  32.869  31.531  1.00  0.00    -0.376 OA
BRANCH  30  31
ATOM     31  C   UNL A   1      35.500  31.882  31.643  1.00  0.00     0.202 C 
BRANCH  31  32
ATOM     32  C   UNL A   1      36.826  32.221  32.321  1.00  0.00     0.261 C 
BRANCH  32  33
ATOM     33  O   UNL A   1      37.915  31.545  31.711  1.00  0.00    -0.460 OA
BRANCH  33  34
ATOM     34  C   UNL A   1      38.475  32.208  30.690  1.00  0.00     0.338 C 
ATOM     35  O   UNL A   1      38.336  33.398  30.409  1.00  0.00    -0.246 OA
BRANCH  34  36
ATOM     36  C   UNL A   1      39.328  31.295  29.921  1.00  0.00     0.060 A 
ATOM     37  C   UNL A   1      38.735  30.109  29.480  1.00  0.00     0.016 A 
ATOM     38  C   UNL A   1      40.704  31.529  29.777  1.00  0.00     0.016 A 
ATOM     39  C   UNL A   1      39.552  29.053  29.153  1.00  0.00     0.010 A 
ATOM     40  C   UNL A   1      41.525  30.476  29.441  1.00  0.00     0.010 A 
ATOM     41  C   UNL A   1      40.934  29.227  29.266  1.00  0.00    -0.014 A 
BRANCH  41  42
ATOM     42  C   UNL A   1      41.712  28.027  29.485  1.00  0.00     0.031 A 
ATOM     43  C   UNL A   1      42.283  27.824  30.824  1.00  0.00     0.074 A 
ATOM     44  C   UNL A   1      41.859  27.137  28.485  1.00  0.00     0.049 A 
ATOM     45  N   UNL A   1      43.530  27.732  31.146  1.00  0.00    -0.248 NA
ATOM     46  C   UNL A   1      41.349  27.764  31.954  1.00  0.00     0.031 C 
ATOM     47  C   UNL A   1      41.115  27.077  27.221  1.00  0.00     0.029 A 
ATOM     48  N   UNL A   1      42.645  26.027  28.441  1.00  0.00    -0.354 N 
ATOM     49  C   UNL A   1      43.542  27.438  32.501  1.00  0.00     0.074 A 
ATOM     50  C   UNL A   1      42.187  27.583  32.973  1.00  0.00     0.031 C 
ATOM     51  C   UNL A   1      41.337  25.879  26.637  1.00  0.00     0.029 A 
ATOM     52  C   UNL A   1      42.319  25.150  27.420  1.00  0.00     0.049 A 
ATOM     53  H   UNL A   1      43.378  25.863  29.076  1.00  0.00     0.167 HD
ATOM     54  C   UNL A   1      44.629  26.888  33.102  1.00  0.00     0.037 A 
ATOM     55  C   UNL A   1      42.764  23.880  27.285  1.00  0.00     0.037 A 
ATOM     56  C   UNL A   1      45.830  27.060  32.334  1.00  0.00     0.049 A 
ATOM     57  C   UNL A   1      43.992  23.737  28.109  1.00  0.00     0.074 A 
ATOM     58  C   UNL A   1      46.535  28.155  31.874  1.00  0.00     0.029 A 
ATOM     59  N   UNL A   1      46.329  25.983  31.645  1.00  0.00    -0.354 N 
ATOM     60  N   UNL A   1      45.141  24.282  27.825  1.00  0.00    -0.248 NA
ATOM     61  C   UNL A   1      43.843  23.281  29.483  1.00  0.00     0.031 C 
ATOM     62  C   UNL A   1      47.093  27.752  30.626  1.00  0.00     0.029 A 
ATOM     63  C   UNL A   1      46.703  26.432  30.404  1.00  0.00     0.049 A 
ATOM     64  H   UNL A   1      46.406  25.061  31.980  1.00  0.00     0.167 HD
ATOM     65  C   UNL A   1      45.692  24.609  29.055  1.00  0.00     0.074 A 
ATOM     66  C   UNL A   1      44.913  23.861  30.032  1.00  0.00     0.031 C 
ATOM     67  C   UNL A   1      46.540  25.670  29.188  1.00  0.00     0.037 A 
BRANCH  54  68
ATOM     68  C   UNL A   1      44.522  25.926  34.248  1.00  0.00     0.064 A 
ATOM     69  C   UNL A   1      45.027  26.278  35.510  1.00  0.00     0.173 A 
ATOM     70  C   UNL A   1      44.171  24.570  34.074  1.00  0.00     0.173 A 
ATOM     71  F   UNL A   1      45.436  27.531  35.755  1.00  0.00    -0.203 F 
ATOM     72  C   UNL A   1      45.191  25.329  36.521  1.00  0.00     0.198 A 
ATOM     73  C   UNL A   1      44.282  23.638  35.101  1.00  0.00     0.198 A 
ATOM     74  F   UNL A   1      43.812  24.082  32.878  1.00  0.00    -0.203 F 
ATOM     75  F   UNL A   1      45.770  25.682  37.676  1.00  0.00    -0.200 F 
ATOM     76  C   UNL A   1      44.814  24.012  36.318  1.00  0.00     0.200 A 
ATOM     77  F   UNL A   1      43.934  22.363  34.877  1.00  0.00    -0.200 F 
ATOM     78  F   UNL A   1      45.008  23.094  37.273  1.00  0.00    -0.200 F 
ENDBRANCH  54  68
BRANCH  55  79
ATOM     79  C   UNL A   1      42.046  22.724  26.703  1.00  0.00     0.064 A 
ATOM     80  C   UNL A   1      42.746  21.651  26.134  1.00  0.00     0.173 A 
ATOM     81  C   UNL A   1      40.665  22.533  26.910  1.00  0.00     0.173 A 
ATOM     82  F   UNL A   1      44.072  21.731  25.952  1.00  0.00    -0.203 F 
ATOM     83  C   UNL A   1      42.106  20.452  25.805  1.00  0.00     0.198 A 
ATOM     84  C   UNL A   1      40.024  21.343  26.564  1.00  0.00     0.198 A 
ATOM     85  F   UNL A   1      39.923  23.457  27.536  1.00  0.00    -0.203 F 
ATOM     86  F   UNL A   1      42.820  19.426  25.322  1.00  0.00    -0.200 F 
ATOM     87  C   UNL A   1      40.747  20.299  26.023  1.00  0.00     0.200 A 
ATOM     88  F   UNL A   1      38.715  21.198  26.813  1.00  0.00    -0.200 F 
ATOM     89  F   UNL A   1      40.143  19.133  25.754  1.00  0.00    -0.200 F 
ENDBRANCH  55  79
BRANCH  67  90
ATOM     90  C   UNL A   1      47.118  26.256  27.934  1.00  0.00     0.064 A 
ATOM     91  C   UNL A   1      48.298  25.788  27.331  1.00  0.00     0.173 A 
ATOM     92  C   UNL A   1      46.386  27.237  27.252  1.00  0.00     0.173 A 
ATOM     93  F   UNL A   1      48.991  24.776  27.869  1.00  0.00    -0.203 F 
ATOM     94  C   UNL A   1      48.752  26.324  26.126  1.00  0.00     0.198 A 
ATOM     95  C   UNL A   1      46.823  27.745  26.031  1.00  0.00     0.198 A 
ATOM     96  F   UNL A   1      45.219  27.674  27.751  1.00  0.00    -0.203 F 
ATOM     97  F   UNL A   1      49.891  25.875  25.578  1.00  0.00    -0.200 F 
ATOM     98  C   UNL A   1      48.012  27.298  25.476  1.00  0.00     0.200 A 
ATOM     99  F   UNL A   1      46.079  28.649  25.380  1.00  0.00    -0.200 F 
ATOM    100  F   UNL A   1      48.430  27.787  24.300  1.00  0.00    -0.200 F 
ENDBRANCH  67  90
ENDBRANCH  41  42
ENDBRANCH  34  36
ENDBRANCH  33  34
ENDBRANCH  32  33
ENDBRANCH  31  32
ENDBRANCH  30  31
ENDBRANCH  29  30
ENDBRANCH  28  29
ENDBRANCH   1  28
TORSDOF 23
ENDMDL
