MODEL 1
REMARK VINA RESULT:     -11.6      0.000      0.000
REMARK SMILES O=C(OCCOCCOCCOCCOC(=O)[C@H]1C[C@](O)(c2ccc(Cl)cc2)[C@@H](c2ccc(Cl)cc2)O1)c1ccc(-c2c3nc(c(-c4c(F)c(F)c(F)c(F)c4F)c4ccc([nH]4)c(-c4c(F)c(F)c(F)c(F)c4F)c4nc(c(-c5c(F)c(F)c(F)c(F)c5F)c5ccc2[nH]5)C=C4)C=C3)cc1
REMARK SMILES IDX 8 1 7 2 6 3 5 4 4 5 3 6 2 7 1 8 38 9 39 10 100 11 40 12
REMARK SMILES IDX 99 13 41 14 42 15 43 16 93 17 44 18 98 19 92 20 94 21 45 22
REMARK SMILES IDX 97 23 91 24 90 25 46 27 78 28 58 29 77 30 59 31 62 32 76 33
REMARK SMILES IDX 95 34 60 35 61 36 75 38 96 39 63 40 47 41 48 42 56 43 49 44
REMARK SMILES IDX 50 45 54 46 57 47 51 48 52 49 55 50 53 51 79 52 80 53 88 54
REMARK SMILES IDX 81 55 82 56 86 57 89 58 83 59 84 60 87 61 85 62 64 63 65 64
REMARK SMILES IDX 73 65 66 66 67 67 71 68 74 69 68 70 69 71 72 72 70 73 9 74
REMARK SMILES IDX 10 75 11 76 12 77 13 78 14 79 15 80 16 81 17 82 18 83 19 84
REMARK SMILES IDX 37 85 20 86 29 87 22 88 23 89 28 90 24 91 27 92 25 93 26 94
REMARK SMILES IDX 21 95 30 97 31 98 36 99 32 100 35 101 33 102 34 103
REMARK H PARENT 94 26 62 37 21 96
REMARK Flexibility Score: inf
ROOT
ATOM      1  C   UNL A   1      44.756  19.382  24.484  1.00  0.00     0.188 C 
ENDROOT
BRANCH   1   2
ATOM      2  C   UNL A   1      46.104  19.785  25.069  1.00  0.00     0.188 C 
BRANCH   2   3
ATOM      3  O   UNL A   1      46.650  21.069  24.767  1.00  0.00    -0.376 OA
BRANCH   3   4
ATOM      4  C   UNL A   1      45.829  22.153  24.355  1.00  0.00     0.202 C 
BRANCH   4   5
ATOM      5  C   UNL A   1      45.677  23.382  25.268  1.00  0.00     0.261 C 
BRANCH   5   6
ATOM      6  O   UNL A   1      44.693  24.344  24.864  1.00  0.00    -0.460 OA
BRANCH   6   7
ATOM      7  C   UNL A   1      44.971  25.652  25.101  1.00  0.00     0.338 C 
ATOM      8  O   UNL A   1      45.976  26.227  24.720  1.00  0.00    -0.246 OA
BRANCH   7   9
ATOM      9  C   UNL A   1      44.113  26.181  26.176  1.00  0.00     0.060 A 
ATOM     10  C   UNL A   1      44.426  27.397  26.779  1.00  0.00     0.016 A 
ATOM     11  C   UNL A   1      42.927  25.502  26.491  1.00  0.00     0.016 A 
ATOM     12  C   UNL A   1      43.489  28.003  27.600  1.00  0.00     0.010 A 
ATOM     13  C   UNL A   1      42.013  26.081  27.374  1.00  0.00     0.010 A 
ATOM     14  C   UNL A   1      42.294  27.339  27.922  1.00  0.00    -0.014 A 
BRANCH  14  15
ATOM     15  C   UNL A   1      41.545  27.892  29.068  1.00  0.00     0.031 A 
ATOM     16  C   UNL A   1      42.217  27.744  30.398  1.00  0.00     0.074 A 
ATOM     17  C   UNL A   1      40.440  28.640  28.927  1.00  0.00     0.049 A 
ATOM     18  N   UNL A   1      42.092  28.467  31.474  1.00  0.00    -0.248 NA
ATOM     19  C   UNL A   1      43.254  26.698  30.480  1.00  0.00     0.031 C 
ATOM     20  C   UNL A   1      39.730  28.898  27.677  1.00  0.00     0.029 A 
ATOM     21  N   UNL A   1      39.747  29.360  29.867  1.00  0.00    -0.354 N 
ATOM     22  C   UNL A   1      43.123  28.057  32.302  1.00  0.00     0.074 A 
ATOM     23  C   UNL A   1      43.830  26.988  31.635  1.00  0.00     0.031 C 
ATOM     24  C   UNL A   1      38.696  29.723  27.928  1.00  0.00     0.029 A 
ATOM     25  C   UNL A   1      38.690  30.064  29.350  1.00  0.00     0.049 A 
ATOM     26  H   UNL A   1      39.987  29.370  30.821  1.00  0.00     0.167 HD
ATOM     27  C   UNL A   1      43.459  28.546  33.515  1.00  0.00     0.037 A 
ATOM     28  C   UNL A   1      37.838  30.904  29.971  1.00  0.00     0.037 A 
ATOM     29  C   UNL A   1      42.634  29.456  34.249  1.00  0.00     0.049 A 
ATOM     30  C   UNL A   1      38.074  31.223  31.427  1.00  0.00     0.074 A 
ATOM     31  C   UNL A   1      42.758  29.879  35.557  1.00  0.00     0.029 A 
ATOM     32  N   UNL A   1      41.474  30.027  33.742  1.00  0.00    -0.354 N 
ATOM     33  N   UNL A   1      39.089  30.899  32.194  1.00  0.00    -0.248 NA
ATOM     34  C   UNL A   1      37.049  32.032  32.103  1.00  0.00     0.031 C 
ATOM     35  C   UNL A   1      41.633  30.656  35.862  1.00  0.00     0.029 A 
ATOM     36  C   UNL A   1      40.838  30.755  34.728  1.00  0.00     0.049 A 
ATOM     37  H   UNL A   1      41.154  29.928  32.817  1.00  0.00     0.167 HD
ATOM     38  C   UNL A   1      38.843  31.488  33.428  1.00  0.00     0.074 A 
ATOM     39  C   UNL A   1      37.584  32.194  33.306  1.00  0.00     0.031 C 
ATOM     40  C   UNL A   1      39.589  31.451  34.561  1.00  0.00     0.037 A 
BRANCH  27  41
ATOM     41  C   UNL A   1      44.724  28.019  34.105  1.00  0.00     0.064 A 
ATOM     42  C   UNL A   1      44.701  26.926  34.988  1.00  0.00     0.173 A 
ATOM     43  C   UNL A   1      45.945  28.666  33.882  1.00  0.00     0.173 A 
ATOM     44  F   UNL A   1      43.545  26.303  35.261  1.00  0.00    -0.203 F 
ATOM     45  C   UNL A   1      45.859  26.512  35.638  1.00  0.00     0.198 A 
ATOM     46  C   UNL A   1      47.102  28.244  34.530  1.00  0.00     0.198 A 
ATOM     47  F   UNL A   1      46.003  29.735  33.075  1.00  0.00    -0.203 F 
ATOM     48  F   UNL A   1      45.810  25.497  36.513  1.00  0.00    -0.200 F 
ATOM     49  C   UNL A   1      47.057  27.173  35.411  1.00  0.00     0.200 A 
ATOM     50  F   UNL A   1      48.255  28.895  34.328  1.00  0.00    -0.200 F 
ATOM     51  F   UNL A   1      48.166  26.793  36.062  1.00  0.00    -0.200 F 
ENDBRANCH  27  41
BRANCH  28  52
ATOM     52  C   UNL A   1      36.696  31.506  29.234  1.00  0.00     0.064 A 
ATOM     53  C   UNL A   1      36.662  32.874  28.927  1.00  0.00     0.173 A 
ATOM     54  C   UNL A   1      35.585  30.730  28.866  1.00  0.00     0.173 A 
ATOM     55  F   UNL A   1      37.684  33.664  29.282  1.00  0.00    -0.203 F 
ATOM     56  C   UNL A   1      35.556  33.443  28.296  1.00  0.00     0.198 A 
ATOM     57  C   UNL A   1      34.489  31.297  28.218  1.00  0.00     0.198 A 
ATOM     58  F   UNL A   1      35.558  29.419  29.150  1.00  0.00    -0.203 F 
ATOM     59  F   UNL A   1      35.530  34.761  28.056  1.00  0.00    -0.200 F 
ATOM     60  C   UNL A   1      34.472  32.655  27.940  1.00  0.00     0.200 A 
ATOM     61  F   UNL A   1      33.445  30.531  27.876  1.00  0.00    -0.200 F 
ATOM     62  F   UNL A   1      33.406  33.205  27.343  1.00  0.00    -0.200 F 
ENDBRANCH  28  52
BRANCH  40  63
ATOM     63  C   UNL A   1      39.071  32.204  35.747  1.00  0.00     0.064 A 
ATOM     64  C   UNL A   1      38.292  31.573  36.727  1.00  0.00     0.173 A 
ATOM     65  C   UNL A   1      39.427  33.547  35.944  1.00  0.00     0.173 A 
ATOM     66  F   UNL A   1      37.921  30.294  36.574  1.00  0.00    -0.203 F 
ATOM     67  C   UNL A   1      37.876  32.266  37.859  1.00  0.00     0.198 A 
ATOM     68  C   UNL A   1      39.028  34.228  37.089  1.00  0.00     0.198 A 
ATOM     69  F   UNL A   1      40.179  34.187  35.037  1.00  0.00    -0.203 F 
ATOM     70  F   UNL A   1      37.110  31.653  38.773  1.00  0.00    -0.200 F 
ATOM     71  C   UNL A   1      38.252  33.589  38.044  1.00  0.00     0.200 A 
ATOM     72  F   UNL A   1      39.401  35.502  37.272  1.00  0.00    -0.200 F 
ATOM     73  F   UNL A   1      37.862  34.250  39.142  1.00  0.00    -0.200 F 
ENDBRANCH  40  63
ENDBRANCH  14  15
ENDBRANCH   7   9
ENDBRANCH   6   7
ENDBRANCH   5   6
ENDBRANCH   4   5
ENDBRANCH   3   4
ENDBRANCH   2   3
ENDBRANCH   1   2
BRANCH   1  74
ATOM     74  O   UNL A   1      43.763  19.289  25.475  1.00  0.00    -0.377 OA
BRANCH  74  75
ATOM     75  C   UNL A   1      42.995  20.437  25.773  1.00  0.00     0.188 C 
BRANCH  75  76
ATOM     76  C   UNL A   1      42.202  20.542  27.073  1.00  0.00     0.188 C 
BRANCH  76  77
ATOM     77  O   UNL A   1      40.906  19.946  27.049  1.00  0.00    -0.376 OA
BRANCH  77  78
ATOM     78  C   UNL A   1      39.972  20.436  26.079  1.00  0.00     0.202 C 
BRANCH  78  79
ATOM     79  C   UNL A   1      39.666  21.943  26.109  1.00  0.00     0.261 C 
BRANCH  79  80
ATOM     80  O   UNL A   1      38.239  22.160  26.240  1.00  0.00    -0.461 OA
BRANCH  80  81
ATOM     81  C   UNL A   1      37.579  22.763  25.214  1.00  0.00     0.335 C 
ATOM     82  O   UNL A   1      37.663  23.955  24.944  1.00  0.00    -0.249 OA
BRANCH  81  83
ATOM     83  C   UNL A   1      36.711  21.767  24.411  1.00  0.00     0.232 C 
ATOM     84  C   UNL A   1      36.271  20.585  25.255  1.00  0.00     0.087 C 
ATOM     85  O   UNL A   1      35.569  22.288  23.750  1.00  0.00    -0.355 OA
ATOM     86  C   UNL A   1      34.738  20.604  25.305  1.00  0.00     0.123 C 
ATOM     87  C   UNL A   1      34.348  21.714  24.270  1.00  0.00     0.186 C 
BRANCH  86  88
ATOM     88  C   UNL A   1      34.219  19.173  25.141  1.00  0.00    -0.013 A 
ATOM     89  C   UNL A   1      32.925  18.872  25.640  1.00  0.00     0.008 A 
ATOM     90  C   UNL A   1      34.944  18.126  24.557  1.00  0.00     0.008 A 
ATOM     91  C   UNL A   1      32.393  17.584  25.581  1.00  0.00     0.021 A 
ATOM     92  C   UNL A   1      34.409  16.830  24.499  1.00  0.00     0.021 A 
ATOM     93  C   UNL A   1      33.143  16.563  25.016  1.00  0.00     0.041 A 
ATOM     94  Cl  UNL A   1      32.509  14.967  24.957  1.00  0.00    -0.084 Cl
ENDBRANCH  86  88
BRANCH  86  95
ATOM     95  O   UNL A   1      34.383  20.962  26.641  1.00  0.00    -0.382 OA
ATOM     96  H   UNL A   1      33.572  20.495  26.897  1.00  0.00     0.212 HD
ENDBRANCH  86  95
BRANCH  87  97
ATOM     97  C   UNL A   1      33.416  22.848  24.713  1.00  0.00    -0.016 A 
ATOM     98  C   UNL A   1      32.033  22.800  24.443  1.00  0.00     0.008 A 
ATOM     99  C   UNL A   1      33.891  23.938  25.462  1.00  0.00     0.008 A 
ATOM    100  C   UNL A   1      31.170  23.823  24.847  1.00  0.00     0.021 A 
ATOM    101  C   UNL A   1      33.029  24.970  25.862  1.00  0.00     0.021 A 
ATOM    102  C   UNL A   1      31.673  24.911  25.546  1.00  0.00     0.041 A 
ATOM    103  Cl  UNL A   1      30.617  26.181  26.022  1.00  0.00    -0.084 Cl
ENDBRANCH  87  97
ENDBRANCH  81  83
ENDBRANCH  80  81
ENDBRANCH  79  80
ENDBRANCH  78  79
ENDBRANCH  77  78
ENDBRANCH  76  77
ENDBRANCH  75  76
ENDBRANCH  74  75
ENDBRANCH   1  74
TORSDOF 23
ENDMDL
MODEL 2
REMARK VINA RESULT:     -10.6      3.307      8.904
REMARK SMILES O=C(OCCOCCOCCOCCOC(=O)[C@H]1C[C@](O)(c2ccc(Cl)cc2)[C@@H](c2ccc(Cl)cc2)O1)c1ccc(-c2c3nc(c(-c4c(F)c(F)c(F)c(F)c4F)c4ccc([nH]4)c(-c4c(F)c(F)c(F)c(F)c4F)c4nc(c(-c5c(F)c(F)c(F)c(F)c5F)c5ccc2[nH]5)C=C4)C=C3)cc1
REMARK SMILES IDX 8 1 7 2 6 3 5 4 4 5 3 6 2 7 1 8 38 9 39 10 100 11 40 12
REMARK SMILES IDX 99 13 41 14 42 15 43 16 93 17 44 18 98 19 92 20 94 21 45 22
REMARK SMILES IDX 97 23 91 24 90 25 46 27 78 28 58 29 77 30 59 31 62 32 76 33
REMARK SMILES IDX 95 34 60 35 61 36 75 38 96 39 63 40 47 41 48 42 56 43 49 44
REMARK SMILES IDX 50 45 54 46 57 47 51 48 52 49 55 50 53 51 79 52 80 53 88 54
REMARK SMILES IDX 81 55 82 56 86 57 89 58 83 59 84 60 87 61 85 62 64 63 65 64
REMARK SMILES IDX 73 65 66 66 67 67 71 68 74 69 68 70 69 71 72 72 70 73 9 74
REMARK SMILES IDX 10 75 11 76 12 77 13 78 14 79 15 80 16 81 17 82 18 83 19 84
REMARK SMILES IDX 37 85 20 86 29 87 22 88 23 89 28 90 24 91 27 92 25 93 26 94
REMARK SMILES IDX 21 95 30 97 31 98 36 99 32 100 35 101 33 102 34 103
REMARK H PARENT 94 26 62 37 21 96
REMARK Flexibility Score: inf
ROOT
ATOM      1  C   UNL A   1      32.142  29.751  27.137  1.00  0.00     0.188 C 
ENDROOT
BRANCH   1   2
ATOM      2  C   UNL A   1      31.573  30.730  26.117  1.00  0.00     0.188 C 
BRANCH   2   3
ATOM      3  O   UNL A   1      31.013  31.967  26.559  1.00  0.00    -0.376 OA
BRANCH   3   4
ATOM      4  C   UNL A   1      31.761  33.175  26.539  1.00  0.00     0.202 C 
BRANCH   4   5
ATOM      5  C   UNL A   1      32.752  33.475  27.677  1.00  0.00     0.261 C 
BRANCH   5   6
ATOM      6  O   UNL A   1      32.417  34.585  28.521  1.00  0.00    -0.460 OA
BRANCH   6   7
ATOM      7  C   UNL A   1      33.434  35.393  28.915  1.00  0.00     0.338 C 
ATOM      8  O   UNL A   1      33.659  36.500  28.454  1.00  0.00    -0.246 OA
BRANCH   7   9
ATOM      9  C   UNL A   1      34.439  34.633  29.679  1.00  0.00     0.060 A 
ATOM     10  C   UNL A   1      34.061  33.940  30.827  1.00  0.00     0.016 A 
ATOM     11  C   UNL A   1      35.740  34.527  29.166  1.00  0.00     0.016 A 
ATOM     12  C   UNL A   1      34.945  33.034  31.388  1.00  0.00     0.010 A 
ATOM     13  C   UNL A   1      36.654  33.664  29.775  1.00  0.00     0.010 A 
ATOM     14  C   UNL A   1      36.251  32.911  30.884  1.00  0.00    -0.014 A 
BRANCH  14  15
ATOM     15  C   UNL A   1      37.209  32.206  31.758  1.00  0.00     0.031 A 
ATOM     16  C   UNL A   1      37.865  31.007  31.147  1.00  0.00     0.074 A 
ATOM     17  C   UNL A   1      37.617  32.695  32.940  1.00  0.00     0.049 A 
ATOM     18  N   UNL A   1      39.016  30.462  31.422  1.00  0.00    -0.248 NA
ATOM     19  C   UNL A   1      37.167  30.412  29.992  1.00  0.00     0.031 C 
ATOM     20  C   UNL A   1      37.090  33.883  33.607  1.00  0.00     0.029 A 
ATOM     21  N   UNL A   1      38.617  32.254  33.768  1.00  0.00    -0.354 N 
ATOM     22  C   UNL A   1      39.240  29.562  30.394  1.00  0.00     0.074 A 
ATOM     23  C   UNL A   1      38.088  29.588  29.522  1.00  0.00     0.031 C 
ATOM     24  C   UNL A   1      37.775  34.077  34.750  1.00  0.00     0.029 A 
ATOM     25  C   UNL A   1      38.799  33.041  34.877  1.00  0.00     0.049 A 
ATOM     26  H   UNL A   1      39.152  31.449  33.585  1.00  0.00     0.167 HD
ATOM     27  C   UNL A   1      40.328  28.788  30.189  1.00  0.00     0.037 A 
ATOM     28  C   UNL A   1      39.713  32.932  35.860  1.00  0.00     0.037 A 
ATOM     29  C   UNL A   1      41.363  28.619  31.162  1.00  0.00     0.049 A 
ATOM     30  C   UNL A   1      40.770  31.860  35.747  1.00  0.00     0.074 A 
ATOM     31  C   UNL A   1      42.415  27.726  31.165  1.00  0.00     0.029 A 
ATOM     32  N   UNL A   1      41.424  29.327  32.355  1.00  0.00    -0.354 N 
ATOM     33  N   UNL A   1      41.033  31.057  34.743  1.00  0.00    -0.248 NA
ATOM     34  C   UNL A   1      41.663  31.685  36.902  1.00  0.00     0.031 C 
ATOM     35  C   UNL A   1      43.075  27.848  32.394  1.00  0.00     0.029 A 
ATOM     36  C   UNL A   1      42.463  28.852  33.132  1.00  0.00     0.049 A 
ATOM     37  H   UNL A   1      40.817  30.059  32.609  1.00  0.00     0.167 HD
ATOM     38  C   UNL A   1      42.135  30.305  35.129  1.00  0.00     0.074 A 
ATOM     39  C   UNL A   1      42.496  30.752  36.459  1.00  0.00     0.031 C 
ATOM     40  C   UNL A   1      42.793  29.333  34.448  1.00  0.00     0.037 A 
BRANCH  27  41
ATOM     41  C   UNL A   1      40.361  28.034  28.903  1.00  0.00     0.064 A 
ATOM     42  C   UNL A   1      39.759  26.769  28.798  1.00  0.00     0.173 A 
ATOM     43  C   UNL A   1      41.084  28.518  27.806  1.00  0.00     0.173 A 
ATOM     44  F   UNL A   1      39.091  26.251  29.840  1.00  0.00    -0.203 F 
ATOM     45  C   UNL A   1      39.897  26.009  27.641  1.00  0.00     0.198 A 
ATOM     46  C   UNL A   1      41.213  27.756  26.648  1.00  0.00     0.198 A 
ATOM     47  F   UNL A   1      41.703  29.705  27.878  1.00  0.00    -0.203 F 
ATOM     48  F   UNL A   1      39.355  24.784  27.576  1.00  0.00    -0.200 F 
ATOM     49  C   UNL A   1      40.627  26.501  26.569  1.00  0.00     0.200 A 
ATOM     50  F   UNL A   1      41.935  28.222  25.621  1.00  0.00    -0.200 F 
ATOM     51  F   UNL A   1      40.784  25.755  25.467  1.00  0.00    -0.200 F 
ENDBRANCH  27  41
BRANCH  28  52
ATOM     52  C   UNL A   1      39.684  33.853  37.028  1.00  0.00     0.064 A 
ATOM     53  C   UNL A   1      38.920  33.566  38.168  1.00  0.00     0.173 A 
ATOM     54  C   UNL A   1      40.383  35.071  37.004  1.00  0.00     0.173 A 
ATOM     55  F   UNL A   1      38.211  32.429  38.229  1.00  0.00    -0.203 F 
ATOM     56  C   UNL A   1      38.844  34.466  39.230  1.00  0.00     0.198 A 
ATOM     57  C   UNL A   1      40.321  35.961  38.075  1.00  0.00     0.198 A 
ATOM     58  F   UNL A   1      41.116  35.404  35.931  1.00  0.00    -0.203 F 
ATOM     59  F   UNL A   1      38.069  34.187  40.287  1.00  0.00    -0.200 F 
ATOM     60  C   UNL A   1      39.546  35.661  39.184  1.00  0.00     0.200 A 
ATOM     61  F   UNL A   1      41.001  37.114  38.025  1.00  0.00    -0.200 F 
ATOM     62  F   UNL A   1      39.463  36.531  40.201  1.00  0.00    -0.200 F 
ENDBRANCH  28  52
BRANCH  40  63
ATOM     63  C   UNL A   1      43.973  28.703  35.121  1.00  0.00     0.064 A 
ATOM     64  C   UNL A   1      43.836  27.540  35.893  1.00  0.00     0.173 A 
ATOM     65  C   UNL A   1      45.261  29.221  34.925  1.00  0.00     0.173 A 
ATOM     66  F   UNL A   1      42.621  27.017  36.115  1.00  0.00    -0.203 F 
ATOM     67  C   UNL A   1      44.949  26.925  36.455  1.00  0.00     0.198 A 
ATOM     68  C   UNL A   1      46.374  28.590  35.469  1.00  0.00     0.198 A 
ATOM     69  F   UNL A   1      45.439  30.327  34.186  1.00  0.00    -0.203 F 
ATOM     70  F   UNL A   1      44.796  25.829  37.211  1.00  0.00    -0.200 F 
ATOM     71  C   UNL A   1      46.217  27.445  36.236  1.00  0.00     0.200 A 
ATOM     72  F   UNL A   1      47.599  29.085  35.248  1.00  0.00    -0.200 F 
ATOM     73  F   UNL A   1      47.289  26.842  36.766  1.00  0.00    -0.200 F 
ENDBRANCH  40  63
ENDBRANCH  14  15
ENDBRANCH   7   9
ENDBRANCH   6   7
ENDBRANCH   5   6
ENDBRANCH   4   5
ENDBRANCH   3   4
ENDBRANCH   2   3
ENDBRANCH   1   2
BRANCH   1  74
ATOM     74  O   UNL A   1      33.540  29.645  27.036  1.00  0.00    -0.377 OA
BRANCH  74  75
ATOM     75  C   UNL A   1      34.095  28.431  26.573  1.00  0.00     0.188 C 
BRANCH  75  76
ATOM     76  C   UNL A   1      33.266  27.152  26.519  1.00  0.00     0.188 C 
BRANCH  76  77
ATOM     77  O   UNL A   1      33.017  26.637  25.212  1.00  0.00    -0.376 OA
BRANCH  77  78
ATOM     78  C   UNL A   1      34.103  25.985  24.542  1.00  0.00     0.202 C 
BRANCH  78  79
ATOM     79  C   UNL A   1      34.883  24.932  25.347  1.00  0.00     0.261 C 
BRANCH  79  80
ATOM     80  O   UNL A   1      36.009  24.447  24.573  1.00  0.00    -0.461 OA
BRANCH  80  81
ATOM     81  C   UNL A   1      36.617  23.295  24.968  1.00  0.00     0.335 C 
ATOM     82  O   UNL A   1      37.531  23.239  25.782  1.00  0.00    -0.249 OA
BRANCH  81  83
ATOM     83  C   UNL A   1      36.015  22.049  24.277  1.00  0.00     0.232 C 
ATOM     84  C   UNL A   1      35.581  20.996  25.281  1.00  0.00     0.087 C 
ATOM     85  O   UNL A   1      34.945  22.265  23.371  1.00  0.00    -0.355 OA
ATOM     86  C   UNL A   1      34.069  20.799  25.113  1.00  0.00     0.123 C 
ATOM     87  C   UNL A   1      33.729  21.627  23.825  1.00  0.00     0.186 C 
BRANCH  86  88
ATOM     88  C   UNL A   1      33.752  19.303  25.180  1.00  0.00    -0.013 A 
ATOM     89  C   UNL A   1      34.659  18.402  24.565  1.00  0.00     0.008 A 
ATOM     90  C   UNL A   1      32.611  18.758  25.783  1.00  0.00     0.008 A 
ATOM     91  C   UNL A   1      34.424  17.027  24.531  1.00  0.00     0.021 A 
ATOM     92  C   UNL A   1      32.374  17.376  25.748  1.00  0.00     0.021 A 
ATOM     93  C   UNL A   1      33.274  16.519  25.119  1.00  0.00     0.041 A 
ATOM     94  Cl  UNL A   1      32.961  14.830  25.066  1.00  0.00    -0.084 Cl
ENDBRANCH  86  88
BRANCH  86  95
ATOM     95  O   UNL A   1      33.459  21.347  26.283  1.00  0.00    -0.382 OA
ATOM     96  H   UNL A   1      33.745  22.267  26.396  1.00  0.00     0.212 HD
ENDBRANCH  86  95
BRANCH  87  97
ATOM     97  C   UNL A   1      32.613  22.675  23.889  1.00  0.00    -0.016 A 
ATOM     98  C   UNL A   1      32.299  23.474  22.770  1.00  0.00     0.008 A 
ATOM     99  C   UNL A   1      31.818  22.832  25.038  1.00  0.00     0.008 A 
ATOM    100  C   UNL A   1      31.281  24.430  22.812  1.00  0.00     0.021 A 
ATOM    101  C   UNL A   1      30.799  23.796  25.085  1.00  0.00     0.021 A 
ATOM    102  C   UNL A   1      30.541  24.595  23.974  1.00  0.00     0.041 A 
ATOM    103  Cl  UNL A   1      29.303  25.787  24.034  1.00  0.00    -0.084 Cl
ENDBRANCH  87  97
ENDBRANCH  81  83
ENDBRANCH  80  81
ENDBRANCH  79  80
ENDBRANCH  78  79
ENDBRANCH  77  78
ENDBRANCH  76  77
ENDBRANCH  75  76
ENDBRANCH  74  75
ENDBRANCH   1  74
TORSDOF 23
ENDMDL
MODEL 3
REMARK VINA RESULT:     -10.5      3.684      9.924
REMARK SMILES O=C(OCCOCCOCCOCCOC(=O)[C@H]1C[C@](O)(c2ccc(Cl)cc2)[C@@H](c2ccc(Cl)cc2)O1)c1ccc(-c2c3nc(c(-c4c(F)c(F)c(F)c(F)c4F)c4ccc([nH]4)c(-c4c(F)c(F)c(F)c(F)c4F)c4nc(c(-c5c(F)c(F)c(F)c(F)c5F)c5ccc2[nH]5)C=C4)C=C3)cc1
REMARK SMILES IDX 8 1 7 2 6 3 5 4 4 5 3 6 2 7 1 8 38 9 39 10 100 11 40 12
REMARK SMILES IDX 99 13 41 14 42 15 43 16 93 17 44 18 98 19 92 20 94 21 45 22
REMARK SMILES IDX 97 23 91 24 90 25 46 27 78 28 58 29 77 30 59 31 62 32 76 33
REMARK SMILES IDX 95 34 60 35 61 36 75 38 96 39 63 40 47 41 48 42 56 43 49 44
REMARK SMILES IDX 50 45 54 46 57 47 51 48 52 49 55 50 53 51 79 52 80 53 88 54
REMARK SMILES IDX 81 55 82 56 86 57 89 58 83 59 84 60 87 61 85 62 64 63 65 64
REMARK SMILES IDX 73 65 66 66 67 67 71 68 74 69 68 70 69 71 72 72 70 73 9 74
REMARK SMILES IDX 10 75 11 76 12 77 13 78 14 79 15 80 16 81 17 82 18 83 19 84
REMARK SMILES IDX 37 85 20 86 29 87 22 88 23 89 28 90 24 91 27 92 25 93 26 94
REMARK SMILES IDX 21 95 30 97 31 98 36 99 32 100 35 101 33 102 34 103
REMARK H PARENT 94 26 62 37 21 96
REMARK Flexibility Score: inf
ROOT
ATOM      1  C   UNL A   1      34.685  30.645  27.697  1.00  0.00     0.188 C 
ENDROOT
BRANCH   1   2
ATOM      2  C   UNL A   1      34.106  32.019  28.011  1.00  0.00     0.188 C 
BRANCH   2   3
ATOM      3  O   UNL A   1      34.905  33.186  27.812  1.00  0.00    -0.376 OA
BRANCH   3   4
ATOM      4  C   UNL A   1      34.435  34.481  28.158  1.00  0.00     0.202 C 
BRANCH   4   5
ATOM      5  C   UNL A   1      33.272  34.625  29.156  1.00  0.00     0.261 C 
BRANCH   5   6
ATOM      6  O   UNL A   1      33.386  35.700  30.098  1.00  0.00    -0.460 OA
BRANCH   6   7
ATOM      7  C   UNL A   1      33.121  35.416  31.399  1.00  0.00     0.338 C 
ATOM      8  O   UNL A   1      32.221  35.922  32.050  1.00  0.00    -0.246 OA
BRANCH   7   9
ATOM      9  C   UNL A   1      34.261  34.725  32.025  1.00  0.00     0.060 A 
ATOM     10  C   UNL A   1      34.034  33.714  32.957  1.00  0.00     0.016 A 
ATOM     11  C   UNL A   1      35.558  35.020  31.581  1.00  0.00     0.016 A 
ATOM     12  C   UNL A   1      35.091  32.907  33.346  1.00  0.00     0.010 A 
ATOM     13  C   UNL A   1      36.634  34.250  32.028  1.00  0.00     0.010 A 
ATOM     14  C   UNL A   1      36.396  33.187  32.906  1.00  0.00    -0.014 A 
BRANCH  14  15
ATOM     15  C   UNL A   1      37.478  32.512  33.650  1.00  0.00     0.031 A 
ATOM     16  C   UNL A   1      38.168  31.409  32.909  1.00  0.00     0.074 A 
ATOM     17  C   UNL A   1      37.949  32.962  34.824  1.00  0.00     0.049 A 
ATOM     18  N   UNL A   1      39.377  30.945  33.052  1.00  0.00    -0.248 NA
ATOM     19  C   UNL A   1      37.419  30.829  31.778  1.00  0.00     0.031 C 
ATOM     20  C   UNL A   1      37.394  34.060  35.609  1.00  0.00     0.029 A 
ATOM     21  N   UNL A   1      39.048  32.555  35.536  1.00  0.00    -0.354 N 
ATOM     22  C   UNL A   1      39.578  30.128  31.952  1.00  0.00     0.074 A 
ATOM     23  C   UNL A   1      38.356  30.112  31.181  1.00  0.00     0.031 C 
ATOM     24  C   UNL A   1      38.159  34.242  36.702  1.00  0.00     0.029 A 
ATOM     25  C   UNL A   1      39.266  33.288  36.676  1.00  0.00     0.049 A 
ATOM     26  H   UNL A   1      39.626  31.809  35.257  1.00  0.00     0.167 HD
ATOM     27  C   UNL A   1      40.700  29.459  31.607  1.00  0.00     0.037 A 
ATOM     28  C   UNL A   1      40.268  33.195  37.571  1.00  0.00     0.037 A 
ATOM     29  C   UNL A   1      41.826  29.318  32.478  1.00  0.00     0.049 A 
ATOM     30  C   UNL A   1      41.390  32.222  37.301  1.00  0.00     0.074 A 
ATOM     31  C   UNL A   1      42.939  28.515  32.335  1.00  0.00     0.029 A 
ATOM     32  N   UNL A   1      41.937  29.956  33.707  1.00  0.00    -0.354 N 
ATOM     33  N   UNL A   1      41.624  31.504  36.228  1.00  0.00    -0.248 NA
ATOM     34  C   UNL A   1      42.391  32.052  38.364  1.00  0.00     0.031 C 
ATOM     35  C   UNL A   1      43.693  28.617  33.512  1.00  0.00     0.029 A 
ATOM     36  C   UNL A   1      43.072  29.522  34.361  1.00  0.00     0.049 A 
ATOM     37  H   UNL A   1      41.300  30.620  34.057  1.00  0.00     0.167 HD
ATOM     38  C   UNL A   1      42.811  30.823  36.471  1.00  0.00     0.074 A 
ATOM     39  C   UNL A   1      43.251  31.219  37.793  1.00  0.00     0.031 C 
ATOM     40  C   UNL A   1      43.479  29.950  35.675  1.00  0.00     0.037 A 
BRANCH  27  41
ATOM     41  C   UNL A   1      40.678  28.788  30.275  1.00  0.00     0.064 A 
ATOM     42  C   UNL A   1      41.356  29.349  29.180  1.00  0.00     0.173 A 
ATOM     43  C   UNL A   1      39.896  27.648  30.058  1.00  0.00     0.173 A 
ATOM     44  F   UNL A   1      42.085  30.465  29.336  1.00  0.00    -0.203 F 
ATOM     45  C   UNL A   1      41.235  28.796  27.909  1.00  0.00     0.198 A 
ATOM     46  C   UNL A   1      39.783  27.095  28.786  1.00  0.00     0.198 A 
ATOM     47  F   UNL A   1      39.205  27.103  31.070  1.00  0.00    -0.203 F 
ATOM     48  F   UNL A   1      41.851  29.372  26.866  1.00  0.00    -0.200 F 
ATOM     49  C   UNL A   1      40.446  27.672  27.713  1.00  0.00     0.200 A 
ATOM     50  F   UNL A   1      39.004  26.023  28.592  1.00  0.00    -0.200 F 
ATOM     51  F   UNL A   1      40.305  27.159  26.483  1.00  0.00    -0.200 F 
ENDBRANCH  27  41
BRANCH  28  52
ATOM     52  C   UNL A   1      40.271  34.040  38.796  1.00  0.00     0.064 A 
ATOM     53  C   UNL A   1      39.558  33.667  39.944  1.00  0.00     0.173 A 
ATOM     54  C   UNL A   1      40.949  35.269  38.823  1.00  0.00     0.173 A 
ATOM     55  F   UNL A   1      38.870  32.516  39.959  1.00  0.00    -0.203 F 
ATOM     56  C   UNL A   1      39.509  34.496  41.063  1.00  0.00     0.198 A 
ATOM     57  C   UNL A   1      40.916  36.088  39.950  1.00  0.00     0.198 A 
ATOM     58  F   UNL A   1      41.633  35.683  37.746  1.00  0.00    -0.203 F 
ATOM     59  F   UNL A   1      38.782  34.137  42.130  1.00  0.00    -0.200 F 
ATOM     60  C   UNL A   1      40.190  35.705  41.067  1.00  0.00     0.200 A 
ATOM     61  F   UNL A   1      41.574  37.254  39.948  1.00  0.00    -0.200 F 
ATOM     62  F   UNL A   1      40.134  36.507  42.140  1.00  0.00    -0.200 F 
ENDBRANCH  28  52
BRANCH  40  63
ATOM     63  C   UNL A   1      44.757  29.379  36.206  1.00  0.00     0.064 A 
ATOM     64  C   UNL A   1      45.980  30.044  36.031  1.00  0.00     0.173 A 
ATOM     65  C   UNL A   1      44.745  28.200  36.965  1.00  0.00     0.173 A 
ATOM     66  F   UNL A   1      46.038  31.169  35.304  1.00  0.00    -0.203 F 
ATOM     67  C   UNL A   1      47.149  29.539  36.589  1.00  0.00     0.198 A 
ATOM     68  C   UNL A   1      45.913  27.711  37.541  1.00  0.00     0.198 A 
ATOM     69  F   UNL A   1      43.597  27.537  37.165  1.00  0.00    -0.203 F 
ATOM     70  F   UNL A   1      48.312  30.174  36.390  1.00  0.00    -0.200 F 
ATOM     71  C   UNL A   1      47.114  28.379  37.351  1.00  0.00     0.200 A 
ATOM     72  F   UNL A   1      45.876  26.598  38.285  1.00  0.00    -0.200 F 
ATOM     73  F   UNL A   1      48.239  27.903  37.899  1.00  0.00    -0.200 F 
ENDBRANCH  40  63
ENDBRANCH  14  15
ENDBRANCH   7   9
ENDBRANCH   6   7
ENDBRANCH   5   6
ENDBRANCH   4   5
ENDBRANCH   3   4
ENDBRANCH   2   3
ENDBRANCH   1   2
BRANCH   1  74
ATOM     74  O   UNL A   1      33.898  29.946  26.766  1.00  0.00    -0.377 OA
BRANCH  74  75
ATOM     75  C   UNL A   1      33.298  28.730  27.165  1.00  0.00     0.188 C 
BRANCH  75  76
ATOM     76  C   UNL A   1      31.807  28.649  27.476  1.00  0.00     0.188 C 
BRANCH  76  77
ATOM     77  O   UNL A   1      31.253  27.334  27.485  1.00  0.00    -0.376 OA
BRANCH  77  78
ATOM     78  C   UNL A   1      31.271  26.602  26.254  1.00  0.00     0.202 C 
BRANCH  78  79
ATOM     79  C   UNL A   1      31.495  25.083  26.352  1.00  0.00     0.261 C 
BRANCH  79  80
ATOM     80  O   UNL A   1      32.810  24.740  25.846  1.00  0.00    -0.461 OA
BRANCH  80  81
ATOM     81  C   UNL A   1      32.909  24.260  24.576  1.00  0.00     0.335 C 
ATOM     82  O   UNL A   1      31.960  24.123  23.813  1.00  0.00    -0.249 OA
BRANCH  81  83
ATOM     83  C   UNL A   1      34.367  23.916  24.193  1.00  0.00     0.232 C 
ATOM     84  C   UNL A   1      35.301  23.990  25.387  1.00  0.00     0.087 C 
ATOM     85  O   UNL A   1      34.589  22.680  23.534  1.00  0.00    -0.355 OA
ATOM     86  C   UNL A   1      35.896  22.590  25.590  1.00  0.00     0.123 C 
ATOM     87  C   UNL A   1      35.420  21.798  24.323  1.00  0.00     0.186 C 
BRANCH  86  88
ATOM     88  C   UNL A   1      37.388  22.725  25.906  1.00  0.00    -0.013 A 
ATOM     89  C   UNL A   1      38.208  21.579  25.752  1.00  0.00     0.008 A 
ATOM     90  C   UNL A   1      38.000  23.898  26.366  1.00  0.00     0.008 A 
ATOM     91  C   UNL A   1      39.567  21.595  26.066  1.00  0.00     0.021 A 
ATOM     92  C   UNL A   1      39.366  23.916  26.684  1.00  0.00     0.021 A 
ATOM     93  C   UNL A   1      40.141  22.767  26.540  1.00  0.00     0.041 A 
ATOM     94  Cl  UNL A   1      41.809  22.797  26.953  1.00  0.00    -0.084 Cl
ENDBRANCH  86  88
BRANCH  86  95
ATOM     95  O   UNL A   1      35.321  22.079  26.794  1.00  0.00    -0.382 OA
ATOM     96  H   UNL A   1      35.708  21.213  26.995  1.00  0.00     0.212 HD
ENDBRANCH  86  95
BRANCH  87  97
ATOM     97  C   UNL A   1      34.690  20.465  24.512  1.00  0.00    -0.016 A 
ATOM     98  C   UNL A   1      35.405  19.258  24.662  1.00  0.00     0.008 A 
ATOM     99  C   UNL A   1      33.289  20.402  24.613  1.00  0.00     0.008 A 
ATOM    100  C   UNL A   1      34.754  18.035  24.841  1.00  0.00     0.021 A 
ATOM    101  C   UNL A   1      32.632  19.174  24.786  1.00  0.00     0.021 A 
ATOM    102  C   UNL A   1      33.367  17.996  24.891  1.00  0.00     0.041 A 
ATOM    103  Cl  UNL A   1      32.564  16.488  25.089  1.00  0.00    -0.084 Cl
ENDBRANCH  87  97
ENDBRANCH  81  83
ENDBRANCH  80  81
ENDBRANCH  79  80
ENDBRANCH  78  79
ENDBRANCH  77  78
ENDBRANCH  76  77
ENDBRANCH  75  76
ENDBRANCH  74  75
ENDBRANCH   1  74
TORSDOF 23
ENDMDL
