MODEL 1
REMARK VINA RESULT:      -9.5      0.000      0.000
REMARK SMILES CCc1nn2c(C)c(CCC(=O)OCCOCCOCCOCCOC(=O)c3ccc(-c4c5nc(c(-c6c(F)c(F)c(F)c(F)c6F)c6ccc([nH]6)c(-c6c(F)c(F)c(F)c(F)c6F)c6nc(c(-c7c(F)c(F)c(F)c(F)c7F)c7ccc4[nH]7)C=C6)C=C5)cc3)c(C)nc2c1-c1ccccc1
REMARK SMILES IDX 18 1 17 2 16 3 15 4 14 5 13 6 11 7 12 8 10 9 9 10 8 11 3 12
REMARK SMILES IDX 4 13 95 14 5 15 94 16 6 17 93 18 7 19 91 20 92 21 2 22 1 23
REMARK SMILES IDX 96 24 97 25 101 26 98 27 100 28 99 29 19 30 20 31 21 32
REMARK SMILES IDX 22 33 23 34 24 35 25 36 26 37 27 38 28 39 29 40 90 41 30 42
REMARK SMILES IDX 89 43 31 44 32 45 33 46 83 47 34 48 88 49 82 50 84 51 35 52
REMARK SMILES IDX 87 53 81 54 80 55 36 57 68 58 48 59 67 60 49 61 52 62 66 63
REMARK SMILES IDX 85 64 50 65 51 66 65 68 86 69 53 70 37 71 38 72 46 73 39 74
REMARK SMILES IDX 40 75 44 76 47 77 41 78 42 79 45 80 43 81 69 82 70 83 78 84
REMARK SMILES IDX 71 85 72 86 76 87 79 88 73 89 74 90 77 91 75 92 54 93 55 94
REMARK SMILES IDX 63 95 56 96 57 97 61 98 64 99 58 100 59 101 62 102 60 103
REMARK H PARENT 84 56 52 67
REMARK Flexibility Score: inf
ROOT
ATOM      1  C   UNL A   1      38.067  29.547  29.897  1.00  0.00     0.188 C 
ENDROOT
BRANCH   1   2
ATOM      2  C   UNL A   1      36.617  29.857  29.531  1.00  0.00     0.188 C 
BRANCH   2   3
ATOM      3  O   UNL A   1      36.357  30.867  28.570  1.00  0.00    -0.376 OA
BRANCH   3   4
ATOM      4  C   UNL A   1      35.240  31.740  28.666  1.00  0.00     0.202 C 
BRANCH   4   5
ATOM      5  C   UNL A   1      34.048  31.541  27.726  1.00  0.00     0.261 C 
BRANCH   5   6
ATOM      6  O   UNL A   1      33.620  30.162  27.703  1.00  0.00    -0.463 OA
BRANCH   6   7
ATOM      7  C   UNL A   1      32.419  29.864  27.167  1.00  0.00     0.306 C 
ATOM      8  O   UNL A   1      31.708  30.667  26.577  1.00  0.00    -0.252 OA
BRANCH   7   9
ATOM      9  C   UNL A   1      31.993  28.434  27.456  1.00  0.00     0.127 C 
BRANCH   9  10
ATOM     10  C   UNL A   1      31.221  27.634  26.388  1.00  0.00     0.051 C 
BRANCH  10  11
ATOM     11  C   UNL A   1      31.851  26.399  25.748  1.00  0.00    -0.005 A 
ATOM     12  C   UNL A   1      34.801  23.524  23.907  1.00  0.00     0.073 A 
ATOM     13  N   UNL A   1      34.713  24.844  24.071  1.00  0.00    -0.171 NA
ATOM     14  C   UNL A   1      33.616  22.885  24.359  1.00  0.00     0.050 A 
ATOM     15  N   UNL A   1      33.512  25.062  24.654  1.00  0.00    -0.219 N 
ATOM     16  C   UNL A   1      32.792  23.901  24.818  1.00  0.00     0.163 A 
ATOM     17  C   UNL A   1      33.032  26.301  25.086  1.00  0.00     0.046 A 
ATOM     18  N   UNL A   1      31.524  23.928  25.317  1.00  0.00    -0.233 NA
ATOM     19  C   UNL A   1      33.963  27.396  24.704  1.00  0.00     0.067 C 
ATOM     20  C   UNL A   1      31.059  25.083  25.708  1.00  0.00     0.045 A 
ATOM     21  C   UNL A   1      29.587  25.084  26.077  1.00  0.00     0.067 C 
BRANCH  12  22
ATOM     22  C   UNL A   1      36.081  23.038  23.306  1.00  0.00     0.055 C 
ATOM     23  C   UNL A   1      36.986  22.196  24.174  1.00  0.00     0.011 C 
ENDBRANCH  12  22
BRANCH  14  24
ATOM     24  C   UNL A   1      33.224  21.500  24.404  1.00  0.00    -0.013 A 
ATOM     25  C   UNL A   1      32.611  20.916  23.292  1.00  0.00     0.009 A 
ATOM     26  C   UNL A   1      33.482  20.732  25.545  1.00  0.00     0.009 A 
ATOM     27  C   UNL A   1      32.242  19.573  23.327  1.00  0.00     0.001 A 
ATOM     28  C   UNL A   1      33.115  19.388  25.576  1.00  0.00     0.001 A 
ATOM     29  C   UNL A   1      32.493  18.811  24.468  1.00  0.00     0.000 A 
ENDBRANCH  14  24
ENDBRANCH  10  11
ENDBRANCH   9  10
ENDBRANCH   7   9
ENDBRANCH   6   7
ENDBRANCH   5   6
ENDBRANCH   4   5
ENDBRANCH   3   4
ENDBRANCH   2   3
ENDBRANCH   1   2
BRANCH   1  30
ATOM     30  O   UNL A   1      39.112  30.464  29.627  1.00  0.00    -0.377 OA
BRANCH  30  31
ATOM     31  C   UNL A   1      39.603  31.303  30.659  1.00  0.00     0.188 C 
BRANCH  31  32
ATOM     32  C   UNL A   1      40.577  32.390  30.180  1.00  0.00     0.188 C 
BRANCH  32  33
ATOM     33  O   UNL A   1      40.668  33.616  30.902  1.00  0.00    -0.376 OA
BRANCH  33  34
ATOM     34  C   UNL A   1      41.726  34.508  30.582  1.00  0.00     0.202 C 
BRANCH  34  35
ATOM     35  C   UNL A   1      41.675  35.006  29.133  1.00  0.00     0.261 C 
BRANCH  35  36
ATOM     36  O   UNL A   1      42.935  35.438  28.625  1.00  0.00    -0.460 OA
BRANCH  36  37
ATOM     37  C   UNL A   1      43.129  35.129  27.322  1.00  0.00     0.338 C 
ATOM     38  O   UNL A   1      42.469  35.476  26.361  1.00  0.00    -0.246 OA
BRANCH  37  39
ATOM     39  C   UNL A   1      44.183  34.114  27.208  1.00  0.00     0.060 A 
ATOM     40  C   UNL A   1      43.901  33.039  26.360  1.00  0.00     0.016 A 
ATOM     41  C   UNL A   1      45.166  34.045  28.204  1.00  0.00     0.016 A 
ATOM     42  C   UNL A   1      44.408  31.804  26.692  1.00  0.00     0.010 A 
ATOM     43  C   UNL A   1      45.662  32.807  28.542  1.00  0.00     0.010 A 
ATOM     44  C   UNL A   1      45.186  31.695  27.848  1.00  0.00    -0.014 A 
BRANCH  44  45
ATOM     45  C   UNL A   1      45.402  30.362  28.366  1.00  0.00     0.031 A 
ATOM     46  C   UNL A   1      46.420  29.565  27.659  1.00  0.00     0.074 A 
ATOM     47  C   UNL A   1      44.748  29.922  29.456  1.00  0.00     0.049 A 
ATOM     48  N   UNL A   1      46.274  28.424  27.071  1.00  0.00    -0.248 NA
ATOM     49  C   UNL A   1      47.757  30.157  27.522  1.00  0.00     0.031 C 
ATOM     50  C   UNL A   1      43.937  30.697  30.400  1.00  0.00     0.029 A 
ATOM     51  N   UNL A   1      44.765  28.678  30.007  1.00  0.00    -0.354 N 
ATOM     52  C   UNL A   1      47.538  28.079  26.608  1.00  0.00     0.074 A 
ATOM     53  C   UNL A   1      48.383  29.227  26.805  1.00  0.00     0.031 C 
ATOM     54  C   UNL A   1      43.719  29.953  31.508  1.00  0.00     0.029 A 
ATOM     55  C   UNL A   1      44.272  28.625  31.299  1.00  0.00     0.049 A 
ATOM     56  H   UNL A   1      45.099  27.884  29.528  1.00  0.00     0.167 HD
ATOM     57  C   UNL A   1      47.851  26.801  26.273  1.00  0.00     0.037 A 
ATOM     58  C   UNL A   1      44.399  27.586  32.158  1.00  0.00     0.037 A 
ATOM     59  C   UNL A   1      46.682  26.014  25.997  1.00  0.00     0.049 A 
ATOM     60  C   UNL A   1      44.700  26.372  31.355  1.00  0.00     0.074 A 
ATOM     61  C   UNL A   1      45.677  26.082  25.052  1.00  0.00     0.029 A 
ATOM     62  N   UNL A   1      46.232  25.146  26.960  1.00  0.00    -0.354 N 
ATOM     63  N   UNL A   1      43.853  25.790  30.552  1.00  0.00    -0.248 NA
ATOM     64  C   UNL A   1      46.097  26.023  31.143  1.00  0.00     0.031 C 
ATOM     65  C   UNL A   1      44.506  25.615  25.715  1.00  0.00     0.029 A 
ATOM     66  C   UNL A   1      44.868  25.275  27.019  1.00  0.00     0.049 A 
ATOM     67  H   UNL A   1      46.786  24.545  27.508  1.00  0.00     0.167 HD
ATOM     68  C   UNL A   1      44.624  25.331  29.494  1.00  0.00     0.074 A 
ATOM     69  C   UNL A   1      46.001  25.399  29.967  1.00  0.00     0.031 C 
ATOM     70  C   UNL A   1      44.099  25.203  28.240  1.00  0.00     0.037 A 
BRANCH  57  71
ATOM     71  C   UNL A   1      49.211  26.201  26.488  1.00  0.00     0.064 A 
ATOM     72  C   UNL A   1      49.693  26.015  27.796  1.00  0.00     0.173 A 
ATOM     73  C   UNL A   1      50.163  26.053  25.456  1.00  0.00     0.173 A 
ATOM     74  F   UNL A   1      48.881  26.175  28.853  1.00  0.00    -0.203 F 
ATOM     75  C   UNL A   1      51.040  25.744  28.050  1.00  0.00     0.198 A 
ATOM     76  C   UNL A   1      51.491  25.723  25.709  1.00  0.00     0.198 A 
ATOM     77  F   UNL A   1      49.873  26.328  24.177  1.00  0.00    -0.203 F 
ATOM     78  F   UNL A   1      51.477  25.687  29.315  1.00  0.00    -0.200 F 
ATOM     79  C   UNL A   1      51.936  25.595  27.007  1.00  0.00     0.200 A 
ATOM     80  F   UNL A   1      52.349  25.605  24.686  1.00  0.00    -0.200 F 
ATOM     81  F   UNL A   1      53.235  25.381  27.252  1.00  0.00    -0.200 F 
ENDBRANCH  57  71
BRANCH  58  82
ATOM     82  C   UNL A   1      44.574  27.645  33.629  1.00  0.00     0.064 A 
ATOM     83  C   UNL A   1      43.546  27.245  34.498  1.00  0.00     0.173 A 
ATOM     84  C   UNL A   1      45.839  27.856  34.216  1.00  0.00     0.173 A 
ATOM     85  F   UNL A   1      42.325  26.971  34.017  1.00  0.00    -0.203 F 
ATOM     86  C   UNL A   1      43.775  27.056  35.865  1.00  0.00     0.198 A 
ATOM     87  C   UNL A   1      46.061  27.683  35.581  1.00  0.00     0.198 A 
ATOM     88  F   UNL A   1      46.911  28.143  33.464  1.00  0.00    -0.203 F 
ATOM     89  F   UNL A   1      42.783  26.615  36.653  1.00  0.00    -0.200 F 
ATOM     90  C   UNL A   1      45.032  27.271  36.405  1.00  0.00     0.200 A 
ATOM     91  F   UNL A   1      47.293  27.861  36.081  1.00  0.00    -0.200 F 
ATOM     92  F   UNL A   1      45.263  27.041  37.704  1.00  0.00    -0.200 F 
ENDBRANCH  58  82
BRANCH  70  93
ATOM     93  C   UNL A   1      42.606  25.289  28.091  1.00  0.00     0.064 A 
ATOM     94  C   UNL A   1      41.927  26.484  27.792  1.00  0.00     0.173 A 
ATOM     95  C   UNL A   1      41.866  24.100  28.062  1.00  0.00     0.173 A 
ATOM     96  F   UNL A   1      42.586  27.646  27.702  1.00  0.00    -0.203 F 
ATOM     97  C   UNL A   1      40.563  26.486  27.508  1.00  0.00     0.198 A 
ATOM     98  C   UNL A   1      40.511  24.101  27.741  1.00  0.00     0.198 A 
ATOM     99  F   UNL A   1      42.474  22.923  28.281  1.00  0.00    -0.203 F 
ATOM    100  F   UNL A   1      39.938  27.638  27.225  1.00  0.00    -0.200 F 
ATOM    101  C   UNL A   1      39.860  25.293  27.470  1.00  0.00     0.200 A 
ATOM    102  F   UNL A   1      39.845  22.940  27.655  1.00  0.00    -0.200 F 
ATOM    103  F   UNL A   1      38.560  25.290  27.142  1.00  0.00    -0.200 F 
ENDBRANCH  70  93
ENDBRANCH  44  45
ENDBRANCH  37  39
ENDBRANCH  36  37
ENDBRANCH  35  36
ENDBRANCH  34  35
ENDBRANCH  33  34
ENDBRANCH  32  33
ENDBRANCH  31  32
ENDBRANCH  30  31
ENDBRANCH   1  30
TORSDOF 24
ENDMDL
MODEL 2
REMARK VINA RESULT:      -9.3      9.869     15.748
REMARK SMILES CCc1nn2c(C)c(CCC(=O)OCCOCCOCCOCCOC(=O)c3ccc(-c4c5nc(c(-c6c(F)c(F)c(F)c(F)c6F)c6ccc([nH]6)c(-c6c(F)c(F)c(F)c(F)c6F)c6nc(c(-c7c(F)c(F)c(F)c(F)c7F)c7ccc4[nH]7)C=C6)C=C5)cc3)c(C)nc2c1-c1ccccc1
REMARK SMILES IDX 18 1 17 2 16 3 15 4 14 5 13 6 11 7 12 8 10 9 9 10 8 11 3 12
REMARK SMILES IDX 4 13 95 14 5 15 94 16 6 17 93 18 7 19 91 20 92 21 2 22 1 23
REMARK SMILES IDX 96 24 97 25 101 26 98 27 100 28 99 29 19 30 20 31 21 32
REMARK SMILES IDX 22 33 23 34 24 35 25 36 26 37 27 38 28 39 29 40 90 41 30 42
REMARK SMILES IDX 89 43 31 44 32 45 33 46 83 47 34 48 88 49 82 50 84 51 35 52
REMARK SMILES IDX 87 53 81 54 80 55 36 57 68 58 48 59 67 60 49 61 52 62 66 63
REMARK SMILES IDX 85 64 50 65 51 66 65 68 86 69 53 70 37 71 38 72 46 73 39 74
REMARK SMILES IDX 40 75 44 76 47 77 41 78 42 79 45 80 43 81 69 82 70 83 78 84
REMARK SMILES IDX 71 85 72 86 76 87 79 88 73 89 74 90 77 91 75 92 54 93 55 94
REMARK SMILES IDX 63 95 56 96 57 97 61 98 64 99 58 100 59 101 62 102 60 103
REMARK H PARENT 84 56 52 67
REMARK Flexibility Score: inf
ROOT
ATOM      1  C   UNL A   1      44.225  17.083  39.594  1.00  0.00     0.188 C 
ENDROOT
BRANCH   1   2
ATOM      2  C   UNL A   1      44.090  15.562  39.573  1.00  0.00     0.188 C 
BRANCH   2   3
ATOM      3  O   UNL A   1      42.814  14.994  39.329  1.00  0.00    -0.376 OA
BRANCH   3   4
ATOM      4  C   UNL A   1      41.887  14.726  40.373  1.00  0.00     0.202 C 
BRANCH   4   5
ATOM      5  C   UNL A   1      42.348  13.941  41.603  1.00  0.00     0.261 C 
BRANCH   5   6
ATOM      6  O   UNL A   1      42.085  12.529  41.456  1.00  0.00    -0.463 OA
BRANCH   6   7
ATOM      7  C   UNL A   1      41.749  11.813  42.549  1.00  0.00     0.306 C 
ATOM      8  O   UNL A   1      40.696  11.944  43.161  1.00  0.00    -0.252 OA
BRANCH   7   9
ATOM      9  C   UNL A   1      42.862  10.883  43.000  1.00  0.00     0.127 C 
BRANCH   9  10
ATOM     10  C   UNL A   1      43.376  10.952  44.452  1.00  0.00     0.051 C 
BRANCH  10  11
ATOM     11  C   UNL A   1      44.211  12.143  44.917  1.00  0.00    -0.005 A 
ATOM     12  C   UNL A   1      45.481  16.078  46.720  1.00  0.00     0.073 A 
ATOM     13  N   UNL A   1      44.348  15.551  46.255  1.00  0.00    -0.171 NA
ATOM     14  C   UNL A   1      46.569  15.191  46.509  1.00  0.00     0.050 A 
ATOM     15  N   UNL A   1      44.681  14.327  45.785  1.00  0.00    -0.219 N 
ATOM     16  C   UNL A   1      46.031  14.076  45.886  1.00  0.00     0.163 A 
ATOM     17  C   UNL A   1      43.787  13.381  45.276  1.00  0.00     0.046 A 
ATOM     18  N   UNL A   1      46.569  12.926  45.391  1.00  0.00    -0.233 NA
ATOM     19  C   UNL A   1      42.412  13.940  45.192  1.00  0.00     0.067 C 
ATOM     20  C   UNL A   1      45.744  12.044  44.899  1.00  0.00     0.045 A 
ATOM     21  C   UNL A   1      46.409  10.873  44.198  1.00  0.00     0.067 C 
BRANCH  12  22
ATOM     22  C   UNL A   1      45.348  17.435  47.335  1.00  0.00     0.055 C 
ATOM     23  C   UNL A   1      46.101  18.573  46.686  1.00  0.00     0.011 C 
ENDBRANCH  12  22
BRANCH  14  24
ATOM     24  C   UNL A   1      47.970  15.290  46.830  1.00  0.00    -0.013 A 
ATOM     25  C   UNL A   1      48.491  14.546  47.893  1.00  0.00     0.009 A 
ATOM     26  C   UNL A   1      48.812  16.103  46.066  1.00  0.00     0.009 A 
ATOM     27  C   UNL A   1      49.847  14.628  48.200  1.00  0.00     0.001 A 
ATOM     28  C   UNL A   1      50.170  16.180  46.372  1.00  0.00     0.001 A 
ATOM     29  C   UNL A   1      50.685  15.446  47.441  1.00  0.00     0.000 A 
ENDBRANCH  14  24
ENDBRANCH  10  11
ENDBRANCH   9  10
ENDBRANCH   7   9
ENDBRANCH   6   7
ENDBRANCH   5   6
ENDBRANCH   4   5
ENDBRANCH   3   4
ENDBRANCH   2   3
ENDBRANCH   1   2
BRANCH   1  30
ATOM     30  O   UNL A   1      45.001  17.745  40.577  1.00  0.00    -0.377 OA
BRANCH  30  31
ATOM     31  C   UNL A   1      45.950  18.725  40.190  1.00  0.00     0.188 C 
BRANCH  31  32
ATOM     32  C   UNL A   1      46.522  18.528  38.778  1.00  0.00     0.188 C 
BRANCH  32  33
ATOM     33  O   UNL A   1      46.014  19.311  37.701  1.00  0.00    -0.376 OA
BRANCH  33  34
ATOM     34  C   UNL A   1      46.355  20.689  37.652  1.00  0.00     0.202 C 
BRANCH  34  35
ATOM     35  C   UNL A   1      45.686  21.434  36.492  1.00  0.00     0.261 C 
BRANCH  35  36
ATOM     36  O   UNL A   1      46.206  22.742  36.267  1.00  0.00    -0.460 OA
BRANCH  36  37
ATOM     37  C   UNL A   1      45.266  23.646  35.908  1.00  0.00     0.338 C 
ATOM     38  O   UNL A   1      44.099  23.694  36.250  1.00  0.00    -0.246 OA
BRANCH  37  39
ATOM     39  C   UNL A   1      45.793  24.511  34.846  1.00  0.00     0.060 A 
ATOM     40  C   UNL A   1      44.969  25.572  34.462  1.00  0.00     0.016 A 
ATOM     41  C   UNL A   1      46.819  24.025  34.025  1.00  0.00     0.016 A 
ATOM     42  C   UNL A   1      44.990  25.964  33.144  1.00  0.00     0.010 A 
ATOM     43  C   UNL A   1      46.831  24.408  32.704  1.00  0.00     0.010 A 
ATOM     44  C   UNL A   1      45.842  25.289  32.265  1.00  0.00    -0.014 A 
BRANCH  44  45
ATOM     45  C   UNL A   1      45.594  25.463  30.851  1.00  0.00     0.031 A 
ATOM     46  C   UNL A   1      46.529  26.361  30.149  1.00  0.00     0.074 A 
ATOM     47  C   UNL A   1      44.605  24.796  30.227  1.00  0.00     0.049 A 
ATOM     48  N   UNL A   1      46.259  27.440  29.492  1.00  0.00    -0.248 NA
ATOM     49  C   UNL A   1      47.962  26.056  30.264  1.00  0.00     0.031 C 
ATOM     50  C   UNL A   1      43.801  23.683  30.740  1.00  0.00     0.029 A 
ATOM     51  N   UNL A   1      44.184  24.920  28.940  1.00  0.00    -0.354 N 
ATOM     52  C   UNL A   1      47.475  27.879  28.984  1.00  0.00     0.074 A 
ATOM     53  C   UNL A   1      48.499  27.066  29.584  1.00  0.00     0.031 C 
ATOM     54  C   UNL A   1      43.144  23.104  29.711  1.00  0.00     0.029 A 
ATOM     55  C   UNL A   1      43.391  23.873  28.502  1.00  0.00     0.049 A 
ATOM     56  H   UNL A   1      44.422  25.687  28.369  1.00  0.00     0.167 HD
ATOM     57  C   UNL A   1      47.541  28.759  27.951  1.00  0.00     0.037 A 
ATOM     58  C   UNL A   1      43.046  23.618  27.218  1.00  0.00     0.037 A 
ATOM     59  C   UNL A   1      46.320  29.500  27.795  1.00  0.00     0.049 A 
ATOM     60  C   UNL A   1      43.231  24.873  26.444  1.00  0.00     0.074 A 
ATOM     61  C   UNL A   1      45.626  30.389  28.590  1.00  0.00     0.029 A 
ATOM     62  N   UNL A   1      45.450  29.129  26.800  1.00  0.00    -0.354 N 
ATOM     63  N   UNL A   1      42.492  25.939  26.580  1.00  0.00    -0.248 NA
ATOM     64  C   UNL A   1      44.510  25.085  25.781  1.00  0.00     0.031 C 
ATOM     65  C   UNL A   1      44.251  30.159  28.300  1.00  0.00     0.029 A 
ATOM     66  C   UNL A   1      44.187  29.155  27.334  1.00  0.00     0.049 A 
ATOM     67  H   UNL A   1      45.690  28.889  25.876  1.00  0.00     0.167 HD
ATOM     68  C   UNL A   1      43.364  27.003  26.396  1.00  0.00     0.074 A 
ATOM     69  C   UNL A   1      44.556  26.418  25.795  1.00  0.00     0.031 C 
ATOM     70  C   UNL A   1      43.149  28.207  27.001  1.00  0.00     0.037 A 
BRANCH  57  71
ATOM     71  C   UNL A   1      48.618  28.724  26.906  1.00  0.00     0.064 A 
ATOM     72  C   UNL A   1      48.675  27.653  25.996  1.00  0.00     0.173 A 
ATOM     73  C   UNL A   1      49.753  29.564  26.937  1.00  0.00     0.173 A 
ATOM     74  F   UNL A   1      47.667  26.770  25.917  1.00  0.00    -0.203 F 
ATOM     75  C   UNL A   1      49.804  27.418  25.208  1.00  0.00     0.198 A 
ATOM     76  C   UNL A   1      50.852  29.362  26.107  1.00  0.00     0.198 A 
ATOM     77  F   UNL A   1      49.889  30.542  27.842  1.00  0.00    -0.203 F 
ATOM     78  F   UNL A   1      49.860  26.322  24.441  1.00  0.00    -0.200 F 
ATOM     79  C   UNL A   1      50.890  28.273  25.263  1.00  0.00     0.200 A 
ATOM     80  F   UNL A   1      51.904  30.189  26.191  1.00  0.00    -0.200 F 
ATOM     81  F   UNL A   1      51.990  28.022  24.542  1.00  0.00    -0.200 F 
ENDBRANCH  57  71
BRANCH  58  82
ATOM     82  C   UNL A   1      42.863  22.294  26.577  1.00  0.00     0.064 A 
ATOM     83  C   UNL A   1      43.961  21.563  26.095  1.00  0.00     0.173 A 
ATOM     84  C   UNL A   1      41.636  21.602  26.647  1.00  0.00     0.173 A 
ATOM     85  F   UNL A   1      45.176  22.127  26.045  1.00  0.00    -0.203 F 
ATOM     86  C   UNL A   1      43.839  20.221  25.720  1.00  0.00     0.198 A 
ATOM     87  C   UNL A   1      41.514  20.269  26.257  1.00  0.00     0.198 A 
ATOM     88  F   UNL A   1      40.549  22.174  27.183  1.00  0.00    -0.203 F 
ATOM     89  F   UNL A   1      44.923  19.538  25.323  1.00  0.00    -0.200 F 
ATOM     90  C   UNL A   1      42.618  19.574  25.805  1.00  0.00     0.200 A 
ATOM     91  F   UNL A   1      40.332  19.647  26.380  1.00  0.00    -0.200 F 
ATOM     92  F   UNL A   1      42.513  18.274  25.495  1.00  0.00    -0.200 F 
ENDBRANCH  58  82
BRANCH  70  93
ATOM     93  C   UNL A   1      41.805  28.447  27.631  1.00  0.00     0.064 A 
ATOM     94  C   UNL A   1      40.697  28.944  26.923  1.00  0.00     0.173 A 
ATOM     95  C   UNL A   1      41.584  27.984  28.935  1.00  0.00     0.173 A 
ATOM     96  F   UNL A   1      40.809  29.312  25.640  1.00  0.00    -0.203 F 
ATOM     97  C   UNL A   1      39.434  29.001  27.508  1.00  0.00     0.198 A 
ATOM     98  C   UNL A   1      40.314  28.007  29.504  1.00  0.00     0.198 A 
ATOM     99  F   UNL A   1      42.594  27.444  29.637  1.00  0.00    -0.203 F 
ATOM    100  F   UNL A   1      38.392  29.478  26.812  1.00  0.00    -0.200 F 
ATOM    101  C   UNL A   1      39.241  28.521  28.793  1.00  0.00     0.200 A 
ATOM    102  F   UNL A   1      40.121  27.495  30.728  1.00  0.00    -0.200 F 
ATOM    103  F   UNL A   1      38.015  28.524  29.335  1.00  0.00    -0.200 F 
ENDBRANCH  70  93
ENDBRANCH  44  45
ENDBRANCH  37  39
ENDBRANCH  36  37
ENDBRANCH  35  36
ENDBRANCH  34  35
ENDBRANCH  33  34
ENDBRANCH  32  33
ENDBRANCH  31  32
ENDBRANCH  30  31
ENDBRANCH   1  30
TORSDOF 24
ENDMDL
MODEL 3
REMARK VINA RESULT:      -9.3      4.697      9.484
REMARK SMILES CCc1nn2c(C)c(CCC(=O)OCCOCCOCCOCCOC(=O)c3ccc(-c4c5nc(c(-c6c(F)c(F)c(F)c(F)c6F)c6ccc([nH]6)c(-c6c(F)c(F)c(F)c(F)c6F)c6nc(c(-c7c(F)c(F)c(F)c(F)c7F)c7ccc4[nH]7)C=C6)C=C5)cc3)c(C)nc2c1-c1ccccc1
REMARK SMILES IDX 18 1 17 2 16 3 15 4 14 5 13 6 11 7 12 8 10 9 9 10 8 11 3 12
REMARK SMILES IDX 4 13 95 14 5 15 94 16 6 17 93 18 7 19 91 20 92 21 2 22 1 23
REMARK SMILES IDX 96 24 97 25 101 26 98 27 100 28 99 29 19 30 20 31 21 32
REMARK SMILES IDX 22 33 23 34 24 35 25 36 26 37 27 38 28 39 29 40 90 41 30 42
REMARK SMILES IDX 89 43 31 44 32 45 33 46 83 47 34 48 88 49 82 50 84 51 35 52
REMARK SMILES IDX 87 53 81 54 80 55 36 57 68 58 48 59 67 60 49 61 52 62 66 63
REMARK SMILES IDX 85 64 50 65 51 66 65 68 86 69 53 70 37 71 38 72 46 73 39 74
REMARK SMILES IDX 40 75 44 76 47 77 41 78 42 79 45 80 43 81 69 82 70 83 78 84
REMARK SMILES IDX 71 85 72 86 76 87 79 88 73 89 74 90 77 91 75 92 54 93 55 94
REMARK SMILES IDX 63 95 56 96 57 97 61 98 64 99 58 100 59 101 62 102 60 103
REMARK H PARENT 84 56 52 67
REMARK Flexibility Score: inf
ROOT
ATOM      1  C   UNL A   1      38.893  19.745  25.403  1.00  0.00     0.188 C 
ENDROOT
BRANCH   1   2
ATOM      2  C   UNL A   1      37.657  20.418  24.810  1.00  0.00     0.188 C 
BRANCH   2   3
ATOM      3  O   UNL A   1      36.402  19.771  24.935  1.00  0.00    -0.376 OA
BRANCH   3   4
ATOM      4  C   UNL A   1      36.268  18.356  24.917  1.00  0.00     0.202 C 
BRANCH   4   5
ATOM      5  C   UNL A   1      35.105  17.721  24.150  1.00  0.00     0.261 C 
BRANCH   5   6
ATOM      6  O   UNL A   1      34.067  17.270  25.046  1.00  0.00    -0.463 OA
BRANCH   6   7
ATOM      7  C   UNL A   1      32.864  17.878  25.006  1.00  0.00     0.306 C 
ATOM      8  O   UNL A   1      31.793  17.296  25.121  1.00  0.00    -0.252 OA
BRANCH   7   9
ATOM      9  C   UNL A   1      32.974  19.364  24.707  1.00  0.00     0.127 C 
BRANCH   9  10
ATOM     10  C   UNL A   1      32.368  20.389  25.686  1.00  0.00     0.051 C 
BRANCH  10  11
ATOM     11  C   UNL A   1      32.466  21.884  25.392  1.00  0.00    -0.005 A 
ATOM     12  C   UNL A   1      32.020  25.942  23.471  1.00  0.00     0.073 A 
ATOM     13  N   UNL A   1      31.942  24.671  23.074  1.00  0.00    -0.171 NA
ATOM     14  C   UNL A   1      32.432  26.016  24.828  1.00  0.00     0.050 A 
ATOM     15  N   UNL A   1      32.257  23.928  24.159  1.00  0.00    -0.219 N 
ATOM     16  C   UNL A   1      32.598  24.704  25.244  1.00  0.00     0.163 A 
ATOM     17  C   UNL A   1      32.223  22.533  24.225  1.00  0.00     0.046 A 
ATOM     18  N   UNL A   1      33.022  24.134  26.406  1.00  0.00    -0.233 NA
ATOM     19  C   UNL A   1      31.917  21.944  22.895  1.00  0.00     0.067 C 
ATOM     20  C   UNL A   1      33.011  22.831  26.473  1.00  0.00     0.045 A 
ATOM     21  C   UNL A   1      33.665  22.252  27.714  1.00  0.00     0.067 C 
BRANCH  12  22
ATOM     22  C   UNL A   1      31.669  26.959  22.432  1.00  0.00     0.055 C 
ATOM     23  C   UNL A   1      30.522  27.895  22.730  1.00  0.00     0.011 C 
ENDBRANCH  12  22
BRANCH  14  24
ATOM     24  C   UNL A   1      32.655  27.134  25.708  1.00  0.00    -0.013 A 
ATOM     25  C   UNL A   1      33.954  27.604  25.915  1.00  0.00     0.009 A 
ATOM     26  C   UNL A   1      31.574  27.766  26.331  1.00  0.00     0.009 A 
ATOM     27  C   UNL A   1      34.174  28.693  26.756  1.00  0.00     0.001 A 
ATOM     28  C   UNL A   1      31.796  28.858  27.169  1.00  0.00     0.001 A 
ATOM     29  C   UNL A   1      33.096  29.318  27.383  1.00  0.00     0.000 A 
ENDBRANCH  14  24
ENDBRANCH  10  11
ENDBRANCH   9  10
ENDBRANCH   7   9
ENDBRANCH   6   7
ENDBRANCH   5   6
ENDBRANCH   4   5
ENDBRANCH   3   4
ENDBRANCH   2   3
ENDBRANCH   1   2
BRANCH   1  30
ATOM     30  O   UNL A   1      39.915  20.495  26.033  1.00  0.00    -0.377 OA
BRANCH  30  31
ATOM     31  C   UNL A   1      39.753  21.891  26.227  1.00  0.00     0.188 C 
BRANCH  31  32
ATOM     32  C   UNL A   1      40.546  22.460  27.413  1.00  0.00     0.188 C 
BRANCH  32  33
ATOM     33  O   UNL A   1      41.485  21.630  28.091  1.00  0.00    -0.376 OA
BRANCH  33  34
ATOM     34  C   UNL A   1      42.609  22.246  28.702  1.00  0.00     0.202 C 
BRANCH  34  35
ATOM     35  C   UNL A   1      42.709  23.746  28.403  1.00  0.00     0.261 C 
BRANCH  35  36
ATOM     36  O   UNL A   1      43.948  24.139  27.818  1.00  0.00    -0.460 OA
BRANCH  36  37
ATOM     37  C   UNL A   1      43.835  24.559  26.537  1.00  0.00     0.338 C 
ATOM     38  O   UNL A   1      43.714  23.885  25.532  1.00  0.00    -0.246 OA
BRANCH  37  39
ATOM     39  C   UNL A   1      44.076  26.005  26.470  1.00  0.00     0.060 A 
ATOM     40  C   UNL A   1      44.842  26.542  27.508  1.00  0.00     0.016 A 
ATOM     41  C   UNL A   1      43.233  26.795  25.676  1.00  0.00     0.016 A 
ATOM     42  C   UNL A   1      44.556  27.819  27.931  1.00  0.00     0.010 A 
ATOM     43  C   UNL A   1      42.938  28.067  26.107  1.00  0.00     0.010 A 
ATOM     44  C   UNL A   1      43.525  28.513  27.292  1.00  0.00    -0.014 A 
BRANCH  44  45
ATOM     45  C   UNL A   1      43.007  29.683  27.968  1.00  0.00     0.031 A 
ATOM     46  C   UNL A   1      43.743  30.936  27.719  1.00  0.00     0.074 A 
ATOM     47  C   UNL A   1      41.894  29.620  28.721  1.00  0.00     0.049 A 
ATOM     48  N   UNL A   1      44.321  31.706  28.580  1.00  0.00    -0.248 NA
ATOM     49  C   UNL A   1      43.926  31.337  26.318  1.00  0.00     0.031 C 
ATOM     50  C   UNL A   1      40.929  28.521  28.819  1.00  0.00     0.029 A 
ATOM     51  N   UNL A   1      41.339  30.593  29.492  1.00  0.00    -0.354 N 
ATOM     52  C   UNL A   1      44.822  32.774  27.846  1.00  0.00     0.074 A 
ATOM     53  C   UNL A   1      44.658  32.440  26.456  1.00  0.00     0.031 C 
ATOM     54  C   UNL A   1      39.811  28.970  29.433  1.00  0.00     0.029 A 
ATOM     55  C   UNL A   1      40.032  30.340  29.868  1.00  0.00     0.049 A 
ATOM     56  H   UNL A   1      41.825  31.408  29.759  1.00  0.00     0.167 HD
ATOM     57  C   UNL A   1      45.162  33.949  28.436  1.00  0.00     0.037 A 
ATOM     58  C   UNL A   1      39.173  31.232  30.415  1.00  0.00     0.037 A 
ATOM     59  C   UNL A   1      45.397  33.797  29.845  1.00  0.00     0.049 A 
ATOM     60  C   UNL A   1      39.979  32.342  30.986  1.00  0.00     0.074 A 
ATOM     61  C   UNL A   1      46.309  33.084  30.597  1.00  0.00     0.029 A 
ATOM     62  N   UNL A   1      44.415  34.189  30.720  1.00  0.00    -0.354 N 
ATOM     63  N   UNL A   1      40.752  32.231  32.030  1.00  0.00    -0.248 NA
ATOM     64  C   UNL A   1      40.235  33.503  30.145  1.00  0.00     0.031 C 
ATOM     65  C   UNL A   1      45.607  32.701  31.775  1.00  0.00     0.029 A 
ATOM     66  C   UNL A   1      44.314  33.216  31.681  1.00  0.00     0.049 A 
ATOM     67  H   UNL A   1      43.883  35.016  30.666  1.00  0.00     0.167 HD
ATOM     68  C   UNL A   1      41.833  33.060  31.764  1.00  0.00     0.074 A 
ATOM     69  C   UNL A   1      41.404  33.899  30.652  1.00  0.00     0.031 C 
ATOM     70  C   UNL A   1      43.068  32.800  32.282  1.00  0.00     0.037 A 
BRANCH  57  71
ATOM     71  C   UNL A   1      44.988  35.285  27.774  1.00  0.00     0.064 A 
ATOM     72  C   UNL A   1      46.087  36.154  27.653  1.00  0.00     0.173 A 
ATOM     73  C   UNL A   1      43.724  35.852  27.496  1.00  0.00     0.173 A 
ATOM     74  F   UNL A   1      47.328  35.728  27.936  1.00  0.00    -0.203 F 
ATOM     75  C   UNL A   1      45.926  37.501  27.321  1.00  0.00     0.198 A 
ATOM     76  C   UNL A   1      43.573  37.180  27.106  1.00  0.00     0.198 A 
ATOM     77  F   UNL A   1      42.584  35.178  27.696  1.00  0.00    -0.203 F 
ATOM     78  F   UNL A   1      46.987  38.318  27.329  1.00  0.00    -0.200 F 
ATOM     79  C   UNL A   1      44.670  38.011  27.046  1.00  0.00     0.200 A 
ATOM     80  F   UNL A   1      42.345  37.661  26.865  1.00  0.00    -0.200 F 
ATOM     81  F   UNL A   1      44.510  39.313  26.772  1.00  0.00    -0.200 F 
ENDBRANCH  57  71
BRANCH  58  82
ATOM     82  C   UNL A   1      37.708  31.325  30.202  1.00  0.00     0.064 A 
ATOM     83  C   UNL A   1      36.839  31.619  31.264  1.00  0.00     0.173 A 
ATOM     84  C   UNL A   1      37.150  31.374  28.908  1.00  0.00     0.173 A 
ATOM     85  F   UNL A   1      37.298  31.647  32.523  1.00  0.00    -0.203 F 
ATOM     86  C   UNL A   1      35.499  31.955  31.043  1.00  0.00     0.198 A 
ATOM     87  C   UNL A   1      35.811  31.694  28.690  1.00  0.00     0.198 A 
ATOM     88  F   UNL A   1      37.913  31.208  27.819  1.00  0.00    -0.203 F 
ATOM     89  F   UNL A   1      34.714  32.290  32.078  1.00  0.00    -0.200 F 
ATOM     90  C   UNL A   1      34.987  31.996  29.756  1.00  0.00     0.200 A 
ATOM     91  F   UNL A   1      35.340  31.764  27.436  1.00  0.00    -0.200 F 
ATOM     92  F   UNL A   1      33.718  32.368  29.540  1.00  0.00    -0.200 F 
ENDBRANCH  58  82
BRANCH  70  93
ATOM     93  C   UNL A   1      43.170  31.772  33.375  1.00  0.00     0.064 A 
ATOM     94  C   UNL A   1      43.339  30.398  33.130  1.00  0.00     0.173 A 
ATOM     95  C   UNL A   1      43.289  32.213  34.699  1.00  0.00     0.173 A 
ATOM     96  F   UNL A   1      43.339  29.917  31.881  1.00  0.00    -0.203 F 
ATOM     97  C   UNL A   1      43.586  29.506  34.171  1.00  0.00     0.198 A 
ATOM     98  C   UNL A   1      43.573  31.324  35.733  1.00  0.00     0.198 A 
ATOM     99  F   UNL A   1      43.195  33.522  34.984  1.00  0.00    -0.203 F 
ATOM    100  F   UNL A   1      43.746  28.199  33.912  1.00  0.00    -0.200 F 
ATOM    101  C   UNL A   1      43.715  29.971  35.469  1.00  0.00     0.200 A 
ATOM    102  F   UNL A   1      43.747  31.784  36.980  1.00  0.00    -0.200 F 
ATOM    103  F   UNL A   1      44.008  29.120  36.463  1.00  0.00    -0.200 F 
ENDBRANCH  70  93
ENDBRANCH  44  45
ENDBRANCH  37  39
ENDBRANCH  36  37
ENDBRANCH  35  36
ENDBRANCH  34  35
ENDBRANCH  33  34
ENDBRANCH  32  33
ENDBRANCH  31  32
ENDBRANCH  30  31
ENDBRANCH   1  30
TORSDOF 24
ENDMDL
