MODEL 1
REMARK VINA RESULT:     -10.5      0.000      0.000
REMARK SMILES C[C@@H](C(=O)OCCOCCOCCOCCOC(=O)c1ccc(-c2c3nc(c(-c4c(F)c(F)c(F)c(F)c4F)c4ccc([nH]4)c(-c4c(F)c(F)c(F)c(F)c4F)c4nc(c(-c5c(F)c(F)c(F)c(F)c5F)c5ccc2[nH]5)C=C4)C=C3)cc1)c1ccc(C[C@H]2CCC[C@H]2O)cc1-c1ccc(O)cc1
REMARK SMILES IDX 10 1 9 2 8 3 7 4 6 5 5 6 3 7 4 8 2 9 1 10 83 11 84 12 95 13
REMARK SMILES IDX 85 14 94 15 86 16 96 17 97 18 102 19 98 20 101 21 99 22
REMARK SMILES IDX 100 23 87 25 88 26 89 27 92 28 90 29 91 30 93 31 11 33 12 34
REMARK SMILES IDX 13 35 14 36 15 37 16 38 17 39 18 40 19 41 20 42 21 43 82 44
REMARK SMILES IDX 22 45 81 46 23 47 24 48 25 49 75 50 26 51 80 52 74 53 76 54
REMARK SMILES IDX 27 55 79 56 73 57 72 58 28 60 60 61 40 62 59 63 41 64 44 65
REMARK SMILES IDX 58 66 77 67 42 68 43 69 57 71 78 72 45 73 29 74 30 75 38 76
REMARK SMILES IDX 31 77 32 78 36 79 39 80 33 81 34 82 37 83 35 84 61 85 62 86
REMARK SMILES IDX 70 87 63 88 64 89 68 90 71 91 65 92 66 93 69 94 67 95 46 96
REMARK SMILES IDX 47 97 55 98 48 99 49 100 53 101 56 102 50 103 51 104 54 105
REMARK SMILES IDX 52 106
REMARK H PARENT 100 24 93 32 76 59 44 70
REMARK Flexibility Score: inf
ROOT
ATOM      1  C   UNL A   1      38.819  29.728  28.313  1.00  0.00     0.188 C 
ENDROOT
BRANCH   1   2
ATOM      2  C   UNL A   1      37.452  30.428  28.370  1.00  0.00     0.188 C 
BRANCH   2   3
ATOM      3  O   UNL A   1      36.368  29.914  27.615  1.00  0.00    -0.376 OA
BRANCH   3   4
ATOM      4  C   UNL A   1      35.118  30.585  27.600  1.00  0.00     0.202 C 
BRANCH   4   5
ATOM      5  C   UNL A   1      33.786  29.870  27.286  1.00  0.00     0.261 C 
BRANCH   5   6
ATOM      6  O   UNL A   1      33.678  28.468  27.609  1.00  0.00    -0.463 OA
BRANCH   6   7
ATOM      7  C   UNL A   1      32.494  27.875  27.311  1.00  0.00     0.313 C 
ATOM      8  O   UNL A   1      31.456  28.120  27.924  1.00  0.00    -0.252 OA
BRANCH   7   9
ATOM      9  C   UNL A   1      32.553  26.852  26.146  1.00  0.00     0.127 C 
ATOM     10  C   UNL A   1      33.898  26.295  25.666  1.00  0.00     0.025 C 
BRANCH   9  11
ATOM     11  C   UNL A   1      31.637  27.334  25.005  1.00  0.00    -0.026 A 
ATOM     12  C   UNL A   1      31.801  28.608  24.434  1.00  0.00     0.005 A 
ATOM     13  C   UNL A   1      30.524  26.561  24.592  1.00  0.00    -0.014 A 
ATOM     14  C   UNL A   1      30.834  29.162  23.595  1.00  0.00     0.004 A 
ATOM     15  C   UNL A   1      29.536  27.153  23.778  1.00  0.00     0.012 A 
ATOM     16  C   UNL A   1      29.654  28.476  23.323  1.00  0.00    -0.047 A 
BRANCH  13  17
ATOM     17  C   UNL A   1      30.484  25.122  24.884  1.00  0.00    -0.018 A 
ATOM     18  C   UNL A   1      30.975  24.235  23.911  1.00  0.00     0.012 A 
ATOM     19  C   UNL A   1      30.186  24.624  26.162  1.00  0.00     0.012 A 
ATOM     20  C   UNL A   1      31.243  22.907  24.229  1.00  0.00     0.047 A 
ATOM     21  C   UNL A   1      30.489  23.300  26.493  1.00  0.00     0.047 A 
ATOM     22  C   UNL A   1      31.032  22.460  25.526  1.00  0.00     0.115 A 
BRANCH  22  23
ATOM     23  O   UNL A   1      31.404  21.183  25.821  1.00  0.00    -0.508 OA
ATOM     24  H   UNL A   1      30.772  20.491  25.787  1.00  0.00     0.293 HD
ENDBRANCH  22  23
ENDBRANCH  13  17
BRANCH  16  25
ATOM     25  C   UNL A   1      28.550  29.143  22.540  1.00  0.00     0.041 C 
BRANCH  25  26
ATOM     26  C   UNL A   1      28.757  30.608  22.106  1.00  0.00     0.022 C 
ATOM     27  C   UNL A   1      28.089  31.019  20.783  1.00  0.00     0.007 C 
ATOM     28  C   UNL A   1      28.389  31.729  23.092  1.00  0.00     0.117 C 
ATOM     29  C   UNL A   1      27.785  32.515  20.904  1.00  0.00     0.003 C 
ATOM     30  C   UNL A   1      28.426  32.973  22.211  1.00  0.00     0.032 C 
BRANCH  28  31
ATOM     31  O   UNL A   1      27.100  31.610  23.667  1.00  0.00    -0.393 OA
ATOM     32  H   UNL A   1      26.637  32.460  23.602  1.00  0.00     0.210 HD
ENDBRANCH  28  31
ENDBRANCH  25  26
ENDBRANCH  16  25
ENDBRANCH   9  11
ENDBRANCH   7   9
ENDBRANCH   6   7
ENDBRANCH   5   6
ENDBRANCH   4   5
ENDBRANCH   3   4
ENDBRANCH   2   3
ENDBRANCH   1   2
BRANCH   1  33
ATOM     33  O   UNL A   1      39.278  29.395  27.022  1.00  0.00    -0.377 OA
BRANCH  33  34
ATOM     34  C   UNL A   1      40.533  28.744  26.935  1.00  0.00     0.188 C 
BRANCH  34  35
ATOM     35  C   UNL A   1      40.696  27.365  27.600  1.00  0.00     0.188 C 
BRANCH  35  36
ATOM     36  O   UNL A   1      39.731  26.401  27.199  1.00  0.00    -0.376 OA
BRANCH  36  37
ATOM     37  C   UNL A   1      40.169  25.173  26.637  1.00  0.00     0.202 C 
BRANCH  37  38
ATOM     38  C   UNL A   1      40.457  24.007  27.599  1.00  0.00     0.261 C 
BRANCH  38  39
ATOM     39  O   UNL A   1      41.440  24.246  28.619  1.00  0.00    -0.460 OA
BRANCH  39  40
ATOM     40  C   UNL A   1      42.585  23.537  28.574  1.00  0.00     0.338 C 
ATOM     41  O   UNL A   1      42.706  22.324  28.623  1.00  0.00    -0.246 OA
BRANCH  40  42
ATOM     42  C   UNL A   1      43.680  24.473  28.244  1.00  0.00     0.060 A 
ATOM     43  C   UNL A   1      44.376  25.094  29.290  1.00  0.00     0.016 A 
ATOM     44  C   UNL A   1      44.037  24.716  26.916  1.00  0.00     0.016 A 
ATOM     45  C   UNL A   1      45.409  25.989  29.010  1.00  0.00     0.010 A 
ATOM     46  C   UNL A   1      45.051  25.636  26.636  1.00  0.00     0.010 A 
ATOM     47  C   UNL A   1      45.717  26.302  27.681  1.00  0.00    -0.014 A 
BRANCH  47  48
ATOM     48  C   UNL A   1      46.564  27.482  27.387  1.00  0.00     0.031 A 
ATOM     49  C   UNL A   1      48.042  27.263  27.208  1.00  0.00     0.074 A 
ATOM     50  C   UNL A   1      46.041  28.713  27.252  1.00  0.00     0.049 A 
ATOM     51  N   UNL A   1      48.996  28.132  26.996  1.00  0.00    -0.248 NA
ATOM     52  C   UNL A   1      48.505  25.867  27.280  1.00  0.00     0.031 C 
ATOM     53  C   UNL A   1      44.621  29.043  27.349  1.00  0.00     0.029 A 
ATOM     54  N   UNL A   1      46.654  29.918  27.012  1.00  0.00    -0.354 N 
ATOM     55  C   UNL A   1      50.169  27.391  26.923  1.00  0.00     0.074 A 
ATOM     56  C   UNL A   1      49.813  26.006  27.141  1.00  0.00     0.031 C 
ATOM     57  C   UNL A   1      44.472  30.369  27.181  1.00  0.00     0.029 A 
ATOM     58  C   UNL A   1      45.787  30.984  27.003  1.00  0.00     0.049 A 
ATOM     59  H   UNL A   1      47.622  30.008  26.861  1.00  0.00     0.167 HD
ATOM     60  C   UNL A   1      51.429  27.826  26.689  1.00  0.00     0.037 A 
ATOM     61  C   UNL A   1      46.039  32.303  26.890  1.00  0.00     0.037 A 
ATOM     62  C   UNL A   1      51.777  29.206  26.474  1.00  0.00     0.049 A 
ATOM     63  C   UNL A   1      47.463  32.771  26.717  1.00  0.00     0.074 A 
ATOM     64  C   UNL A   1      53.021  29.748  26.209  1.00  0.00     0.029 A 
ATOM     65  N   UNL A   1      50.877  30.261  26.512  1.00  0.00    -0.354 N 
ATOM     66  N   UNL A   1      48.564  32.065  26.621  1.00  0.00    -0.248 NA
ATOM     67  C   UNL A   1      47.677  34.223  26.633  1.00  0.00     0.031 C 
ATOM     68  C   UNL A   1      52.886  31.140  26.154  1.00  0.00     0.029 A 
ATOM     69  C   UNL A   1      51.546  31.458  26.311  1.00  0.00     0.049 A 
ATOM     70  H   UNL A   1      49.909  30.173  26.661  1.00  0.00     0.167 HD
ATOM     71  C   UNL A   1      49.593  32.981  26.430  1.00  0.00     0.074 A 
ATOM     72  C   UNL A   1      48.982  34.293  26.411  1.00  0.00     0.031 C 
ATOM     73  C   UNL A   1      50.923  32.756  26.281  1.00  0.00     0.037 A 
BRANCH  60  74
ATOM     74  C   UNL A   1      52.530  26.805  26.694  1.00  0.00     0.064 A 
ATOM     75  C   UNL A   1      53.410  26.666  27.777  1.00  0.00     0.173 A 
ATOM     76  C   UNL A   1      52.687  25.932  25.607  1.00  0.00     0.173 A 
ATOM     77  F   UNL A   1      53.315  27.487  28.835  1.00  0.00    -0.203 F 
ATOM     78  C   UNL A   1      54.422  25.709  27.760  1.00  0.00     0.198 A 
ATOM     79  C   UNL A   1      53.677  24.955  25.607  1.00  0.00     0.198 A 
ATOM     80  F   UNL A   1      51.871  26.022  24.544  1.00  0.00    -0.203 F 
ATOM     81  F   UNL A   1      55.284  25.629  28.784  1.00  0.00    -0.200 F 
ATOM     82  C   UNL A   1      54.549  24.849  26.679  1.00  0.00     0.200 A 
ATOM     83  F   UNL A   1      53.788  24.116  24.567  1.00  0.00    -0.200 F 
ATOM     84  F   UNL A   1      55.518  23.923  26.668  1.00  0.00    -0.200 F 
ENDBRANCH  60  74
BRANCH  61  85
ATOM     85  C   UNL A   1      44.923  33.286  26.951  1.00  0.00     0.064 A 
ATOM     86  C   UNL A   1      44.203  33.637  25.799  1.00  0.00     0.173 A 
ATOM     87  C   UNL A   1      44.578  33.924  28.152  1.00  0.00     0.173 A 
ATOM     88  F   UNL A   1      44.511  33.076  24.620  1.00  0.00    -0.203 F 
ATOM     89  C   UNL A   1      43.199  34.603  25.843  1.00  0.00     0.198 A 
ATOM     90  C   UNL A   1      43.552  34.865  28.200  1.00  0.00     0.198 A 
ATOM     91  F   UNL A   1      45.238  33.631  29.282  1.00  0.00    -0.203 F 
ATOM     92  F   UNL A   1      42.567  34.960  24.717  1.00  0.00    -0.200 F 
ATOM     93  C   UNL A   1      42.870  35.212  27.044  1.00  0.00     0.200 A 
ATOM     94  F   UNL A   1      43.230  35.443  29.366  1.00  0.00    -0.200 F 
ATOM     95  F   UNL A   1      41.905  36.141  27.085  1.00  0.00    -0.200 F 
ENDBRANCH  61  85
BRANCH  73  96
ATOM     96  C   UNL A   1      51.806  33.947  26.031  1.00  0.00     0.064 A 
ATOM     97  C   UNL A   1      52.349  34.703  27.081  1.00  0.00     0.173 A 
ATOM     98  C   UNL A   1      52.151  34.308  24.719  1.00  0.00     0.173 A 
ATOM     99  F   UNL A   1      52.043  34.409  28.354  1.00  0.00    -0.203 F 
ATOM    100  C   UNL A   1      53.179  35.792  26.825  1.00  0.00     0.198 A 
ATOM    101  C   UNL A   1      53.010  35.374  24.468  1.00  0.00     0.198 A 
ATOM    102  F   UNL A   1      51.669  33.614  23.677  1.00  0.00    -0.203 F 
ATOM    103  F   UNL A   1      53.642  36.532  27.842  1.00  0.00    -0.200 F 
ATOM    104  C   UNL A   1      53.516  36.121  25.521  1.00  0.00     0.200 A 
ATOM    105  F   UNL A   1      53.350  35.678  23.208  1.00  0.00    -0.200 F 
ATOM    106  F   UNL A   1      54.322  37.163  25.278  1.00  0.00    -0.200 F 
ENDBRANCH  73  96
ENDBRANCH  47  48
ENDBRANCH  40  42
ENDBRANCH  39  40
ENDBRANCH  38  39
ENDBRANCH  37  38
ENDBRANCH  36  37
ENDBRANCH  35  36
ENDBRANCH  34  35
ENDBRANCH  33  34
ENDBRANCH   1  33
TORSDOF 26
ENDMDL
MODEL 2
REMARK VINA RESULT:     -10.4      3.262      8.877
REMARK SMILES C[C@@H](C(=O)OCCOCCOCCOCCOC(=O)c1ccc(-c2c3nc(c(-c4c(F)c(F)c(F)c(F)c4F)c4ccc([nH]4)c(-c4c(F)c(F)c(F)c(F)c4F)c4nc(c(-c5c(F)c(F)c(F)c(F)c5F)c5ccc2[nH]5)C=C4)C=C3)cc1)c1ccc(C[C@H]2CCC[C@H]2O)cc1-c1ccc(O)cc1
REMARK SMILES IDX 10 1 9 2 8 3 7 4 6 5 5 6 3 7 4 8 2 9 1 10 83 11 84 12 95 13
REMARK SMILES IDX 85 14 94 15 86 16 96 17 97 18 102 19 98 20 101 21 99 22
REMARK SMILES IDX 100 23 87 25 88 26 89 27 92 28 90 29 91 30 93 31 11 33 12 34
REMARK SMILES IDX 13 35 14 36 15 37 16 38 17 39 18 40 19 41 20 42 21 43 82 44
REMARK SMILES IDX 22 45 81 46 23 47 24 48 25 49 75 50 26 51 80 52 74 53 76 54
REMARK SMILES IDX 27 55 79 56 73 57 72 58 28 60 60 61 40 62 59 63 41 64 44 65
REMARK SMILES IDX 58 66 77 67 42 68 43 69 57 71 78 72 45 73 29 74 30 75 38 76
REMARK SMILES IDX 31 77 32 78 36 79 39 80 33 81 34 82 37 83 35 84 61 85 62 86
REMARK SMILES IDX 70 87 63 88 64 89 68 90 71 91 65 92 66 93 69 94 67 95 46 96
REMARK SMILES IDX 47 97 55 98 48 99 49 100 53 101 56 102 50 103 51 104 54 105
REMARK SMILES IDX 52 106
REMARK H PARENT 100 24 93 32 76 59 44 70
REMARK Flexibility Score: inf
ROOT
ATOM      1  C   UNL A   1      33.882  22.078  27.181  1.00  0.00     0.188 C 
ENDROOT
BRANCH   1   2
ATOM      2  C   UNL A   1      32.737  23.038  26.821  1.00  0.00     0.188 C 
BRANCH   2   3
ATOM      3  O   UNL A   1      31.663  22.579  26.018  1.00  0.00    -0.376 OA
BRANCH   3   4
ATOM      4  C   UNL A   1      31.289  23.284  24.845  1.00  0.00     0.202 C 
BRANCH   4   5
ATOM      5  C   UNL A   1      32.310  24.003  23.937  1.00  0.00     0.261 C 
BRANCH   5   6
ATOM      6  O   UNL A   1      32.188  25.432  23.781  1.00  0.00    -0.463 OA
BRANCH   6   7
ATOM      7  C   UNL A   1      32.932  26.191  24.626  1.00  0.00     0.313 C 
ATOM      8  O   UNL A   1      34.138  26.373  24.467  1.00  0.00    -0.252 OA
BRANCH   7   9
ATOM      9  C   UNL A   1      32.146  26.799  25.818  1.00  0.00     0.127 C 
ATOM     10  C   UNL A   1      30.614  26.768  25.837  1.00  0.00     0.025 C 
BRANCH   9  11
ATOM     11  C   UNL A   1      32.746  28.175  26.167  1.00  0.00    -0.026 A 
ATOM     12  C   UNL A   1      33.759  28.298  27.133  1.00  0.00     0.005 A 
ATOM     13  C   UNL A   1      32.202  29.363  25.622  1.00  0.00    -0.014 A 
ATOM     14  C   UNL A   1      34.128  29.539  27.649  1.00  0.00     0.004 A 
ATOM     15  C   UNL A   1      32.555  30.606  26.187  1.00  0.00     0.012 A 
ATOM     16  C   UNL A   1      33.476  30.699  27.243  1.00  0.00    -0.047 A 
BRANCH  13  17
ATOM     17  C   UNL A   1      31.402  29.305  24.391  1.00  0.00    -0.018 A 
ATOM     18  C   UNL A   1      30.112  29.862  24.414  1.00  0.00     0.012 A 
ATOM     19  C   UNL A   1      31.951  28.923  23.157  1.00  0.00     0.012 A 
ATOM     20  C   UNL A   1      29.424  30.110  23.229  1.00  0.00     0.047 A 
ATOM     21  C   UNL A   1      31.276  29.206  21.966  1.00  0.00     0.047 A 
ATOM     22  C   UNL A   1      30.025  29.814  22.015  1.00  0.00     0.115 A 
BRANCH  22  23
ATOM     23  O   UNL A   1      29.361  30.166  20.879  1.00  0.00    -0.508 OA
ATOM     24  H   UNL A   1      29.770  30.052  20.043  1.00  0.00     0.293 HD
ENDBRANCH  22  23
ENDBRANCH  13  17
BRANCH  16  25
ATOM     25  C   UNL A   1      33.775  32.016  27.916  1.00  0.00     0.041 C 
BRANCH  25  26
ATOM     26  C   UNL A   1      35.040  32.108  28.792  1.00  0.00     0.022 C 
ATOM     27  C   UNL A   1      36.154  33.031  28.271  1.00  0.00     0.007 C 
ATOM     28  C   UNL A   1      34.885  32.484  30.275  1.00  0.00     0.117 C 
ATOM     29  C   UNL A   1      36.902  33.538  29.508  1.00  0.00     0.003 C 
ATOM     30  C   UNL A   1      36.321  32.778  30.696  1.00  0.00     0.032 C 
BRANCH  28  31
ATOM     31  O   UNL A   1      34.091  33.633  30.513  1.00  0.00    -0.393 OA
ATOM     32  H   UNL A   1      34.338  34.332  29.887  1.00  0.00     0.210 HD
ENDBRANCH  28  31
ENDBRANCH  25  26
ENDBRANCH  16  25
ENDBRANCH   9  11
ENDBRANCH   7   9
ENDBRANCH   6   7
ENDBRANCH   5   6
ENDBRANCH   4   5
ENDBRANCH   3   4
ENDBRANCH   2   3
ENDBRANCH   1   2
BRANCH   1  33
ATOM     33  O   UNL A   1      34.102  21.025  26.269  1.00  0.00    -0.377 OA
BRANCH  33  34
ATOM     34  C   UNL A   1      35.229  21.136  25.420  1.00  0.00     0.188 C 
BRANCH  34  35
ATOM     35  C   UNL A   1      36.468  21.893  25.934  1.00  0.00     0.188 C 
BRANCH  35  36
ATOM     36  O   UNL A   1      37.702  21.430  25.403  1.00  0.00    -0.376 OA
BRANCH  36  37
ATOM     37  C   UNL A   1      37.841  20.059  25.063  1.00  0.00     0.202 C 
BRANCH  37  38
ATOM     38  C   UNL A   1      39.168  19.364  25.417  1.00  0.00     0.261 C 
BRANCH  38  39
ATOM     39  O   UNL A   1      40.103  20.126  26.197  1.00  0.00    -0.460 OA
BRANCH  39  40
ATOM     40  C   UNL A   1      41.405  19.785  26.135  1.00  0.00     0.338 C 
ATOM     41  O   UNL A   1      41.874  18.717  25.777  1.00  0.00    -0.246 OA
BRANCH  40  42
ATOM     42  C   UNL A   1      42.201  21.006  26.381  1.00  0.00     0.060 A 
ATOM     43  C   UNL A   1      42.524  21.348  27.702  1.00  0.00     0.016 A 
ATOM     44  C   UNL A   1      42.649  21.794  25.319  1.00  0.00     0.016 A 
ATOM     45  C   UNL A   1      43.266  22.498  27.966  1.00  0.00     0.010 A 
ATOM     46  C   UNL A   1      43.366  22.963  25.586  1.00  0.00     0.010 A 
ATOM     47  C   UNL A   1      43.647  23.337  26.913  1.00  0.00    -0.014 A 
BRANCH  47  48
ATOM     48  C   UNL A   1      44.131  24.707  27.210  1.00  0.00     0.031 A 
ATOM     49  C   UNL A   1      43.137  25.708  27.732  1.00  0.00     0.074 A 
ATOM     50  C   UNL A   1      45.421  25.052  27.051  1.00  0.00     0.049 A 
ATOM     51  N   UNL A   1      43.297  26.975  28.016  1.00  0.00    -0.248 NA
ATOM     52  C   UNL A   1      41.771  25.209  27.961  1.00  0.00     0.031 C 
ATOM     53  C   UNL A   1      46.486  24.158  26.606  1.00  0.00     0.029 A 
ATOM     54  N   UNL A   1      46.048  26.258  27.242  1.00  0.00    -0.354 N 
ATOM     55  C   UNL A   1      42.054  27.423  28.445  1.00  0.00     0.074 A 
ATOM     56  C   UNL A   1      41.143  26.304  28.356  1.00  0.00     0.031 C 
ATOM     57  C   UNL A   1      47.637  24.851  26.546  1.00  0.00     0.029 A 
ATOM     58  C   UNL A   1      47.381  26.244  26.912  1.00  0.00     0.049 A 
ATOM     59  H   UNL A   1      45.585  27.057  27.583  1.00  0.00     0.167 HD
ATOM     60  C   UNL A   1      41.706  28.657  28.879  1.00  0.00     0.037 A 
ATOM     61  C   UNL A   1      48.278  27.250  26.887  1.00  0.00     0.037 A 
ATOM     62  C   UNL A   1      42.617  29.768  28.964  1.00  0.00     0.049 A 
ATOM     63  C   UNL A   1      47.843  28.637  27.293  1.00  0.00     0.074 A 
ATOM     64  C   UNL A   1      42.369  31.053  29.410  1.00  0.00     0.029 A 
ATOM     65  N   UNL A   1      43.951  29.724  28.583  1.00  0.00    -0.354 N 
ATOM     66  N   UNL A   1      46.675  29.050  27.722  1.00  0.00    -0.248 NA
ATOM     67  C   UNL A   1      48.857  29.699  27.211  1.00  0.00     0.031 C 
ATOM     68  C   UNL A   1      43.534  31.807  29.234  1.00  0.00     0.029 A 
ATOM     69  C   UNL A   1      44.529  30.972  28.749  1.00  0.00     0.049 A 
ATOM     70  H   UNL A   1      44.416  28.927  28.244  1.00  0.00     0.167 HD
ATOM     71  C   UNL A   1      46.823  30.405  27.997  1.00  0.00     0.074 A 
ATOM     72  C   UNL A   1      48.198  30.741  27.696  1.00  0.00     0.031 C 
ATOM     73  C   UNL A   1      45.904  31.290  28.459  1.00  0.00     0.037 A 
BRANCH  60  74
ATOM     74  C   UNL A   1      40.271  28.882  29.257  1.00  0.00     0.064 A 
ATOM     75  C   UNL A   1      39.805  28.677  30.564  1.00  0.00     0.173 A 
ATOM     76  C   UNL A   1      39.352  29.338  28.299  1.00  0.00     0.173 A 
ATOM     77  F   UNL A   1      40.637  28.224  31.514  1.00  0.00    -0.203 F 
ATOM     78  C   UNL A   1      38.468  28.895  30.892  1.00  0.00     0.198 A 
ATOM     79  C   UNL A   1      38.026  29.588  28.637  1.00  0.00     0.198 A 
ATOM     80  F   UNL A   1      39.745  29.551  27.033  1.00  0.00    -0.203 F 
ATOM     81  F   UNL A   1      38.035  28.642  32.134  1.00  0.00    -0.200 F 
ATOM     82  C   UNL A   1      37.583  29.359  29.930  1.00  0.00     0.200 A 
ATOM     83  F   UNL A   1      37.175  30.049  27.709  1.00  0.00    -0.200 F 
ATOM     84  F   UNL A   1      36.299  29.576  30.249  1.00  0.00    -0.200 F 
ENDBRANCH  60  74
BRANCH  61  85
ATOM     85  C   UNL A   1      49.677  26.995  26.447  1.00  0.00     0.064 A 
ATOM     86  C   UNL A   1      50.674  26.648  27.371  1.00  0.00     0.173 A 
ATOM     87  C   UNL A   1      50.055  27.129  25.103  1.00  0.00     0.173 A 
ATOM     88  F   UNL A   1      50.371  26.534  28.672  1.00  0.00    -0.203 F 
ATOM     89  C   UNL A   1      51.997  26.470  26.970  1.00  0.00     0.198 A 
ATOM     90  C   UNL A   1      51.372  26.918  24.699  1.00  0.00     0.198 A 
ATOM     91  F   UNL A   1      49.143  27.464  24.179  1.00  0.00    -0.203 F 
ATOM     92  F   UNL A   1      52.940  26.197  27.882  1.00  0.00    -0.200 F 
ATOM     93  C   UNL A   1      52.344  26.599  25.634  1.00  0.00     0.200 A 
ATOM     94  F   UNL A   1      51.700  27.032  23.405  1.00  0.00    -0.200 F 
ATOM     95  F   UNL A   1      53.616  26.429  25.249  1.00  0.00    -0.200 F 
ENDBRANCH  61  85
BRANCH  73  96
ATOM     96  C   UNL A   1      46.363  32.698  28.719  1.00  0.00     0.064 A 
ATOM     97  C   UNL A   1      47.122  33.036  29.849  1.00  0.00     0.173 A 
ATOM     98  C   UNL A   1      46.076  33.716  27.795  1.00  0.00     0.173 A 
ATOM     99  F   UNL A   1      47.414  32.104  30.770  1.00  0.00    -0.203 F 
ATOM    100  C   UNL A   1      47.550  34.344  30.060  1.00  0.00     0.198 A 
ATOM    101  C   UNL A   1      46.537  35.015  27.990  1.00  0.00     0.198 A 
ATOM    102  F   UNL A   1      45.363  33.447  26.691  1.00  0.00    -0.203 F 
ATOM    103  F   UNL A   1      48.227  34.654  31.174  1.00  0.00    -0.200 F 
ATOM    104  C   UNL A   1      47.265  35.330  29.127  1.00  0.00     0.200 A 
ATOM    105  F   UNL A   1      46.278  35.961  27.078  1.00  0.00    -0.200 F 
ATOM    106  F   UNL A   1      47.687  36.586  29.327  1.00  0.00    -0.200 F 
ENDBRANCH  73  96
ENDBRANCH  47  48
ENDBRANCH  40  42
ENDBRANCH  39  40
ENDBRANCH  38  39
ENDBRANCH  37  38
ENDBRANCH  36  37
ENDBRANCH  35  36
ENDBRANCH  34  35
ENDBRANCH  33  34
ENDBRANCH   1  33
TORSDOF 26
ENDMDL
MODEL 3
REMARK VINA RESULT:     -10.3      1.142      7.064
REMARK SMILES C[C@@H](C(=O)OCCOCCOCCOCCOC(=O)c1ccc(-c2c3nc(c(-c4c(F)c(F)c(F)c(F)c4F)c4ccc([nH]4)c(-c4c(F)c(F)c(F)c(F)c4F)c4nc(c(-c5c(F)c(F)c(F)c(F)c5F)c5ccc2[nH]5)C=C4)C=C3)cc1)c1ccc(C[C@H]2CCC[C@H]2O)cc1-c1ccc(O)cc1
REMARK SMILES IDX 10 1 9 2 8 3 7 4 6 5 5 6 3 7 4 8 2 9 1 10 83 11 84 12 95 13
REMARK SMILES IDX 85 14 94 15 86 16 96 17 97 18 102 19 98 20 101 21 99 22
REMARK SMILES IDX 100 23 87 25 88 26 89 27 92 28 90 29 91 30 93 31 11 33 12 34
REMARK SMILES IDX 13 35 14 36 15 37 16 38 17 39 18 40 19 41 20 42 21 43 82 44
REMARK SMILES IDX 22 45 81 46 23 47 24 48 25 49 75 50 26 51 80 52 74 53 76 54
REMARK SMILES IDX 27 55 79 56 73 57 72 58 28 60 60 61 40 62 59 63 41 64 44 65
REMARK SMILES IDX 58 66 77 67 42 68 43 69 57 71 78 72 45 73 29 74 30 75 38 76
REMARK SMILES IDX 31 77 32 78 36 79 39 80 33 81 34 82 37 83 35 84 61 85 62 86
REMARK SMILES IDX 70 87 63 88 64 89 68 90 71 91 65 92 66 93 69 94 67 95 46 96
REMARK SMILES IDX 47 97 55 98 48 99 49 100 53 101 56 102 50 103 51 104 54 105
REMARK SMILES IDX 52 106
REMARK H PARENT 100 24 93 32 76 59 44 70
REMARK Flexibility Score: inf
ROOT
ATOM      1  C   UNL A   1      38.676  29.431  28.731  1.00  0.00     0.188 C 
ENDROOT
BRANCH   1   2
ATOM      2  C   UNL A   1      37.621  30.490  28.373  1.00  0.00     0.188 C 
BRANCH   2   3
ATOM      3  O   UNL A   1      36.578  30.164  27.471  1.00  0.00    -0.376 OA
BRANCH   3   4
ATOM      4  C   UNL A   1      35.221  30.360  27.837  1.00  0.00     0.202 C 
BRANCH   4   5
ATOM      5  C   UNL A   1      34.044  29.728  27.063  1.00  0.00     0.261 C 
BRANCH   5   6
ATOM      6  O   UNL A   1      33.640  28.390  27.418  1.00  0.00    -0.463 OA
BRANCH   6   7
ATOM      7  C   UNL A   1      32.410  28.004  26.995  1.00  0.00     0.313 C 
ATOM      8  O   UNL A   1      31.371  28.445  27.485  1.00  0.00    -0.252 OA
BRANCH   7   9
ATOM      9  C   UNL A   1      32.413  26.953  25.854  1.00  0.00     0.127 C 
ATOM     10  C   UNL A   1      33.733  26.491  25.225  1.00  0.00     0.025 C 
BRANCH   9  11
ATOM     11  C   UNL A   1      31.328  27.322  24.824  1.00  0.00    -0.026 A 
ATOM     12  C   UNL A   1      31.323  28.580  24.198  1.00  0.00     0.005 A 
ATOM     13  C   UNL A   1      30.234  26.456  24.581  1.00  0.00    -0.014 A 
ATOM     14  C   UNL A   1      30.221  29.030  23.472  1.00  0.00     0.004 A 
ATOM     15  C   UNL A   1      29.111  26.944  23.882  1.00  0.00     0.012 A 
ATOM     16  C   UNL A   1      29.071  28.251  23.373  1.00  0.00    -0.047 A 
BRANCH  13  17
ATOM     17  C   UNL A   1      30.338  25.031  24.921  1.00  0.00    -0.018 A 
ATOM     18  C   UNL A   1      30.904  24.164  23.970  1.00  0.00     0.012 A 
ATOM     19  C   UNL A   1      30.105  24.550  26.219  1.00  0.00     0.012 A 
ATOM     20  C   UNL A   1      31.305  22.880  24.329  1.00  0.00     0.047 A 
ATOM     21  C   UNL A   1      30.541  23.274  26.589  1.00  0.00     0.047 A 
ATOM     22  C   UNL A   1      31.153  22.458  25.642  1.00  0.00     0.115 A 
BRANCH  22  23
ATOM     23  O   UNL A   1      31.652  21.235  25.974  1.00  0.00    -0.508 OA
ATOM     24  H   UNL A   1      31.088  20.584  26.344  1.00  0.00     0.293 HD
ENDBRANCH  22  23
ENDBRANCH  13  17
BRANCH  16  25
ATOM     25  C   UNL A   1      27.831  28.807  22.718  1.00  0.00     0.041 C 
BRANCH  25  26
ATOM     26  C   UNL A   1      27.707  30.339  22.589  1.00  0.00     0.022 C 
ATOM     27  C   UNL A   1      28.335  31.162  23.725  1.00  0.00     0.007 C 
ATOM     28  C   UNL A   1      28.202  31.013  21.299  1.00  0.00     0.117 C 
ATOM     29  C   UNL A   1      28.750  32.500  23.104  1.00  0.00     0.003 C 
ATOM     30  C   UNL A   1      28.209  32.490  21.678  1.00  0.00     0.032 C 
BRANCH  28  31
ATOM     31  O   UNL A   1      29.507  30.634  20.898  1.00  0.00    -0.393 OA
ATOM     32  H   UNL A   1      29.556  29.668  20.827  1.00  0.00     0.210 HD
ENDBRANCH  28  31
ENDBRANCH  25  26
ENDBRANCH  16  25
ENDBRANCH   9  11
ENDBRANCH   7   9
ENDBRANCH   6   7
ENDBRANCH   5   6
ENDBRANCH   4   5
ENDBRANCH   3   4
ENDBRANCH   2   3
ENDBRANCH   1   2
BRANCH   1  33
ATOM     33  O   UNL A   1      38.989  28.514  27.707  1.00  0.00    -0.377 OA
BRANCH  33  34
ATOM     34  C   UNL A   1      40.223  27.829  27.814  1.00  0.00     0.188 C 
BRANCH  34  35
ATOM     35  C   UNL A   1      40.300  26.585  28.718  1.00  0.00     0.188 C 
BRANCH  35  36
ATOM     36  O   UNL A   1      39.321  25.593  28.439  1.00  0.00    -0.376 OA
BRANCH  36  37
ATOM     37  C   UNL A   1      39.383  24.883  27.212  1.00  0.00     0.202 C 
BRANCH  37  38
ATOM     38  C   UNL A   1      40.007  23.476  27.229  1.00  0.00     0.261 C 
BRANCH  38  39
ATOM     39  O   UNL A   1      41.419  23.405  27.481  1.00  0.00    -0.460 OA
BRANCH  39  40
ATOM     40  C   UNL A   1      42.254  23.443  26.423  1.00  0.00     0.338 C 
ATOM     41  O   UNL A   1      42.244  22.712  25.446  1.00  0.00    -0.246 OA
BRANCH  40  42
ATOM     42  C   UNL A   1      43.072  24.668  26.541  1.00  0.00     0.060 A 
ATOM     43  C   UNL A   1      43.363  25.402  25.383  1.00  0.00     0.016 A 
ATOM     44  C   UNL A   1      43.528  25.106  27.787  1.00  0.00     0.016 A 
ATOM     45  C   UNL A   1      44.140  26.556  25.461  1.00  0.00     0.010 A 
ATOM     46  C   UNL A   1      44.332  26.246  27.861  1.00  0.00     0.010 A 
ATOM     47  C   UNL A   1      44.670  26.956  26.694  1.00  0.00    -0.014 A 
BRANCH  47  48
ATOM     48  C   UNL A   1      45.753  27.967  26.729  1.00  0.00     0.031 A 
ATOM     49  C   UNL A   1      45.372  29.401  26.984  1.00  0.00     0.074 A 
ATOM     50  C   UNL A   1      47.044  27.628  26.570  1.00  0.00     0.049 A 
ATOM     51  N   UNL A   1      46.121  30.472  27.012  1.00  0.00    -0.248 NA
ATOM     52  C   UNL A   1      43.945  29.657  27.240  1.00  0.00     0.031 C 
ATOM     53  C   UNL A   1      47.542  26.269  26.372  1.00  0.00     0.029 A 
ATOM     54  N   UNL A   1      48.172  28.410  26.542  1.00  0.00    -0.354 N 
ATOM     55  C   UNL A   1      45.257  31.527  27.275  1.00  0.00     0.074 A 
ATOM     56  C   UNL A   1      43.924  30.974  27.370  1.00  0.00     0.031 C 
ATOM     57  C   UNL A   1      48.879  26.314  26.232  1.00  0.00     0.029 A 
ATOM     58  C   UNL A   1      49.324  27.706  26.292  1.00  0.00     0.049 A 
ATOM     59  H   UNL A   1      48.155  29.383  26.689  1.00  0.00     0.167 HD
ATOM     60  C   UNL A   1      45.550  32.840  27.429  1.00  0.00     0.037 A 
ATOM     61  C   UNL A   1      50.585  28.145  26.107  1.00  0.00     0.037 A 
ATOM     62  C   UNL A   1      46.878  33.385  27.332  1.00  0.00     0.049 A 
ATOM     63  C   UNL A   1      50.872  29.624  26.198  1.00  0.00     0.074 A 
ATOM     64  C   UNL A   1      47.284  34.697  27.493  1.00  0.00     0.029 A 
ATOM     65  N   UNL A   1      48.014  32.645  27.037  1.00  0.00    -0.354 N 
ATOM     66  N   UNL A   1      50.057  30.614  26.474  1.00  0.00    -0.248 NA
ATOM     67  C   UNL A   1      52.259  30.046  25.954  1.00  0.00     0.031 C 
ATOM     68  C   UNL A   1      48.656  34.764  27.227  1.00  0.00     0.029 A 
ATOM     69  C   UNL A   1      49.117  33.482  26.975  1.00  0.00     0.049 A 
ATOM     70  H   UNL A   1      48.033  31.672  26.892  1.00  0.00     0.167 HD
ATOM     71  C   UNL A   1      50.836  31.765  26.473  1.00  0.00     0.074 A 
ATOM     72  C   UNL A   1      52.191  31.349  26.181  1.00  0.00     0.031 C 
ATOM     73  C   UNL A   1      50.464  33.051  26.697  1.00  0.00     0.037 A 
BRANCH  60  74
ATOM     74  C   UNL A   1      44.408  33.782  27.679  1.00  0.00     0.064 A 
ATOM     75  C   UNL A   1      43.852  34.565  26.655  1.00  0.00     0.173 A 
ATOM     76  C   UNL A   1      43.844  33.882  28.959  1.00  0.00     0.173 A 
ATOM     77  F   UNL A   1      44.366  34.521  25.417  1.00  0.00    -0.203 F 
ATOM     78  C   UNL A   1      42.791  35.430  26.910  1.00  0.00     0.198 A 
ATOM     79  C   UNL A   1      42.762  34.723  29.204  1.00  0.00     0.198 A 
ATOM     80  F   UNL A   1      44.337  33.156  29.975  1.00  0.00    -0.203 F 
ATOM     81  F   UNL A   1      42.311  36.206  25.929  1.00  0.00    -0.200 F 
ATOM     82  C   UNL A   1      42.242  35.501  28.182  1.00  0.00     0.200 A 
ATOM     83  F   UNL A   1      42.223  34.779  30.430  1.00  0.00    -0.200 F 
ATOM     84  F   UNL A   1      41.215  36.328  28.424  1.00  0.00    -0.200 F 
ENDBRANCH  60  74
BRANCH  61  85
ATOM     85  C   UNL A   1      51.677  27.181  25.802  1.00  0.00     0.064 A 
ATOM     86  C   UNL A   1      52.449  26.613  26.826  1.00  0.00     0.173 A 
ATOM     87  C   UNL A   1      51.997  26.836  24.480  1.00  0.00     0.173 A 
ATOM     88  F   UNL A   1      52.202  26.931  28.106  1.00  0.00    -0.203 F 
ATOM     89  C   UNL A   1      53.512  25.759  26.538  1.00  0.00     0.198 A 
ATOM     90  C   UNL A   1      53.039  25.956  24.196  1.00  0.00     0.198 A 
ATOM     91  F   UNL A   1      51.295  27.355  23.462  1.00  0.00    -0.203 F 
ATOM     92  F   UNL A   1      54.269  25.277  27.533  1.00  0.00    -0.200 F 
ATOM     93  C   UNL A   1      53.802  25.426  25.224  1.00  0.00     0.200 A 
ATOM     94  F   UNL A   1      53.308  25.628  22.925  1.00  0.00    -0.200 F 
ATOM     95  F   UNL A   1      54.825  24.605  24.948  1.00  0.00    -0.200 F 
ENDBRANCH  61  85
BRANCH  73  96
ATOM     96  C   UNL A   1      51.542  34.100  26.687  1.00  0.00     0.064 A 
ATOM     97  C   UNL A   1      51.857  34.830  25.532  1.00  0.00     0.173 A 
ATOM     98  C   UNL A   1      52.237  34.408  27.867  1.00  0.00     0.173 A 
ATOM     99  F   UNL A   1      51.232  34.568  24.374  1.00  0.00    -0.203 F 
ATOM    100  C   UNL A   1      52.849  35.808  25.552  1.00  0.00     0.198 A 
ATOM    101  C   UNL A   1      53.202  35.411  27.892  1.00  0.00     0.198 A 
ATOM    102  F   UNL A   1      51.969  33.747  29.003  1.00  0.00    -0.203 F 
ATOM    103  F   UNL A   1      53.171  36.456  24.423  1.00  0.00    -0.200 F 
ATOM    104  C   UNL A   1      53.513  36.104  26.732  1.00  0.00     0.200 A 
ATOM    105  F   UNL A   1      53.828  35.709  29.038  1.00  0.00    -0.200 F 
ATOM    106  F   UNL A   1      54.460  37.053  26.751  1.00  0.00    -0.200 F 
ENDBRANCH  73  96
ENDBRANCH  47  48
ENDBRANCH  40  42
ENDBRANCH  39  40
ENDBRANCH  38  39
ENDBRANCH  37  38
ENDBRANCH  36  37
ENDBRANCH  35  36
ENDBRANCH  34  35
ENDBRANCH  33  34
ENDBRANCH   1  33
TORSDOF 26
ENDMDL
