MODEL 1
REMARK VINA RESULT:      -9.1      0.000      0.000
REMARK SMILES C=CC[NH2+]CC(=O)N1CCC[C@@H]1C(=O)OCCOCCOCCOCCOC(=O)c1ccc(-c2c3nc(c(-c4c(F)c(F)c(F)c(F)c4F)c4ccc([nH]4)c(-c4c(F)c(F)c(F)c(F)c4F)c4nc(c(-c5c(F)c(F)c(F)c(F)c5F)c5ccc2[nH]5)C=C4)C=C3)cc1
REMARK SMILES IDX 19 1 18 2 17 3 16 4 15 5 13 6 14 7 12 8 8 9 9 10 10 11 11 12
REMARK SMILES IDX 6 13 7 14 5 15 4 16 3 19 2 20 1 21 20 22 21 23 22 24 23 25
REMARK SMILES IDX 24 26 25 27 26 28 27 29 28 30 29 31 30 32 31 33 92 34 32 35
REMARK SMILES IDX 91 36 33 37 34 38 35 39 85 40 36 41 90 42 84 43 86 44 37 45
REMARK SMILES IDX 89 46 83 47 82 48 38 50 70 51 50 52 69 53 51 54 54 55 68 56
REMARK SMILES IDX 87 57 52 58 53 59 67 61 88 62 55 63 39 64 40 65 48 66 41 67
REMARK SMILES IDX 42 68 46 69 49 70 43 71 44 72 47 73 45 74 71 75 72 76 80 77
REMARK SMILES IDX 73 78 74 79 78 80 81 81 75 82 76 83 79 84 77 85 56 86 57 87
REMARK SMILES IDX 65 88 58 89 59 90 63 91 66 92 60 93 61 94 64 95 62 96
REMARK H PARENT 4 17 4 18 86 49 54 60
REMARK Flexibility Score: inf
ROOT
ATOM      1  C   UNL A   1      39.750  21.421  26.692  1.00  0.00     0.188 C 
ENDROOT
BRANCH   1   2
ATOM      2  O   UNL A   1      39.120  22.676  26.576  1.00  0.00    -0.376 OA
BRANCH   2   3
ATOM      3  C   UNL A   1      38.084  23.002  25.674  1.00  0.00     0.202 C 
BRANCH   3   4
ATOM      4  C   UNL A   1      36.597  22.612  25.767  1.00  0.00     0.261 C 
BRANCH   4   5
ATOM      5  O   UNL A   1      36.179  21.287  25.424  1.00  0.00    -0.462 OA
BRANCH   5   6
ATOM      6  C   UNL A   1      34.945  21.201  24.846  1.00  0.00     0.328 C 
ATOM      7  O   UNL A   1      34.393  20.136  24.594  1.00  0.00    -0.250 OA
BRANCH   6   8
ATOM      8  C   UNL A   1      34.329  22.570  24.496  1.00  0.00     0.195 C 
ATOM      9  N   UNL A   1      32.884  22.403  24.423  1.00  0.00    -0.324 N 
ATOM     10  C   UNL A   1      32.370  23.038  23.219  1.00  0.00     0.121 C 
ATOM     11  C   UNL A   1      33.525  23.048  22.249  1.00  0.00     0.024 C 
ATOM     12  C   UNL A   1      34.701  23.272  23.185  1.00  0.00     0.039 C 
BRANCH   9  13
ATOM     13  C   UNL A   1      32.187  22.280  25.615  1.00  0.00     0.278 C 
ATOM     14  O   UNL A   1      31.334  21.408  25.778  1.00  0.00    -0.268 OA
BRANCH  13  15
ATOM     15  C   UNL A   1      32.439  23.359  26.679  1.00  0.00     0.362 C 
BRANCH  15  16
ATOM     16  N   UNL A   1      32.030  24.714  26.243  1.00  0.00    -0.335 N 
ATOM     17  H   UNL A   1      32.370  25.407  26.911  1.00  0.00     0.347 HD
ATOM     18  H   UNL A   1      32.424  24.919  25.325  1.00  0.00     0.347 HD
BRANCH  16  19
ATOM     19  C   UNL A   1      30.583  24.762  26.183  1.00  0.00     0.289 C 
BRANCH  19  20
ATOM     20  C   UNL A   1      29.965  25.893  25.448  1.00  0.00     0.025 C 
ATOM     21  C   UNL A   1      30.334  26.171  24.188  1.00  0.00     0.010 C 
ENDBRANCH  19  20
ENDBRANCH  16  19
ENDBRANCH  15  16
ENDBRANCH  13  15
ENDBRANCH   9  13
ENDBRANCH   6   8
ENDBRANCH   5   6
ENDBRANCH   4   5
ENDBRANCH   3   4
ENDBRANCH   2   3
ENDBRANCH   1   2
BRANCH   1  22
ATOM     22  C   UNL A   1      41.148  21.204  26.109  1.00  0.00     0.188 C 
BRANCH  22  23
ATOM     23  O   UNL A   1      42.113  20.430  26.776  1.00  0.00    -0.377 OA
BRANCH  23  24
ATOM     24  C   UNL A   1      42.840  19.534  25.981  1.00  0.00     0.188 C 
BRANCH  24  25
ATOM     25  C   UNL A   1      43.800  20.243  25.023  1.00  0.00     0.188 C 
BRANCH  25  26
ATOM     26  O   UNL A   1      45.192  20.386  25.291  1.00  0.00    -0.376 OA
BRANCH  26  27
ATOM     27  C   UNL A   1      45.842  21.644  25.361  1.00  0.00     0.202 C 
BRANCH  27  28
ATOM     28  C   UNL A   1      45.281  22.763  26.258  1.00  0.00     0.261 C 
BRANCH  28  29
ATOM     29  O   UNL A   1      44.967  24.011  25.633  1.00  0.00    -0.460 OA
BRANCH  29  30
ATOM     30  C   UNL A   1      43.698  24.148  25.192  1.00  0.00     0.338 C 
ATOM     31  O   UNL A   1      43.157  23.556  24.275  1.00  0.00    -0.246 OA
BRANCH  30  32
ATOM     32  C   UNL A   1      42.994  25.068  26.108  1.00  0.00     0.060 A 
ATOM     33  C   UNL A   1      43.388  26.411  26.141  1.00  0.00     0.016 A 
ATOM     34  C   UNL A   1      41.951  24.614  26.922  1.00  0.00     0.016 A 
ATOM     35  C   UNL A   1      42.755  27.304  27.001  1.00  0.00     0.010 A 
ATOM     36  C   UNL A   1      41.342  25.501  27.814  1.00  0.00     0.010 A 
ATOM     37  C   UNL A   1      41.766  26.840  27.878  1.00  0.00    -0.014 A 
BRANCH  37  38
ATOM     38  C   UNL A   1      41.366  27.693  29.020  1.00  0.00     0.031 A 
ATOM     39  C   UNL A   1      42.163  27.580  30.289  1.00  0.00     0.074 A 
ATOM     40  C   UNL A   1      40.351  28.568  28.926  1.00  0.00     0.049 A 
ATOM     41  N   UNL A   1      42.002  28.194  31.433  1.00  0.00    -0.248 NA
ATOM     42  C   UNL A   1      43.299  26.644  30.262  1.00  0.00     0.031 C 
ATOM     43  C   UNL A   1      39.542  28.799  27.733  1.00  0.00     0.029 A 
ATOM     44  N   UNL A   1      39.828  29.422  29.863  1.00  0.00    -0.354 N 
ATOM     45  C   UNL A   1      43.012  27.717  32.257  1.00  0.00     0.074 A 
ATOM     46  C   UNL A   1      43.762  26.741  31.498  1.00  0.00     0.031 C 
ATOM     47  C   UNL A   1      38.609  29.727  28.015  1.00  0.00     0.029 A 
ATOM     48  C   UNL A   1      38.741  30.129  29.415  1.00  0.00     0.049 A 
ATOM     49  H   UNL A   1      40.197  29.518  30.771  1.00  0.00     0.167 HD
ATOM     50  C   UNL A   1      43.294  28.068  33.533  1.00  0.00     0.037 A 
ATOM     51  C   UNL A   1      37.935  30.986  30.074  1.00  0.00     0.037 A 
ATOM     52  C   UNL A   1      42.539  29.030  34.288  1.00  0.00     0.049 A 
ATOM     53  C   UNL A   1      38.219  31.299  31.522  1.00  0.00     0.074 A 
ATOM     54  C   UNL A   1      42.745  29.464  35.585  1.00  0.00     0.029 A 
ATOM     55  N   UNL A   1      41.421  29.702  33.812  1.00  0.00    -0.354 N 
ATOM     56  N   UNL A   1      39.189  30.865  32.290  1.00  0.00    -0.248 NA
ATOM     57  C   UNL A   1      37.296  32.227  32.193  1.00  0.00     0.031 C 
ATOM     58  C   UNL A   1      41.719  30.356  35.914  1.00  0.00     0.029 A 
ATOM     59  C   UNL A   1      40.910  30.526  34.800  1.00  0.00     0.049 A 
ATOM     60  H   UNL A   1      41.048  29.605  32.906  1.00  0.00     0.167 HD
ATOM     61  C   UNL A   1      39.015  31.490  33.520  1.00  0.00     0.074 A 
ATOM     62  C   UNL A   1      37.849  32.340  33.393  1.00  0.00     0.031 C 
ATOM     63  C   UNL A   1      39.755  31.375  34.650  1.00  0.00     0.037 A 
BRANCH  50  64
ATOM     64  C   UNL A   1      44.446  27.375  34.199  1.00  0.00     0.064 A 
ATOM     65  C   UNL A   1      44.271  26.200  34.945  1.00  0.00     0.173 A 
ATOM     66  C   UNL A   1      45.746  27.890  34.079  1.00  0.00     0.173 A 
ATOM     67  F   UNL A   1      43.046  25.680  35.108  1.00  0.00    -0.203 F 
ATOM     68  C   UNL A   1      45.351  25.582  35.570  1.00  0.00     0.198 A 
ATOM     69  C   UNL A   1      46.827  27.251  34.679  1.00  0.00     0.198 A 
ATOM     70  F   UNL A   1      45.967  29.012  33.378  1.00  0.00    -0.203 F 
ATOM     71  F   UNL A   1      45.153  24.491  36.323  1.00  0.00    -0.200 F 
ATOM     72  C   UNL A   1      46.628  26.104  35.431  1.00  0.00     0.200 A 
ATOM     73  F   UNL A   1      48.062  27.751  34.534  1.00  0.00    -0.200 F 
ATOM     74  F   UNL A   1      47.668  25.504  36.028  1.00  0.00    -0.200 F 
ENDBRANCH  50  64
BRANCH  51  75
ATOM     75  C   UNL A   1      36.774  31.600  29.376  1.00  0.00     0.064 A 
ATOM     76  C   UNL A   1      35.651  30.838  29.027  1.00  0.00     0.173 A 
ATOM     77  C   UNL A   1      36.774  32.958  29.026  1.00  0.00     0.173 A 
ATOM     78  F   UNL A   1      35.614  29.530  29.317  1.00  0.00    -0.203 F 
ATOM     79  C   UNL A   1      34.581  31.406  28.339  1.00  0.00     0.198 A 
ATOM     80  C   UNL A   1      35.692  33.532  28.363  1.00  0.00     0.198 A 
ATOM     81  F   UNL A   1      37.825  33.732  29.335  1.00  0.00    -0.203 F 
ATOM     82  F   UNL A   1      33.540  30.644  27.975  1.00  0.00    -0.200 F 
ATOM     83  C   UNL A   1      34.599  32.754  28.013  1.00  0.00     0.200 A 
ATOM     84  F   UNL A   1      35.709  34.838  28.061  1.00  0.00    -0.200 F 
ATOM     85  F   UNL A   1      33.568  33.301  27.354  1.00  0.00    -0.200 F 
ENDBRANCH  51  75
BRANCH  63  86
ATOM     86  C   UNL A   1      39.361  32.220  35.827  1.00  0.00     0.064 A 
ATOM     87  C   UNL A   1      39.834  33.530  35.990  1.00  0.00     0.173 A 
ATOM     88  C   UNL A   1      38.451  31.729  36.776  1.00  0.00     0.173 A 
ATOM     89  F   UNL A   1      40.715  34.044  35.118  1.00  0.00    -0.203 F 
ATOM     90  C   UNL A   1      39.429  34.308  37.072  1.00  0.00     0.198 A 
ATOM     91  C   UNL A   1      38.023  32.520  37.839  1.00  0.00     0.198 A 
ATOM     92  F   UNL A   1      37.961  30.485  36.663  1.00  0.00    -0.203 F 
ATOM     93  F   UNL A   1      39.928  35.541  37.232  1.00  0.00    -0.200 F 
ATOM     94  C   UNL A   1      38.517  33.806  37.990  1.00  0.00     0.200 A 
ATOM     95  F   UNL A   1      37.129  32.039  38.714  1.00  0.00    -0.200 F 
ATOM     96  F   UNL A   1      38.120  34.561  39.024  1.00  0.00    -0.200 F 
ENDBRANCH  63  86
ENDBRANCH  37  38
ENDBRANCH  30  32
ENDBRANCH  29  30
ENDBRANCH  28  29
ENDBRANCH  27  28
ENDBRANCH  26  27
ENDBRANCH  25  26
ENDBRANCH  24  25
ENDBRANCH  23  24
ENDBRANCH  22  23
ENDBRANCH   1  22
TORSDOF 25
ENDMDL
MODEL 2
REMARK VINA RESULT:      -8.7      4.668      9.140
REMARK SMILES C=CC[NH2+]CC(=O)N1CCC[C@@H]1C(=O)OCCOCCOCCOCCOC(=O)c1ccc(-c2c3nc(c(-c4c(F)c(F)c(F)c(F)c4F)c4ccc([nH]4)c(-c4c(F)c(F)c(F)c(F)c4F)c4nc(c(-c5c(F)c(F)c(F)c(F)c5F)c5ccc2[nH]5)C=C4)C=C3)cc1
REMARK SMILES IDX 19 1 18 2 17 3 16 4 15 5 13 6 14 7 12 8 8 9 9 10 10 11 11 12
REMARK SMILES IDX 6 13 7 14 5 15 4 16 3 19 2 20 1 21 20 22 21 23 22 24 23 25
REMARK SMILES IDX 24 26 25 27 26 28 27 29 28 30 29 31 30 32 31 33 92 34 32 35
REMARK SMILES IDX 91 36 33 37 34 38 35 39 85 40 36 41 90 42 84 43 86 44 37 45
REMARK SMILES IDX 89 46 83 47 82 48 38 50 70 51 50 52 69 53 51 54 54 55 68 56
REMARK SMILES IDX 87 57 52 58 53 59 67 61 88 62 55 63 39 64 40 65 48 66 41 67
REMARK SMILES IDX 42 68 46 69 49 70 43 71 44 72 47 73 45 74 71 75 72 76 80 77
REMARK SMILES IDX 73 78 74 79 78 80 81 81 75 82 76 83 79 84 77 85 56 86 57 87
REMARK SMILES IDX 65 88 58 89 59 90 63 91 66 92 60 93 61 94 64 95 62 96
REMARK H PARENT 4 17 4 18 86 49 54 60
REMARK Flexibility Score: inf
ROOT
ATOM      1  C   UNL A   1      34.208  27.000  26.311  1.00  0.00     0.188 C 
ENDROOT
BRANCH   1   2
ATOM      2  O   UNL A   1      34.408  28.328  25.883  1.00  0.00    -0.376 OA
BRANCH   2   3
ATOM      3  C   UNL A   1      33.871  29.483  26.491  1.00  0.00     0.202 C 
BRANCH   3   4
ATOM      4  C   UNL A   1      32.514  29.628  27.207  1.00  0.00     0.261 C 
BRANCH   4   5
ATOM      5  O   UNL A   1      31.403  28.818  26.810  1.00  0.00    -0.462 OA
BRANCH   5   6
ATOM      6  C   UNL A   1      31.142  28.813  25.470  1.00  0.00     0.328 C 
ATOM      7  O   UNL A   1      30.962  29.834  24.817  1.00  0.00    -0.250 OA
BRANCH   6   8
ATOM      8  C   UNL A   1      31.048  27.399  24.863  1.00  0.00     0.195 C 
ATOM      9  N   UNL A   1      30.083  27.446  23.773  1.00  0.00    -0.324 N 
ATOM     10  C   UNL A   1      29.161  26.324  23.876  1.00  0.00     0.121 C 
ATOM     11  C   UNL A   1      29.151  25.951  25.338  1.00  0.00     0.024 C 
ATOM     12  C   UNL A   1      30.596  26.216  25.725  1.00  0.00     0.039 C 
BRANCH   9  13
ATOM     13  C   UNL A   1      30.479  28.040  22.585  1.00  0.00     0.278 C 
ATOM     14  O   UNL A   1      29.726  28.777  21.948  1.00  0.00    -0.268 OA
BRANCH  13  15
ATOM     15  C   UNL A   1      31.855  27.639  22.034  1.00  0.00     0.362 C 
BRANCH  15  16
ATOM     16  N   UNL A   1      31.848  26.328  21.345  1.00  0.00    -0.335 N 
ATOM     17  H   UNL A   1      31.000  25.815  21.590  1.00  0.00     0.347 HD
ATOM     18  H   UNL A   1      31.871  26.465  20.334  1.00  0.00     0.347 HD
BRANCH  16  19
ATOM     19  C   UNL A   1      33.013  25.578  21.769  1.00  0.00     0.289 C 
BRANCH  19  20
ATOM     20  C   UNL A   1      32.798  24.186  22.239  1.00  0.00     0.025 C 
ATOM     21  C   UNL A   1      31.815  23.904  23.109  1.00  0.00     0.010 C 
ENDBRANCH  19  20
ENDBRANCH  16  19
ENDBRANCH  15  16
ENDBRANCH  13  15
ENDBRANCH   9  13
ENDBRANCH   6   8
ENDBRANCH   5   6
ENDBRANCH   4   5
ENDBRANCH   3   4
ENDBRANCH   2   3
ENDBRANCH   1   2
BRANCH   1  22
ATOM     22  C   UNL A   1      34.204  25.856  25.296  1.00  0.00     0.188 C 
BRANCH  22  23
ATOM     23  O   UNL A   1      34.824  24.624  25.571  1.00  0.00    -0.377 OA
BRANCH  23  24
ATOM     24  C   UNL A   1      33.993  23.619  26.085  1.00  0.00     0.188 C 
BRANCH  24  25
ATOM     25  C   UNL A   1      34.774  22.381  26.531  1.00  0.00     0.188 C 
BRANCH  25  26
ATOM     26  O   UNL A   1      34.581  21.096  25.948  1.00  0.00    -0.376 OA
BRANCH  26  27
ATOM     27  C   UNL A   1      35.472  20.534  25.000  1.00  0.00     0.202 C 
BRANCH  27  28
ATOM     28  C   UNL A   1      36.918  21.051  24.886  1.00  0.00     0.261 C 
BRANCH  28  29
ATOM     29  O   UNL A   1      37.561  21.479  26.091  1.00  0.00    -0.460 OA
BRANCH  29  30
ATOM     30  C   UNL A   1      38.903  21.335  26.126  1.00  0.00     0.338 C 
ATOM     31  O   UNL A   1      39.568  20.408  25.699  1.00  0.00    -0.246 OA
BRANCH  30  32
ATOM     32  C   UNL A   1      39.481  22.582  26.668  1.00  0.00     0.060 A 
ATOM     33  C   UNL A   1      38.918  23.804  26.278  1.00  0.00     0.016 A 
ATOM     34  C   UNL A   1      40.562  22.549  27.554  1.00  0.00     0.016 A 
ATOM     35  C   UNL A   1      39.445  25.000  26.758  1.00  0.00     0.010 A 
ATOM     36  C   UNL A   1      41.116  23.750  28.004  1.00  0.00     0.010 A 
ATOM     37  C   UNL A   1      40.578  24.978  27.581  1.00  0.00    -0.014 A 
BRANCH  37  38
ATOM     38  C   UNL A   1      41.339  26.231  27.783  1.00  0.00     0.031 A 
ATOM     39  C   UNL A   1      40.652  27.358  28.503  1.00  0.00     0.074 A 
ATOM     40  C   UNL A   1      42.613  26.357  27.376  1.00  0.00     0.049 A 
ATOM     41  N   UNL A   1      41.089  28.559  28.782  1.00  0.00    -0.248 NA
ATOM     42  C   UNL A   1      39.282  27.090  28.971  1.00  0.00     0.031 C 
ATOM     43  C   UNL A   1      43.396  25.317  26.716  1.00  0.00     0.029 A 
ATOM     44  N   UNL A   1      43.468  27.426  27.459  1.00  0.00    -0.354 N 
ATOM     45  C   UNL A   1      40.048  29.186  29.455  1.00  0.00     0.074 A 
ATOM     46  C   UNL A   1      38.948  28.250  29.515  1.00  0.00     0.031 C 
ATOM     47  C   UNL A   1      44.618  25.806  26.436  1.00  0.00     0.029 A 
ATOM     48  C   UNL A   1      44.688  27.200  26.873  1.00  0.00     0.049 A 
ATOM     49  H   UNL A   1      43.229  28.276  27.896  1.00  0.00     0.167 HD
ATOM     50  C   UNL A   1      40.017  30.432  29.982  1.00  0.00     0.037 A 
ATOM     51  C   UNL A   1      45.731  28.036  26.695  1.00  0.00     0.037 A 
ATOM     52  C   UNL A   1      41.108  31.364  29.910  1.00  0.00     0.049 A 
ATOM     53  C   UNL A   1      45.641  29.448  27.219  1.00  0.00     0.074 A 
ATOM     54  C   UNL A   1      41.182  32.648  30.418  1.00  0.00     0.029 A 
ATOM     55  N   UNL A   1      42.318  31.111  29.278  1.00  0.00    -0.354 N 
ATOM     56  N   UNL A   1      44.666  30.030  27.875  1.00  0.00    -0.248 NA
ATOM     57  C   UNL A   1      46.801  30.319  26.979  1.00  0.00     0.031 C 
ATOM     58  C   UNL A   1      42.415  33.193  30.045  1.00  0.00     0.029 A 
ATOM     59  C   UNL A   1      43.134  32.227  29.358  1.00  0.00     0.049 A 
ATOM     60  H   UNL A   1      42.558  30.264  28.837  1.00  0.00     0.167 HD
ATOM     61  C   UNL A   1      45.106  31.318  28.156  1.00  0.00     0.074 A 
ATOM     62  C   UNL A   1      46.440  31.431  27.605  1.00  0.00     0.031 C 
ATOM     63  C   UNL A   1      44.465  32.315  28.814  1.00  0.00     0.037 A 
BRANCH  50  64
ATOM     64  C   UNL A   1      38.744  30.865  30.648  1.00  0.00     0.064 A 
ATOM     65  C   UNL A   1      38.567  30.774  32.037  1.00  0.00     0.173 A 
ATOM     66  C   UNL A   1      37.689  31.389  29.885  1.00  0.00     0.173 A 
ATOM     67  F   UNL A   1      39.537  30.261  32.808  1.00  0.00    -0.203 F 
ATOM     68  C   UNL A   1      37.372  31.165  32.633  1.00  0.00     0.198 A 
ATOM     69  C   UNL A   1      36.508  31.809  30.488  1.00  0.00     0.198 A 
ATOM     70  F   UNL A   1      37.807  31.496  28.553  1.00  0.00    -0.203 F 
ATOM     71  F   UNL A   1      37.204  31.019  33.955  1.00  0.00    -0.200 F 
ATOM     72  C   UNL A   1      36.346  31.689  31.860  1.00  0.00     0.200 A 
ATOM     73  F   UNL A   1      35.522  32.324  29.740  1.00  0.00    -0.200 F 
ATOM     74  F   UNL A   1      35.198  32.070  32.436  1.00  0.00    -0.200 F 
ENDBRANCH  50  64
BRANCH  51  75
ATOM     75  C   UNL A   1      46.946  27.567  25.978  1.00  0.00     0.064 A 
ATOM     76  C   UNL A   1      48.032  27.016  26.674  1.00  0.00     0.173 A 
ATOM     77  C   UNL A   1      47.056  27.679  24.585  1.00  0.00     0.173 A 
ATOM     78  F   UNL A   1      47.986  26.912  28.010  1.00  0.00    -0.203 F 
ATOM     79  C   UNL A   1      49.186  26.614  26.006  1.00  0.00     0.198 A 
ATOM     80  C   UNL A   1      48.199  27.249  23.914  1.00  0.00     0.198 A 
ATOM     81  F   UNL A   1      46.047  28.200  23.871  1.00  0.00    -0.203 F 
ATOM     82  F   UNL A   1      50.227  26.135  26.700  1.00  0.00    -0.200 F 
ATOM     83  C   UNL A   1      49.266  26.725  24.626  1.00  0.00     0.200 A 
ATOM     84  F   UNL A   1      48.266  27.347  22.579  1.00  0.00    -0.200 F 
ATOM     85  F   UNL A   1      50.376  26.333  23.983  1.00  0.00    -0.200 F 
ENDBRANCH  51  75
BRANCH  63  86
ATOM     86  C   UNL A   1      45.212  33.602  29.021  1.00  0.00     0.064 A 
ATOM     87  C   UNL A   1      45.150  34.652  28.094  1.00  0.00     0.173 A 
ATOM     88  C   UNL A   1      45.954  33.807  30.195  1.00  0.00     0.173 A 
ATOM     89  F   UNL A   1      44.465  34.503  26.949  1.00  0.00    -0.203 F 
ATOM     90  C   UNL A   1      45.824  35.850  28.322  1.00  0.00     0.198 A 
ATOM     91  C   UNL A   1      46.599  35.017  30.436  1.00  0.00     0.198 A 
ATOM     92  F   UNL A   1      46.038  32.839  31.120  1.00  0.00    -0.203 F 
ATOM     93  F   UNL A   1      45.788  36.822  27.401  1.00  0.00    -0.200 F 
ATOM     94  C   UNL A   1      46.539  36.034  29.497  1.00  0.00     0.200 A 
ATOM     95  F   UNL A   1      47.275  35.199  31.579  1.00  0.00    -0.200 F 
ATOM     96  F   UNL A   1      47.177  37.192  29.720  1.00  0.00    -0.200 F 
ENDBRANCH  63  86
ENDBRANCH  37  38
ENDBRANCH  30  32
ENDBRANCH  29  30
ENDBRANCH  28  29
ENDBRANCH  27  28
ENDBRANCH  26  27
ENDBRANCH  25  26
ENDBRANCH  24  25
ENDBRANCH  23  24
ENDBRANCH  22  23
ENDBRANCH   1  22
TORSDOF 25
ENDMDL
MODEL 3
REMARK VINA RESULT:      -8.7      3.056      8.381
REMARK SMILES C=CC[NH2+]CC(=O)N1CCC[C@@H]1C(=O)OCCOCCOCCOCCOC(=O)c1ccc(-c2c3nc(c(-c4c(F)c(F)c(F)c(F)c4F)c4ccc([nH]4)c(-c4c(F)c(F)c(F)c(F)c4F)c4nc(c(-c5c(F)c(F)c(F)c(F)c5F)c5ccc2[nH]5)C=C4)C=C3)cc1
REMARK SMILES IDX 19 1 18 2 17 3 16 4 15 5 13 6 14 7 12 8 8 9 9 10 10 11 11 12
REMARK SMILES IDX 6 13 7 14 5 15 4 16 3 19 2 20 1 21 20 22 21 23 22 24 23 25
REMARK SMILES IDX 24 26 25 27 26 28 27 29 28 30 29 31 30 32 31 33 92 34 32 35
REMARK SMILES IDX 91 36 33 37 34 38 35 39 85 40 36 41 90 42 84 43 86 44 37 45
REMARK SMILES IDX 89 46 83 47 82 48 38 50 70 51 50 52 69 53 51 54 54 55 68 56
REMARK SMILES IDX 87 57 52 58 53 59 67 61 88 62 55 63 39 64 40 65 48 66 41 67
REMARK SMILES IDX 42 68 46 69 49 70 43 71 44 72 47 73 45 74 71 75 72 76 80 77
REMARK SMILES IDX 73 78 74 79 78 80 81 81 75 82 76 83 79 84 77 85 56 86 57 87
REMARK SMILES IDX 65 88 58 89 59 90 63 91 66 92 60 93 61 94 64 95 62 96
REMARK H PARENT 4 17 4 18 86 49 54 60
REMARK Flexibility Score: inf
ROOT
ATOM      1  C   UNL A   1      31.996  23.276  27.254  1.00  0.00     0.188 C 
ENDROOT
BRANCH   1   2
ATOM      2  O   UNL A   1      30.975  22.672  26.494  1.00  0.00    -0.376 OA
BRANCH   2   3
ATOM      3  C   UNL A   1      31.026  22.396  25.110  1.00  0.00     0.202 C 
BRANCH   3   4
ATOM      4  C   UNL A   1      31.175  23.402  23.953  1.00  0.00     0.261 C 
BRANCH   4   5
ATOM      5  O   UNL A   1      31.915  23.045  22.782  1.00  0.00    -0.462 OA
BRANCH   5   6
ATOM      6  C   UNL A   1      32.797  22.015  22.948  1.00  0.00     0.328 C 
ATOM      7  O   UNL A   1      32.476  20.836  22.868  1.00  0.00    -0.250 OA
BRANCH   6   8
ATOM      8  C   UNL A   1      34.228  22.475  23.292  1.00  0.00     0.195 C 
ATOM      9  N   UNL A   1      34.471  22.164  24.694  1.00  0.00    -0.324 N 
ATOM     10  C   UNL A   1      35.066  23.311  25.362  1.00  0.00     0.121 C 
ATOM     11  C   UNL A   1      34.622  24.511  24.565  1.00  0.00     0.024 C 
ATOM     12  C   UNL A   1      34.620  23.950  23.153  1.00  0.00     0.039 C 
BRANCH   9  13
ATOM     13  C   UNL A   1      34.706  20.839  25.030  1.00  0.00     0.278 C 
ATOM     14  O   UNL A   1      35.782  20.292  24.791  1.00  0.00    -0.268 OA
BRANCH  13  15
ATOM     15  C   UNL A   1      33.520  20.049  25.601  1.00  0.00     0.362 C 
BRANCH  15  16
ATOM     16  N   UNL A   1      33.709  18.581  25.533  1.00  0.00    -0.335 N 
ATOM     17  H   UNL A   1      34.568  18.369  25.024  1.00  0.00     0.347 HD
ATOM     18  H   UNL A   1      33.777  18.194  26.474  1.00  0.00     0.347 HD
BRANCH  16  19
ATOM     19  C   UNL A   1      32.575  18.002  24.841  1.00  0.00     0.289 C 
BRANCH  19  20
ATOM     20  C   UNL A   1      32.827  17.370  23.522  1.00  0.00     0.025 C 
ATOM     21  C   UNL A   1      34.058  16.944  23.194  1.00  0.00     0.010 C 
ENDBRANCH  19  20
ENDBRANCH  16  19
ENDBRANCH  15  16
ENDBRANCH  13  15
ENDBRANCH   9  13
ENDBRANCH   6   8
ENDBRANCH   5   6
ENDBRANCH   4   5
ENDBRANCH   3   4
ENDBRANCH   2   3
ENDBRANCH   1   2
BRANCH   1  22
ATOM     22  C   UNL A   1      32.168  24.796  27.243  1.00  0.00     0.188 C 
BRANCH  22  23
ATOM     23  O   UNL A   1      32.023  25.546  26.064  1.00  0.00    -0.377 OA
BRANCH  23  24
ATOM     24  C   UNL A   1      30.898  26.380  26.000  1.00  0.00     0.188 C 
BRANCH  24  25
ATOM     25  C   UNL A   1      30.954  27.355  24.822  1.00  0.00     0.188 C 
BRANCH  25  26
ATOM     26  O   UNL A   1      30.829  28.765  24.981  1.00  0.00    -0.376 OA
BRANCH  26  27
ATOM     27  C   UNL A   1      31.943  29.630  25.117  1.00  0.00     0.202 C 
BRANCH  27  28
ATOM     28  C   UNL A   1      31.842  30.903  25.978  1.00  0.00     0.261 C 
BRANCH  28  29
ATOM     29  O   UNL A   1      32.571  30.925  27.209  1.00  0.00    -0.460 OA
BRANCH  29  30
ATOM     30  C   UNL A   1      33.321  32.026  27.431  1.00  0.00     0.338 C 
ATOM     31  O   UNL A   1      32.985  33.193  27.334  1.00  0.00    -0.246 OA
BRANCH  30  32
ATOM     32  C   UNL A   1      34.630  31.588  27.957  1.00  0.00     0.060 A 
ATOM     33  C   UNL A   1      34.790  30.245  28.319  1.00  0.00     0.016 A 
ATOM     34  C   UNL A   1      35.692  32.488  28.087  1.00  0.00     0.016 A 
ATOM     35  C   UNL A   1      36.005  29.799  28.830  1.00  0.00     0.010 A 
ATOM     36  C   UNL A   1      36.899  32.051  28.637  1.00  0.00     0.010 A 
ATOM     37  C   UNL A   1      37.047  30.712  29.040  1.00  0.00    -0.014 A 
BRANCH  37  38
ATOM     38  C   UNL A   1      38.180  30.317  29.906  1.00  0.00     0.031 A 
ATOM     39  C   UNL A   1      39.180  29.343  29.349  1.00  0.00     0.074 A 
ATOM     40  C   UNL A   1      38.341  30.833  31.136  1.00  0.00     0.049 A 
ATOM     41  N   UNL A   1      40.241  28.823  29.911  1.00  0.00    -0.248 NA
ATOM     42  C   UNL A   1      38.950  28.896  27.965  1.00  0.00     0.031 C 
ATOM     43  C   UNL A   1      37.465  31.821  31.760  1.00  0.00     0.029 A 
ATOM     44  N   UNL A   1      39.304  30.586  32.082  1.00  0.00    -0.354 N 
ATOM     45  C   UNL A   1      40.799  27.989  28.951  1.00  0.00     0.074 A 
ATOM     46  C   UNL A   1      39.947  28.045  27.784  1.00  0.00     0.031 C 
ATOM     47  C   UNL A   1      37.923  32.086  32.998  1.00  0.00     0.029 A 
ATOM     48  C   UNL A   1      39.105  31.264  33.258  1.00  0.00     0.049 A 
ATOM     49  H   UNL A   1      40.065  29.979  31.930  1.00  0.00     0.167 HD
ATOM     50  C   UNL A   1      41.928  27.248  29.034  1.00  0.00     0.037 A 
ATOM     51  C   UNL A   1      39.792  31.206  34.416  1.00  0.00     0.037 A 
ATOM     52  C   UNL A   1      42.765  27.186  30.200  1.00  0.00     0.049 A 
ATOM     53  C   UNL A   1      41.000  30.307  34.513  1.00  0.00     0.074 A 
ATOM     54  C   UNL A   1      43.935  26.472  30.386  1.00  0.00     0.029 A 
ATOM     55  N   UNL A   1      42.513  27.860  31.386  1.00  0.00    -0.354 N 
ATOM     56  N   UNL A   1      41.538  29.539  33.596  1.00  0.00    -0.248 NA
ATOM     57  C   UNL A   1      41.698  30.272  35.806  1.00  0.00     0.031 C 
ATOM     58  C   UNL A   1      44.360  26.669  31.703  1.00  0.00     0.029 A 
ATOM     59  C   UNL A   1      43.491  27.556  32.319  1.00  0.00     0.049 A 
ATOM     60  H   UNL A   1      41.752  28.465  31.542  1.00  0.00     0.167 HD
ATOM     61  C   UNL A   1      42.654  28.958  34.188  1.00  0.00     0.074 A 
ATOM     62  C   UNL A   1      42.719  29.468  35.542  1.00  0.00     0.031 C 
ATOM     63  C   UNL A   1      43.546  28.085  33.658  1.00  0.00     0.037 A 
BRANCH  50  64
ATOM     64  C   UNL A   1      42.294  26.416  27.840  1.00  0.00     0.064 A 
ATOM     65  C   UNL A   1      41.718  25.157  27.611  1.00  0.00     0.173 A 
ATOM     66  C   UNL A   1      43.227  26.892  26.906  1.00  0.00     0.173 A 
ATOM     67  F   UNL A   1      40.837  24.648  28.485  1.00  0.00    -0.203 F 
ATOM     68  C   UNL A   1      42.085  24.393  26.506  1.00  0.00     0.198 A 
ATOM     69  C   UNL A   1      43.567  26.139  25.786  1.00  0.00     0.198 A 
ATOM     70  F   UNL A   1      43.807  28.089  27.079  1.00  0.00    -0.203 F 
ATOM     71  F   UNL A   1      41.563  23.171  26.335  1.00  0.00    -0.200 F 
ATOM     72  C   UNL A   1      43.003  24.887  25.591  1.00  0.00     0.200 A 
ATOM     73  F   UNL A   1      44.446  26.623  24.898  1.00  0.00    -0.200 F 
ATOM     74  F   UNL A   1      43.350  24.153  24.525  1.00  0.00    -0.200 F 
ENDBRANCH  50  64
BRANCH  51  75
ATOM     75  C   UNL A   1      39.349  32.012  35.585  1.00  0.00     0.064 A 
ATOM     76  C   UNL A   1      38.447  31.494  36.524  1.00  0.00     0.173 A 
ATOM     77  C   UNL A   1      39.802  33.325  35.774  1.00  0.00     0.173 A 
ATOM     78  F   UNL A   1      37.964  30.252  36.372  1.00  0.00    -0.203 F 
ATOM     79  C   UNL A   1      38.002  32.264  37.596  1.00  0.00     0.198 A 
ATOM     80  C   UNL A   1      39.380  34.085  36.862  1.00  0.00     0.198 A 
ATOM     81  F   UNL A   1      40.665  33.871  34.903  1.00  0.00    -0.203 F 
ATOM     82  F   UNL A   1      37.103  31.760  38.453  1.00  0.00    -0.200 F 
ATOM     83  C   UNL A   1      38.473  33.556  37.768  1.00  0.00     0.200 A 
ATOM     84  F   UNL A   1      39.848  35.329  37.031  1.00  0.00    -0.200 F 
ATOM     85  F   UNL A   1      38.048  34.296  38.803  1.00  0.00    -0.200 F 
ENDBRANCH  51  75
BRANCH  63  86
ATOM     86  C   UNL A   1      44.698  27.659  34.522  1.00  0.00     0.064 A 
ATOM     87  C   UNL A   1      45.912  28.361  34.536  1.00  0.00     0.173 A 
ATOM     88  C   UNL A   1      44.563  26.566  35.392  1.00  0.00     0.173 A 
ATOM     89  F   UNL A   1      46.098  29.406  33.715  1.00  0.00    -0.203 F 
ATOM     90  C   UNL A   1      46.957  27.968  35.370  1.00  0.00     0.198 A 
ATOM     91  C   UNL A   1      45.596  26.195  36.248  1.00  0.00     0.198 A 
ATOM     92  F   UNL A   1      43.418  25.866  35.425  1.00  0.00    -0.203 F 
ATOM     93  F   UNL A   1      48.124  28.625  35.334  1.00  0.00    -0.200 F 
ATOM     94  C   UNL A   1      46.794  26.892  36.231  1.00  0.00     0.200 A 
ATOM     95  F   UNL A   1      45.431  25.167  37.091  1.00  0.00    -0.200 F 
ATOM     96  F   UNL A   1      47.796  26.523  37.042  1.00  0.00    -0.200 F 
ENDBRANCH  63  86
ENDBRANCH  37  38
ENDBRANCH  30  32
ENDBRANCH  29  30
ENDBRANCH  28  29
ENDBRANCH  27  28
ENDBRANCH  26  27
ENDBRANCH  25  26
ENDBRANCH  24  25
ENDBRANCH  23  24
ENDBRANCH  22  23
ENDBRANCH   1  22
TORSDOF 25
ENDMDL
