MODEL 1
REMARK VINA RESULT:      -9.2      0.000      0.000
REMARK SMILES C[C@@](NC(=O)CSCc1ccccc1)(C(=O)OCCOCCOCCOCCOC(=O)c1ccc(-c2c3nc(c(-c4c(F)c(F)c(F)c(F)c4F)c4ccc([nH]4)c(-c4c(F)c(F)c(F)c(F)c4F)c4nc(c(-c5c(F)c(F)c(F)c(F)c5F)c5ccc2[nH]5)C=C4)C=C3)cc1)C1CC1
REMARK SMILES IDX 21 1 20 2 19 3 18 4 17 5 15 6 16 7 2 8 1 9 3 10 4 11 5 13
REMARK SMILES IDX 6 14 7 15 8 16 9 17 10 18 14 19 11 20 13 21 12 22 95 23
REMARK SMILES IDX 96 24 97 25 22 26 23 27 24 28 25 29 26 30 27 31 28 32 29 33
REMARK SMILES IDX 30 34 31 35 32 36 33 37 94 38 34 39 93 40 35 41 36 42 37 43
REMARK SMILES IDX 87 44 38 45 92 46 86 47 88 48 39 49 91 50 85 51 84 52 40 54
REMARK SMILES IDX 72 55 52 56 71 57 53 58 56 59 70 60 89 61 54 62 55 63 69 65
REMARK SMILES IDX 90 66 57 67 41 68 42 69 50 70 43 71 44 72 48 73 51 74 45 75
REMARK SMILES IDX 46 76 49 77 47 78 73 79 74 80 82 81 75 82 76 83 80 84 83 85
REMARK SMILES IDX 77 86 78 87 81 88 79 89 58 90 59 91 67 92 60 93 61 94 65 95
REMARK SMILES IDX 68 96 62 97 63 98 66 99 64 100
REMARK H PARENT 3 12 88 53 56 64
REMARK Flexibility Score: inf
ROOT
ATOM      1  C   UNL A   1      35.253  31.145  27.973  1.00  0.00     0.188 C 
ENDROOT
BRANCH   1   2
ATOM      2  O   UNL A   1      34.807  29.815  27.795  1.00  0.00    -0.376 OA
BRANCH   2   3
ATOM      3  C   UNL A   1      34.188  29.430  26.579  1.00  0.00     0.202 C 
BRANCH   3   4
ATOM      4  C   UNL A   1      32.987  28.480  26.519  1.00  0.00     0.261 C 
BRANCH   4   5
ATOM      5  O   UNL A   1      33.294  27.076  26.521  1.00  0.00    -0.461 OA
BRANCH   5   6
ATOM      6  C   UNL A   1      33.261  26.426  25.333  1.00  0.00     0.331 C 
ATOM      7  O   UNL A   1      33.570  26.957  24.268  1.00  0.00    -0.249 OA
BRANCH   6   8
ATOM      8  C   UNL A   1      32.756  24.939  25.426  1.00  0.00     0.138 C 
ATOM      9  C   UNL A   1      31.755  24.506  26.520  1.00  0.00     0.048 C 
BRANCH   8  10
ATOM     10  N   UNL A   1      32.056  24.656  24.127  1.00  0.00    -0.340 N 
ATOM     11  C   UNL A   1      30.740  24.819  23.784  1.00  0.00     0.230 C 
ATOM     12  H   UNL A   1      32.632  24.301  23.412  1.00  0.00     0.164 HD
ATOM     13  O   UNL A   1      30.261  23.993  22.998  1.00  0.00    -0.274 OA
BRANCH  11  14
ATOM     14  C   UNL A   1      29.919  26.021  24.221  1.00  0.00     0.169 C 
BRANCH  14  15
ATOM     15  S   UNL A   1      30.061  27.450  23.119  1.00  0.00    -0.147 SA
BRANCH  15  16
ATOM     16  C   UNL A   1      28.402  28.149  23.126  1.00  0.00     0.105 C 
BRANCH  16  17
ATOM     17  C   UNL A   1      28.469  29.609  22.785  1.00  0.00    -0.038 A 
ATOM     18  C   UNL A   1      29.199  30.055  21.667  1.00  0.00     0.004 A 
ATOM     19  C   UNL A   1      27.720  30.527  23.523  1.00  0.00     0.004 A 
ATOM     20  C   UNL A   1      29.120  31.383  21.257  1.00  0.00     0.000 A 
ATOM     21  C   UNL A   1      27.655  31.859  23.120  1.00  0.00     0.000 A 
ATOM     22  C   UNL A   1      28.339  32.281  21.980  1.00  0.00     0.000 A 
ENDBRANCH  16  17
ENDBRANCH  15  16
ENDBRANCH  14  15
ENDBRANCH  11  14
ENDBRANCH   8  10
BRANCH   8  23
ATOM     23  C   UNL A   1      33.982  23.974  25.482  1.00  0.00     0.026 C 
ATOM     24  C   UNL A   1      34.677  23.441  24.238  1.00  0.00     0.007 C 
ATOM     25  C   UNL A   1      35.408  24.390  25.131  1.00  0.00     0.007 C 
ENDBRANCH   8  23
ENDBRANCH   6   8
ENDBRANCH   5   6
ENDBRANCH   4   5
ENDBRANCH   3   4
ENDBRANCH   2   3
ENDBRANCH   1   2
BRANCH   1  26
ATOM     26  C   UNL A   1      34.227  32.297  28.013  1.00  0.00     0.188 C 
BRANCH  26  27
ATOM     27  O   UNL A   1      34.033  32.981  29.233  1.00  0.00    -0.377 OA
BRANCH  27  28
ATOM     28  C   UNL A   1      34.176  34.392  29.270  1.00  0.00     0.188 C 
BRANCH  28  29
ATOM     29  C   UNL A   1      33.455  35.226  30.348  1.00  0.00     0.188 C 
BRANCH  29  30
ATOM     30  O   UNL A   1      33.390  34.631  31.630  1.00  0.00    -0.376 OA
BRANCH  30  31
ATOM     31  C   UNL A   1      34.520  34.639  32.484  1.00  0.00     0.202 C 
BRANCH  31  32
ATOM     32  C   UNL A   1      35.195  33.303  32.835  1.00  0.00     0.261 C 
BRANCH  32  33
ATOM     33  O   UNL A   1      35.839  32.620  31.755  1.00  0.00    -0.460 OA
BRANCH  33  34
ATOM     34  C   UNL A   1      36.431  31.448  32.049  1.00  0.00     0.338 C 
ATOM     35  O   UNL A   1      35.904  30.440  32.500  1.00  0.00    -0.246 OA
BRANCH  34  36
ATOM     36  C   UNL A   1      37.819  31.505  31.568  1.00  0.00     0.060 A 
ATOM     37  C   UNL A   1      38.062  31.965  30.269  1.00  0.00     0.016 A 
ATOM     38  C   UNL A   1      38.865  31.056  32.379  1.00  0.00     0.016 A 
ATOM     39  C   UNL A   1      39.346  31.903  29.743  1.00  0.00     0.010 A 
ATOM     40  C   UNL A   1      40.149  30.968  31.842  1.00  0.00     0.010 A 
ATOM     41  C   UNL A   1      40.374  31.331  30.502  1.00  0.00    -0.014 A 
BRANCH  41  42
ATOM     42  C   UNL A   1      41.572  30.843  29.786  1.00  0.00     0.031 A 
ATOM     43  C   UNL A   1      41.520  29.457  29.203  1.00  0.00     0.074 A 
ATOM     44  C   UNL A   1      42.633  31.638  29.578  1.00  0.00     0.049 A 
ATOM     45  N   UNL A   1      42.417  28.809  28.506  1.00  0.00    -0.248 NA
ATOM     46  C   UNL A   1      40.280  28.695  29.436  1.00  0.00     0.031 C 
ATOM     47  C   UNL A   1      42.761  33.017  30.044  1.00  0.00     0.029 A 
ATOM     48  N   UNL A   1      43.803  31.394  28.908  1.00  0.00    -0.354 N 
ATOM     49  C   UNL A   1      41.855  27.568  28.231  1.00  0.00     0.074 A 
ATOM     50  C   UNL A   1      40.556  27.536  28.863  1.00  0.00     0.031 C 
ATOM     51  C   UNL A   1      43.950  33.501  29.643  1.00  0.00     0.029 A 
ATOM     52  C   UNL A   1      44.673  32.456  28.921  1.00  0.00     0.049 A 
ATOM     53  H   UNL A   1      44.001  30.540  28.461  1.00  0.00     0.167 HD
ATOM     54  C   UNL A   1      42.374  26.549  27.508  1.00  0.00     0.037 A 
ATOM     55  C   UNL A   1      45.916  32.555  28.414  1.00  0.00     0.037 A 
ATOM     56  C   UNL A   1      43.665  26.593  26.877  1.00  0.00     0.049 A 
ATOM     57  C   UNL A   1      46.500  31.378  27.672  1.00  0.00     0.074 A 
ATOM     58  C   UNL A   1      44.285  25.625  26.108  1.00  0.00     0.029 A 
ATOM     59  N   UNL A   1      44.540  27.668  26.952  1.00  0.00    -0.354 N 
ATOM     60  N   UNL A   1      45.959  30.215  27.398  1.00  0.00    -0.248 NA
ATOM     61  C   UNL A   1      47.868  31.536  27.159  1.00  0.00     0.031 C 
ATOM     62  C   UNL A   1      45.563  26.087  25.776  1.00  0.00     0.029 A 
ATOM     63  C   UNL A   1      45.709  27.374  26.268  1.00  0.00     0.049 A 
ATOM     64  H   UNL A   1      44.358  28.514  27.422  1.00  0.00     0.167 HD
ATOM     65  C   UNL A   1      46.900  29.520  26.648  1.00  0.00     0.074 A 
ATOM     66  C   UNL A   1      48.041  30.399  26.500  1.00  0.00     0.031 C 
ATOM     67  C   UNL A   1      46.829  28.270  26.123  1.00  0.00     0.037 A 
BRANCH  54  68
ATOM     68  C   UNL A   1      41.563  25.289  27.401  1.00  0.00     0.064 A 
ATOM     69  C   UNL A   1      40.439  25.190  26.566  1.00  0.00     0.173 A 
ATOM     70  C   UNL A   1      41.927  24.154  28.144  1.00  0.00     0.173 A 
ATOM     71  F   UNL A   1      40.035  26.251  25.850  1.00  0.00    -0.203 F 
ATOM     72  C   UNL A   1      39.694  24.015  26.501  1.00  0.00     0.198 A 
ATOM     73  C   UNL A   1      41.201  22.971  28.049  1.00  0.00     0.198 A 
ATOM     74  F   UNL A   1      42.990  24.193  28.960  1.00  0.00    -0.203 F 
ATOM     75  F   UNL A   1      38.592  23.964  25.741  1.00  0.00    -0.200 F 
ATOM     76  C   UNL A   1      40.081  22.904  27.236  1.00  0.00     0.200 A 
ATOM     77  F   UNL A   1      41.584  21.894  28.750  1.00  0.00    -0.200 F 
ATOM     78  F   UNL A   1      39.367  21.772  27.167  1.00  0.00    -0.200 F 
ENDBRANCH  54  68
BRANCH  55  79
ATOM     79  C   UNL A   1      46.693  33.811  28.584  1.00  0.00     0.064 A 
ATOM     80  C   UNL A   1      47.490  34.022  29.719  1.00  0.00     0.173 A 
ATOM     81  C   UNL A   1      46.632  34.839  27.632  1.00  0.00     0.173 A 
ATOM     82  F   UNL A   1      47.563  33.080  30.671  1.00  0.00    -0.203 F 
ATOM     83  C   UNL A   1      48.175  35.221  29.906  1.00  0.00     0.198 A 
ATOM     84  C   UNL A   1      47.342  36.025  27.804  1.00  0.00     0.198 A 
ATOM     85  F   UNL A   1      45.882  34.691  26.530  1.00  0.00    -0.203 F 
ATOM     86  F   UNL A   1      48.883  35.418  31.026  1.00  0.00    -0.200 F 
ATOM     87  C   UNL A   1      48.105  36.219  28.945  1.00  0.00     0.200 A 
ATOM     88  F   UNL A   1      47.280  36.983  26.868  1.00  0.00    -0.200 F 
ATOM     89  F   UNL A   1      48.762  37.373  29.126  1.00  0.00    -0.200 F 
ENDBRANCH  55  79
BRANCH  67  90
ATOM     90  C   UNL A   1      47.987  27.806  25.285  1.00  0.00     0.064 A 
ATOM     91  C   UNL A   1      49.173  27.320  25.856  1.00  0.00     0.173 A 
ATOM     92  C   UNL A   1      47.897  27.826  23.883  1.00  0.00     0.173 A 
ATOM     93  F   UNL A   1      49.317  27.287  27.189  1.00  0.00    -0.203 F 
ATOM     94  C   UNL A   1      50.239  26.915  25.057  1.00  0.00     0.198 A 
ATOM     95  C   UNL A   1      48.949  27.382  23.089  1.00  0.00     0.198 A 
ATOM     96  F   UNL A   1      46.781  28.267  23.284  1.00  0.00    -0.203 F 
ATOM     97  F   UNL A   1      51.388  26.521  25.625  1.00  0.00    -0.200 F 
ATOM     98  C   UNL A   1      50.124  26.940  23.675  1.00  0.00     0.200 A 
ATOM     99  F   UNL A   1      48.826  27.387  21.754  1.00  0.00    -0.200 F 
ATOM    100  F   UNL A   1      51.151  26.548  22.908  1.00  0.00    -0.200 F 
ENDBRANCH  67  90
ENDBRANCH  41  42
ENDBRANCH  34  36
ENDBRANCH  33  34
ENDBRANCH  32  33
ENDBRANCH  31  32
ENDBRANCH  30  31
ENDBRANCH  29  30
ENDBRANCH  28  29
ENDBRANCH  27  28
ENDBRANCH  26  27
ENDBRANCH   1  26
TORSDOF 26
ENDMDL
MODEL 2
REMARK VINA RESULT:      -8.8      5.171     11.412
REMARK SMILES C[C@@](NC(=O)CSCc1ccccc1)(C(=O)OCCOCCOCCOCCOC(=O)c1ccc(-c2c3nc(c(-c4c(F)c(F)c(F)c(F)c4F)c4ccc([nH]4)c(-c4c(F)c(F)c(F)c(F)c4F)c4nc(c(-c5c(F)c(F)c(F)c(F)c5F)c5ccc2[nH]5)C=C4)C=C3)cc1)C1CC1
REMARK SMILES IDX 21 1 20 2 19 3 18 4 17 5 15 6 16 7 2 8 1 9 3 10 4 11 5 13
REMARK SMILES IDX 6 14 7 15 8 16 9 17 10 18 14 19 11 20 13 21 12 22 95 23
REMARK SMILES IDX 96 24 97 25 22 26 23 27 24 28 25 29 26 30 27 31 28 32 29 33
REMARK SMILES IDX 30 34 31 35 32 36 33 37 94 38 34 39 93 40 35 41 36 42 37 43
REMARK SMILES IDX 87 44 38 45 92 46 86 47 88 48 39 49 91 50 85 51 84 52 40 54
REMARK SMILES IDX 72 55 52 56 71 57 53 58 56 59 70 60 89 61 54 62 55 63 69 65
REMARK SMILES IDX 90 66 57 67 41 68 42 69 50 70 43 71 44 72 48 73 51 74 45 75
REMARK SMILES IDX 46 76 49 77 47 78 73 79 74 80 82 81 75 82 76 83 80 84 83 85
REMARK SMILES IDX 77 86 78 87 81 88 79 89 58 90 59 91 67 92 60 93 61 94 65 95
REMARK SMILES IDX 68 96 62 97 63 98 66 99 64 100
REMARK H PARENT 3 12 88 53 56 64
REMARK Flexibility Score: inf
ROOT
ATOM      1  C   UNL A   1      38.916  33.151  33.338  1.00  0.00     0.188 C 
ENDROOT
BRANCH   1   2
ATOM      2  O   UNL A   1      38.180  32.068  32.804  1.00  0.00    -0.376 OA
BRANCH   2   3
ATOM      3  C   UNL A   1      38.548  30.736  33.117  1.00  0.00     0.202 C 
BRANCH   3   4
ATOM      4  C   UNL A   1      39.469  30.379  34.290  1.00  0.00     0.261 C 
BRANCH   4   5
ATOM      5  O   UNL A   1      40.821  30.036  33.946  1.00  0.00    -0.461 OA
BRANCH   5   6
ATOM      6  C   UNL A   1      41.065  28.761  33.558  1.00  0.00     0.331 C 
ATOM      7  O   UNL A   1      40.397  28.181  32.704  1.00  0.00    -0.249 OA
BRANCH   6   8
ATOM      8  C   UNL A   1      42.254  28.071  34.322  1.00  0.00     0.138 C 
ATOM      9  C   UNL A   1      42.903  28.739  35.555  1.00  0.00     0.048 C 
BRANCH   8  10
ATOM     10  N   UNL A   1      41.719  26.762  34.829  1.00  0.00    -0.340 N 
ATOM     11  C   UNL A   1      42.320  25.806  35.603  1.00  0.00     0.230 C 
ATOM     12  H   UNL A   1      40.792  26.560  34.564  1.00  0.00     0.164 HD
ATOM     13  O   UNL A   1      42.015  24.629  35.378  1.00  0.00    -0.274 OA
BRANCH  11  14
ATOM     14  C   UNL A   1      43.219  26.149  36.781  1.00  0.00     0.169 C 
BRANCH  14  15
ATOM     15  S   UNL A   1      44.167  24.745  37.418  1.00  0.00    -0.147 SA
BRANCH  15  16
ATOM     16  C   UNL A   1      45.083  24.172  35.978  1.00  0.00     0.105 C 
BRANCH  16  17
ATOM     17  C   UNL A   1      45.319  22.694  36.088  1.00  0.00    -0.038 A 
ATOM     18  C   UNL A   1      45.125  21.849  34.979  1.00  0.00     0.004 A 
ATOM     19  C   UNL A   1      45.832  22.161  37.273  1.00  0.00     0.004 A 
ATOM     20  C   UNL A   1      45.506  20.511  35.037  1.00  0.00     0.000 A 
ATOM     21  C   UNL A   1      46.198  20.818  37.332  1.00  0.00     0.000 A 
ATOM     22  C   UNL A   1      46.052  20.001  36.211  1.00  0.00     0.000 A 
ENDBRANCH  16  17
ENDBRANCH  15  16
ENDBRANCH  14  15
ENDBRANCH  11  14
ENDBRANCH   8  10
BRANCH   8  23
ATOM     23  C   UNL A   1      43.389  27.717  33.310  1.00  0.00     0.026 C 
ATOM     24  C   UNL A   1      44.795  27.330  33.742  1.00  0.00     0.007 C 
ATOM     25  C   UNL A   1      43.925  26.305  33.092  1.00  0.00     0.007 C 
ENDBRANCH   8  23
ENDBRANCH   6   8
ENDBRANCH   5   6
ENDBRANCH   4   5
ENDBRANCH   3   4
ENDBRANCH   2   3
ENDBRANCH   1   2
BRANCH   1  26
ATOM     26  C   UNL A   1      38.172  34.340  33.979  1.00  0.00     0.188 C 
BRANCH  26  27
ATOM     27  O   UNL A   1      37.087  34.910  33.276  1.00  0.00    -0.377 OA
BRANCH  27  28
ATOM     28  C   UNL A   1      35.761  34.569  33.649  1.00  0.00     0.188 C 
BRANCH  28  29
ATOM     29  C   UNL A   1      34.555  35.290  33.013  1.00  0.00     0.188 C 
BRANCH  29  30
ATOM     30  O   UNL A   1      33.814  34.523  32.084  1.00  0.00    -0.376 OA
BRANCH  30  31
ATOM     31  C   UNL A   1      34.407  34.092  30.871  1.00  0.00     0.202 C 
BRANCH  31  32
ATOM     32  C   UNL A   1      34.629  32.588  30.647  1.00  0.00     0.261 C 
BRANCH  32  33
ATOM     33  O   UNL A   1      35.599  32.235  29.656  1.00  0.00    -0.460 OA
BRANCH  33  34
ATOM     34  C   UNL A   1      35.293  31.198  28.855  1.00  0.00     0.338 C 
ATOM     35  O   UNL A   1      34.276  31.044  28.192  1.00  0.00    -0.246 OA
BRANCH  34  36
ATOM     36  C   UNL A   1      36.478  30.333  28.758  1.00  0.00     0.060 A 
ATOM     37  C   UNL A   1      36.846  29.569  29.871  1.00  0.00     0.016 A 
ATOM     38  C   UNL A   1      37.247  30.321  27.592  1.00  0.00     0.016 A 
ATOM     39  C   UNL A   1      38.034  28.849  29.853  1.00  0.00     0.010 A 
ATOM     40  C   UNL A   1      38.453  29.619  27.581  1.00  0.00     0.010 A 
ATOM     41  C   UNL A   1      38.875  28.938  28.737  1.00  0.00    -0.014 A 
BRANCH  41  42
ATOM     42  C   UNL A   1      40.299  28.579  28.914  1.00  0.00     0.031 A 
ATOM     43  C   UNL A   1      41.176  29.550  29.657  1.00  0.00     0.074 A 
ATOM     44  C   UNL A   1      40.773  27.389  28.514  1.00  0.00     0.049 A 
ATOM     45  N   UNL A   1      42.441  29.459  29.974  1.00  0.00    -0.248 NA
ATOM     46  C   UNL A   1      40.534  30.797  30.109  1.00  0.00     0.031 C 
ATOM     47  C   UNL A   1      39.995  26.351  27.843  1.00  0.00     0.029 A 
ATOM     48  N   UNL A   1      42.030  26.855  28.628  1.00  0.00    -0.354 N 
ATOM     49  C   UNL A   1      42.745  30.636  30.647  1.00  0.00     0.074 A 
ATOM     50  C   UNL A   1      41.546  31.442  30.666  1.00  0.00     0.031 C 
ATOM     51  C   UNL A   1      40.796  25.297  27.603  1.00  0.00     0.029 A 
ATOM     52  C   UNL A   1      42.144  25.603  28.077  1.00  0.00     0.049 A 
ATOM     53  H   UNL A   1      42.779  27.323  29.062  1.00  0.00     0.167 HD
ATOM     54  C   UNL A   1      43.919  31.008  31.209  1.00  0.00     0.037 A 
ATOM     55  C   UNL A   1      43.226  24.809  27.964  1.00  0.00     0.037 A 
ATOM     56  C   UNL A   1      45.105  30.196  31.192  1.00  0.00     0.049 A 
ATOM     57  C   UNL A   1      44.541  25.277  28.536  1.00  0.00     0.074 A 
ATOM     58  C   UNL A   1      46.345  30.465  31.742  1.00  0.00     0.029 A 
ATOM     59  N   UNL A   1      45.198  28.953  30.582  1.00  0.00    -0.354 N 
ATOM     60  N   UNL A   1      44.820  26.381  29.187  1.00  0.00    -0.248 NA
ATOM     61  C   UNL A   1      45.691  24.380  28.364  1.00  0.00     0.031 C 
ATOM     62  C   UNL A   1      47.207  29.416  31.405  1.00  0.00     0.029 A 
ATOM     63  C   UNL A   1      46.484  28.456  30.715  1.00  0.00     0.049 A 
ATOM     64  H   UNL A   1      44.459  28.492  30.122  1.00  0.00     0.167 HD
ATOM     65  C   UNL A   1      46.161  26.293  29.539  1.00  0.00     0.074 A 
ATOM     66  C   UNL A   1      46.636  25.019  29.038  1.00  0.00     0.031 C 
ATOM     67  C   UNL A   1      46.932  27.179  30.219  1.00  0.00     0.037 A 
BRANCH  54  68
ATOM     68  C   UNL A   1      43.985  32.367  31.846  1.00  0.00     0.064 A 
ATOM     69  C   UNL A   1      43.739  32.566  33.213  1.00  0.00     0.173 A 
ATOM     70  C   UNL A   1      44.314  33.491  31.071  1.00  0.00     0.173 A 
ATOM     71  F   UNL A   1      43.400  31.530  33.996  1.00  0.00    -0.203 F 
ATOM     72  C   UNL A   1      43.789  33.840  33.773  1.00  0.00     0.198 A 
ATOM     73  C   UNL A   1      44.398  34.757  31.642  1.00  0.00     0.198 A 
ATOM     74  F   UNL A   1      44.556  33.359  29.758  1.00  0.00    -0.203 F 
ATOM     75  F   UNL A   1      43.492  34.013  35.069  1.00  0.00    -0.200 F 
ATOM     76  C   UNL A   1      44.127  34.933  32.990  1.00  0.00     0.200 A 
ATOM     77  F   UNL A   1      44.738  35.810  30.885  1.00  0.00    -0.200 F 
ATOM     78  F   UNL A   1      44.182  36.157  33.531  1.00  0.00    -0.200 F 
ENDBRANCH  54  68
BRANCH  55  79
ATOM     79  C   UNL A   1      43.115  23.490  27.285  1.00  0.00     0.064 A 
ATOM     80  C   UNL A   1      43.587  23.306  25.978  1.00  0.00     0.173 A 
ATOM     81  C   UNL A   1      42.508  22.395  27.919  1.00  0.00     0.173 A 
ATOM     82  F   UNL A   1      44.154  24.328  25.320  1.00  0.00    -0.203 F 
ATOM     83  C   UNL A   1      43.434  22.086  25.322  1.00  0.00     0.198 A 
ATOM     84  C   UNL A   1      42.385  21.167  27.274  1.00  0.00     0.198 A 
ATOM     85  F   UNL A   1      42.037  22.519  29.168  1.00  0.00    -0.203 F 
ATOM     86  F   UNL A   1      43.843  21.955  24.053  1.00  0.00    -0.200 F 
ATOM     87  C   UNL A   1      42.838  21.016  25.973  1.00  0.00     0.200 A 
ATOM     88  F   UNL A   1      41.818  20.133  27.911  1.00  0.00    -0.200 F 
ATOM     89  F   UNL A   1      42.690  19.843  25.341  1.00  0.00    -0.200 F 
ENDBRANCH  55  79
BRANCH  67  90
ATOM     90  C   UNL A   1      48.349  26.774  30.519  1.00  0.00     0.064 A 
ATOM     91  C   UNL A   1      48.684  26.014  31.650  1.00  0.00     0.173 A 
ATOM     92  C   UNL A   1      49.386  27.133  29.642  1.00  0.00     0.173 A 
ATOM     93  F   UNL A   1      47.734  25.651  32.526  1.00  0.00    -0.203 F 
ATOM     94  C   UNL A   1      50.007  25.669  31.915  1.00  0.00     0.198 A 
ATOM     95  C   UNL A   1      50.700  26.752  29.889  1.00  0.00     0.198 A 
ATOM     96  F   UNL A   1      49.120  27.846  28.537  1.00  0.00    -0.203 F 
ATOM     97  F   UNL A   1      50.311  25.005  33.038  1.00  0.00    -0.200 F 
ATOM     98  C   UNL A   1      51.013  26.032  31.032  1.00  0.00     0.200 A 
ATOM     99  F   UNL A   1      51.667  27.085  29.022  1.00  0.00    -0.200 F 
ATOM    100  F   UNL A   1      52.284  25.698  31.288  1.00  0.00    -0.200 F 
ENDBRANCH  67  90
ENDBRANCH  41  42
ENDBRANCH  34  36
ENDBRANCH  33  34
ENDBRANCH  32  33
ENDBRANCH  31  32
ENDBRANCH  30  31
ENDBRANCH  29  30
ENDBRANCH  28  29
ENDBRANCH  27  28
ENDBRANCH  26  27
ENDBRANCH   1  26
TORSDOF 26
ENDMDL
MODEL 3
REMARK VINA RESULT:      -8.7      8.168     11.738
REMARK SMILES C[C@@](NC(=O)CSCc1ccccc1)(C(=O)OCCOCCOCCOCCOC(=O)c1ccc(-c2c3nc(c(-c4c(F)c(F)c(F)c(F)c4F)c4ccc([nH]4)c(-c4c(F)c(F)c(F)c(F)c4F)c4nc(c(-c5c(F)c(F)c(F)c(F)c5F)c5ccc2[nH]5)C=C4)C=C3)cc1)C1CC1
REMARK SMILES IDX 21 1 20 2 19 3 18 4 17 5 15 6 16 7 2 8 1 9 3 10 4 11 5 13
REMARK SMILES IDX 6 14 7 15 8 16 9 17 10 18 14 19 11 20 13 21 12 22 95 23
REMARK SMILES IDX 96 24 97 25 22 26 23 27 24 28 25 29 26 30 27 31 28 32 29 33
REMARK SMILES IDX 30 34 31 35 32 36 33 37 94 38 34 39 93 40 35 41 36 42 37 43
REMARK SMILES IDX 87 44 38 45 92 46 86 47 88 48 39 49 91 50 85 51 84 52 40 54
REMARK SMILES IDX 72 55 52 56 71 57 53 58 56 59 70 60 89 61 54 62 55 63 69 65
REMARK SMILES IDX 90 66 57 67 41 68 42 69 50 70 43 71 44 72 48 73 51 74 45 75
REMARK SMILES IDX 46 76 49 77 47 78 73 79 74 80 82 81 75 82 76 83 80 84 83 85
REMARK SMILES IDX 77 86 78 87 81 88 79 89 58 90 59 91 67 92 60 93 61 94 65 95
REMARK SMILES IDX 68 96 62 97 63 98 66 99 64 100
REMARK H PARENT 3 12 88 53 56 64
REMARK Flexibility Score: inf
ROOT
ATOM      1  C   UNL A   1      35.164  30.448  27.707  1.00  0.00     0.188 C 
ENDROOT
BRANCH   1   2
ATOM      2  O   UNL A   1      34.680  29.120  27.699  1.00  0.00    -0.376 OA
BRANCH   2   3
ATOM      3  C   UNL A   1      33.896  28.657  26.613  1.00  0.00     0.202 C 
BRANCH   3   4
ATOM      4  C   UNL A   1      33.042  27.385  26.684  1.00  0.00     0.261 C 
BRANCH   4   5
ATOM      5  O   UNL A   1      32.555  26.884  25.427  1.00  0.00    -0.461 OA
BRANCH   5   6
ATOM      6  C   UNL A   1      31.776  25.776  25.455  1.00  0.00     0.331 C 
ATOM      7  O   UNL A   1      30.891  25.599  26.289  1.00  0.00    -0.249 OA
BRANCH   6   8
ATOM      8  C   UNL A   1      32.126  24.715  24.348  1.00  0.00     0.138 C 
ATOM      9  C   UNL A   1      31.011  23.982  23.568  1.00  0.00     0.048 C 
BRANCH   8  10
ATOM     10  N   UNL A   1      32.912  25.450  23.300  1.00  0.00    -0.340 N 
ATOM     11  C   UNL A   1      32.495  26.022  22.128  1.00  0.00     0.230 C 
ATOM     12  H   UNL A   1      33.875  25.535  23.485  1.00  0.00     0.164 HD
ATOM     13  O   UNL A   1      33.283  25.984  21.176  1.00  0.00    -0.274 OA
BRANCH  11  14
ATOM     14  C   UNL A   1      31.190  26.793  22.008  1.00  0.00     0.169 C 
BRANCH  14  15
ATOM     15  S   UNL A   1      31.271  28.482  22.655  1.00  0.00    -0.147 SA
BRANCH  15  16
ATOM     16  C   UNL A   1      29.645  28.727  23.387  1.00  0.00     0.105 C 
BRANCH  16  17
ATOM     17  C   UNL A   1      29.063  30.021  22.899  1.00  0.00    -0.038 A 
ATOM     18  C   UNL A   1      29.075  31.169  23.713  1.00  0.00     0.004 A 
ATOM     19  C   UNL A   1      28.594  30.118  21.587  1.00  0.00     0.004 A 
ATOM     20  C   UNL A   1      28.692  32.404  23.197  1.00  0.00     0.000 A 
ATOM     21  C   UNL A   1      28.196  31.352  21.078  1.00  0.00     0.000 A 
ATOM     22  C   UNL A   1      28.262  32.495  21.876  1.00  0.00     0.000 A 
ENDBRANCH  16  17
ENDBRANCH  15  16
ENDBRANCH  14  15
ENDBRANCH  11  14
ENDBRANCH   8  10
BRANCH   8  23
ATOM     23  C   UNL A   1      33.087  23.638  24.943  1.00  0.00     0.026 C 
ATOM     24  C   UNL A   1      33.510  23.620  26.404  1.00  0.00     0.007 C 
ATOM     25  C   UNL A   1      32.638  22.524  25.885  1.00  0.00     0.007 C 
ENDBRANCH   8  23
ENDBRANCH   6   8
ENDBRANCH   5   6
ENDBRANCH   4   5
ENDBRANCH   3   4
ENDBRANCH   2   3
ENDBRANCH   1   2
BRANCH   1  26
ATOM     26  C   UNL A   1      34.194  31.617  27.441  1.00  0.00     0.188 C 
BRANCH  26  27
ATOM     27  O   UNL A   1      33.803  32.427  28.530  1.00  0.00    -0.377 OA
BRANCH  27  28
ATOM     28  C   UNL A   1      34.228  33.780  28.579  1.00  0.00     0.188 C 
BRANCH  28  29
ATOM     29  C   UNL A   1      33.207  34.918  28.777  1.00  0.00     0.188 C 
BRANCH  29  30
ATOM     30  O   UNL A   1      32.629  34.993  30.067  1.00  0.00    -0.376 OA
BRANCH  30  31
ATOM     31  C   UNL A   1      33.372  35.508  31.158  1.00  0.00     0.202 C 
BRANCH  31  32
ATOM     32  C   UNL A   1      34.284  34.557  31.949  1.00  0.00     0.261 C 
BRANCH  32  33
ATOM     33  O   UNL A   1      35.689  34.818  31.868  1.00  0.00    -0.460 OA
BRANCH  33  34
ATOM     34  C   UNL A   1      36.500  33.745  31.832  1.00  0.00     0.338 C 
ATOM     35  O   UNL A   1      36.883  33.134  30.843  1.00  0.00    -0.246 OA
BRANCH  34  36
ATOM     36  C   UNL A   1      37.016  33.519  33.190  1.00  0.00     0.060 A 
ATOM     37  C   UNL A   1      37.627  34.583  33.863  1.00  0.00     0.016 A 
ATOM     38  C   UNL A   1      36.942  32.249  33.769  1.00  0.00     0.016 A 
ATOM     39  C   UNL A   1      38.241  34.363  35.090  1.00  0.00     0.010 A 
ATOM     40  C   UNL A   1      37.581  32.021  34.988  1.00  0.00     0.010 A 
ATOM     41  C   UNL A   1      38.286  33.065  35.613  1.00  0.00    -0.014 A 
BRANCH  41  42
ATOM     42  C   UNL A   1      39.318  32.765  36.630  1.00  0.00     0.031 A 
ATOM     43  C   UNL A   1      38.893  32.753  38.073  1.00  0.00     0.074 A 
ATOM     44  C   UNL A   1      40.566  32.421  36.277  1.00  0.00     0.049 A 
ATOM     45  N   UNL A   1      39.590  32.489  39.148  1.00  0.00    -0.248 NA
ATOM     46  C   UNL A   1      37.482  33.081  38.343  1.00  0.00     0.031 C 
ATOM     47  C   UNL A   1      41.065  32.340  34.906  1.00  0.00     0.029 A 
ATOM     48  N   UNL A   1      41.639  32.067  37.052  1.00  0.00    -0.354 N 
ATOM     49  C   UNL A   1      38.709  32.632  40.212  1.00  0.00     0.074 A 
ATOM     50  C   UNL A   1      37.435  33.038  39.664  1.00  0.00     0.031 C 
ATOM     51  C   UNL A   1      42.353  31.956  34.936  1.00  0.00     0.029 A 
ATOM     52  C   UNL A   1      42.772  31.796  36.327  1.00  0.00     0.049 A 
ATOM     53  H   UNL A   1      41.600  32.011  38.034  1.00  0.00     0.167 HD
ATOM     54  C   UNL A   1      38.939  32.432  41.530  1.00  0.00     0.037 A 
ATOM     55  C   UNL A   1      44.007  31.470  36.753  1.00  0.00     0.037 A 
ATOM     56  C   UNL A   1      40.208  32.020  42.066  1.00  0.00     0.049 A 
ATOM     57  C   UNL A   1      44.256  31.322  38.233  1.00  0.00     0.074 A 
ATOM     58  C   UNL A   1      40.551  31.774  43.383  1.00  0.00     0.029 A 
ATOM     59  N   UNL A   1      41.349  31.803  41.307  1.00  0.00    -0.354 N 
ATOM     60  N   UNL A   1      43.417  31.440  39.235  1.00  0.00    -0.248 NA
ATOM     61  C   UNL A   1      45.627  30.987  38.641  1.00  0.00     0.031 C 
ATOM     62  C   UNL A   1      41.917  31.474  43.427  1.00  0.00     0.029 A 
ATOM     63  C   UNL A   1      42.406  31.454  42.131  1.00  0.00     0.049 A 
ATOM     64  H   UNL A   1      41.400  31.884  40.327  1.00  0.00     0.167 HD
ATOM     65  C   UNL A   1      44.144  31.151  40.383  1.00  0.00     0.074 A 
ATOM     66  C   UNL A   1      45.491  30.842  39.951  1.00  0.00     0.031 C 
ATOM     67  C   UNL A   1      43.738  31.137  41.678  1.00  0.00     0.037 A 
BRANCH  54  68
ATOM     68  C   UNL A   1      37.808  32.701  42.483  1.00  0.00     0.064 A 
ATOM     69  C   UNL A   1      37.571  33.975  43.022  1.00  0.00     0.173 A 
ATOM     70  C   UNL A   1      36.938  31.663  42.852  1.00  0.00     0.173 A 
ATOM     71  F   UNL A   1      38.384  34.999  42.719  1.00  0.00    -0.203 F 
ATOM     72  C   UNL A   1      36.527  34.192  43.917  1.00  0.00     0.198 A 
ATOM     73  C   UNL A   1      35.874  31.892  43.719  1.00  0.00     0.198 A 
ATOM     74  F   UNL A   1      37.120  30.425  42.368  1.00  0.00    -0.203 F 
ATOM     75  F   UNL A   1      36.356  35.403  44.465  1.00  0.00    -0.200 F 
ATOM     76  C   UNL A   1      35.674  33.152  44.258  1.00  0.00     0.200 A 
ATOM     77  F   UNL A   1      35.044  30.888  44.036  1.00  0.00    -0.200 F 
ATOM     78  F   UNL A   1      34.665  33.364  45.115  1.00  0.00    -0.200 F 
ENDBRANCH  54  68
BRANCH  55  79
ATOM     79  C   UNL A   1      45.103  31.257  35.770  1.00  0.00     0.064 A 
ATOM     80  C   UNL A   1      45.876  32.329  35.303  1.00  0.00     0.173 A 
ATOM     81  C   UNL A   1      45.379  29.982  35.254  1.00  0.00     0.173 A 
ATOM     82  F   UNL A   1      45.636  33.572  35.747  1.00  0.00    -0.203 F 
ATOM     83  C   UNL A   1      46.866  32.138  34.341  1.00  0.00     0.198 A 
ATOM     84  C   UNL A   1      46.390  29.786  34.316  1.00  0.00     0.198 A 
ATOM     85  F   UNL A   1      44.666  28.922  35.665  1.00  0.00    -0.203 F 
ATOM     86  F   UNL A   1      47.551  33.189  33.871  1.00  0.00    -0.200 F 
ATOM     87  C   UNL A   1      47.126  30.866  33.853  1.00  0.00     0.200 A 
ATOM     88  F   UNL A   1      46.645  28.554  33.856  1.00  0.00    -0.200 F 
ATOM     89  F   UNL A   1      48.077  30.683  32.927  1.00  0.00    -0.200 F 
ENDBRANCH  55  79
BRANCH  67  90
ATOM     90  C   UNL A   1      44.742  30.711  42.712  1.00  0.00     0.064 A 
ATOM     91  C   UNL A   1      44.884  29.372  43.106  1.00  0.00     0.173 A 
ATOM     92  C   UNL A   1      45.593  31.660  43.302  1.00  0.00     0.173 A 
ATOM     93  F   UNL A   1      44.091  28.426  42.582  1.00  0.00    -0.203 F 
ATOM     94  C   UNL A   1      45.809  29.007  44.081  1.00  0.00     0.198 A 
ATOM     95  C   UNL A   1      46.544  31.285  44.246  1.00  0.00     0.198 A 
ATOM     96  F   UNL A   1      45.510  32.953  42.952  1.00  0.00    -0.203 F 
ATOM     97  F   UNL A   1      45.879  27.733  44.492  1.00  0.00    -0.200 F 
ATOM     98  C   UNL A   1      46.642  29.962  44.646  1.00  0.00     0.200 A 
ATOM     99  F   UNL A   1      47.362  32.207  44.773  1.00  0.00    -0.200 F 
ATOM    100  F   UNL A   1      47.532  29.608  45.583  1.00  0.00    -0.200 F 
ENDBRANCH  67  90
ENDBRANCH  41  42
ENDBRANCH  34  36
ENDBRANCH  33  34
ENDBRANCH  32  33
ENDBRANCH  31  32
ENDBRANCH  30  31
ENDBRANCH  29  30
ENDBRANCH  28  29
ENDBRANCH  27  28
ENDBRANCH  26  27
ENDBRANCH   1  26
TORSDOF 26
ENDMDL
