MODEL 1
REMARK VINA RESULT:      -9.3      0.000      0.000
REMARK SMILES CC(C)[C@@H]([NH2+][C@@H]1CSCC(C)(C)C1)C(=O)OCCOCCOCCOCCOC(=O)c1ccc(-c2c3nc(c(-c4c(F)c(F)c(F)c(F)c4F)c4ccc([nH]4)c(-c4c(F)c(F)c(F)c(F)c4F)c4nc(c(-c5c(F)c(F)c(F)c(F)c5F)c5ccc2[nH]5)C=C4)C=C3)cc1
REMARK SMILES IDX 22 1 21 2 20 3 19 4 18 5 17 6 16 7 14 8 15 9 4 10 2 11 1 12
REMARK SMILES IDX 3 13 5 14 6 17 7 18 13 19 8 20 10 21 9 22 11 23 12 24 23 25
REMARK SMILES IDX 24 26 25 27 26 28 27 29 28 30 29 31 30 32 31 33 32 34 93 35
REMARK SMILES IDX 33 36 92 37 34 38 35 39 36 40 86 41 37 42 91 43 85 44 87 45
REMARK SMILES IDX 38 46 90 47 84 48 83 49 39 51 71 52 51 53 70 54 52 55 55 56
REMARK SMILES IDX 69 57 88 58 53 59 54 60 68 62 89 63 56 64 40 65 41 66 49 67
REMARK SMILES IDX 42 68 43 69 47 70 50 71 44 72 45 73 48 74 46 75 72 76 73 77
REMARK SMILES IDX 81 78 74 79 75 80 79 81 82 82 76 83 77 84 80 85 78 86 57 87
REMARK SMILES IDX 58 88 66 89 59 90 60 91 64 92 67 93 61 94 62 95 65 96 63 97
REMARK H PARENT 5 15 5 16 87 50 55 61
REMARK Flexibility Score: inf
ROOT
ATOM      1  O   UNL A   1      40.418  21.423  27.584  1.00  0.00    -0.377 OA
ENDROOT
BRANCH   1   2
ATOM      2  C   UNL A   1      39.849  21.864  26.364  1.00  0.00     0.188 C 
BRANCH   2   3
ATOM      3  C   UNL A   1      39.019  23.146  26.430  1.00  0.00     0.188 C 
BRANCH   3   4
ATOM      4  O   UNL A   1      37.661  22.965  26.094  1.00  0.00    -0.376 OA
BRANCH   4   5
ATOM      5  C   UNL A   1      37.086  23.723  25.041  1.00  0.00     0.202 C 
BRANCH   5   6
ATOM      6  C   UNL A   1      35.804  23.369  24.266  1.00  0.00     0.261 C 
BRANCH   6   7
ATOM      7  O   UNL A   1      34.695  24.282  24.115  1.00  0.00    -0.459 OA
BRANCH   7   8
ATOM      8  C   UNL A   1      33.495  23.685  23.857  1.00  0.00     0.365 C 
ATOM      9  O   UNL A   1      33.313  22.934  22.900  1.00  0.00    -0.245 OA
BRANCH   8  10
ATOM     10  C   UNL A   1      32.293  24.103  24.734  1.00  0.00     0.296 C 
BRANCH  10  11
ATOM     11  C   UNL A   1      32.293  23.589  26.220  1.00  0.00     0.053 C 
ATOM     12  C   UNL A   1      30.861  23.397  26.769  1.00  0.00     0.014 C 
ATOM     13  C   UNL A   1      33.007  22.249  26.423  1.00  0.00     0.014 C 
ENDBRANCH  10  11
BRANCH  10  14
ATOM     14  N   UNL A   1      32.163  25.573  24.752  1.00  0.00    -0.331 N 
ATOM     15  H   UNL A   1      32.681  25.903  23.938  1.00  0.00     0.347 HD
ATOM     16  H   UNL A   1      32.476  25.777  25.702  1.00  0.00     0.347 HD
BRANCH  14  17
ATOM     17  C   UNL A   1      30.892  26.300  24.729  1.00  0.00     0.193 C 
ATOM     18  C   UNL A   1      30.107  26.666  23.461  1.00  0.00     0.134 C 
ATOM     19  C   UNL A   1      31.145  27.581  25.550  1.00  0.00     0.073 C 
ATOM     20  S   UNL A   1      30.431  28.248  22.615  1.00  0.00    -0.155 SA
ATOM     21  C   UNL A   1      32.184  28.560  24.940  1.00  0.00    -0.021 C 
ATOM     22  C   UNL A   1      31.895  28.915  23.467  1.00  0.00     0.076 C 
ATOM     23  C   UNL A   1      33.639  28.031  25.057  1.00  0.00     0.012 C 
ATOM     24  C   UNL A   1      32.158  29.858  25.772  1.00  0.00     0.012 C 
ENDBRANCH  14  17
ENDBRANCH  10  14
ENDBRANCH   8  10
ENDBRANCH   7   8
ENDBRANCH   6   7
ENDBRANCH   5   6
ENDBRANCH   4   5
ENDBRANCH   3   4
ENDBRANCH   2   3
ENDBRANCH   1   2
BRANCH   1  25
ATOM     25  C   UNL A   1      41.209  20.242  27.612  1.00  0.00     0.188 C 
BRANCH  25  26
ATOM     26  C   UNL A   1      41.618  19.595  26.284  1.00  0.00     0.188 C 
BRANCH  26  27
ATOM     27  O   UNL A   1      42.992  19.313  26.033  1.00  0.00    -0.376 OA
BRANCH  27  28
ATOM     28  C   UNL A   1      43.732  20.168  25.177  1.00  0.00     0.202 C 
BRANCH  28  29
ATOM     29  C   UNL A   1      44.226  21.491  25.762  1.00  0.00     0.261 C 
BRANCH  29  30
ATOM     30  O   UNL A   1      43.259  22.547  25.725  1.00  0.00    -0.460 OA
BRANCH  30  31
ATOM     31  C   UNL A   1      43.757  23.781  25.466  1.00  0.00     0.338 C 
ATOM     32  O   UNL A   1      44.218  24.201  24.425  1.00  0.00    -0.246 OA
BRANCH  31  33
ATOM     33  C   UNL A   1      43.555  24.615  26.664  1.00  0.00     0.060 A 
ATOM     34  C   UNL A   1      42.611  24.226  27.624  1.00  0.00     0.016 A 
ATOM     35  C   UNL A   1      44.255  25.815  26.795  1.00  0.00     0.016 A 
ATOM     36  C   UNL A   1      42.347  25.053  28.714  1.00  0.00     0.010 A 
ATOM     37  C   UNL A   1      43.973  26.652  27.871  1.00  0.00     0.010 A 
ATOM     38  C   UNL A   1      42.997  26.288  28.815  1.00  0.00    -0.014 A 
BRANCH  38  39
ATOM     39  C   UNL A   1      42.535  27.298  29.789  1.00  0.00     0.031 A 
ATOM     40  C   UNL A   1      43.260  27.401  31.099  1.00  0.00     0.074 A 
ATOM     41  C   UNL A   1      41.474  28.076  29.526  1.00  0.00     0.049 A 
ATOM     42  N   UNL A   1      42.954  28.089  32.168  1.00  0.00    -0.248 NA
ATOM     43  C   UNL A   1      44.495  26.609  31.221  1.00  0.00     0.031 C 
ATOM     44  C   UNL A   1      40.734  28.099  28.266  1.00  0.00     0.029 A 
ATOM     45  N   UNL A   1      40.822  28.983  30.321  1.00  0.00    -0.354 N 
ATOM     46  C   UNL A   1      43.951  27.804  33.092  1.00  0.00     0.074 A 
ATOM     47  C   UNL A   1      44.853  26.860  32.470  1.00  0.00     0.031 C 
ATOM     48  C   UNL A   1      39.711  28.964  28.381  1.00  0.00     0.029 A 
ATOM     49  C   UNL A   1      39.700  29.514  29.735  1.00  0.00     0.049 A 
ATOM     50  H   UNL A   1      41.128  29.229  31.224  1.00  0.00     0.167 HD
ATOM     51  C   UNL A   1      44.098  28.293  34.345  1.00  0.00     0.037 A 
ATOM     52  C   UNL A   1      38.756  30.322  30.255  1.00  0.00     0.037 A 
ATOM     53  C   UNL A   1      43.185  29.222  34.955  1.00  0.00     0.049 A 
ATOM     54  C   UNL A   1      38.882  30.767  31.690  1.00  0.00     0.074 A 
ATOM     55  C   UNL A   1      43.239  29.787  36.216  1.00  0.00     0.029 A 
ATOM     56  N   UNL A   1      42.038  29.711  34.345  1.00  0.00    -0.354 N 
ATOM     57  N   UNL A   1      39.829  30.509  32.561  1.00  0.00    -0.248 NA
ATOM     58  C   UNL A   1      37.801  31.611  32.218  1.00  0.00     0.031 C 
ATOM     59  C   UNL A   1      42.095  30.573  36.391  1.00  0.00     0.029 A 
ATOM     60  C   UNL A   1      41.359  30.548  35.216  1.00  0.00     0.049 A 
ATOM     61  H   UNL A   1      41.750  29.497  33.428  1.00  0.00     0.167 HD
ATOM     62  C   UNL A   1      39.477  31.183  33.723  1.00  0.00     0.074 A 
ATOM     63  C   UNL A   1      38.234  31.869  33.445  1.00  0.00     0.031 C 
ATOM     64  C   UNL A   1      40.126  31.231  34.914  1.00  0.00     0.037 A 
BRANCH  51  65
ATOM     65  C   UNL A   1      45.268  27.800  35.145  1.00  0.00     0.064 A 
ATOM     66  C   UNL A   1      45.192  26.639  35.930  1.00  0.00     0.173 A 
ATOM     67  C   UNL A   1      46.488  28.494  35.121  1.00  0.00     0.173 A 
ATOM     68  F   UNL A   1      44.043  25.947  36.003  1.00  0.00    -0.203 F 
ATOM     69  C   UNL A   1      46.280  26.210  36.685  1.00  0.00     0.198 A 
ATOM     70  C   UNL A   1      47.585  28.043  35.850  1.00  0.00     0.198 A 
ATOM     71  F   UNL A   1      46.618  29.609  34.387  1.00  0.00    -0.203 F 
ATOM     72  F   UNL A   1      46.164  25.132  37.472  1.00  0.00    -0.200 F 
ATOM     73  C   UNL A   1      47.477  26.908  36.640  1.00  0.00     0.200 A 
ATOM     74  F   UNL A   1      48.744  28.713  35.795  1.00  0.00    -0.200 F 
ATOM     75  F   UNL A   1      48.525  26.492  37.364  1.00  0.00    -0.200 F 
ENDBRANCH  51  65
BRANCH  52  76
ATOM     76  C   UNL A   1      37.603  30.751  29.422  1.00  0.00     0.064 A 
ATOM     77  C   UNL A   1      37.519  32.061  28.933  1.00  0.00     0.173 A 
ATOM     78  C   UNL A   1      36.556  29.869  29.110  1.00  0.00     0.173 A 
ATOM     79  F   UNL A   1      38.481  32.947  29.226  1.00  0.00    -0.203 F 
ATOM     80  C   UNL A   1      36.426  32.479  28.176  1.00  0.00     0.198 A 
ATOM     81  C   UNL A   1      35.478  30.279  28.328  1.00  0.00     0.198 A 
ATOM     82  F   UNL A   1      36.586  28.605  29.555  1.00  0.00    -0.203 F 
ATOM     83  F   UNL A   1      36.349  33.750  27.761  1.00  0.00    -0.200 F 
ATOM     84  C   UNL A   1      35.409  31.586  27.869  1.00  0.00     0.200 A 
ATOM     85  F   UNL A   1      34.506  29.410  28.023  1.00  0.00    -0.200 F 
ATOM     86  F   UNL A   1      34.361  31.987  27.138  1.00  0.00    -0.200 F 
ENDBRANCH  52  76
BRANCH  64  87
ATOM     87  C   UNL A   1      39.528  32.088  35.994  1.00  0.00     0.064 A 
ATOM     88  C   UNL A   1      38.515  31.611  36.838  1.00  0.00     0.173 A 
ATOM     89  C   UNL A   1      40.018  33.383  36.222  1.00  0.00     0.173 A 
ATOM     90  F   UNL A   1      38.001  30.386  36.652  1.00  0.00    -0.203 F 
ATOM     91  C   UNL A   1      38.001  32.408  37.858  1.00  0.00     0.198 A 
ATOM     92  C   UNL A   1      39.526  34.163  37.263  1.00  0.00     0.198 A 
ATOM     93  F   UNL A   1      40.992  33.884  35.447  1.00  0.00    -0.203 F 
ATOM     94  F   UNL A   1      37.003  31.949  38.626  1.00  0.00    -0.200 F 
ATOM     95  C   UNL A   1      38.514  33.678  38.076  1.00  0.00     0.200 A 
ATOM     96  F   UNL A   1      40.035  35.384  37.483  1.00  0.00    -0.200 F 
ATOM     97  F   UNL A   1      38.028  34.438  39.068  1.00  0.00    -0.200 F 
ENDBRANCH  64  87
ENDBRANCH  38  39
ENDBRANCH  31  33
ENDBRANCH  30  31
ENDBRANCH  29  30
ENDBRANCH  28  29
ENDBRANCH  27  28
ENDBRANCH  26  27
ENDBRANCH  25  26
ENDBRANCH   1  25
TORSDOF 23
ENDMDL
MODEL 2
REMARK VINA RESULT:      -8.8      3.748      8.823
REMARK SMILES CC(C)[C@@H]([NH2+][C@@H]1CSCC(C)(C)C1)C(=O)OCCOCCOCCOCCOC(=O)c1ccc(-c2c3nc(c(-c4c(F)c(F)c(F)c(F)c4F)c4ccc([nH]4)c(-c4c(F)c(F)c(F)c(F)c4F)c4nc(c(-c5c(F)c(F)c(F)c(F)c5F)c5ccc2[nH]5)C=C4)C=C3)cc1
REMARK SMILES IDX 22 1 21 2 20 3 19 4 18 5 17 6 16 7 14 8 15 9 4 10 2 11 1 12
REMARK SMILES IDX 3 13 5 14 6 17 7 18 13 19 8 20 10 21 9 22 11 23 12 24 23 25
REMARK SMILES IDX 24 26 25 27 26 28 27 29 28 30 29 31 30 32 31 33 32 34 93 35
REMARK SMILES IDX 33 36 92 37 34 38 35 39 36 40 86 41 37 42 91 43 85 44 87 45
REMARK SMILES IDX 38 46 90 47 84 48 83 49 39 51 71 52 51 53 70 54 52 55 55 56
REMARK SMILES IDX 69 57 88 58 53 59 54 60 68 62 89 63 56 64 40 65 41 66 49 67
REMARK SMILES IDX 42 68 43 69 47 70 50 71 44 72 45 73 48 74 46 75 72 76 73 77
REMARK SMILES IDX 81 78 74 79 75 80 79 81 82 82 76 83 77 84 80 85 78 86 57 87
REMARK SMILES IDX 58 88 66 89 59 90 60 91 64 92 67 93 61 94 62 95 65 96 63 97
REMARK H PARENT 5 15 5 16 87 50 55 61
REMARK Flexibility Score: inf
ROOT
ATOM      1  O   UNL A   1      31.885  28.399  26.776  1.00  0.00    -0.377 OA
ENDROOT
BRANCH   1   2
ATOM      2  C   UNL A   1      32.922  27.487  26.463  1.00  0.00     0.188 C 
BRANCH   2   3
ATOM      3  C   UNL A   1      32.533  26.010  26.411  1.00  0.00     0.188 C 
BRANCH   3   4
ATOM      4  O   UNL A   1      31.242  25.742  26.914  1.00  0.00    -0.376 OA
BRANCH   4   5
ATOM      5  C   UNL A   1      30.198  25.383  26.024  1.00  0.00     0.202 C 
BRANCH   5   6
ATOM      6  C   UNL A   1      29.902  26.040  24.663  1.00  0.00     0.261 C 
BRANCH   6   7
ATOM      7  O   UNL A   1      30.730  25.845  23.495  1.00  0.00    -0.459 OA
BRANCH   7   8
ATOM      8  C   UNL A   1      30.854  24.547  23.095  1.00  0.00     0.365 C 
ATOM      9  O   UNL A   1      29.907  23.763  23.060  1.00  0.00    -0.245 OA
BRANCH   8  10
ATOM     10  C   UNL A   1      32.283  24.024  22.819  1.00  0.00     0.296 C 
BRANCH  10  11
ATOM     11  C   UNL A   1      33.262  25.007  22.079  1.00  0.00     0.053 C 
ATOM     12  C   UNL A   1      32.599  25.676  20.853  1.00  0.00     0.014 C 
ATOM     13  C   UNL A   1      33.785  26.151  22.953  1.00  0.00     0.014 C 
ENDBRANCH  10  11
BRANCH  10  14
ATOM     14  N   UNL A   1      32.920  23.597  24.080  1.00  0.00    -0.331 N 
ATOM     15  H   UNL A   1      32.752  24.355  24.741  1.00  0.00     0.347 HD
ATOM     16  H   UNL A   1      33.860  23.377  23.749  1.00  0.00     0.347 HD
BRANCH  14  17
ATOM     17  C   UNL A   1      32.597  22.365  24.804  1.00  0.00     0.193 C 
ATOM     18  C   UNL A   1      32.236  22.285  26.293  1.00  0.00     0.134 C 
ATOM     19  C   UNL A   1      33.774  21.411  24.520  1.00  0.00     0.073 C 
ATOM     20  S   UNL A   1      33.549  22.056  27.537  1.00  0.00    -0.155 SA
ATOM     21  C   UNL A   1      35.145  21.868  25.088  1.00  0.00    -0.021 C 
ATOM     22  C   UNL A   1      35.093  22.226  26.587  1.00  0.00     0.076 C 
ATOM     23  C   UNL A   1      35.745  23.065  24.302  1.00  0.00     0.012 C 
ATOM     24  C   UNL A   1      36.148  20.713  24.894  1.00  0.00     0.012 C 
ENDBRANCH  14  17
ENDBRANCH  10  14
ENDBRANCH   8  10
ENDBRANCH   7   8
ENDBRANCH   6   7
ENDBRANCH   5   6
ENDBRANCH   4   5
ENDBRANCH   3   4
ENDBRANCH   2   3
ENDBRANCH   1   2
BRANCH   1  25
ATOM     25  C   UNL A   1      32.199  29.745  27.107  1.00  0.00     0.188 C 
BRANCH  25  26
ATOM     26  C   UNL A   1      31.748  30.863  26.159  1.00  0.00     0.188 C 
BRANCH  26  27
ATOM     27  O   UNL A   1      31.074  32.002  26.686  1.00  0.00    -0.376 OA
BRANCH  27  28
ATOM     28  C   UNL A   1      31.737  33.256  26.703  1.00  0.00     0.202 C 
BRANCH  28  29
ATOM     29  C   UNL A   1      32.935  33.404  27.642  1.00  0.00     0.261 C 
BRANCH  29  30
ATOM     30  O   UNL A   1      33.259  34.759  27.972  1.00  0.00    -0.460 OA
BRANCH  30  31
ATOM     31  C   UNL A   1      33.673  34.962  29.247  1.00  0.00     0.338 C 
ATOM     32  O   UNL A   1      33.241  35.754  30.059  1.00  0.00    -0.246 OA
BRANCH  31  33
ATOM     33  C   UNL A   1      34.710  33.962  29.555  1.00  0.00     0.060 A 
ATOM     34  C   UNL A   1      34.375  32.836  30.320  1.00  0.00     0.016 A 
ATOM     35  C   UNL A   1      36.024  34.181  29.142  1.00  0.00     0.016 A 
ATOM     36  C   UNL A   1      35.367  31.931  30.695  1.00  0.00     0.010 A 
ATOM     37  C   UNL A   1      37.018  33.290  29.537  1.00  0.00     0.010 A 
ATOM     38  C   UNL A   1      36.697  32.181  30.340  1.00  0.00    -0.014 A 
BRANCH  38  39
ATOM     39  C   UNL A   1      37.794  31.405  30.956  1.00  0.00     0.031 A 
ATOM     40  C   UNL A   1      38.192  31.738  32.364  1.00  0.00     0.074 A 
ATOM     41  C   UNL A   1      38.441  30.456  30.263  1.00  0.00     0.049 A 
ATOM     42  N   UNL A   1      39.213  31.315  33.062  1.00  0.00    -0.248 NA
ATOM     43  C   UNL A   1      37.321  32.687  33.077  1.00  0.00     0.031 C 
ATOM     44  C   UNL A   1      38.100  30.015  28.912  1.00  0.00     0.029 A 
ATOM     45  N   UNL A   1      39.540  29.709  30.598  1.00  0.00    -0.354 N 
ATOM     46  C   UNL A   1      39.114  31.954  34.291  1.00  0.00     0.074 A 
ATOM     47  C   UNL A   1      37.952  32.814  34.234  1.00  0.00     0.031 C 
ATOM     48  C   UNL A   1      38.991  29.086  28.524  1.00  0.00     0.029 A 
ATOM     49  C   UNL A   1      39.986  28.906  29.579  1.00  0.00     0.049 A 
ATOM     50  H   UNL A   1      39.969  29.746  31.484  1.00  0.00     0.167 HD
ATOM     51  C   UNL A   1      39.921  31.828  35.370  1.00  0.00     0.037 A 
ATOM     52  C   UNL A   1      41.095  28.145  29.502  1.00  0.00     0.037 A 
ATOM     53  C   UNL A   1      41.081  30.979  35.408  1.00  0.00     0.049 A 
ATOM     54  C   UNL A   1      42.039  28.105  30.677  1.00  0.00     0.074 A 
ATOM     55  C   UNL A   1      41.967  30.770  36.450  1.00  0.00     0.029 A 
ATOM     56  N   UNL A   1      41.523  30.205  34.343  1.00  0.00    -0.354 N 
ATOM     57  N   UNL A   1      41.940  28.698  31.843  1.00  0.00    -0.248 NA
ATOM     58  C   UNL A   1      43.254  27.294  30.521  1.00  0.00     0.031 C 
ATOM     59  C   UNL A   1      42.977  29.915  35.996  1.00  0.00     0.029 A 
ATOM     60  C   UNL A   1      42.688  29.541  34.693  1.00  0.00     0.049 A 
ATOM     61  H   UNL A   1      41.075  30.137  33.470  1.00  0.00     0.167 HD
ATOM     62  C   UNL A   1      43.058  28.307  32.569  1.00  0.00     0.074 A 
ATOM     63  C   UNL A   1      43.818  27.419  31.715  1.00  0.00     0.031 C 
ATOM     64  C   UNL A   1      43.423  28.651  33.829  1.00  0.00     0.037 A 
BRANCH  51  65
ATOM     65  C   UNL A   1      39.593  32.656  36.578  1.00  0.00     0.064 A 
ATOM     66  C   UNL A   1      38.606  32.267  37.498  1.00  0.00     0.173 A 
ATOM     67  C   UNL A   1      40.281  33.853  36.826  1.00  0.00     0.173 A 
ATOM     68  F   UNL A   1      37.906  31.139  37.299  1.00  0.00    -0.203 F 
ATOM     69  C   UNL A   1      38.299  33.060  38.600  1.00  0.00     0.198 A 
ATOM     70  C   UNL A   1      39.996  34.627  37.948  1.00  0.00     0.198 A 
ATOM     71  F   UNL A   1      41.236  34.273  35.981  1.00  0.00    -0.203 F 
ATOM     72  F   UNL A   1      37.313  32.696  39.431  1.00  0.00    -0.200 F 
ATOM     73  C   UNL A   1      38.998  34.235  38.828  1.00  0.00     0.200 A 
ATOM     74  F   UNL A   1      40.681  35.756  38.173  1.00  0.00    -0.200 F 
ATOM     75  F   UNL A   1      38.705  34.996  39.891  1.00  0.00    -0.200 F 
ENDBRANCH  51  65
BRANCH  52  76
ATOM     76  C   UNL A   1      41.382  27.372  28.266  1.00  0.00     0.064 A 
ATOM     77  C   UNL A   1      40.821  26.104  28.067  1.00  0.00     0.173 A 
ATOM     78  C   UNL A   1      42.232  27.874  27.268  1.00  0.00     0.173 A 
ATOM     79  F   UNL A   1      40.023  25.570  29.003  1.00  0.00    -0.203 F 
ATOM     80  C   UNL A   1      41.110  25.360  26.924  1.00  0.00     0.198 A 
ATOM     81  C   UNL A   1      42.496  27.142  26.112  1.00  0.00     0.198 A 
ATOM     82  F   UNL A   1      42.797  29.081  27.411  1.00  0.00    -0.203 F 
ATOM     83  F   UNL A   1      40.596  24.131  26.781  1.00  0.00    -0.200 F 
ATOM     84  C   UNL A   1      41.942  25.882  25.945  1.00  0.00     0.200 A 
ATOM     85  F   UNL A   1      43.289  27.656  25.163  1.00  0.00    -0.200 F 
ATOM     86  F   UNL A   1      42.215  25.169  24.845  1.00  0.00    -0.200 F 
ENDBRANCH  52  76
BRANCH  64  87
ATOM     87  C   UNL A   1      44.677  28.032  34.381  1.00  0.00     0.064 A 
ATOM     88  C   UNL A   1      44.664  26.786  35.024  1.00  0.00     0.173 A 
ATOM     89  C   UNL A   1      45.914  28.672  34.211  1.00  0.00     0.173 A 
ATOM     90  F   UNL A   1      43.505  26.142  35.226  1.00  0.00    -0.203 F 
ATOM     91  C   UNL A   1      45.843  26.213  35.495  1.00  0.00     0.198 A 
ATOM     92  C   UNL A   1      47.094  28.080  34.652  1.00  0.00     0.198 A 
ATOM     93  F   UNL A   1      45.983  29.862  33.595  1.00  0.00    -0.203 F 
ATOM     94  F   UNL A   1      45.802  25.042  36.145  1.00  0.00    -0.200 F 
ATOM     95  C   UNL A   1      47.057  26.854  35.299  1.00  0.00     0.200 A 
ATOM     96  F   UNL A   1      48.268  28.693  34.446  1.00  0.00    -0.200 F 
ATOM     97  F   UNL A   1      48.192  26.293  35.739  1.00  0.00    -0.200 F 
ENDBRANCH  64  87
ENDBRANCH  38  39
ENDBRANCH  31  33
ENDBRANCH  30  31
ENDBRANCH  29  30
ENDBRANCH  28  29
ENDBRANCH  27  28
ENDBRANCH  26  27
ENDBRANCH  25  26
ENDBRANCH   1  25
TORSDOF 23
ENDMDL
MODEL 3
REMARK VINA RESULT:      -8.6      1.053      2.021
REMARK SMILES CC(C)[C@@H]([NH2+][C@@H]1CSCC(C)(C)C1)C(=O)OCCOCCOCCOCCOC(=O)c1ccc(-c2c3nc(c(-c4c(F)c(F)c(F)c(F)c4F)c4ccc([nH]4)c(-c4c(F)c(F)c(F)c(F)c4F)c4nc(c(-c5c(F)c(F)c(F)c(F)c5F)c5ccc2[nH]5)C=C4)C=C3)cc1
REMARK SMILES IDX 22 1 21 2 20 3 19 4 18 5 17 6 16 7 14 8 15 9 4 10 2 11 1 12
REMARK SMILES IDX 3 13 5 14 6 17 7 18 13 19 8 20 10 21 9 22 11 23 12 24 23 25
REMARK SMILES IDX 24 26 25 27 26 28 27 29 28 30 29 31 30 32 31 33 32 34 93 35
REMARK SMILES IDX 33 36 92 37 34 38 35 39 36 40 86 41 37 42 91 43 85 44 87 45
REMARK SMILES IDX 38 46 90 47 84 48 83 49 39 51 71 52 51 53 70 54 52 55 55 56
REMARK SMILES IDX 69 57 88 58 53 59 54 60 68 62 89 63 56 64 40 65 41 66 49 67
REMARK SMILES IDX 42 68 43 69 47 70 50 71 44 72 45 73 48 74 46 75 72 76 73 77
REMARK SMILES IDX 81 78 74 79 75 80 79 81 82 82 76 83 77 84 80 85 78 86 57 87
REMARK SMILES IDX 58 88 66 89 59 90 60 91 64 92 67 93 61 94 62 95 65 96 63 97
REMARK H PARENT 5 15 5 16 87 50 55 61
REMARK Flexibility Score: inf
ROOT
ATOM      1  O   UNL A   1      40.930  21.876  27.920  1.00  0.00    -0.377 OA
ENDROOT
BRANCH   1   2
ATOM      2  C   UNL A   1      40.884  23.070  27.159  1.00  0.00     0.188 C 
BRANCH   2   3
ATOM      3  C   UNL A   1      39.494  23.637  26.872  1.00  0.00     0.188 C 
BRANCH   3   4
ATOM      4  O   UNL A   1      38.614  22.712  26.272  1.00  0.00    -0.376 OA
BRANCH   4   5
ATOM      5  C   UNL A   1      37.254  23.060  26.070  1.00  0.00     0.202 C 
BRANCH   5   6
ATOM      6  C   UNL A   1      36.556  23.237  24.708  1.00  0.00     0.261 C 
BRANCH   6   7
ATOM      7  O   UNL A   1      35.133  23.438  24.571  1.00  0.00    -0.459 OA
BRANCH   7   8
ATOM      8  C   UNL A   1      34.615  23.049  23.370  1.00  0.00     0.365 C 
ATOM      9  O   UNL A   1      35.204  23.211  22.302  1.00  0.00    -0.245 OA
BRANCH   8  10
ATOM     10  C   UNL A   1      33.163  22.517  23.363  1.00  0.00     0.296 C 
BRANCH  10  11
ATOM     11  C   UNL A   1      32.898  21.184  24.152  1.00  0.00     0.053 C 
ATOM     12  C   UNL A   1      34.189  20.613  24.781  1.00  0.00     0.014 C 
ATOM     13  C   UNL A   1      31.893  21.320  25.300  1.00  0.00     0.014 C 
ENDBRANCH  10  11
BRANCH  10  14
ATOM     14  N   UNL A   1      32.241  23.550  23.875  1.00  0.00    -0.331 N 
ATOM     15  H   UNL A   1      32.745  24.016  24.629  1.00  0.00     0.347 HD
ATOM     16  H   UNL A   1      31.411  22.985  24.058  1.00  0.00     0.347 HD
BRANCH  14  17
ATOM     17  C   UNL A   1      31.661  24.626  23.067  1.00  0.00     0.193 C 
ATOM     18  C   UNL A   1      32.376  25.353  21.921  1.00  0.00     0.134 C 
ATOM     19  C   UNL A   1      31.157  25.667  24.087  1.00  0.00     0.073 C 
ATOM     20  S   UNL A   1      33.360  26.848  22.265  1.00  0.00    -0.155 SA
ATOM     21  C   UNL A   1      32.265  26.348  24.935  1.00  0.00    -0.021 C 
ATOM     22  C   UNL A   1      33.406  26.939  24.083  1.00  0.00     0.076 C 
ATOM     23  C   UNL A   1      32.870  25.394  26.000  1.00  0.00     0.012 C 
ATOM     24  C   UNL A   1      31.611  27.490  25.740  1.00  0.00     0.012 C 
ENDBRANCH  14  17
ENDBRANCH  10  14
ENDBRANCH   8  10
ENDBRANCH   7   8
ENDBRANCH   6   7
ENDBRANCH   5   6
ENDBRANCH   4   5
ENDBRANCH   3   4
ENDBRANCH   2   3
ENDBRANCH   1   2
BRANCH   1  25
ATOM     25  C   UNL A   1      41.559  20.718  27.387  1.00  0.00     0.188 C 
BRANCH  25  26
ATOM     26  C   UNL A   1      41.991  20.723  25.916  1.00  0.00     0.188 C 
BRANCH  26  27
ATOM     27  O   UNL A   1      43.234  20.132  25.547  1.00  0.00    -0.376 OA
BRANCH  27  28
ATOM     28  C   UNL A   1      44.253  20.946  24.988  1.00  0.00     0.202 C 
BRANCH  28  29
ATOM     29  C   UNL A   1      44.779  22.097  25.845  1.00  0.00     0.261 C 
BRANCH  29  30
ATOM     30  O   UNL A   1      43.954  23.268  25.828  1.00  0.00    -0.460 OA
BRANCH  30  31
ATOM     31  C   UNL A   1      44.616  24.442  25.687  1.00  0.00     0.338 C 
ATOM     32  O   UNL A   1      45.271  24.827  24.740  1.00  0.00    -0.246 OA
BRANCH  31  33
ATOM     33  C   UNL A   1      44.329  25.273  26.871  1.00  0.00     0.060 A 
ATOM     34  C   UNL A   1      43.502  24.767  27.883  1.00  0.00     0.016 A 
ATOM     35  C   UNL A   1      44.827  26.574  26.937  1.00  0.00     0.016 A 
ATOM     36  C   UNL A   1      43.149  25.577  28.961  1.00  0.00     0.010 A 
ATOM     37  C   UNL A   1      44.456  27.390  28.003  1.00  0.00     0.010 A 
ATOM     38  C   UNL A   1      43.591  26.903  29.000  1.00  0.00    -0.014 A 
BRANCH  38  39
ATOM     39  C   UNL A   1      43.010  27.857  29.967  1.00  0.00     0.031 A 
ATOM     40  C   UNL A   1      43.699  28.033  31.288  1.00  0.00     0.074 A 
ATOM     41  C   UNL A   1      41.878  28.519  29.687  1.00  0.00     0.049 A 
ATOM     42  N   UNL A   1      43.306  28.683  32.353  1.00  0.00    -0.248 NA
ATOM     43  C   UNL A   1      45.009  27.375  31.430  1.00  0.00     0.031 C 
ATOM     44  C   UNL A   1      41.160  28.467  28.415  1.00  0.00     0.029 A 
ATOM     45  N   UNL A   1      41.121  29.350  30.472  1.00  0.00    -0.354 N 
ATOM     46  C   UNL A   1      44.312  28.503  33.292  1.00  0.00     0.074 A 
ATOM     47  C   UNL A   1      45.319  27.660  32.685  1.00  0.00     0.031 C 
ATOM     48  C   UNL A   1      40.049  29.218  28.515  1.00  0.00     0.029 A 
ATOM     49  C   UNL A   1      39.959  29.761  29.869  1.00  0.00     0.049 A 
ATOM     50  H   UNL A   1      41.384  29.626  31.380  1.00  0.00     0.167 HD
ATOM     51  C   UNL A   1      44.387  29.001  34.547  1.00  0.00     0.037 A 
ATOM     52  C   UNL A   1      38.927  30.464  30.374  1.00  0.00     0.037 A 
ATOM     53  C   UNL A   1      43.371  29.827  35.143  1.00  0.00     0.049 A 
ATOM     54  C   UNL A   1      38.982  30.917  31.811  1.00  0.00     0.074 A 
ATOM     55  C   UNL A   1      43.345  30.392  36.406  1.00  0.00     0.029 A 
ATOM     56  N   UNL A   1      42.189  30.194  34.515  1.00  0.00    -0.354 N 
ATOM     57  N   UNL A   1      39.937  30.758  32.696  1.00  0.00    -0.248 NA
ATOM     58  C   UNL A   1      37.809  31.640  32.321  1.00  0.00     0.031 C 
ATOM     59  C   UNL A   1      42.122  31.052  36.562  1.00  0.00     0.029 A 
ATOM     60  C   UNL A   1      41.412  30.953  35.376  1.00  0.00     0.049 A 
ATOM     61  H   UNL A   1      41.940  29.953  33.594  1.00  0.00     0.167 HD
ATOM     62  C   UNL A   1      39.497  31.389  33.853  1.00  0.00     0.074 A 
ATOM     63  C   UNL A   1      38.193  31.940  33.555  1.00  0.00     0.031 C 
ATOM     64  C   UNL A   1      40.118  31.503  35.054  1.00  0.00     0.037 A 
BRANCH  51  65
ATOM     65  C   UNL A   1      45.590  28.633  35.367  1.00  0.00     0.064 A 
ATOM     66  C   UNL A   1      46.750  29.424  35.375  1.00  0.00     0.173 A 
ATOM     67  C   UNL A   1      45.580  27.478  36.162  1.00  0.00     0.173 A 
ATOM     68  F   UNL A   1      46.818  30.530  34.618  1.00  0.00    -0.203 F 
ATOM     69  C   UNL A   1      47.865  29.054  36.122  1.00  0.00     0.198 A 
ATOM     70  C   UNL A   1      46.684  27.129  36.935  1.00  0.00     0.198 A 
ATOM     71  F   UNL A   1      44.497  26.686  36.194  1.00  0.00    -0.203 F 
ATOM     72  F   UNL A   1      48.981  29.793  36.068  1.00  0.00    -0.200 F 
ATOM     73  C   UNL A   1      47.829  27.911  36.906  1.00  0.00     0.200 A 
ATOM     74  F   UNL A   1      46.643  26.031  37.702  1.00  0.00    -0.200 F 
ATOM     75  F   UNL A   1      48.901  27.558  37.629  1.00  0.00    -0.200 F 
ENDBRANCH  51  65
BRANCH  52  76
ATOM     76  C   UNL A   1      37.748  30.770  29.523  1.00  0.00     0.064 A 
ATOM     77  C   UNL A   1      36.842  29.764  29.163  1.00  0.00     0.173 A 
ATOM     78  C   UNL A   1      37.509  32.066  29.039  1.00  0.00     0.173 A 
ATOM     79  F   UNL A   1      37.041  28.505  29.579  1.00  0.00    -0.203 F 
ATOM     80  C   UNL A   1      35.751  30.037  28.340  1.00  0.00     0.198 A 
ATOM     81  C   UNL A   1      36.401  32.345  28.241  1.00  0.00     0.198 A 
ATOM     82  F   UNL A   1      38.347  33.066  29.351  1.00  0.00    -0.203 F 
ATOM     83  F   UNL A   1      34.927  29.047  27.974  1.00  0.00    -0.200 F 
ATOM     84  C   UNL A   1      35.528  31.328  27.885  1.00  0.00     0.200 A 
ATOM     85  F   UNL A   1      36.183  33.596  27.815  1.00  0.00    -0.200 F 
ATOM     86  F   UNL A   1      34.476  31.592  27.098  1.00  0.00    -0.200 F 
ENDBRANCH  52  76
BRANCH  64  87
ATOM     87  C   UNL A   1      39.416  32.289  36.125  1.00  0.00     0.064 A 
ATOM     88  C   UNL A   1      38.447  31.705  36.954  1.00  0.00     0.173 A 
ATOM     89  C   UNL A   1      39.762  33.628  36.360  1.00  0.00     0.173 A 
ATOM     90  F   UNL A   1      38.070  30.433  36.761  1.00  0.00    -0.203 F 
ATOM     91  C   UNL A   1      37.836  32.442  37.966  1.00  0.00     0.198 A 
ATOM     92  C   UNL A   1      39.173  34.350  37.393  1.00  0.00     0.198 A 
ATOM     93  F   UNL A   1      40.688  34.232  35.600  1.00  0.00    -0.203 F 
ATOM     94  F   UNL A   1      36.882  31.877  38.719  1.00  0.00    -0.200 F 
ATOM     95  C   UNL A   1      38.207  33.759  38.192  1.00  0.00     0.200 A 
ATOM     96  F   UNL A   1      39.546  35.618  37.620  1.00  0.00    -0.200 F 
ATOM     97  F   UNL A   1      37.628  34.461  39.176  1.00  0.00    -0.200 F 
ENDBRANCH  64  87
ENDBRANCH  38  39
ENDBRANCH  31  33
ENDBRANCH  30  31
ENDBRANCH  29  30
ENDBRANCH  28  29
ENDBRANCH  27  28
ENDBRANCH  26  27
ENDBRANCH  25  26
ENDBRANCH   1  25
TORSDOF 23
ENDMDL
