MODEL 1
REMARK VINA RESULT:      -9.6      0.000      0.000
REMARK SMILES [NH3+]CCOCC(=O)Nc1ccc(C(=O)OCCOCCOCCOCCOC(=O)c2ccc(-c3c4nc(c(-c5c(F)c(F)c(F)c(F)c5F)c5ccc([nH]5)c(-c5c(F)c(F)c(F)c(F)c5F)c5nc(c(-c6c(F)c(F)c(F)c(F)c6F)c6ccc3[nH]6)C=C5)C=C4)cc2)c(Cl)c1
REMARK SMILES IDX 19 1 18 2 17 3 16 4 15 5 13 6 14 7 12 8 9 9 10 10 95 11
REMARK SMILES IDX 11 12 93 13 94 14 8 15 6 16 7 17 5 19 4 20 3 21 2 22 1 23
REMARK SMILES IDX 20 27 21 28 22 29 23 30 24 31 25 32 26 33 27 34 28 35 29 36
REMARK SMILES IDX 30 37 31 38 92 39 32 40 91 41 33 42 34 43 35 44 85 45 36 46
REMARK SMILES IDX 90 47 84 48 86 49 37 50 89 51 83 52 82 53 38 55 70 56 50 57
REMARK SMILES IDX 69 58 51 59 54 60 68 61 87 62 52 63 53 64 67 66 88 67 55 68
REMARK SMILES IDX 39 69 40 70 48 71 41 72 42 73 46 74 49 75 43 76 44 77 47 78
REMARK SMILES IDX 45 79 71 80 72 81 80 82 73 83 74 84 78 85 81 86 75 87 76 88
REMARK SMILES IDX 79 89 77 90 56 91 57 92 65 93 58 94 59 95 63 96 66 97 60 98
REMARK SMILES IDX 61 99 64 100 62 101
REMARK H PARENT 8 18 1 24 1 25 1 26 86 54 54 65
REMARK Flexibility Score: inf
ROOT
ATOM      1  C   UNL A   1      34.565  31.910  28.162  1.00  0.00     0.188 C 
ENDROOT
BRANCH   1   2
ATOM      2  O   UNL A   1      33.878  30.879  27.477  1.00  0.00    -0.376 OA
BRANCH   2   3
ATOM      3  C   UNL A   1      32.716  31.193  26.735  1.00  0.00     0.202 C 
BRANCH   3   4
ATOM      4  C   UNL A   1      31.736  30.077  26.345  1.00  0.00     0.261 C 
BRANCH   4   5
ATOM      5  O   UNL A   1      32.074  29.335  25.169  1.00  0.00    -0.460 OA
BRANCH   5   6
ATOM      6  C   UNL A   1      31.063  28.990  24.346  1.00  0.00     0.339 C 
ATOM      7  O   UNL A   1      30.293  29.747  23.781  1.00  0.00    -0.246 OA
BRANCH   6   8
ATOM      8  C   UNL A   1      31.185  27.552  24.027  1.00  0.00     0.078 A 
ATOM      9  C   UNL A   1      31.461  24.867  23.223  1.00  0.00     0.042 A 
ATOM     10  C   UNL A   1      31.481  25.890  22.279  1.00  0.00     0.027 A 
ATOM     11  C   UNL A   1      31.306  25.199  24.576  1.00  0.00     0.047 A 
ATOM     12  C   UNL A   1      31.325  27.222  22.674  1.00  0.00     0.019 A 
ATOM     13  C   UNL A   1      31.191  26.537  24.985  1.00  0.00     0.057 A 
ATOM     14  Cl  UNL A   1      31.013  26.842  26.675  1.00  0.00    -0.083 Cl
BRANCH   9  15
ATOM     15  N   UNL A   1      31.459  23.504  22.883  1.00  0.00    -0.324 N 
ATOM     16  C   UNL A   1      32.480  22.623  22.657  1.00  0.00     0.250 C 
ATOM     17  O   UNL A   1      32.241  21.587  22.028  1.00  0.00    -0.272 OA
ATOM     18  H   UNL A   1      30.561  23.112  22.792  1.00  0.00     0.170 HD
BRANCH  16  19
ATOM     19  C   UNL A   1      33.874  22.855  23.269  1.00  0.00     0.260 C 
BRANCH  19  20
ATOM     20  O   UNL A   1      34.149  22.560  24.623  1.00  0.00    -0.366 OA
BRANCH  20  21
ATOM     21  C   UNL A   1      34.371  21.185  24.933  1.00  0.00     0.222 C 
BRANCH  21  22
ATOM     22  C   UNL A   1      33.217  20.514  25.690  1.00  0.00     0.287 C 
BRANCH  22  23
ATOM     23  N   UNL A   1      32.099  21.395  26.020  1.00  0.00    -0.356 N 
ATOM     24  H   UNL A   1      32.252  22.310  25.599  1.00  0.00     0.344 HD
ATOM     25  H   UNL A   1      32.032  21.493  27.033  1.00  0.00     0.344 HD
ATOM     26  H   UNL A   1      31.233  20.995  25.659  1.00  0.00     0.344 HD
ENDBRANCH  22  23
ENDBRANCH  21  22
ENDBRANCH  20  21
ENDBRANCH  19  20
ENDBRANCH  16  19
ENDBRANCH   9  15
ENDBRANCH   6   8
ENDBRANCH   5   6
ENDBRANCH   4   5
ENDBRANCH   3   4
ENDBRANCH   2   3
ENDBRANCH   1   2
BRANCH   1  27
ATOM     27  C   UNL A   1      33.920  33.304  27.996  1.00  0.00     0.188 C 
BRANCH  27  28
ATOM     28  O   UNL A   1      34.180  34.310  28.965  1.00  0.00    -0.377 OA
BRANCH  28  29
ATOM     29  C   UNL A   1      33.097  34.957  29.629  1.00  0.00     0.188 C 
BRANCH  29  30
ATOM     30  C   UNL A   1      33.230  36.386  30.211  1.00  0.00     0.188 C 
BRANCH  30  31
ATOM     31  O   UNL A   1      33.392  36.437  31.618  1.00  0.00    -0.376 OA
BRANCH  31  32
ATOM     32  C   UNL A   1      33.697  35.225  32.284  1.00  0.00     0.202 C 
BRANCH  32  33
ATOM     33  C   UNL A   1      35.180  34.956  32.578  1.00  0.00     0.261 C 
BRANCH  33  34
ATOM     34  O   UNL A   1      35.741  33.780  31.973  1.00  0.00    -0.460 OA
BRANCH  34  35
ATOM     35  C   UNL A   1      36.224  32.829  32.799  1.00  0.00     0.338 C 
ATOM     36  O   UNL A   1      35.800  32.520  33.901  1.00  0.00    -0.246 OA
BRANCH  35  37
ATOM     37  C   UNL A   1      37.260  32.080  32.059  1.00  0.00     0.060 A 
ATOM     38  C   UNL A   1      38.228  31.362  32.774  1.00  0.00     0.016 A 
ATOM     39  C   UNL A   1      37.265  32.078  30.663  1.00  0.00     0.016 A 
ATOM     40  C   UNL A   1      39.222  30.662  32.090  1.00  0.00     0.010 A 
ATOM     41  C   UNL A   1      38.273  31.394  29.980  1.00  0.00     0.010 A 
ATOM     42  C   UNL A   1      39.274  30.708  30.690  1.00  0.00    -0.014 A 
BRANCH  42  43
ATOM     43  C   UNL A   1      40.469  30.194  29.979  1.00  0.00     0.031 A 
ATOM     44  C   UNL A   1      41.616  31.135  29.732  1.00  0.00     0.074 A 
ATOM     45  C   UNL A   1      40.546  28.916  29.571  1.00  0.00     0.049 A 
ATOM     46  N   UNL A   1      42.742  30.930  29.097  1.00  0.00    -0.248 NA
ATOM     47  C   UNL A   1      41.468  32.494  30.273  1.00  0.00     0.031 C 
ATOM     48  C   UNL A   1      39.517  27.900  29.781  1.00  0.00     0.029 A 
ATOM     49  N   UNL A   1      41.535  28.258  28.883  1.00  0.00    -0.354 N 
ATOM     50  C   UNL A   1      43.430  32.134  29.155  1.00  0.00     0.074 A 
ATOM     51  C   UNL A   1      42.583  33.074  29.857  1.00  0.00     0.031 C 
ATOM     52  C   UNL A   1      39.924  26.748  29.221  1.00  0.00     0.029 A 
ATOM     53  C   UNL A   1      41.224  26.955  28.584  1.00  0.00     0.049 A 
ATOM     54  H   UNL A   1      42.387  28.681  28.628  1.00  0.00     0.167 HD
ATOM     55  C   UNL A   1      44.661  32.428  28.673  1.00  0.00     0.037 A 
ATOM     56  C   UNL A   1      41.901  26.045  27.856  1.00  0.00     0.037 A 
ATOM     57  C   UNL A   1      45.498  31.491  27.970  1.00  0.00     0.049 A 
ATOM     58  C   UNL A   1      43.239  26.416  27.265  1.00  0.00     0.074 A 
ATOM     59  C   UNL A   1      46.772  31.682  27.466  1.00  0.00     0.029 A 
ATOM     60  N   UNL A   1      45.135  30.188  27.658  1.00  0.00    -0.354 N 
ATOM     61  N   UNL A   1      43.901  27.545  27.355  1.00  0.00    -0.248 NA
ATOM     62  C   UNL A   1      43.924  25.383  26.476  1.00  0.00     0.031 C 
ATOM     63  C   UNL A   1      47.153  30.519  26.789  1.00  0.00     0.029 A 
ATOM     64  C   UNL A   1      46.148  29.575  26.936  1.00  0.00     0.049 A 
ATOM     65  H   UNL A   1      44.285  29.761  27.913  1.00  0.00     0.167 HD
ATOM     66  C   UNL A   1      45.090  27.349  26.661  1.00  0.00     0.074 A 
ATOM     67  C   UNL A   1      45.064  25.987  26.169  1.00  0.00     0.031 C 
ATOM     68  C   UNL A   1      46.111  28.217  26.452  1.00  0.00     0.037 A 
BRANCH  55  69
ATOM     69  C   UNL A   1      45.159  33.833  28.856  1.00  0.00     0.064 A 
ATOM     70  C   UNL A   1      45.905  34.218  29.980  1.00  0.00     0.173 A 
ATOM     71  C   UNL A   1      44.902  34.807  27.878  1.00  0.00     0.173 A 
ATOM     72  F   UNL A   1      46.168  33.331  30.952  1.00  0.00    -0.203 F 
ATOM     73  C   UNL A   1      46.345  35.531  30.135  1.00  0.00     0.198 A 
ATOM     74  C   UNL A   1      45.374  36.110  28.019  1.00  0.00     0.198 A 
ATOM     75  F   UNL A   1      44.197  34.495  26.780  1.00  0.00    -0.203 F 
ATOM     76  F   UNL A   1      47.005  35.888  31.246  1.00  0.00    -0.200 F 
ATOM     77  C   UNL A   1      46.085  36.472  29.152  1.00  0.00     0.200 A 
ATOM     78  F   UNL A   1      45.134  37.015  27.060  1.00  0.00    -0.200 F 
ATOM     79  F   UNL A   1      46.514  37.734  29.299  1.00  0.00    -0.200 F 
ENDBRANCH  55  69
BRANCH  56  80
ATOM     80  C   UNL A   1      41.321  24.694  27.633  1.00  0.00     0.064 A 
ATOM     81  C   UNL A   1      41.860  23.559  28.255  1.00  0.00     0.173 A 
ATOM     82  C   UNL A   1      40.222  24.507  26.781  1.00  0.00     0.173 A 
ATOM     83  F   UNL A   1      42.927  23.679  29.058  1.00  0.00    -0.203 F 
ATOM     84  C   UNL A   1      41.333  22.290  28.022  1.00  0.00     0.198 A 
ATOM     85  C   UNL A   1      39.676  23.243  26.573  1.00  0.00     0.198 A 
ATOM     86  F   UNL A   1      39.671  25.558  26.155  1.00  0.00    -0.203 F 
ATOM     87  F   UNL A   1      41.898  21.217  28.592  1.00  0.00    -0.200 F 
ATOM     88  C   UNL A   1      40.237  22.134  27.188  1.00  0.00     0.200 A 
ATOM     89  F   UNL A   1      38.609  23.099  25.775  1.00  0.00    -0.200 F 
ATOM     90  F   UNL A   1      39.726  20.914  26.968  1.00  0.00    -0.200 F 
ENDBRANCH  56  80
BRANCH  68  91
ATOM     91  C   UNL A   1      47.306  27.714  25.690  1.00  0.00     0.064 A 
ATOM     92  C   UNL A   1      47.368  27.762  24.290  1.00  0.00     0.173 A 
ATOM     93  C   UNL A   1      48.425  27.214  26.377  1.00  0.00     0.173 A 
ATOM     94  F   UNL A   1      46.323  28.219  23.583  1.00  0.00    -0.203 F 
ATOM     95  C   UNL A   1      48.490  27.301  23.605  1.00  0.00     0.198 A 
ATOM     96  C   UNL A   1      49.558  26.787  25.691  1.00  0.00     0.198 A 
ATOM     97  F   UNL A   1      48.425  27.153  27.717  1.00  0.00    -0.203 F 
ATOM     98  F   UNL A   1      48.502  27.306  22.265  1.00  0.00    -0.200 F 
ATOM     99  C   UNL A   1      49.587  26.822  24.305  1.00  0.00     0.200 A 
ATOM    100  F   UNL A   1      50.624  26.343  26.372  1.00  0.00    -0.200 F 
ATOM    101  F   UNL A   1      50.669  26.386  23.645  1.00  0.00    -0.200 F 
ENDBRANCH  68  91
ENDBRANCH  42  43
ENDBRANCH  35  37
ENDBRANCH  34  35
ENDBRANCH  33  34
ENDBRANCH  32  33
ENDBRANCH  31  32
ENDBRANCH  30  31
ENDBRANCH  29  30
ENDBRANCH  28  29
ENDBRANCH  27  28
ENDBRANCH   1  27
TORSDOF 26
ENDMDL
MODEL 2
REMARK VINA RESULT:      -9.5      0.883      2.125
REMARK SMILES [NH3+]CCOCC(=O)Nc1ccc(C(=O)OCCOCCOCCOCCOC(=O)c2ccc(-c3c4nc(c(-c5c(F)c(F)c(F)c(F)c5F)c5ccc([nH]5)c(-c5c(F)c(F)c(F)c(F)c5F)c5nc(c(-c6c(F)c(F)c(F)c(F)c6F)c6ccc3[nH]6)C=C5)C=C4)cc2)c(Cl)c1
REMARK SMILES IDX 19 1 18 2 17 3 16 4 15 5 13 6 14 7 12 8 9 9 10 10 95 11
REMARK SMILES IDX 11 12 93 13 94 14 8 15 6 16 7 17 5 19 4 20 3 21 2 22 1 23
REMARK SMILES IDX 20 27 21 28 22 29 23 30 24 31 25 32 26 33 27 34 28 35 29 36
REMARK SMILES IDX 30 37 31 38 92 39 32 40 91 41 33 42 34 43 35 44 85 45 36 46
REMARK SMILES IDX 90 47 84 48 86 49 37 50 89 51 83 52 82 53 38 55 70 56 50 57
REMARK SMILES IDX 69 58 51 59 54 60 68 61 87 62 52 63 53 64 67 66 88 67 55 68
REMARK SMILES IDX 39 69 40 70 48 71 41 72 42 73 46 74 49 75 43 76 44 77 47 78
REMARK SMILES IDX 45 79 71 80 72 81 80 82 73 83 74 84 78 85 81 86 75 87 76 88
REMARK SMILES IDX 79 89 77 90 56 91 57 92 65 93 58 94 59 95 63 96 66 97 60 98
REMARK SMILES IDX 61 99 64 100 62 101
REMARK H PARENT 8 18 1 24 1 25 1 26 86 54 54 65
REMARK Flexibility Score: inf
ROOT
ATOM      1  C   UNL A   1      34.552  31.735  28.276  1.00  0.00     0.188 C 
ENDROOT
BRANCH   1   2
ATOM      2  O   UNL A   1      34.045  30.538  27.715  1.00  0.00    -0.376 OA
BRANCH   2   3
ATOM      3  C   UNL A   1      33.106  30.610  26.659  1.00  0.00     0.202 C 
BRANCH   3   4
ATOM      4  C   UNL A   1      32.369  29.341  26.207  1.00  0.00     0.261 C 
BRANCH   4   5
ATOM      5  O   UNL A   1      33.157  28.386  25.490  1.00  0.00    -0.460 OA
BRANCH   5   6
ATOM      6  C   UNL A   1      32.996  28.334  24.153  1.00  0.00     0.339 C 
ATOM      7  O   UNL A   1      33.244  29.220  23.354  1.00  0.00    -0.246 OA
BRANCH   6   8
ATOM      8  C   UNL A   1      32.708  26.937  23.766  1.00  0.00     0.078 A 
ATOM      9  C   UNL A   1      32.362  24.237  23.043  1.00  0.00     0.042 A 
ATOM     10  C   UNL A   1      33.639  24.780  23.147  1.00  0.00     0.027 A 
ATOM     11  C   UNL A   1      31.256  25.056  23.307  1.00  0.00     0.047 A 
ATOM     12  C   UNL A   1      33.814  26.124  23.488  1.00  0.00     0.019 A 
ATOM     13  C   UNL A   1      31.423  26.396  23.691  1.00  0.00     0.057 A 
ATOM     14  Cl  UNL A   1      29.998  27.320  24.004  1.00  0.00    -0.083 Cl
BRANCH   9  15
ATOM     15  N   UNL A   1      32.111  22.942  22.559  1.00  0.00    -0.324 N 
ATOM     16  C   UNL A   1      32.035  21.734  23.195  1.00  0.00     0.250 C 
ATOM     17  O   UNL A   1      32.163  20.703  22.527  1.00  0.00    -0.272 OA
ATOM     18  H   UNL A   1      31.964  22.896  21.587  1.00  0.00     0.170 HD
BRANCH  16  19
ATOM     19  C   UNL A   1      31.682  21.650  24.692  1.00  0.00     0.260 C 
BRANCH  19  20
ATOM     20  O   UNL A   1      32.680  21.576  25.688  1.00  0.00    -0.366 OA
BRANCH  20  21
ATOM     21  C   UNL A   1      32.718  22.656  26.620  1.00  0.00     0.222 C 
BRANCH  21  22
ATOM     22  C   UNL A   1      33.830  22.545  27.671  1.00  0.00     0.287 C 
BRANCH  22  23
ATOM     23  N   UNL A   1      34.789  21.465  27.445  1.00  0.00    -0.356 N 
ATOM     24  H   UNL A   1      35.379  21.356  28.269  1.00  0.00     0.344 HD
ATOM     25  H   UNL A   1      35.369  21.689  26.638  1.00  0.00     0.344 HD
ATOM     26  H   UNL A   1      34.286  20.594  27.271  1.00  0.00     0.344 HD
ENDBRANCH  22  23
ENDBRANCH  21  22
ENDBRANCH  20  21
ENDBRANCH  19  20
ENDBRANCH  16  19
ENDBRANCH   9  15
ENDBRANCH   6   8
ENDBRANCH   5   6
ENDBRANCH   4   5
ENDBRANCH   3   4
ENDBRANCH   2   3
ENDBRANCH   1   2
BRANCH   1  27
ATOM     27  C   UNL A   1      33.713  32.986  27.935  1.00  0.00     0.188 C 
BRANCH  27  28
ATOM     28  O   UNL A   1      34.037  34.227  28.547  1.00  0.00    -0.377 OA
BRANCH  28  29
ATOM     29  C   UNL A   1      33.090  34.871  29.397  1.00  0.00     0.188 C 
BRANCH  29  30
ATOM     30  C   UNL A   1      33.296  36.320  29.903  1.00  0.00     0.188 C 
BRANCH  30  31
ATOM     31  O   UNL A   1      33.516  36.433  31.297  1.00  0.00    -0.376 OA
BRANCH  31  32
ATOM     32  C   UNL A   1      33.697  35.234  32.029  1.00  0.00     0.202 C 
BRANCH  32  33
ATOM     33  C   UNL A   1      35.133  34.901  32.460  1.00  0.00     0.261 C 
BRANCH  33  34
ATOM     34  O   UNL A   1      35.723  33.743  31.847  1.00  0.00    -0.460 OA
BRANCH  34  35
ATOM     35  C   UNL A   1      36.165  32.766  32.666  1.00  0.00     0.338 C 
ATOM     36  O   UNL A   1      35.697  32.435  33.744  1.00  0.00    -0.246 OA
BRANCH  35  37
ATOM     37  C   UNL A   1      37.220  32.025  31.947  1.00  0.00     0.060 A 
ATOM     38  C   UNL A   1      38.180  31.314  32.681  1.00  0.00     0.016 A 
ATOM     39  C   UNL A   1      37.252  32.023  30.552  1.00  0.00     0.016 A 
ATOM     40  C   UNL A   1      39.192  30.620  32.016  1.00  0.00     0.010 A 
ATOM     41  C   UNL A   1      38.279  31.346  29.889  1.00  0.00     0.010 A 
ATOM     42  C   UNL A   1      39.270  30.666  30.618  1.00  0.00    -0.014 A 
BRANCH  42  43
ATOM     43  C   UNL A   1      40.483  30.161  29.930  1.00  0.00     0.031 A 
ATOM     44  C   UNL A   1      41.627  31.110  29.704  1.00  0.00     0.074 A 
ATOM     45  C   UNL A   1      40.577  28.883  29.526  1.00  0.00     0.049 A 
ATOM     46  N   UNL A   1      42.767  30.913  29.091  1.00  0.00    -0.248 NA
ATOM     47  C   UNL A   1      41.459  32.469  30.241  1.00  0.00     0.031 C 
ATOM     48  C   UNL A   1      39.552  27.860  29.718  1.00  0.00     0.029 A 
ATOM     49  N   UNL A   1      41.584  28.232  28.858  1.00  0.00    -0.354 N 
ATOM     50  C   UNL A   1      43.444  32.123  29.161  1.00  0.00     0.074 A 
ATOM     51  C   UNL A   1      42.577  33.057  29.845  1.00  0.00     0.031 C 
ATOM     52  C   UNL A   1      39.979  26.710  29.167  1.00  0.00     0.029 A 
ATOM     53  C   UNL A   1      41.289  26.926  28.554  1.00  0.00     0.049 A 
ATOM     54  H   UNL A   1      42.438  28.661  28.619  1.00  0.00     0.167 HD
ATOM     55  C   UNL A   1      44.682  32.426  28.702  1.00  0.00     0.037 A 
ATOM     56  C   UNL A   1      41.987  26.020  27.841  1.00  0.00     0.037 A 
ATOM     57  C   UNL A   1      45.539  31.494  28.017  1.00  0.00     0.049 A 
ATOM     58  C   UNL A   1      43.332  26.401  27.276  1.00  0.00     0.074 A 
ATOM     59  C   UNL A   1      46.821  31.694  27.537  1.00  0.00     0.029 A 
ATOM     60  N   UNL A   1      45.192  30.188  27.700  1.00  0.00    -0.354 N 
ATOM     61  N   UNL A   1      43.984  27.535  27.376  1.00  0.00    -0.248 NA
ATOM     62  C   UNL A   1      44.041  25.373  26.501  1.00  0.00     0.031 C 
ATOM     63  C   UNL A   1      47.224  30.533  26.869  1.00  0.00     0.029 A 
ATOM     64  C   UNL A   1      46.223  29.582  26.997  1.00  0.00     0.049 A 
ATOM     65  H   UNL A   1      44.341  29.755  27.938  1.00  0.00     0.167 HD
ATOM     66  C   UNL A   1      45.188  27.347  26.705  1.00  0.00     0.074 A 
ATOM     67  C   UNL A   1      45.181  25.985  26.215  1.00  0.00     0.031 C 
ATOM     68  C   UNL A   1      46.205  28.223  26.515  1.00  0.00     0.037 A 
BRANCH  55  69
ATOM     69  C   UNL A   1      45.166  33.835  28.893  1.00  0.00     0.064 A 
ATOM     70  C   UNL A   1      44.883  34.850  27.967  1.00  0.00     0.173 A 
ATOM     71  C   UNL A   1      45.910  34.178  30.033  1.00  0.00     0.173 A 
ATOM     72  F   UNL A   1      44.189  34.574  26.853  1.00  0.00    -0.203 F 
ATOM     73  C   UNL A   1      45.355  36.147  28.157  1.00  0.00     0.198 A 
ATOM     74  C   UNL A   1      46.348  35.484  30.238  1.00  0.00     0.198 A 
ATOM     75  F   UNL A   1      46.206  33.249  30.953  1.00  0.00    -0.203 F 
ATOM     76  F   UNL A   1      45.122  37.086  27.230  1.00  0.00    -0.200 F 
ATOM     77  C   UNL A   1      46.080  36.464  29.295  1.00  0.00     0.200 A 
ATOM     78  F   UNL A   1      47.037  35.791  31.346  1.00  0.00    -0.200 F 
ATOM     79  F   UNL A   1      46.529  37.713  29.481  1.00  0.00    -0.200 F 
ENDBRANCH  55  69
BRANCH  56  80
ATOM     80  C   UNL A   1      41.421  24.664  27.609  1.00  0.00     0.064 A 
ATOM     81  C   UNL A   1      40.312  24.473  26.774  1.00  0.00     0.173 A 
ATOM     82  C   UNL A   1      41.971  23.532  28.229  1.00  0.00     0.173 A 
ATOM     83  F   UNL A   1      39.732  25.525  26.179  1.00  0.00    -0.203 F 
ATOM     84  C   UNL A   1      39.766  23.205  26.580  1.00  0.00     0.198 A 
ATOM     85  C   UNL A   1      41.445  22.262  28.010  1.00  0.00     0.198 A 
ATOM     86  F   UNL A   1      43.030  23.660  29.043  1.00  0.00    -0.203 F 
ATOM     87  F   UNL A   1      38.675  23.058  25.815  1.00  0.00    -0.200 F 
ATOM     88  C   UNL A   1      40.337  22.100  27.192  1.00  0.00     0.200 A 
ATOM     89  F   UNL A   1      42.007  21.195  28.595  1.00  0.00    -0.200 F 
ATOM     90  F   UNL A   1      39.815  20.880  27.002  1.00  0.00    -0.200 F 
ENDBRANCH  56  80
BRANCH  68  91
ATOM     91  C   UNL A   1      47.419  27.728  25.777  1.00  0.00     0.064 A 
ATOM     92  C   UNL A   1      48.522  27.178  26.447  1.00  0.00     0.173 A 
ATOM     93  C   UNL A   1      47.460  27.768  24.373  1.00  0.00     0.173 A 
ATOM     94  F   UNL A   1      48.542  27.127  27.786  1.00  0.00    -0.203 F 
ATOM     95  C   UNL A   1      49.632  26.716  25.742  1.00  0.00     0.198 A 
ATOM     96  C   UNL A   1      48.555  27.273  23.671  1.00  0.00     0.198 A 
ATOM     97  F   UNL A   1      46.429  28.275  23.680  1.00  0.00    -0.203 F 
ATOM     98  F   UNL A   1      50.696  26.247  26.407  1.00  0.00    -0.200 F 
ATOM     99  C   UNL A   1      49.644  26.756  24.356  1.00  0.00     0.200 A 
ATOM    100  F   UNL A   1      48.555  27.295  22.331  1.00  0.00    -0.200 F 
ATOM    101  F   UNL A   1      50.708  26.303  23.679  1.00  0.00    -0.200 F 
ENDBRANCH  68  91
ENDBRANCH  42  43
ENDBRANCH  35  37
ENDBRANCH  34  35
ENDBRANCH  33  34
ENDBRANCH  32  33
ENDBRANCH  31  32
ENDBRANCH  30  31
ENDBRANCH  29  30
ENDBRANCH  28  29
ENDBRANCH  27  28
ENDBRANCH   1  27
TORSDOF 26
ENDMDL
MODEL 3
REMARK VINA RESULT:      -9.5      5.523     11.339
REMARK SMILES [NH3+]CCOCC(=O)Nc1ccc(C(=O)OCCOCCOCCOCCOC(=O)c2ccc(-c3c4nc(c(-c5c(F)c(F)c(F)c(F)c5F)c5ccc([nH]5)c(-c5c(F)c(F)c(F)c(F)c5F)c5nc(c(-c6c(F)c(F)c(F)c(F)c6F)c6ccc3[nH]6)C=C5)C=C4)cc2)c(Cl)c1
REMARK SMILES IDX 19 1 18 2 17 3 16 4 15 5 13 6 14 7 12 8 9 9 10 10 95 11
REMARK SMILES IDX 11 12 93 13 94 14 8 15 6 16 7 17 5 19 4 20 3 21 2 22 1 23
REMARK SMILES IDX 20 27 21 28 22 29 23 30 24 31 25 32 26 33 27 34 28 35 29 36
REMARK SMILES IDX 30 37 31 38 92 39 32 40 91 41 33 42 34 43 35 44 85 45 36 46
REMARK SMILES IDX 90 47 84 48 86 49 37 50 89 51 83 52 82 53 38 55 70 56 50 57
REMARK SMILES IDX 69 58 51 59 54 60 68 61 87 62 52 63 53 64 67 66 88 67 55 68
REMARK SMILES IDX 39 69 40 70 48 71 41 72 42 73 46 74 49 75 43 76 44 77 47 78
REMARK SMILES IDX 45 79 71 80 72 81 80 82 73 83 74 84 78 85 81 86 75 87 76 88
REMARK SMILES IDX 79 89 77 90 56 91 57 92 65 93 58 94 59 95 63 96 66 97 60 98
REMARK SMILES IDX 61 99 64 100 62 101
REMARK H PARENT 8 18 1 24 1 25 1 26 86 54 54 65
REMARK Flexibility Score: inf
ROOT
ATOM      1  C   UNL A   1      40.080  21.330  26.718  1.00  0.00     0.188 C 
ENDROOT
BRANCH   1   2
ATOM      2  O   UNL A   1      39.357  22.367  26.082  1.00  0.00    -0.376 OA
BRANCH   2   3
ATOM      3  C   UNL A   1      38.016  22.141  25.693  1.00  0.00     0.202 C 
BRANCH   3   4
ATOM      4  C   UNL A   1      36.969  23.247  25.887  1.00  0.00     0.261 C 
BRANCH   4   5
ATOM      5  O   UNL A   1      35.713  23.037  25.234  1.00  0.00    -0.460 OA
BRANCH   5   6
ATOM      6  C   UNL A   1      34.681  22.631  26.000  1.00  0.00     0.339 C 
ATOM      7  O   UNL A   1      34.751  22.053  27.071  1.00  0.00    -0.246 OA
BRANCH   6   8
ATOM      8  C   UNL A   1      33.436  23.221  25.465  1.00  0.00     0.078 A 
ATOM      9  C   UNL A   1      31.118  24.524  24.537  1.00  0.00     0.042 A 
ATOM     10  C   UNL A   1      31.963  25.154  25.446  1.00  0.00     0.027 A 
ATOM     11  C   UNL A   1      31.443  23.236  24.092  1.00  0.00     0.047 A 
ATOM     12  C   UNL A   1      33.104  24.502  25.922  1.00  0.00     0.019 A 
ATOM     13  C   UNL A   1      32.610  22.591  24.533  1.00  0.00     0.057 A 
ATOM     14  Cl  UNL A   1      32.927  21.008  23.918  1.00  0.00    -0.083 Cl
BRANCH   9  15
ATOM     15  N   UNL A   1      29.882  25.058  24.136  1.00  0.00    -0.324 N 
ATOM     16  C   UNL A   1      29.519  26.319  23.751  1.00  0.00     0.250 C 
ATOM     17  O   UNL A   1      28.324  26.631  23.793  1.00  0.00    -0.272 OA
ATOM     18  H   UNL A   1      29.143  24.407  24.132  1.00  0.00     0.170 HD
BRANCH  16  19
ATOM     19  C   UNL A   1      30.557  27.295  23.165  1.00  0.00     0.260 C 
BRANCH  19  20
ATOM     20  O   UNL A   1      30.258  28.121  22.060  1.00  0.00    -0.366 OA
BRANCH  20  21
ATOM     21  C   UNL A   1      29.996  29.493  22.355  1.00  0.00     0.222 C 
BRANCH  21  22
ATOM     22  C   UNL A   1      28.667  30.017  21.795  1.00  0.00     0.287 C 
BRANCH  22  23
ATOM     23  N   UNL A   1      27.472  29.367  22.330  1.00  0.00    -0.356 N 
ATOM     24  H   UNL A   1      26.935  30.038  22.877  1.00  0.00     0.344 HD
ATOM     25  H   UNL A   1      27.747  28.586  22.924  1.00  0.00     0.344 HD
ATOM     26  H   UNL A   1      26.899  29.022  21.559  1.00  0.00     0.344 HD
ENDBRANCH  22  23
ENDBRANCH  21  22
ENDBRANCH  20  21
ENDBRANCH  19  20
ENDBRANCH  16  19
ENDBRANCH   9  15
ENDBRANCH   6   8
ENDBRANCH   5   6
ENDBRANCH   4   5
ENDBRANCH   3   4
ENDBRANCH   2   3
ENDBRANCH   1   2
BRANCH   1  27
ATOM     27  C   UNL A   1      39.896  19.946  26.056  1.00  0.00     0.188 C 
BRANCH  27  28
ATOM     28  O   UNL A   1      41.041  19.227  25.621  1.00  0.00    -0.377 OA
BRANCH  28  29
ATOM     29  C   UNL A   1      42.300  19.439  26.257  1.00  0.00     0.188 C 
BRANCH  29  30
ATOM     30  C   UNL A   1      43.640  19.215  25.514  1.00  0.00     0.188 C 
BRANCH  30  31
ATOM     31  O   UNL A   1      43.941  20.190  24.533  1.00  0.00    -0.376 OA
BRANCH  31  32
ATOM     32  C   UNL A   1      44.795  21.255  24.912  1.00  0.00     0.202 C 
BRANCH  32  33
ATOM     33  C   UNL A   1      44.348  22.100  26.114  1.00  0.00     0.261 C 
BRANCH  33  34
ATOM     34  O   UNL A   1      44.958  23.395  26.238  1.00  0.00    -0.460 OA
BRANCH  34  35
ATOM     35  C   UNL A   1      44.366  24.423  25.596  1.00  0.00     0.338 C 
ATOM     36  O   UNL A   1      44.251  24.575  24.390  1.00  0.00    -0.246 OA
BRANCH  35  37
ATOM     37  C   UNL A   1      43.703  25.262  26.614  1.00  0.00     0.060 A 
ATOM     38  C   UNL A   1      44.124  26.587  26.790  1.00  0.00     0.016 A 
ATOM     39  C   UNL A   1      42.660  24.743  27.383  1.00  0.00     0.016 A 
ATOM     40  C   UNL A   1      43.518  27.388  27.758  1.00  0.00     0.010 A 
ATOM     41  C   UNL A   1      42.068  25.539  28.366  1.00  0.00     0.010 A 
ATOM     42  C   UNL A   1      42.515  26.856  28.579  1.00  0.00    -0.014 A 
BRANCH  42  43
ATOM     43  C   UNL A   1      42.061  27.610  29.772  1.00  0.00     0.031 A 
ATOM     44  C   UNL A   1      40.812  28.441  29.662  1.00  0.00     0.074 A 
ATOM     45  C   UNL A   1      42.731  27.551  30.935  1.00  0.00     0.049 A 
ATOM     46  N   UNL A   1      40.245  29.218  30.550  1.00  0.00    -0.248 NA
ATOM     47  C   UNL A   1      40.110  28.391  28.370  1.00  0.00     0.031 C 
ATOM     48  C   UNL A   1      43.932  26.756  31.177  1.00  0.00     0.029 A 
ATOM     49  N   UNL A   1      42.498  28.183  32.131  1.00  0.00    -0.354 N 
ATOM     50  C   UNL A   1      39.129  29.754  29.923  1.00  0.00     0.074 A 
ATOM     51  C   UNL A   1      39.116  29.241  28.569  1.00  0.00     0.031 C 
ATOM     52  C   UNL A   1      44.340  26.958  32.442  1.00  0.00     0.029 A 
ATOM     53  C   UNL A   1      43.449  27.923  33.086  1.00  0.00     0.049 A 
ATOM     54  H   UNL A   1      41.722  28.769  32.288  1.00  0.00     0.167 HD
ATOM     55  C   UNL A   1      38.194  30.591  30.431  1.00  0.00     0.037 A 
ATOM     56  C   UNL A   1      43.595  28.428  34.327  1.00  0.00     0.037 A 
ATOM     57  C   UNL A   1      38.215  31.103  31.777  1.00  0.00     0.049 A 
ATOM     58  C   UNL A   1      42.583  29.417  34.848  1.00  0.00     0.074 A 
ATOM     59  C   UNL A   1      37.300  31.935  32.397  1.00  0.00     0.029 A 
ATOM     60  N   UNL A   1      39.212  30.841  32.706  1.00  0.00    -0.354 N 
ATOM     61  N   UNL A   1      41.509  29.892  34.264  1.00  0.00    -0.248 NA
ATOM     62  C   UNL A   1      42.801  29.936  36.205  1.00  0.00     0.031 C 
ATOM     63  C   UNL A   1      37.779  32.233  33.677  1.00  0.00     0.029 A 
ATOM     64  C   UNL A   1      38.954  31.526  33.883  1.00  0.00     0.049 A 
ATOM     65  H   UNL A   1      39.988  30.255  32.552  1.00  0.00     0.167 HD
ATOM     66  C   UNL A   1      40.910  30.740  35.188  1.00  0.00     0.074 A 
ATOM     67  C   UNL A   1      41.733  30.702  36.379  1.00  0.00     0.031 C 
ATOM     68  C   UNL A   1      39.781  31.480  35.063  1.00  0.00     0.037 A 
BRANCH  55  69
ATOM     69  C   UNL A   1      37.092  31.038  29.513  1.00  0.00     0.064 A 
ATOM     70  C   UNL A   1      36.027  30.194  29.164  1.00  0.00     0.173 A 
ATOM     71  C   UNL A   1      37.092  32.341  28.991  1.00  0.00     0.173 A 
ATOM     72  F   UNL A   1      35.984  28.935  29.624  1.00  0.00    -0.203 F 
ATOM     73  C   UNL A   1      35.022  30.626  28.300  1.00  0.00     0.198 A 
ATOM     74  C   UNL A   1      36.068  32.781  28.156  1.00  0.00     0.198 A 
ATOM     75  F   UNL A   1      38.084  33.192  29.295  1.00  0.00    -0.203 F 
ATOM     76  F   UNL A   1      34.047  29.783  27.934  1.00  0.00    -0.200 F 
ATOM     77  C   UNL A   1      35.041  31.920  27.804  1.00  0.00     0.200 A 
ATOM     78  F   UNL A   1      36.080  34.037  27.689  1.00  0.00    -0.200 F 
ATOM     79  F   UNL A   1      34.071  32.337  26.977  1.00  0.00    -0.200 F 
ENDBRANCH  55  69
BRANCH  56  80
ATOM     80  C   UNL A   1      44.755  28.016  35.162  1.00  0.00     0.064 A 
ATOM     81  C   UNL A   1      45.983  28.688  35.083  1.00  0.00     0.173 A 
ATOM     82  C   UNL A   1      44.663  26.932  36.049  1.00  0.00     0.173 A 
ATOM     83  F   UNL A   1      46.131  29.713  34.232  1.00  0.00    -0.203 F 
ATOM     84  C   UNL A   1      47.077  28.282  35.846  1.00  0.00     0.198 A 
ATOM     85  C   UNL A   1      45.747  26.547  36.834  1.00  0.00     0.198 A 
ATOM     86  F   UNL A   1      43.513  26.250  36.159  1.00  0.00    -0.203 F 
ATOM     87  F   UNL A   1      48.253  28.912  35.714  1.00  0.00    -0.200 F 
ATOM     88  C   UNL A   1      46.956  27.218  36.726  1.00  0.00     0.200 A 
ATOM     89  F   UNL A   1      45.621  25.525  37.691  1.00  0.00    -0.200 F 
ATOM     90  F   UNL A   1      48.006  26.831  37.463  1.00  0.00    -0.200 F 
ENDBRANCH  56  80
BRANCH  68  91
ATOM     91  C   UNL A   1      39.341  32.284  36.256  1.00  0.00     0.064 A 
ATOM     92  C   UNL A   1      39.840  33.570  36.509  1.00  0.00     0.173 A 
ATOM     93  C   UNL A   1      38.373  31.773  37.137  1.00  0.00     0.173 A 
ATOM     94  F   UNL A   1      40.775  34.101  35.708  1.00  0.00    -0.203 F 
ATOM     95  C   UNL A   1      39.411  34.302  37.615  1.00  0.00     0.198 A 
ATOM     96  C   UNL A   1      37.920  32.521  38.219  1.00  0.00     0.198 A 
ATOM     97  F   UNL A   1      37.854  30.552  36.938  1.00  0.00    -0.203 F 
ATOM     98  F   UNL A   1      39.943  35.505  37.866  1.00  0.00    -0.200 F 
ATOM     99  C   UNL A   1      38.445  33.781  38.463  1.00  0.00     0.200 A 
ATOM    100  F   UNL A   1      36.973  32.023  39.026  1.00  0.00    -0.200 F 
ATOM    101  F   UNL A   1      38.027  34.489  39.521  1.00  0.00    -0.200 F 
ENDBRANCH  68  91
ENDBRANCH  42  43
ENDBRANCH  35  37
ENDBRANCH  34  35
ENDBRANCH  33  34
ENDBRANCH  32  33
ENDBRANCH  31  32
ENDBRANCH  30  31
ENDBRANCH  29  30
ENDBRANCH  28  29
ENDBRANCH  27  28
ENDBRANCH   1  27
TORSDOF 26
ENDMDL
