MODEL 1
REMARK VINA RESULT:     -10.1      0.000      0.000
REMARK SMILES O=C(OCCOCCOCCOCCOC(=O)[C@H]1[C@H]2CC[C@H](C2)[C@@H]1C(=O)Nc1sc2c(c1C(=O)NC1CCCCC1)CCCC2)c1ccc(-c2c3nc(c(-c4c(F)c(F)c(F)c(F)c4F)c4ccc([nH]4)c(-c4c(F)c(F)c(F)c(F)c4F)c4nc(c(-c5c(F)c(F)c(F)c(F)c5F)c5ccc2[nH]5)C=C4)C=C3)cc1
REMARK SMILES IDX 10 1 9 2 8 3 7 4 6 5 5 6 4 7 3 8 2 9 1 10 46 11 47 12 108 13
REMARK SMILES IDX 48 14 107 15 49 16 50 17 51 18 101 19 52 20 106 21 100 22
REMARK SMILES IDX 102 23 53 24 105 25 99 26 98 27 54 29 86 30 66 31 85 32
REMARK SMILES IDX 67 33 70 34 84 35 103 36 68 37 69 38 83 40 104 41 71 42
REMARK SMILES IDX 55 43 56 44 64 45 57 46 58 47 62 48 65 49 59 50 60 51 63 52
REMARK SMILES IDX 61 53 87 54 88 55 96 56 89 57 90 58 94 59 97 60 91 61 92 62
REMARK SMILES IDX 95 63 93 64 72 65 73 66 81 67 74 68 75 69 79 70 82 71 76 72
REMARK SMILES IDX 77 73 80 74 78 75 11 76 12 77 13 78 14 79 15 80 16 81 17 82
REMARK SMILES IDX 18 83 19 84 24 85 20 86 23 87 22 88 21 89 25 90 26 91 27 92
REMARK SMILES IDX 28 94 29 95 32 96 30 97 31 98 45 99 42 100 44 101 43 102
REMARK SMILES IDX 33 103 34 104 35 105 36 107 37 108 41 109 38 110 40 111
REMARK SMILES IDX 39 112
REMARK H PARENT 102 28 70 39 27 93 35 106
REMARK Flexibility Score: inf
ROOT
ATOM      1  C   UNL A   1      40.597  25.110  27.476  1.00  0.00     0.188 C 
ENDROOT
BRANCH   1   2
ATOM      2  O   UNL A   1      40.534  26.188  26.556  1.00  0.00    -0.377 OA
BRANCH   2   3
ATOM      3  C   UNL A   1      41.383  27.290  26.843  1.00  0.00     0.188 C 
BRANCH   3   4
ATOM      4  C   UNL A   1      41.702  28.183  25.645  1.00  0.00     0.188 C 
BRANCH   4   5
ATOM      5  O   UNL A   1      43.100  28.163  25.334  1.00  0.00    -0.376 OA
BRANCH   5   6
ATOM      6  C   UNL A   1      43.651  26.884  25.008  1.00  0.00     0.202 C 
BRANCH   6   7
ATOM      7  C   UNL A   1      45.133  26.725  25.340  1.00  0.00     0.261 C 
BRANCH   7   8
ATOM      8  O   UNL A   1      45.427  25.532  26.078  1.00  0.00    -0.460 OA
BRANCH   8   9
ATOM      9  C   UNL A   1      44.795  25.027  27.165  1.00  0.00     0.338 C 
ATOM     10  O   UNL A   1      44.388  23.867  27.095  1.00  0.00    -0.246 OA
BRANCH   9  11
ATOM     11  C   UNL A   1      44.510  25.779  28.437  1.00  0.00     0.060 A 
ATOM     12  C   UNL A   1      43.768  25.316  29.526  1.00  0.00     0.016 A 
ATOM     13  C   UNL A   1      45.079  27.064  28.543  1.00  0.00     0.016 A 
ATOM     14  C   UNL A   1      43.571  26.085  30.663  1.00  0.00     0.010 A 
ATOM     15  C   UNL A   1      44.859  27.866  29.666  1.00  0.00     0.010 A 
ATOM     16  C   UNL A   1      44.072  27.379  30.711  1.00  0.00    -0.014 A 
BRANCH  16  17
ATOM     17  C   UNL A   1      43.487  28.264  31.726  1.00  0.00     0.031 A 
ATOM     18  C   UNL A   1      42.178  28.910  31.384  1.00  0.00     0.074 A 
ATOM     19  C   UNL A   1      44.009  28.312  32.962  1.00  0.00     0.049 A 
ATOM     20  N   UNL A   1      41.454  29.747  32.073  1.00  0.00    -0.248 NA
ATOM     21  C   UNL A   1      41.586  28.531  30.085  1.00  0.00     0.031 C 
ATOM     22  C   UNL A   1      45.177  27.553  33.413  1.00  0.00     0.029 A 
ATOM     23  N   UNL A   1      43.604  29.001  34.072  1.00  0.00    -0.354 N 
ATOM     24  C   UNL A   1      40.346  30.017  31.281  1.00  0.00     0.074 A 
ATOM     25  C   UNL A   1      40.481  29.256  30.064  1.00  0.00     0.031 C 
ATOM     26  C   UNL A   1      45.394  27.821  34.711  1.00  0.00     0.029 A 
ATOM     27  C   UNL A   1      44.426  28.818  35.155  1.00  0.00     0.049 A 
ATOM     28  H   UNL A   1      42.803  29.571  34.091  1.00  0.00     0.167 HD
ATOM     29  C   UNL A   1      39.314  30.846  31.556  1.00  0.00     0.037 A 
ATOM     30  C   UNL A   1      44.407  29.437  36.349  1.00  0.00     0.037 A 
ATOM     31  C   UNL A   1      39.229  31.590  32.782  1.00  0.00     0.049 A 
ATOM     32  C   UNL A   1      43.323  30.460  36.582  1.00  0.00     0.074 A 
ATOM     33  C   UNL A   1      38.297  32.532  33.163  1.00  0.00     0.029 A 
ATOM     34  N   UNL A   1      40.134  31.463  33.830  1.00  0.00    -0.354 N 
ATOM     35  N   UNL A   1      42.323  30.798  35.799  1.00  0.00    -0.248 NA
ATOM     36  C   UNL A   1      43.372  31.200  37.847  1.00  0.00     0.031 C 
ATOM     37  C   UNL A   1      38.670  33.016  34.423  1.00  0.00     0.029 A 
ATOM     38  C   UNL A   1      39.796  32.327  34.853  1.00  0.00     0.049 A 
ATOM     39  H   UNL A   1      40.903  30.848  33.840  1.00  0.00     0.167 HD
ATOM     40  C   UNL A   1      41.609  31.770  36.484  1.00  0.00     0.074 A 
ATOM     41  C   UNL A   1      42.286  31.954  37.755  1.00  0.00     0.031 C 
ATOM     42  C   UNL A   1      40.501  32.456  36.105  1.00  0.00     0.037 A 
BRANCH  29  43
ATOM     43  C   UNL A   1      38.293  31.048  30.477  1.00  0.00     0.064 A 
ATOM     44  C   UNL A   1      38.246  32.212  29.695  1.00  0.00     0.173 A 
ATOM     45  C   UNL A   1      37.300  30.080  30.265  1.00  0.00     0.173 A 
ATOM     46  F   UNL A   1      39.148  33.188  29.881  1.00  0.00    -0.203 F 
ATOM     47  C   UNL A   1      37.227  32.413  28.766  1.00  0.00     0.198 A 
ATOM     48  C   UNL A   1      36.299  30.269  29.315  1.00  0.00     0.198 A 
ATOM     49  F   UNL A   1      37.286  28.954  30.995  1.00  0.00    -0.203 F 
ATOM     50  F   UNL A   1      37.163  33.562  28.079  1.00  0.00    -0.200 F 
ATOM     51  C   UNL A   1      36.257  31.439  28.574  1.00  0.00     0.200 A 
ATOM     52  F   UNL A   1      35.364  29.327  29.131  1.00  0.00    -0.200 F 
ATOM     53  F   UNL A   1      35.272  31.638  27.687  1.00  0.00    -0.200 F 
ENDBRANCH  29  43
BRANCH  30  54
ATOM     54  C   UNL A   1      45.463  29.166  37.361  1.00  0.00     0.064 A 
ATOM     55  C   UNL A   1      46.612  29.963  37.454  1.00  0.00     0.173 A 
ATOM     56  C   UNL A   1      45.358  28.081  38.247  1.00  0.00     0.173 A 
ATOM     57  F   UNL A   1      46.778  30.999  36.619  1.00  0.00    -0.203 F 
ATOM     58  C   UNL A   1      47.619  29.675  38.376  1.00  0.00     0.198 A 
ATOM     59  C   UNL A   1      46.348  27.814  39.191  1.00  0.00     0.198 A 
ATOM     60  F   UNL A   1      44.284  27.277  38.202  1.00  0.00    -0.203 F 
ATOM     61  F   UNL A   1      48.732  30.422  38.406  1.00  0.00    -0.200 F 
ATOM     62  C   UNL A   1      47.484  28.604  39.247  1.00  0.00     0.200 A 
ATOM     63  F   UNL A   1      46.203  26.786  40.038  1.00  0.00    -0.200 F 
ATOM     64  F   UNL A   1      48.452  28.327  40.131  1.00  0.00    -0.200 F 
ENDBRANCH  30  54
BRANCH  42  65
ATOM     65  C   UNL A   1      39.934  33.423  37.098  1.00  0.00     0.064 A 
ATOM     66  C   UNL A   1      38.955  33.039  38.025  1.00  0.00     0.173 A 
ATOM     67  C   UNL A   1      40.429  34.735  37.160  1.00  0.00     0.173 A 
ATOM     68  F   UNL A   1      38.444  31.799  37.994  1.00  0.00    -0.203 F 
ATOM     69  C   UNL A   1      38.474  33.944  38.966  1.00  0.00     0.198 A 
ATOM     70  C   UNL A   1      39.971  35.624  38.124  1.00  0.00     0.198 A 
ATOM     71  F   UNL A   1      41.373  35.143  36.299  1.00  0.00    -0.203 F 
ATOM     72  F   UNL A   1      37.504  33.573  39.813  1.00  0.00    -0.200 F 
ATOM     73  C   UNL A   1      38.990  35.232  39.021  1.00  0.00     0.200 A 
ATOM     74  F   UNL A   1      40.483  36.861  38.189  1.00  0.00    -0.200 F 
ATOM     75  F   UNL A   1      38.536  36.097  39.938  1.00  0.00    -0.200 F 
ENDBRANCH  42  65
ENDBRANCH  16  17
ENDBRANCH   9  11
ENDBRANCH   8   9
ENDBRANCH   7   8
ENDBRANCH   6   7
ENDBRANCH   5   6
ENDBRANCH   4   5
ENDBRANCH   3   4
ENDBRANCH   2   3
ENDBRANCH   1   2
BRANCH   1  76
ATOM     76  C   UNL A   1      40.519  23.679  26.891  1.00  0.00     0.188 C 
BRANCH  76  77
ATOM     77  O   UNL A   1      39.278  23.037  27.082  1.00  0.00    -0.376 OA
BRANCH  77  78
ATOM     78  C   UNL A   1      38.199  23.453  26.257  1.00  0.00     0.202 C 
BRANCH  78  79
ATOM     79  C   UNL A   1      37.579  22.504  25.204  1.00  0.00     0.261 C 
BRANCH  79  80
ATOM     80  O   UNL A   1      36.170  22.686  24.905  1.00  0.00    -0.463 OA
BRANCH  80  81
ATOM     81  C   UNL A   1      35.383  21.599  24.866  1.00  0.00     0.310 C 
ATOM     82  O   UNL A   1      35.831  20.455  24.975  1.00  0.00    -0.252 OA
BRANCH  81  83
ATOM     83  C   UNL A   1      33.891  21.896  24.630  1.00  0.00     0.115 C 
ATOM     84  C   UNL A   1      33.178  21.488  25.968  1.00  0.00     0.004 C 
ATOM     85  C   UNL A   1      33.252  23.305  24.398  1.00  0.00     0.096 C 
ATOM     86  C   UNL A   1      33.420  22.464  27.143  1.00  0.00     0.005 C 
ATOM     87  C   UNL A   1      31.756  21.840  25.629  1.00  0.00     0.009 C 
ATOM     88  C   UNL A   1      32.054  23.320  25.382  1.00  0.00     0.003 C 
ATOM     89  C   UNL A   1      32.595  23.706  26.768  1.00  0.00     0.005 C 
BRANCH  85  90
ATOM     90  C   UNL A   1      32.936  23.862  22.986  1.00  0.00     0.229 C 
ATOM     91  O   UNL A   1      32.995  23.070  22.032  1.00  0.00    -0.274 OA
ATOM     92  N   UNL A   1      32.577  25.132  22.668  1.00  0.00    -0.317 N 
ATOM     93  H   UNL A   1      32.284  25.275  21.738  1.00  0.00     0.170 HD
BRANCH  92  94
ATOM     94  C   UNL A   1      32.570  26.238  23.470  1.00  0.00     0.108 A 
ATOM     95  S   UNL A   1      34.008  27.140  23.538  1.00  0.00    -0.122 S 
ATOM     96  C   UNL A   1      31.485  26.933  23.999  1.00  0.00     0.078 A 
ATOM     97  C   UNL A   1      33.408  27.917  24.919  1.00  0.00     0.011 A 
ATOM     98  C   UNL A   1      32.016  27.914  24.941  1.00  0.00    -0.019 A 
ATOM     99  C   UNL A   1      34.312  28.469  25.978  1.00  0.00     0.047 C 
ATOM    100  C   UNL A   1      31.314  28.769  25.952  1.00  0.00     0.037 C 
ATOM    101  C   UNL A   1      33.492  28.668  27.258  1.00  0.00     0.006 C 
ATOM    102  C   UNL A   1      32.256  29.508  26.922  1.00  0.00     0.005 C 
BRANCH  96 103
ATOM    103  C   UNL A   1      30.145  26.498  23.572  1.00  0.00     0.254 C 
ATOM    104  O   UNL A   1      29.898  25.288  23.490  1.00  0.00    -0.269 OA
ATOM    105  N   UNL A   1      29.071  27.312  23.346  1.00  0.00    -0.349 N 
ATOM    106  H   UNL A   1      28.232  26.810  23.231  1.00  0.00     0.164 HD
BRANCH 105 107
ATOM    107  C   UNL A   1      28.884  28.744  23.236  1.00  0.00     0.082 C 
ATOM    108  C   UNL A   1      29.530  29.288  21.949  1.00  0.00     0.025 C 
ATOM    109  C   UNL A   1      27.413  29.179  23.240  1.00  0.00     0.025 C 
ATOM    110  C   UNL A   1      29.443  30.815  21.888  1.00  0.00     0.002 C 
ATOM    111  C   UNL A   1      27.347  30.705  23.322  1.00  0.00     0.002 C 
ATOM    112  C   UNL A   1      28.028  31.350  22.121  1.00  0.00     0.000 C 
ENDBRANCH 105 107
ENDBRANCH  96 103
ENDBRANCH  92  94
ENDBRANCH  85  90
ENDBRANCH  81  83
ENDBRANCH  80  81
ENDBRANCH  79  80
ENDBRANCH  78  79
ENDBRANCH  77  78
ENDBRANCH  76  77
ENDBRANCH   1  76
TORSDOF 24
ENDMDL
MODEL 2
REMARK VINA RESULT:      -9.6      2.521      6.757
REMARK SMILES O=C(OCCOCCOCCOCCOC(=O)[C@H]1[C@H]2CC[C@H](C2)[C@@H]1C(=O)Nc1sc2c(c1C(=O)NC1CCCCC1)CCCC2)c1ccc(-c2c3nc(c(-c4c(F)c(F)c(F)c(F)c4F)c4ccc([nH]4)c(-c4c(F)c(F)c(F)c(F)c4F)c4nc(c(-c5c(F)c(F)c(F)c(F)c5F)c5ccc2[nH]5)C=C4)C=C3)cc1
REMARK SMILES IDX 10 1 9 2 8 3 7 4 6 5 5 6 4 7 3 8 2 9 1 10 46 11 47 12 108 13
REMARK SMILES IDX 48 14 107 15 49 16 50 17 51 18 101 19 52 20 106 21 100 22
REMARK SMILES IDX 102 23 53 24 105 25 99 26 98 27 54 29 86 30 66 31 85 32
REMARK SMILES IDX 67 33 70 34 84 35 103 36 68 37 69 38 83 40 104 41 71 42
REMARK SMILES IDX 55 43 56 44 64 45 57 46 58 47 62 48 65 49 59 50 60 51 63 52
REMARK SMILES IDX 61 53 87 54 88 55 96 56 89 57 90 58 94 59 97 60 91 61 92 62
REMARK SMILES IDX 95 63 93 64 72 65 73 66 81 67 74 68 75 69 79 70 82 71 76 72
REMARK SMILES IDX 77 73 80 74 78 75 11 76 12 77 13 78 14 79 15 80 16 81 17 82
REMARK SMILES IDX 18 83 19 84 24 85 20 86 23 87 22 88 21 89 25 90 26 91 27 92
REMARK SMILES IDX 28 94 29 95 32 96 30 97 31 98 45 99 42 100 44 101 43 102
REMARK SMILES IDX 33 103 34 104 35 105 36 107 37 108 41 109 38 110 40 111
REMARK SMILES IDX 39 112
REMARK H PARENT 102 28 70 39 27 93 35 106
REMARK Flexibility Score: inf
ROOT
ATOM      1  C   UNL A   1      39.458  26.161  28.583  1.00  0.00     0.188 C 
ENDROOT
BRANCH   1   2
ATOM      2  O   UNL A   1      38.792  27.362  28.939  1.00  0.00    -0.377 OA
BRANCH   2   3
ATOM      3  C   UNL A   1      39.274  28.542  28.314  1.00  0.00     0.188 C 
BRANCH   3   4
ATOM      4  C   UNL A   1      38.195  29.426  27.691  1.00  0.00     0.188 C 
BRANCH   4   5
ATOM      5  O   UNL A   1      37.312  29.954  28.687  1.00  0.00    -0.376 OA
BRANCH   5   6
ATOM      6  C   UNL A   1      35.914  29.836  28.411  1.00  0.00     0.202 C 
BRANCH   6   7
ATOM      7  C   UNL A   1      35.285  31.068  27.762  1.00  0.00     0.261 C 
BRANCH   7   8
ATOM      8  O   UNL A   1      34.313  31.716  28.591  1.00  0.00    -0.460 OA
BRANCH   8   9
ATOM      9  C   UNL A   1      34.492  32.714  29.491  1.00  0.00     0.338 C 
ATOM     10  O   UNL A   1      33.668  33.629  29.494  1.00  0.00    -0.246 OA
BRANCH   9  11
ATOM     11  C   UNL A   1      35.638  32.819  30.461  1.00  0.00     0.060 A 
ATOM     12  C   UNL A   1      36.708  33.715  30.387  1.00  0.00     0.016 A 
ATOM     13  C   UNL A   1      35.604  31.945  31.565  1.00  0.00     0.016 A 
ATOM     14  C   UNL A   1      37.714  33.740  31.340  1.00  0.00     0.010 A 
ATOM     15  C   UNL A   1      36.629  31.932  32.515  1.00  0.00     0.010 A 
ATOM     16  C   UNL A   1      37.702  32.814  32.375  1.00  0.00    -0.014 A 
BRANCH  16  17
ATOM     17  C   UNL A   1      38.973  32.618  33.085  1.00  0.00     0.031 A 
ATOM     18  C   UNL A   1      40.025  31.819  32.375  1.00  0.00     0.074 A 
ATOM     19  C   UNL A   1      39.228  33.299  34.213  1.00  0.00     0.049 A 
ATOM     20  N   UNL A   1      41.217  31.472  32.770  1.00  0.00    -0.248 NA
ATOM     21  C   UNL A   1      39.690  31.373  31.008  1.00  0.00     0.031 C 
ATOM     22  C   UNL A   1      38.311  34.244  34.852  1.00  0.00     0.029 A 
ATOM     23  N   UNL A   1      40.346  33.327  35.000  1.00  0.00    -0.354 N 
ATOM     24  C   UNL A   1      41.758  30.743  31.718  1.00  0.00     0.074 A 
ATOM     25  C   UNL A   1      40.774  30.700  30.664  1.00  0.00     0.031 C 
ATOM     26  C   UNL A   1      38.908  34.761  35.939  1.00  0.00     0.029 A 
ATOM     27  C   UNL A   1      40.213  34.131  36.104  1.00  0.00     0.049 A 
ATOM     28  H   UNL A   1      41.165  32.822  34.794  1.00  0.00     0.167 HD
ATOM     29  C   UNL A   1      42.973  30.154  31.657  1.00  0.00     0.037 A 
ATOM     30  C   UNL A   1      41.050  34.285  37.146  1.00  0.00     0.037 A 
ATOM     31  C   UNL A   1      43.916  30.220  32.738  1.00  0.00     0.049 A 
ATOM     32  C   UNL A   1      42.342  33.509  37.119  1.00  0.00     0.074 A 
ATOM     33  C   UNL A   1      45.143  29.603  32.860  1.00  0.00     0.029 A 
ATOM     34  N   UNL A   1      43.715  30.962  33.897  1.00  0.00    -0.354 N 
ATOM     35  N   UNL A   1      42.823  32.736  36.171  1.00  0.00    -0.248 NA
ATOM     36  C   UNL A   1      43.199  33.608  38.305  1.00  0.00     0.031 C 
ATOM     37  C   UNL A   1      45.662  29.928  34.119  1.00  0.00     0.029 A 
ATOM     38  C   UNL A   1      44.788  30.801  34.753  1.00  0.00     0.049 A 
ATOM     39  H   UNL A   1      42.925  31.519  34.082  1.00  0.00     0.167 HD
ATOM     40  C   UNL A   1      44.047  32.276  36.633  1.00  0.00     0.074 A 
ATOM     41  C   UNL A   1      44.240  32.872  37.942  1.00  0.00     0.031 C 
ATOM     42  C   UNL A   1      44.933  31.434  36.041  1.00  0.00     0.037 A 
BRANCH  29  43
ATOM     43  C   UNL A   1      43.272  29.327  30.444  1.00  0.00     0.064 A 
ATOM     44  C   UNL A   1      43.835  29.875  29.281  1.00  0.00     0.173 A 
ATOM     45  C   UNL A   1      42.929  27.966  30.424  1.00  0.00     0.173 A 
ATOM     46  F   UNL A   1      44.148  31.178  29.231  1.00  0.00    -0.203 F 
ATOM     47  C   UNL A   1      44.013  29.101  28.135  1.00  0.00     0.198 A 
ATOM     48  C   UNL A   1      43.135  27.187  29.287  1.00  0.00     0.198 A 
ATOM     49  F   UNL A   1      42.373  27.393  31.502  1.00  0.00    -0.203 F 
ATOM     50  F   UNL A   1      44.489  29.661  27.015  1.00  0.00    -0.200 F 
ATOM     51  C   UNL A   1      43.667  27.757  28.142  1.00  0.00     0.200 A 
ATOM     52  F   UNL A   1      42.800  25.890  29.296  1.00  0.00    -0.200 F 
ATOM     53  F   UNL A   1      43.829  27.017  27.036  1.00  0.00    -0.200 F 
ENDBRANCH  29  43
BRANCH  30  54
ATOM     54  C   UNL A   1      40.666  35.135  38.306  1.00  0.00     0.064 A 
ATOM     55  C   UNL A   1      39.850  34.646  39.336  1.00  0.00     0.173 A 
ATOM     56  C   UNL A   1      41.090  36.471  38.398  1.00  0.00     0.173 A 
ATOM     57  F   UNL A   1      39.397  33.385  39.290  1.00  0.00    -0.203 F 
ATOM     58  C   UNL A   1      39.459  35.463  40.398  1.00  0.00     0.198 A 
ATOM     59  C   UNL A   1      40.726  37.276  39.476  1.00  0.00     0.198 A 
ATOM     60  F   UNL A   1      41.867  36.998  37.440  1.00  0.00    -0.203 F 
ATOM     61  F   UNL A   1      38.634  34.984  41.340  1.00  0.00    -0.200 F 
ATOM     62  C   UNL A   1      39.901  36.775  40.470  1.00  0.00     0.200 A 
ATOM     63  F   UNL A   1      41.170  38.539  39.546  1.00  0.00    -0.200 F 
ATOM     64  F   UNL A   1      39.523  37.559  41.489  1.00  0.00    -0.200 F 
ENDBRANCH  30  54
BRANCH  42  65
ATOM     65  C   UNL A   1      46.202  31.158  36.786  1.00  0.00     0.064 A 
ATOM     66  C   UNL A   1      46.314  30.083  37.678  1.00  0.00     0.173 A 
ATOM     67  C   UNL A   1      47.339  31.947  36.550  1.00  0.00     0.173 A 
ATOM     68  F   UNL A   1      45.250  29.312  37.945  1.00  0.00    -0.203 F 
ATOM     69  C   UNL A   1      47.517  29.821  38.327  1.00  0.00     0.198 A 
ATOM     70  C   UNL A   1      48.547  31.659  37.172  1.00  0.00     0.198 A 
ATOM     71  F   UNL A   1      47.280  32.980  35.695  1.00  0.00    -0.203 F 
ATOM     72  F   UNL A   1      47.592  28.819  39.213  1.00  0.00    -0.200 F 
ATOM     73  C   UNL A   1      48.634  30.602  38.065  1.00  0.00     0.200 A 
ATOM     74  F   UNL A   1      49.630  32.402  36.904  1.00  0.00    -0.200 F 
ATOM     75  F   UNL A   1      49.795  30.339  38.680  1.00  0.00    -0.200 F 
ENDBRANCH  42  65
ENDBRANCH  16  17
ENDBRANCH   9  11
ENDBRANCH   8   9
ENDBRANCH   7   8
ENDBRANCH   6   7
ENDBRANCH   5   6
ENDBRANCH   4   5
ENDBRANCH   3   4
ENDBRANCH   2   3
ENDBRANCH   1   2
BRANCH   1  76
ATOM     76  C   UNL A   1      40.005  26.060  27.138  1.00  0.00     0.188 C 
BRANCH  76  77
ATOM     77  O   UNL A   1      39.714  24.843  26.488  1.00  0.00    -0.376 OA
BRANCH  77  78
ATOM     78  C   UNL A   1      38.443  24.261  26.741  1.00  0.00     0.202 C 
BRANCH  78  79
ATOM     79  C   UNL A   1      37.507  23.837  25.583  1.00  0.00     0.261 C 
BRANCH  79  80
ATOM     80  O   UNL A   1      36.158  23.440  25.942  1.00  0.00    -0.463 OA
BRANCH  80  81
ATOM     81  C   UNL A   1      35.769  22.185  25.665  1.00  0.00     0.310 C 
ATOM     82  O   UNL A   1      36.534  21.222  25.753  1.00  0.00    -0.252 OA
BRANCH  81  83
ATOM     83  C   UNL A   1      34.312  22.057  25.186  1.00  0.00     0.115 C 
ATOM     84  C   UNL A   1      33.540  21.421  26.398  1.00  0.00     0.004 C 
ATOM     85  C   UNL A   1      33.345  23.235  24.833  1.00  0.00     0.096 C 
ATOM     86  C   UNL A   1      33.306  22.389  27.582  1.00  0.00     0.005 C 
ATOM     87  C   UNL A   1      32.150  21.369  25.828  1.00  0.00     0.009 C 
ATOM     88  C   UNL A   1      32.051  22.880  25.610  1.00  0.00     0.003 C 
ATOM     89  C   UNL A   1      32.233  23.359  27.059  1.00  0.00     0.005 C 
BRANCH  85  90
ATOM     90  C   UNL A   1      33.113  23.725  23.380  1.00  0.00     0.229 C 
ATOM     91  O   UNL A   1      33.220  22.887  22.470  1.00  0.00    -0.274 OA
ATOM     92  N   UNL A   1      32.781  24.979  22.982  1.00  0.00    -0.317 N 
ATOM     93  H   UNL A   1      32.542  25.078  22.032  1.00  0.00     0.170 HD
BRANCH  92  94
ATOM     94  C   UNL A   1      32.736  26.122  23.729  1.00  0.00     0.108 A 
ATOM     95  S   UNL A   1      33.966  26.327  24.884  1.00  0.00    -0.122 S 
ATOM     96  C   UNL A   1      32.033  27.301  23.490  1.00  0.00     0.078 A 
ATOM     97  C   UNL A   1      33.033  27.547  25.600  1.00  0.00     0.011 A 
ATOM     98  C   UNL A   1      32.170  28.135  24.681  1.00  0.00    -0.019 A 
ATOM     99  C   UNL A   1      33.130  27.869  27.061  1.00  0.00     0.047 C 
ATOM    100  C   UNL A   1      31.454  29.392  25.073  1.00  0.00     0.037 C 
ATOM    101  C   UNL A   1      31.875  28.650  27.467  1.00  0.00     0.006 C 
ATOM    102  C   UNL A   1      31.715  29.845  26.523  1.00  0.00     0.005 C 
BRANCH  96 103
ATOM    103  C   UNL A   1      31.307  27.394  22.214  1.00  0.00     0.254 C 
ATOM    104  O   UNL A   1      31.688  26.721  21.248  1.00  0.00    -0.269 OA
ATOM    105  N   UNL A   1      30.151  28.091  21.997  1.00  0.00    -0.349 N 
ATOM    106  H   UNL A   1      29.744  27.889  21.124  1.00  0.00     0.164 HD
BRANCH 105 107
ATOM    107  C   UNL A   1      29.388  29.060  22.757  1.00  0.00     0.082 C 
ATOM    108  C   UNL A   1      29.707  30.495  22.300  1.00  0.00     0.025 C 
ATOM    109  C   UNL A   1      27.870  28.866  22.662  1.00  0.00     0.025 C 
ATOM    110  C   UNL A   1      28.998  31.528  23.180  1.00  0.00     0.002 C 
ATOM    111  C   UNL A   1      27.186  29.810  23.654  1.00  0.00     0.002 C 
ATOM    112  C   UNL A   1      27.499  31.266  23.331  1.00  0.00     0.000 C 
ENDBRANCH 105 107
ENDBRANCH  96 103
ENDBRANCH  92  94
ENDBRANCH  85  90
ENDBRANCH  81  83
ENDBRANCH  80  81
ENDBRANCH  79  80
ENDBRANCH  78  79
ENDBRANCH  77  78
ENDBRANCH  76  77
ENDBRANCH   1  76
TORSDOF 24
ENDMDL
MODEL 3
REMARK VINA RESULT:      -9.5      3.052      7.114
REMARK SMILES O=C(OCCOCCOCCOCCOC(=O)[C@H]1[C@H]2CC[C@H](C2)[C@@H]1C(=O)Nc1sc2c(c1C(=O)NC1CCCCC1)CCCC2)c1ccc(-c2c3nc(c(-c4c(F)c(F)c(F)c(F)c4F)c4ccc([nH]4)c(-c4c(F)c(F)c(F)c(F)c4F)c4nc(c(-c5c(F)c(F)c(F)c(F)c5F)c5ccc2[nH]5)C=C4)C=C3)cc1
REMARK SMILES IDX 10 1 9 2 8 3 7 4 6 5 5 6 4 7 3 8 2 9 1 10 46 11 47 12 108 13
REMARK SMILES IDX 48 14 107 15 49 16 50 17 51 18 101 19 52 20 106 21 100 22
REMARK SMILES IDX 102 23 53 24 105 25 99 26 98 27 54 29 86 30 66 31 85 32
REMARK SMILES IDX 67 33 70 34 84 35 103 36 68 37 69 38 83 40 104 41 71 42
REMARK SMILES IDX 55 43 56 44 64 45 57 46 58 47 62 48 65 49 59 50 60 51 63 52
REMARK SMILES IDX 61 53 87 54 88 55 96 56 89 57 90 58 94 59 97 60 91 61 92 62
REMARK SMILES IDX 95 63 93 64 72 65 73 66 81 67 74 68 75 69 79 70 82 71 76 72
REMARK SMILES IDX 77 73 80 74 78 75 11 76 12 77 13 78 14 79 15 80 16 81 17 82
REMARK SMILES IDX 18 83 19 84 24 85 20 86 23 87 22 88 21 89 25 90 26 91 27 92
REMARK SMILES IDX 28 94 29 95 32 96 30 97 31 98 45 99 42 100 44 101 43 102
REMARK SMILES IDX 33 103 34 104 35 105 36 107 37 108 41 109 38 110 40 111
REMARK SMILES IDX 39 112
REMARK H PARENT 102 28 70 39 27 93 35 106
REMARK Flexibility Score: inf
ROOT
ATOM      1  C   UNL A   1      39.501  26.135  28.512  1.00  0.00     0.188 C 
ENDROOT
BRANCH   1   2
ATOM      2  O   UNL A   1      38.868  27.403  28.560  1.00  0.00    -0.377 OA
BRANCH   2   3
ATOM      3  C   UNL A   1      39.703  28.518  28.278  1.00  0.00     0.188 C 
BRANCH   3   4
ATOM      4  C   UNL A   1      39.013  29.877  28.378  1.00  0.00     0.188 C 
BRANCH   4   5
ATOM      5  O   UNL A   1      37.701  29.759  28.938  1.00  0.00    -0.376 OA
BRANCH   5   6
ATOM      6  C   UNL A   1      36.627  30.245  28.128  1.00  0.00     0.202 C 
BRANCH   6   7
ATOM      7  C   UNL A   1      36.133  31.643  28.495  1.00  0.00     0.261 C 
BRANCH   7   8
ATOM      8  O   UNL A   1      35.354  31.675  29.697  1.00  0.00    -0.460 OA
BRANCH   8   9
ATOM      9  C   UNL A   1      35.673  32.203  30.904  1.00  0.00     0.338 C 
ATOM     10  O   UNL A   1      34.983  33.138  31.313  1.00  0.00    -0.246 OA
BRANCH   9  11
ATOM     11  C   UNL A   1      36.826  31.770  31.769  1.00  0.00     0.060 A 
ATOM     12  C   UNL A   1      36.766  30.891  32.853  1.00  0.00     0.016 A 
ATOM     13  C   UNL A   1      38.092  32.284  31.424  1.00  0.00     0.016 A 
ATOM     14  C   UNL A   1      37.892  30.546  33.583  1.00  0.00     0.010 A 
ATOM     15  C   UNL A   1      39.231  31.975  32.171  1.00  0.00     0.010 A 
ATOM     16  C   UNL A   1      39.115  31.128  33.276  1.00  0.00    -0.014 A 
BRANCH  16  17
ATOM     17  C   UNL A   1      40.149  31.054  34.316  1.00  0.00     0.031 A 
ATOM     18  C   UNL A   1      41.105  29.902  34.234  1.00  0.00     0.074 A 
ATOM     19  C   UNL A   1      40.335  32.083  35.157  1.00  0.00     0.049 A 
ATOM     20  N   UNL A   1      42.090  29.577  35.023  1.00  0.00    -0.248 NA
ATOM     21  C   UNL A   1      40.942  29.003  33.075  1.00  0.00     0.031 C 
ATOM     22  C   UNL A   1      39.555  33.322  35.159  1.00  0.00     0.029 A 
ATOM     23  N   UNL A   1      41.261  32.264  36.147  1.00  0.00    -0.354 N 
ATOM     24  C   UNL A   1      42.638  28.424  34.476  1.00  0.00     0.074 A 
ATOM     25  C   UNL A   1      41.888  28.104  33.287  1.00  0.00     0.031 C 
ATOM     26  C   UNL A   1      40.038  34.138  36.110  1.00  0.00     0.029 A 
ATOM     27  C   UNL A   1      41.109  33.450  36.822  1.00  0.00     0.049 A 
ATOM     28  H   UNL A   1      41.966  31.611  36.355  1.00  0.00     0.167 HD
ATOM     29  C   UNL A   1      43.675  27.696  34.947  1.00  0.00     0.037 A 
ATOM     30  C   UNL A   1      41.747  33.886  37.924  1.00  0.00     0.037 A 
ATOM     31  C   UNL A   1      44.387  28.052  36.143  1.00  0.00     0.049 A 
ATOM     32  C   UNL A   1      42.809  32.990  38.511  1.00  0.00     0.074 A 
ATOM     33  C   UNL A   1      45.395  27.369  36.791  1.00  0.00     0.029 A 
ATOM     34  N   UNL A   1      44.146  29.213  36.871  1.00  0.00    -0.354 N 
ATOM     35  N   UNL A   1      43.270  31.847  38.056  1.00  0.00    -0.248 NA
ATOM     36  C   UNL A   1      43.426  33.430  39.766  1.00  0.00     0.031 C 
ATOM     37  C   UNL A   1      45.727  28.090  37.944  1.00  0.00     0.029 A 
ATOM     38  C   UNL A   1      44.972  29.256  37.977  1.00  0.00     0.049 A 
ATOM     39  H   UNL A   1      43.483  29.901  36.633  1.00  0.00     0.167 HD
ATOM     40  C   UNL A   1      44.246  31.441  38.954  1.00  0.00     0.074 A 
ATOM     41  C   UNL A   1      44.320  32.474  39.971  1.00  0.00     0.031 C 
ATOM     42  C   UNL A   1      45.012  30.320  38.950  1.00  0.00     0.037 A 
BRANCH  29  43
ATOM     43  C   UNL A   1      44.001  26.423  34.226  1.00  0.00     0.064 A 
ATOM     44  C   UNL A   1      44.845  26.389  33.105  1.00  0.00     0.173 A 
ATOM     45  C   UNL A   1      43.404  25.219  34.629  1.00  0.00     0.173 A 
ATOM     46  F   UNL A   1      45.412  27.518  32.652  1.00  0.00    -0.203 F 
ATOM     47  C   UNL A   1      45.053  25.206  32.397  1.00  0.00     0.198 A 
ATOM     48  C   UNL A   1      43.637  24.032  33.938  1.00  0.00     0.198 A 
ATOM     49  F   UNL A   1      42.576  25.195  35.685  1.00  0.00    -0.203 F 
ATOM     50  F   UNL A   1      45.808  25.212  31.290  1.00  0.00    -0.200 F 
ATOM     51  C   UNL A   1      44.452  24.028  32.818  1.00  0.00     0.200 A 
ATOM     52  F   UNL A   1      43.056  22.895  34.347  1.00  0.00    -0.200 F 
ATOM     53  F   UNL A   1      44.644  22.894  32.130  1.00  0.00    -0.200 F 
ENDBRANCH  29  43
BRANCH  30  54
ATOM     54  C   UNL A   1      41.356  35.169  38.567  1.00  0.00     0.064 A 
ATOM     55  C   UNL A   1      40.184  35.282  39.327  1.00  0.00     0.173 A 
ATOM     56  C   UNL A   1      42.139  36.326  38.414  1.00  0.00     0.173 A 
ATOM     57  F   UNL A   1      39.385  34.217  39.488  1.00  0.00    -0.203 F 
ATOM     58  C   UNL A   1      39.801  36.501  39.890  1.00  0.00     0.198 A 
ATOM     59  C   UNL A   1      41.774  37.534  39.005  1.00  0.00     0.198 A 
ATOM     60  F   UNL A   1      43.269  36.283  37.692  1.00  0.00    -0.203 F 
ATOM     61  F   UNL A   1      38.648  36.591  40.567  1.00  0.00    -0.200 F 
ATOM     62  C   UNL A   1      40.599  37.624  39.733  1.00  0.00     0.200 A 
ATOM     63  F   UNL A   1      42.557  38.611  38.861  1.00  0.00    -0.200 F 
ATOM     64  F   UNL A   1      40.230  38.794  40.273  1.00  0.00    -0.200 F 
ENDBRANCH  30  54
BRANCH  42  65
ATOM     65  C   UNL A   1      46.020  30.188  40.050  1.00  0.00     0.064 A 
ATOM     66  C   UNL A   1      45.729  29.505  41.239  1.00  0.00     0.173 A 
ATOM     67  C   UNL A   1      47.316  30.698  39.877  1.00  0.00     0.173 A 
ATOM     68  F   UNL A   1      44.500  29.013  41.452  1.00  0.00    -0.203 F 
ATOM     69  C   UNL A   1      46.696  29.358  42.228  1.00  0.00     0.198 A 
ATOM     70  C   UNL A   1      48.289  30.518  40.852  1.00  0.00     0.198 A 
ATOM     71  F   UNL A   1      47.642  31.349  38.750  1.00  0.00    -0.203 F 
ATOM     72  F   UNL A   1      46.385  28.745  43.378  1.00  0.00    -0.200 F 
ATOM     73  C   UNL A   1      47.977  29.855  42.030  1.00  0.00     0.200 A 
ATOM     74  F   UNL A   1      49.530  30.980  40.651  1.00  0.00    -0.200 F 
ATOM     75  F   UNL A   1      48.910  29.699  42.978  1.00  0.00    -0.200 F 
ENDBRANCH  42  65
ENDBRANCH  16  17
ENDBRANCH   9  11
ENDBRANCH   8   9
ENDBRANCH   7   8
ENDBRANCH   6   7
ENDBRANCH   5   6
ENDBRANCH   4   5
ENDBRANCH   3   4
ENDBRANCH   2   3
ENDBRANCH   1   2
BRANCH   1  76
ATOM     76  C   UNL A   1      40.164  25.728  27.174  1.00  0.00     0.188 C 
BRANCH  76  77
ATOM     77  O   UNL A   1      39.693  24.513  26.636  1.00  0.00    -0.376 OA
BRANCH  77  78
ATOM     78  C   UNL A   1      38.306  24.237  26.771  1.00  0.00     0.202 C 
BRANCH  78  79
ATOM     79  C   UNL A   1      37.489  23.628  25.606  1.00  0.00     0.261 C 
BRANCH  79  80
ATOM     80  O   UNL A   1      36.087  23.354  25.862  1.00  0.00    -0.463 OA
BRANCH  80  81
ATOM     81  C   UNL A   1      35.626  22.117  25.617  1.00  0.00     0.310 C 
ATOM     82  O   UNL A   1      36.329  21.113  25.748  1.00  0.00    -0.252 OA
BRANCH  81  83
ATOM     83  C   UNL A   1      34.171  22.063  25.117  1.00  0.00     0.115 C 
ATOM     84  C   UNL A   1      33.348  21.481  26.322  1.00  0.00     0.004 C 
ATOM     85  C   UNL A   1      33.274  23.287  24.738  1.00  0.00     0.096 C 
ATOM     86  C   UNL A   1      33.148  22.471  27.493  1.00  0.00     0.005 C 
ATOM     87  C   UNL A   1      31.966  21.498  25.731  1.00  0.00     0.009 C 
ATOM     88  C   UNL A   1      31.951  23.010  25.498  1.00  0.00     0.003 C 
ATOM     89  C   UNL A   1      32.137  23.493  26.945  1.00  0.00     0.005 C 
BRANCH  85  90
ATOM     90  C   UNL A   1      33.091  23.775  23.277  1.00  0.00     0.229 C 
ATOM     91  O   UNL A   1      33.227  22.935  22.373  1.00  0.00    -0.274 OA
ATOM     92  N   UNL A   1      32.773  25.029  22.867  1.00  0.00    -0.317 N 
ATOM     93  H   UNL A   1      32.566  25.127  21.909  1.00  0.00     0.170 HD
BRANCH  92  94
ATOM     94  C   UNL A   1      32.705  26.173  23.610  1.00  0.00     0.108 A 
ATOM     95  S   UNL A   1      33.963  26.437  24.721  1.00  0.00    -0.122 S 
ATOM     96  C   UNL A   1      31.945  27.320  23.390  1.00  0.00     0.078 A 
ATOM     97  C   UNL A   1      33.004  27.620  25.463  1.00  0.00     0.011 A 
ATOM     98  C   UNL A   1      32.086  28.166  24.572  1.00  0.00    -0.019 A 
ATOM     99  C   UNL A   1      33.136  27.954  26.918  1.00  0.00     0.047 C 
ATOM    100  C   UNL A   1      31.330  29.393  24.982  1.00  0.00     0.037 C 
ATOM    101  C   UNL A   1      31.863  28.683  27.364  1.00  0.00     0.006 C 
ATOM    102  C   UNL A   1      31.621  29.865  26.421  1.00  0.00     0.005 C 
BRANCH  96 103
ATOM    103  C   UNL A   1      31.172  27.375  22.139  1.00  0.00     0.254 C 
ATOM    104  O   UNL A   1      31.445  26.588  21.222  1.00  0.00    -0.269 OA
ATOM    105  N   UNL A   1      30.078  28.160  21.905  1.00  0.00    -0.349 N 
ATOM    106  H   UNL A   1      29.614  27.925  21.069  1.00  0.00     0.164 HD
BRANCH 105 107
ATOM    107  C   UNL A   1      29.445  29.259  22.604  1.00  0.00     0.082 C 
ATOM    108  C   UNL A   1      29.613  30.578  21.827  1.00  0.00     0.025 C 
ATOM    109  C   UNL A   1      27.946  29.053  22.855  1.00  0.00     0.025 C 
ATOM    110  C   UNL A   1      29.054  31.762  22.619  1.00  0.00     0.002 C 
ATOM    111  C   UNL A   1      27.437  30.172  23.766  1.00  0.00     0.002 C 
ATOM    112  C   UNL A   1      27.625  31.537  23.115  1.00  0.00     0.000 C 
ENDBRANCH 105 107
ENDBRANCH  96 103
ENDBRANCH  92  94
ENDBRANCH  85  90
ENDBRANCH  81  83
ENDBRANCH  80  81
ENDBRANCH  79  80
ENDBRANCH  78  79
ENDBRANCH  77  78
ENDBRANCH  76  77
ENDBRANCH   1  76
TORSDOF 24
ENDMDL
