MODEL 1
REMARK VINA RESULT:     -11.4      0.000      0.000
REMARK SMILES N#C/C(=C\c1ccc(-c2ccc(C(=O)OCCOCCOCCOCCOC(=O)c3ccc(-c4c5nc(c(-c6c(F)c(F)c(F)c(F)c6F)c6ccc([nH]6)c(-c6c(F)c(F)c(F)c(F)c6F)c6nc(c(-c7c(F)c(F)c(F)c(F)c7F)c7ccc4[nH]7)C=C6)C=C5)cc3)cc2)o1)[C@@H]1N=c2cc(Br)cnc2=N1
REMARK SMILES IDX 20 1 19 2 18 3 17 4 16 5 15 6 13 7 14 8 12 9 9 10 10 11
REMARK SMILES IDX 94 12 11 13 93 14 8 15 5 16 6 17 95 18 7 19 4 20 3 21 2 22
REMARK SMILES IDX 1 23 96 24 97 25 105 26 98 27 104 28 99 29 103 30 100 31
REMARK SMILES IDX 102 32 101 33 21 34 22 35 23 36 24 37 25 38 26 39 27 40
REMARK SMILES IDX 28 41 29 42 30 43 31 44 92 45 32 46 91 47 33 48 34 49 35 50
REMARK SMILES IDX 85 51 36 52 90 53 84 54 86 55 37 56 89 57 83 58 82 59 38 61
REMARK SMILES IDX 70 62 50 63 69 64 51 65 54 66 68 67 87 68 52 69 53 70 67 72
REMARK SMILES IDX 88 73 55 74 39 75 40 76 48 77 41 78 42 79 46 80 49 81 43 82
REMARK SMILES IDX 44 83 47 84 45 85 71 86 72 87 80 88 73 89 74 90 78 91 81 92
REMARK SMILES IDX 75 93 76 94 79 95 77 96 56 97 57 98 65 99 58 100 59 101
REMARK SMILES IDX 63 102 66 103 60 104 61 105 64 106 62 107
REMARK H PARENT 86 60 54 71
REMARK Flexibility Score: inf
ROOT
ATOM      1  C   UNL A   1      31.722  30.327  26.392  1.00  0.00     0.188 C 
ENDROOT
BRANCH   1   2
ATOM      2  C   UNL A   1      30.956  31.503  25.742  1.00  0.00     0.188 C 
BRANCH   2   3
ATOM      3  O   UNL A   1      30.009  31.133  24.763  1.00  0.00    -0.376 OA
BRANCH   3   4
ATOM      4  C   UNL A   1      29.213  32.078  24.082  1.00  0.00     0.202 C 
BRANCH   4   5
ATOM      5  C   UNL A   1      27.822  31.761  23.509  1.00  0.00     0.261 C 
BRANCH   5   6
ATOM      6  O   UNL A   1      27.575  30.414  23.110  1.00  0.00    -0.460 OA
BRANCH   6   7
ATOM      7  C   UNL A   1      28.213  30.001  21.992  1.00  0.00     0.338 C 
ATOM      8  O   UNL A   1      28.042  30.421  20.861  1.00  0.00    -0.246 OA
BRANCH   7   9
ATOM      9  C   UNL A   1      29.309  29.083  22.383  1.00  0.00     0.060 A 
ATOM     10  C   UNL A   1      31.341  27.417  23.341  1.00  0.00     0.017 A 
ATOM     11  C   UNL A   1      30.003  27.095  23.591  1.00  0.00     0.013 A 
ATOM     12  C   UNL A   1      31.643  28.501  22.499  1.00  0.00     0.013 A 
ATOM     13  C   UNL A   1      28.988  27.939  23.128  1.00  0.00     0.016 A 
ATOM     14  C   UNL A   1      30.631  29.330  22.012  1.00  0.00     0.016 A 
BRANCH  10  15
ATOM     15  C   UNL A   1      32.403  26.849  24.154  1.00  0.00     0.134 A 
ATOM     16  C   UNL A   1      33.598  25.233  25.098  1.00  0.00     0.128 A 
ATOM     17  C   UNL A   1      34.043  26.454  25.597  1.00  0.00     0.051 A 
ATOM     18  O   UNL A   1      32.584  25.498  24.188  1.00  0.00    -0.457 OA
ATOM     19  C   UNL A   1      33.280  27.472  25.007  1.00  0.00     0.051 A 
BRANCH  16  20
ATOM     20  C   UNL A   1      34.092  23.925  25.391  1.00  0.00     0.066 C 
ATOM     21  C   UNL A   1      33.473  23.061  26.225  1.00  0.00     0.080 C 
BRANCH  21  22
ATOM     22  C   UNL A   1      32.170  23.322  26.765  1.00  0.00     0.099 C 
ATOM     23  N   UNL A   1      31.132  23.527  27.229  1.00  0.00    -0.193 NA
ENDBRANCH  21  22
BRANCH  21  24
ATOM     24  C   UNL A   1      34.118  21.757  26.642  1.00  0.00     0.265 C 
ATOM     25  N   UNL A   1      34.976  21.225  25.544  1.00  0.00    -0.249 NA
ATOM     26  N   UNL A   1      33.065  20.769  27.006  1.00  0.00    -0.232 NA
ATOM     27  C   UNL A   1      34.435  20.082  25.303  1.00  0.00     0.106 A 
ATOM     28  C   UNL A   1      33.280  19.799  26.185  1.00  0.00     0.175 A 
ATOM     29  C   UNL A   1      34.791  19.071  24.310  1.00  0.00     0.049 A 
ATOM     30  N   UNL A   1      32.526  18.665  26.138  1.00  0.00    -0.234 NA
ATOM     31  C   UNL A   1      34.033  17.967  24.265  1.00  0.00     0.038 A 
ATOM     32  C   UNL A   1      32.889  17.820  25.224  1.00  0.00     0.129 A 
ATOM     33  Br  UNL A   1      34.338  16.582  23.062  1.00  0.00    -0.049 Br
ENDBRANCH  21  24
ENDBRANCH  16  20
ENDBRANCH  10  15
ENDBRANCH   7   9
ENDBRANCH   6   7
ENDBRANCH   5   6
ENDBRANCH   4   5
ENDBRANCH   3   4
ENDBRANCH   2   3
ENDBRANCH   1   2
BRANCH   1  34
ATOM     34  O   UNL A   1      32.600  30.563  27.482  1.00  0.00    -0.377 OA
BRANCH  34  35
ATOM     35  C   UNL A   1      33.959  30.915  27.256  1.00  0.00     0.188 C 
BRANCH  35  36
ATOM     36  C   UNL A   1      34.677  32.030  28.057  1.00  0.00     0.188 C 
BRANCH  36  37
ATOM     37  O   UNL A   1      33.839  33.059  28.534  1.00  0.00    -0.376 OA
BRANCH  37  38
ATOM     38  C   UNL A   1      34.379  34.201  29.161  1.00  0.00     0.202 C 
BRANCH  38  39
ATOM     39  C   UNL A   1      34.584  34.261  30.682  1.00  0.00     0.261 C 
BRANCH  39  40
ATOM     40  O   UNL A   1      35.849  33.832  31.195  1.00  0.00    -0.460 OA
BRANCH  40  41
ATOM     41  C   UNL A   1      35.870  32.674  31.889  1.00  0.00     0.338 C 
ATOM     42  O   UNL A   1      35.101  32.320  32.762  1.00  0.00    -0.246 OA
BRANCH  41  43
ATOM     43  C   UNL A   1      36.903  31.815  31.276  1.00  0.00     0.060 A 
ATOM     44  C   UNL A   1      37.647  30.942  32.084  1.00  0.00     0.016 A 
ATOM     45  C   UNL A   1      37.125  31.873  29.899  1.00  0.00     0.016 A 
ATOM     46  C   UNL A   1      38.646  30.149  31.519  1.00  0.00     0.010 A 
ATOM     47  C   UNL A   1      38.141  31.100  29.341  1.00  0.00     0.010 A 
ATOM     48  C   UNL A   1      38.931  30.266  30.154  1.00  0.00    -0.014 A 
BRANCH  48  49
ATOM     49  C   UNL A   1      40.192  29.714  29.607  1.00  0.00     0.031 A 
ATOM     50  C   UNL A   1      41.373  30.635  29.499  1.00  0.00     0.074 A 
ATOM     51  C   UNL A   1      40.289  28.438  29.203  1.00  0.00     0.049 A 
ATOM     52  N   UNL A   1      42.546  30.435  28.954  1.00  0.00    -0.248 NA
ATOM     53  C   UNL A   1      41.197  31.978  30.076  1.00  0.00     0.031 C 
ATOM     54  C   UNL A   1      39.236  27.434  29.313  1.00  0.00     0.029 A 
ATOM     55  N   UNL A   1      41.330  27.778  28.600  1.00  0.00    -0.354 N 
ATOM     56  C   UNL A   1      43.235  31.632  29.102  1.00  0.00     0.074 A 
ATOM     57  C   UNL A   1      42.336  32.563  29.750  1.00  0.00     0.031 C 
ATOM     58  C   UNL A   1      39.681  26.281  28.784  1.00  0.00     0.029 A 
ATOM     59  C   UNL A   1      41.033  26.483  28.260  1.00  0.00     0.049 A 
ATOM     60  H   UNL A   1      42.206  28.192  28.430  1.00  0.00     0.167 HD
ATOM     61  C   UNL A   1      44.506  31.925  28.738  1.00  0.00     0.037 A 
ATOM     62  C   UNL A   1      41.761  25.578  27.578  1.00  0.00     0.037 A 
ATOM     63  C   UNL A   1      45.384  30.995  28.079  1.00  0.00     0.049 A 
ATOM     64  C   UNL A   1      43.135  25.956  27.083  1.00  0.00     0.074 A 
ATOM     65  C   UNL A   1      46.692  31.182  27.673  1.00  0.00     0.029 A 
ATOM     66  N   UNL A   1      45.031  29.704  27.707  1.00  0.00    -0.354 N 
ATOM     67  N   UNL A   1      43.794  27.080  27.237  1.00  0.00    -0.248 NA
ATOM     68  C   UNL A   1      43.867  24.936  26.320  1.00  0.00     0.031 C 
ATOM     69  C   UNL A   1      47.104  30.035  26.985  1.00  0.00     0.029 A 
ATOM     70  C   UNL A   1      46.085  29.097  27.044  1.00  0.00     0.049 A 
ATOM     71  H   UNL A   1      44.160  29.282  27.889  1.00  0.00     0.167 HD
ATOM     72  C   UNL A   1      45.031  26.887  26.633  1.00  0.00     0.074 A 
ATOM     73  C   UNL A   1      45.030  25.537  26.107  1.00  0.00     0.031 C 
ATOM     74  C   UNL A   1      46.076  27.746  26.535  1.00  0.00     0.037 A 
BRANCH  61  75
ATOM     75  C   UNL A   1      44.987  33.327  28.993  1.00  0.00     0.064 A 
ATOM     76  C   UNL A   1      45.765  33.658  30.115  1.00  0.00     0.173 A 
ATOM     77  C   UNL A   1      44.635  34.367  28.118  1.00  0.00     0.173 A 
ATOM     78  F   UNL A   1      46.123  32.708  30.993  1.00  0.00    -0.203 F 
ATOM     79  C   UNL A   1      46.117  34.979  30.382  1.00  0.00     0.198 A 
ATOM     80  C   UNL A   1      45.029  35.679  28.362  1.00  0.00     0.198 A 
ATOM     81  F   UNL A   1      43.900  34.111  27.024  1.00  0.00    -0.203 F 
ATOM     82  F   UNL A   1      46.781  35.279  31.507  1.00  0.00    -0.200 F 
ATOM     83  C   UNL A   1      45.752  35.987  29.504  1.00  0.00     0.200 A 
ATOM     84  F   UNL A   1      44.692  36.649  27.501  1.00  0.00    -0.200 F 
ATOM     85  F   UNL A   1      46.084  37.259  29.765  1.00  0.00    -0.200 F 
ENDBRANCH  61  75
BRANCH  62  86
ATOM     86  C   UNL A   1      41.212  24.218  27.340  1.00  0.00     0.064 A 
ATOM     87  C   UNL A   1      41.763  23.102  27.985  1.00  0.00     0.173 A 
ATOM     88  C   UNL A   1      40.126  24.003  26.479  1.00  0.00     0.173 A 
ATOM     89  F   UNL A   1      42.818  23.253  28.798  1.00  0.00    -0.203 F 
ATOM     90  C   UNL A   1      41.255  21.822  27.772  1.00  0.00     0.198 A 
ATOM     91  C   UNL A   1      39.599  22.727  26.290  1.00  0.00     0.198 A 
ATOM     92  F   UNL A   1      39.564  25.036  25.835  1.00  0.00    -0.203 F 
ATOM     93  F   UNL A   1      41.825  20.769  28.372  1.00  0.00    -0.200 F 
ATOM     94  C   UNL A   1      40.166  21.637  26.932  1.00  0.00     0.200 A 
ATOM     95  F   UNL A   1      38.538  22.554  25.489  1.00  0.00    -0.200 F 
ATOM     96  F   UNL A   1      39.670  20.408  26.738  1.00  0.00    -0.200 F 
ENDBRANCH  62  86
BRANCH  74  97
ATOM     97  C   UNL A   1      47.342  27.241  25.894  1.00  0.00     0.064 A 
ATOM     98  C   UNL A   1      47.645  27.476  24.545  1.00  0.00     0.173 A 
ATOM     99  C   UNL A   1      48.296  26.562  26.669  1.00  0.00     0.173 A 
ATOM    100  F   UNL A   1      46.766  28.111  23.755  1.00  0.00    -0.203 F 
ATOM    101  C   UNL A   1      48.842  27.027  23.991  1.00  0.00     0.198 A 
ATOM    102  C   UNL A   1      49.508  26.150  26.122  1.00  0.00     0.198 A 
ATOM    103  F   UNL A   1      48.064  26.316  27.968  1.00  0.00    -0.203 F 
ATOM    104  F   UNL A   1      49.087  27.217  22.687  1.00  0.00    -0.200 F 
ATOM    105  C   UNL A   1      49.777  26.375  24.782  1.00  0.00     0.200 A 
ATOM    106  F   UNL A   1      50.418  25.541  26.895  1.00  0.00    -0.200 F 
ATOM    107  F   UNL A   1      50.935  25.959  24.251  1.00  0.00    -0.200 F 
ENDBRANCH  74  97
ENDBRANCH  48  49
ENDBRANCH  41  43
ENDBRANCH  40  41
ENDBRANCH  39  40
ENDBRANCH  38  39
ENDBRANCH  37  38
ENDBRANCH  36  37
ENDBRANCH  35  36
ENDBRANCH  34  35
ENDBRANCH   1  34
TORSDOF 24
ENDMDL
MODEL 2
REMARK VINA RESULT:     -10.7      0.794      6.923
REMARK SMILES N#C/C(=C\c1ccc(-c2ccc(C(=O)OCCOCCOCCOCCOC(=O)c3ccc(-c4c5nc(c(-c6c(F)c(F)c(F)c(F)c6F)c6ccc([nH]6)c(-c6c(F)c(F)c(F)c(F)c6F)c6nc(c(-c7c(F)c(F)c(F)c(F)c7F)c7ccc4[nH]7)C=C6)C=C5)cc3)cc2)o1)[C@@H]1N=c2cc(Br)cnc2=N1
REMARK SMILES IDX 20 1 19 2 18 3 17 4 16 5 15 6 13 7 14 8 12 9 9 10 10 11
REMARK SMILES IDX 94 12 11 13 93 14 8 15 5 16 6 17 95 18 7 19 4 20 3 21 2 22
REMARK SMILES IDX 1 23 96 24 97 25 105 26 98 27 104 28 99 29 103 30 100 31
REMARK SMILES IDX 102 32 101 33 21 34 22 35 23 36 24 37 25 38 26 39 27 40
REMARK SMILES IDX 28 41 29 42 30 43 31 44 92 45 32 46 91 47 33 48 34 49 35 50
REMARK SMILES IDX 85 51 36 52 90 53 84 54 86 55 37 56 89 57 83 58 82 59 38 61
REMARK SMILES IDX 70 62 50 63 69 64 51 65 54 66 68 67 87 68 52 69 53 70 67 72
REMARK SMILES IDX 88 73 55 74 39 75 40 76 48 77 41 78 42 79 46 80 49 81 43 82
REMARK SMILES IDX 44 83 47 84 45 85 71 86 72 87 80 88 73 89 74 90 78 91 81 92
REMARK SMILES IDX 75 93 76 94 79 95 77 96 56 97 57 98 65 99 58 100 59 101
REMARK SMILES IDX 63 102 66 103 60 104 61 105 64 106 62 107
REMARK H PARENT 86 60 54 71
REMARK Flexibility Score: inf
ROOT
ATOM      1  C   UNL A   1      31.845  30.291  26.256  1.00  0.00     0.188 C 
ENDROOT
BRANCH   1   2
ATOM      2  C   UNL A   1      31.024  31.515  25.788  1.00  0.00     0.188 C 
BRANCH   2   3
ATOM      3  O   UNL A   1      30.174  31.280  24.686  1.00  0.00    -0.376 OA
BRANCH   3   4
ATOM      4  C   UNL A   1      29.323  32.275  24.159  1.00  0.00     0.202 C 
BRANCH   4   5
ATOM      5  C   UNL A   1      28.048  31.964  23.359  1.00  0.00     0.261 C 
BRANCH   5   6
ATOM      6  O   UNL A   1      27.732  30.589  23.146  1.00  0.00    -0.460 OA
BRANCH   6   7
ATOM      7  C   UNL A   1      28.241  30.031  22.026  1.00  0.00     0.338 C 
ATOM      8  O   UNL A   1      27.975  30.337  20.876  1.00  0.00    -0.246 OA
BRANCH   7   9
ATOM      9  C   UNL A   1      29.336  29.108  22.410  1.00  0.00     0.060 A 
ATOM     10  C   UNL A   1      31.368  27.436  23.356  1.00  0.00     0.017 A 
ATOM     11  C   UNL A   1      30.032  27.129  23.633  1.00  0.00     0.013 A 
ATOM     12  C   UNL A   1      31.666  28.506  22.494  1.00  0.00     0.013 A 
ATOM     13  C   UNL A   1      29.018  27.977  23.176  1.00  0.00     0.016 A 
ATOM     14  C   UNL A   1      30.654  29.337  22.013  1.00  0.00     0.016 A 
BRANCH  10  15
ATOM     15  C   UNL A   1      32.439  26.869  24.158  1.00  0.00     0.134 A 
ATOM     16  C   UNL A   1      33.639  25.254  25.099  1.00  0.00     0.128 A 
ATOM     17  C   UNL A   1      34.098  26.477  25.580  1.00  0.00     0.051 A 
ATOM     18  O   UNL A   1      32.613  25.517  24.201  1.00  0.00    -0.457 OA
ATOM     19  C   UNL A   1      33.332  27.494  24.993  1.00  0.00     0.051 A 
BRANCH  16  20
ATOM     20  C   UNL A   1      34.129  23.946  25.396  1.00  0.00     0.066 C 
ATOM     21  C   UNL A   1      33.520  23.095  26.250  1.00  0.00     0.080 C 
BRANCH  21  22
ATOM     22  C   UNL A   1      32.230  23.370  26.812  1.00  0.00     0.099 C 
ATOM     23  N   UNL A   1      31.201  23.619  27.276  1.00  0.00    -0.193 NA
ENDBRANCH  21  22
BRANCH  21  24
ATOM     24  C   UNL A   1      34.165  21.791  26.668  1.00  0.00     0.265 C 
ATOM     25  N   UNL A   1      34.997  21.240  25.560  1.00  0.00    -0.249 NA
ATOM     26  N   UNL A   1      33.112  20.815  27.065  1.00  0.00    -0.232 NA
ATOM     27  C   UNL A   1      34.443  20.099  25.342  1.00  0.00     0.106 A 
ATOM     28  C   UNL A   1      33.304  19.834  26.250  1.00  0.00     0.175 A 
ATOM     29  C   UNL A   1      34.772  19.075  24.354  1.00  0.00     0.049 A 
ATOM     30  N   UNL A   1      32.541  18.705  26.231  1.00  0.00    -0.234 NA
ATOM     31  C   UNL A   1      34.006  17.975  24.337  1.00  0.00     0.038 A 
ATOM     32  C   UNL A   1      32.880  17.847  25.320  1.00  0.00     0.129 A 
ATOM     33  Br  UNL A   1      34.277  16.576  23.143  1.00  0.00    -0.049 Br
ENDBRANCH  21  24
ENDBRANCH  16  20
ENDBRANCH  10  15
ENDBRANCH   7   9
ENDBRANCH   6   7
ENDBRANCH   5   6
ENDBRANCH   4   5
ENDBRANCH   3   4
ENDBRANCH   2   3
ENDBRANCH   1   2
BRANCH   1  34
ATOM     34  O   UNL A   1      32.836  30.438  27.262  1.00  0.00    -0.377 OA
BRANCH  34  35
ATOM     35  C   UNL A   1      33.338  31.724  27.602  1.00  0.00     0.188 C 
BRANCH  35  36
ATOM     36  C   UNL A   1      34.660  31.923  28.385  1.00  0.00     0.188 C 
BRANCH  36  37
ATOM     37  O   UNL A   1      34.886  33.233  28.856  1.00  0.00    -0.376 OA
BRANCH  37  38
ATOM     38  C   UNL A   1      35.214  33.471  30.207  1.00  0.00     0.202 C 
BRANCH  38  39
ATOM     39  C   UNL A   1      34.608  32.629  31.341  1.00  0.00     0.261 C 
BRANCH  39  40
ATOM     40  O   UNL A   1      35.348  31.489  31.785  1.00  0.00    -0.460 OA
BRANCH  40  41
ATOM     41  C   UNL A   1      36.440  31.723  32.544  1.00  0.00     0.338 C 
ATOM     42  O   UNL A   1      36.478  32.209  33.657  1.00  0.00    -0.246 OA
BRANCH  41  43
ATOM     43  C   UNL A   1      37.593  31.113  31.850  1.00  0.00     0.060 A 
ATOM     44  C   UNL A   1      38.868  31.185  32.431  1.00  0.00     0.016 A 
ATOM     45  C   UNL A   1      37.404  30.467  30.627  1.00  0.00     0.016 A 
ATOM     46  C   UNL A   1      39.968  30.639  31.770  1.00  0.00     0.010 A 
ATOM     47  C   UNL A   1      38.508  29.946  29.955  1.00  0.00     0.010 A 
ATOM     48  C   UNL A   1      39.799  30.066  30.504  1.00  0.00    -0.014 A 
BRANCH  48  49
ATOM     49  C   UNL A   1      40.974  29.806  29.641  1.00  0.00     0.031 A 
ATOM     50  C   UNL A   1      41.106  28.441  29.026  1.00  0.00     0.074 A 
ATOM     51  C   UNL A   1      41.908  30.743  29.417  1.00  0.00     0.049 A 
ATOM     52  N   UNL A   1      42.088  27.925  28.334  1.00  0.00    -0.248 NA
ATOM     53  C   UNL A   1      39.972  27.528  29.239  1.00  0.00     0.031 C 
ATOM     54  C   UNL A   1      41.862  32.117  29.906  1.00  0.00     0.029 A 
ATOM     55  N   UNL A   1      43.092  30.664  28.728  1.00  0.00    -0.354 N 
ATOM     56  C   UNL A   1      41.700  26.622  28.049  1.00  0.00     0.074 A 
ATOM     57  C   UNL A   1      40.413  26.415  28.679  1.00  0.00     0.031 C 
ATOM     58  C   UNL A   1      42.976  32.756  29.508  1.00  0.00     0.029 A 
ATOM     59  C   UNL A   1      43.831  31.819  28.777  1.00  0.00     0.049 A 
ATOM     60  H   UNL A   1      43.382  29.858  28.244  1.00  0.00     0.167 HD
ATOM     61  C   UNL A   1      42.354  25.686  27.322  1.00  0.00     0.037 A 
ATOM     62  C   UNL A   1      45.067  32.076  28.307  1.00  0.00     0.037 A 
ATOM     63  C   UNL A   1      43.641  25.899  26.715  1.00  0.00     0.049 A 
ATOM     64  C   UNL A   1      45.828  30.987  27.594  1.00  0.00     0.074 A 
ATOM     65  C   UNL A   1      44.391  25.025  25.950  1.00  0.00     0.029 A 
ATOM     66  N   UNL A   1      44.381  27.069  26.826  1.00  0.00    -0.354 N 
ATOM     67  N   UNL A   1      45.456  29.761  27.310  1.00  0.00    -0.248 NA
ATOM     68  C   UNL A   1      47.183  31.320  27.133  1.00  0.00     0.031 C 
ATOM     69  C   UNL A   1      45.617  25.635  25.667  1.00  0.00     0.029 A 
ATOM     70  C   UNL A   1      45.596  26.925  26.174  1.00  0.00     0.049 A 
ATOM     71  H   UNL A   1      44.087  27.881  27.298  1.00  0.00     0.167 HD
ATOM     72  C   UNL A   1      46.508  29.194  26.599  1.00  0.00     0.074 A 
ATOM     73  C   UNL A   1      47.535  30.210  26.498  1.00  0.00     0.031 C 
ATOM     74  C   UNL A   1      46.607  27.949  26.069  1.00  0.00     0.037 A 
BRANCH  61  75
ATOM     75  C   UNL A   1      41.706  24.333  27.205  1.00  0.00     0.064 A 
ATOM     76  C   UNL A   1      40.458  24.154  26.585  1.00  0.00     0.173 A 
ATOM     77  C   UNL A   1      42.330  23.200  27.750  1.00  0.00     0.173 A 
ATOM     78  F   UNL A   1      39.810  25.202  26.054  1.00  0.00    -0.203 F 
ATOM     79  C   UNL A   1      39.834  22.908  26.573  1.00  0.00     0.198 A 
ATOM     80  C   UNL A   1      41.724  21.948  27.694  1.00  0.00     0.198 A 
ATOM     81  F   UNL A   1      43.527  23.307  28.347  1.00  0.00    -0.203 F 
ATOM     82  F   UNL A   1      38.603  22.783  26.057  1.00  0.00    -0.200 F 
ATOM     83  C   UNL A   1      40.470  21.806  27.124  1.00  0.00     0.200 A 
ATOM     84  F   UNL A   1      42.350  20.881  28.210  1.00  0.00    -0.200 F 
ATOM     85  F   UNL A   1      39.865  20.610  27.119  1.00  0.00    -0.200 F 
ENDBRANCH  61  75
BRANCH  62  86
ATOM     86  C   UNL A   1      45.655  33.429  28.482  1.00  0.00     0.064 A 
ATOM     87  C   UNL A   1      45.508  34.406  27.488  1.00  0.00     0.173 A 
ATOM     88  C   UNL A   1      46.362  33.781  29.642  1.00  0.00     0.173 A 
ATOM     89  F   UNL A   1      44.863  34.110  26.350  1.00  0.00    -0.203 F 
ATOM     90  C   UNL A   1      46.053  35.679  27.642  1.00  0.00     0.198 A 
ATOM     91  C   UNL A   1      46.880  35.064  29.808  1.00  0.00     0.198 A 
ATOM     92  F   UNL A   1      46.533  32.882  30.622  1.00  0.00    -0.203 F 
ATOM     93  F   UNL A   1      45.930  36.580  26.659  1.00  0.00    -0.200 F 
ATOM     94  C   UNL A   1      46.730  36.010  28.807  1.00  0.00     0.200 A 
ATOM     95  F   UNL A   1      47.520  35.384  30.941  1.00  0.00    -0.200 F 
ATOM     96  F   UNL A   1      47.241  37.239  28.959  1.00  0.00    -0.200 F 
ENDBRANCH  62  86
BRANCH  74  97
ATOM     97  C   UNL A   1      47.839  27.624  25.267  1.00  0.00     0.064 A 
ATOM     98  C   UNL A   1      49.011  27.133  25.859  1.00  0.00     0.173 A 
ATOM     99  C   UNL A   1      47.817  27.750  23.868  1.00  0.00     0.173 A 
ATOM    100  F   UNL A   1      49.093  27.003  27.192  1.00  0.00    -0.203 F 
ATOM    101  C   UNL A   1      50.123  26.807  25.084  1.00  0.00     0.198 A 
ATOM    102  C   UNL A   1      48.915  27.386  23.094  1.00  0.00     0.198 A 
ATOM    103  F   UNL A   1      46.719  28.207  23.246  1.00  0.00    -0.203 F 
ATOM    104  F   UNL A   1      51.251  26.389  25.677  1.00  0.00    -0.200 F 
ATOM    105  C   UNL A   1      50.070  26.923  23.703  1.00  0.00     0.200 A 
ATOM    106  F   UNL A   1      48.852  27.477  21.758  1.00  0.00    -0.200 F 
ATOM    107  F   UNL A   1      51.135  26.592  22.959  1.00  0.00    -0.200 F 
ENDBRANCH  74  97
ENDBRANCH  48  49
ENDBRANCH  41  43
ENDBRANCH  40  41
ENDBRANCH  39  40
ENDBRANCH  38  39
ENDBRANCH  37  38
ENDBRANCH  36  37
ENDBRANCH  35  36
ENDBRANCH  34  35
ENDBRANCH   1  34
TORSDOF 24
ENDMDL
MODEL 3
REMARK VINA RESULT:     -10.4      5.027      7.279
REMARK SMILES N#C/C(=C\c1ccc(-c2ccc(C(=O)OCCOCCOCCOCCOC(=O)c3ccc(-c4c5nc(c(-c6c(F)c(F)c(F)c(F)c6F)c6ccc([nH]6)c(-c6c(F)c(F)c(F)c(F)c6F)c6nc(c(-c7c(F)c(F)c(F)c(F)c7F)c7ccc4[nH]7)C=C6)C=C5)cc3)cc2)o1)[C@@H]1N=c2cc(Br)cnc2=N1
REMARK SMILES IDX 20 1 19 2 18 3 17 4 16 5 15 6 13 7 14 8 12 9 9 10 10 11
REMARK SMILES IDX 94 12 11 13 93 14 8 15 5 16 6 17 95 18 7 19 4 20 3 21 2 22
REMARK SMILES IDX 1 23 96 24 97 25 105 26 98 27 104 28 99 29 103 30 100 31
REMARK SMILES IDX 102 32 101 33 21 34 22 35 23 36 24 37 25 38 26 39 27 40
REMARK SMILES IDX 28 41 29 42 30 43 31 44 92 45 32 46 91 47 33 48 34 49 35 50
REMARK SMILES IDX 85 51 36 52 90 53 84 54 86 55 37 56 89 57 83 58 82 59 38 61
REMARK SMILES IDX 70 62 50 63 69 64 51 65 54 66 68 67 87 68 52 69 53 70 67 72
REMARK SMILES IDX 88 73 55 74 39 75 40 76 48 77 41 78 42 79 46 80 49 81 43 82
REMARK SMILES IDX 44 83 47 84 45 85 71 86 72 87 80 88 73 89 74 90 78 91 81 92
REMARK SMILES IDX 75 93 76 94 79 95 77 96 56 97 57 98 65 99 58 100 59 101
REMARK SMILES IDX 63 102 66 103 60 104 61 105 64 106 62 107
REMARK H PARENT 86 60 54 71
REMARK Flexibility Score: inf
ROOT
ATOM      1  C   UNL A   1      32.483  30.454  26.905  1.00  0.00     0.188 C 
ENDROOT
BRANCH   1   2
ATOM      2  C   UNL A   1      31.497  31.550  26.438  1.00  0.00     0.188 C 
BRANCH   2   3
ATOM      3  O   UNL A   1      30.785  31.249  25.256  1.00  0.00    -0.376 OA
BRANCH   3   4
ATOM      4  C   UNL A   1      29.536  31.833  24.954  1.00  0.00     0.202 C 
BRANCH   4   5
ATOM      5  C   UNL A   1      29.037  32.074  23.521  1.00  0.00     0.261 C 
BRANCH   5   6
ATOM      6  O   UNL A   1      27.932  31.289  23.076  1.00  0.00    -0.460 OA
BRANCH   6   7
ATOM      7  C   UNL A   1      28.161  30.497  22.005  1.00  0.00     0.338 C 
ATOM      8  O   UNL A   1      27.743  30.667  20.873  1.00  0.00    -0.246 OA
BRANCH   7   9
ATOM      9  C   UNL A   1      29.175  29.481  22.374  1.00  0.00     0.060 A 
ATOM     10  C   UNL A   1      31.108  27.514  22.842  1.00  0.00     0.017 A 
ATOM     11  C   UNL A   1      31.479  28.726  22.251  1.00  0.00     0.013 A 
ATOM     12  C   UNL A   1      29.794  27.352  23.315  1.00  0.00     0.013 A 
ATOM     13  C   UNL A   1      30.509  29.701  22.000  1.00  0.00     0.016 A 
ATOM     14  C   UNL A   1      28.829  28.335  23.091  1.00  0.00     0.016 A 
BRANCH  10  15
ATOM     15  C   UNL A   1      31.952  26.339  22.713  1.00  0.00     0.134 A 
ATOM     16  C   UNL A   1      33.400  24.792  23.379  1.00  0.00     0.128 A 
ATOM     17  C   UNL A   1      33.186  24.632  22.013  1.00  0.00     0.051 A 
ATOM     18  O   UNL A   1      32.610  25.852  23.803  1.00  0.00    -0.457 OA
ATOM     19  C   UNL A   1      32.281  25.616  21.592  1.00  0.00     0.051 A 
BRANCH  16  20
ATOM     20  C   UNL A   1      34.222  24.007  24.244  1.00  0.00     0.066 C 
ATOM     21  C   UNL A   1      33.772  22.938  24.937  1.00  0.00     0.080 C 
BRANCH  21  22
ATOM     22  C   UNL A   1      32.460  22.395  24.735  1.00  0.00     0.099 C 
ATOM     23  N   UNL A   1      31.401  21.973  24.546  1.00  0.00    -0.193 NA
ENDBRANCH  21  22
BRANCH  21  24
ATOM     24  C   UNL A   1      34.630  22.243  25.972  1.00  0.00     0.265 C 
ATOM     25  N   UNL A   1      35.601  23.201  26.574  1.00  0.00    -0.249 NA
ATOM     26  N   UNL A   1      35.348  21.099  25.343  1.00  0.00    -0.232 NA
ATOM     27  C   UNL A   1      36.734  22.665  26.280  1.00  0.00     0.106 A 
ATOM     28  C   UNL A   1      36.588  21.392  25.538  1.00  0.00     0.175 A 
ATOM     29  C   UNL A   1      38.089  23.130  26.565  1.00  0.00     0.049 A 
ATOM     30  N   UNL A   1      37.626  20.624  25.102  1.00  0.00    -0.234 NA
ATOM     31  C   UNL A   1      39.100  22.372  26.119  1.00  0.00     0.038 A 
ATOM     32  C   UNL A   1      38.798  21.104  25.376  1.00  0.00     0.129 A 
ATOM     33  Br  UNL A   1      40.886  22.814  26.386  1.00  0.00    -0.049 Br
ENDBRANCH  21  24
ENDBRANCH  16  20
ENDBRANCH  10  15
ENDBRANCH   7   9
ENDBRANCH   6   7
ENDBRANCH   5   6
ENDBRANCH   4   5
ENDBRANCH   3   4
ENDBRANCH   2   3
ENDBRANCH   1   2
BRANCH   1  34
ATOM     34  O   UNL A   1      33.502  30.765  27.844  1.00  0.00    -0.377 OA
BRANCH  34  35
ATOM     35  C   UNL A   1      34.382  31.860  27.623  1.00  0.00     0.188 C 
BRANCH  35  36
ATOM     36  C   UNL A   1      34.640  32.952  28.690  1.00  0.00     0.188 C 
BRANCH  36  37
ATOM     37  O   UNL A   1      35.086  34.191  28.185  1.00  0.00    -0.376 OA
BRANCH  37  38
ATOM     38  C   UNL A   1      34.402  35.386  28.489  1.00  0.00     0.202 C 
BRANCH  38  39
ATOM     39  C   UNL A   1      32.905  35.389  28.835  1.00  0.00     0.261 C 
BRANCH  39  40
ATOM     40  O   UNL A   1      32.528  34.944  30.141  1.00  0.00    -0.460 OA
BRANCH  40  41
ATOM     41  C   UNL A   1      32.905  35.713  31.185  1.00  0.00     0.338 C 
ATOM     42  O   UNL A   1      32.374  36.731  31.585  1.00  0.00    -0.246 OA
BRANCH  41  43
ATOM     43  C   UNL A   1      33.994  34.999  31.883  1.00  0.00     0.060 A 
ATOM     44  C   UNL A   1      35.222  35.644  32.091  1.00  0.00     0.016 A 
ATOM     45  C   UNL A   1      33.790  33.694  32.333  1.00  0.00     0.016 A 
ATOM     46  C   UNL A   1      36.267  34.969  32.722  1.00  0.00     0.010 A 
ATOM     47  C   UNL A   1      34.843  33.011  32.939  1.00  0.00     0.010 A 
ATOM     48  C   UNL A   1      36.096  33.631  33.099  1.00  0.00    -0.014 A 
BRANCH  48  49
ATOM     49  C   UNL A   1      37.273  32.798  33.438  1.00  0.00     0.031 A 
ATOM     50  C   UNL A   1      37.958  33.050  34.751  1.00  0.00     0.074 A 
ATOM     51  C   UNL A   1      37.734  31.853  32.603  1.00  0.00     0.049 A 
ATOM     52  N   UNL A   1      39.065  32.544  35.230  1.00  0.00    -0.248 NA
ATOM     53  C   UNL A   1      37.305  34.024  35.640  1.00  0.00     0.031 C 
ATOM     54  C   UNL A   1      37.123  31.475  31.334  1.00  0.00     0.029 A 
ATOM     55  N   UNL A   1      38.844  31.052  32.702  1.00  0.00    -0.354 N 
ATOM     56  C   UNL A   1      39.251  33.154  36.463  1.00  0.00     0.074 A 
ATOM     57  C   UNL A   1      38.167  34.097  36.639  1.00  0.00     0.031 C 
ATOM     58  C   UNL A   1      37.872  30.516  30.762  1.00  0.00     0.029 A 
ATOM     59  C   UNL A   1      39.037  30.249  31.606  1.00  0.00     0.049 A 
ATOM     60  H   UNL A   1      39.441  31.051  33.484  1.00  0.00     0.167 HD
ATOM     61  C   UNL A   1      40.234  32.943  37.371  1.00  0.00     0.037 A 
ATOM     62  C   UNL A   1      40.055  29.418  31.312  1.00  0.00     0.037 A 
ATOM     63  C   UNL A   1      41.316  32.015  37.176  1.00  0.00     0.049 A 
ATOM     64  C   UNL A   1      41.199  29.275  32.285  1.00  0.00     0.074 A 
ATOM     65  C   UNL A   1      42.360  31.714  38.031  1.00  0.00     0.029 A 
ATOM     66  N   UNL A   1      41.505  31.252  36.031  1.00  0.00    -0.354 N 
ATOM     67  N   UNL A   1      41.368  29.838  33.458  1.00  0.00    -0.248 NA
ATOM     68  C   UNL A   1      42.293  28.376  31.892  1.00  0.00     0.031 C 
ATOM     69  C   UNL A   1      43.223  30.831  37.373  1.00  0.00     0.029 A 
ATOM     70  C   UNL A   1      42.669  30.509  36.143  1.00  0.00     0.049 A 
ATOM     71  H   UNL A   1      40.901  31.241  35.253  1.00  0.00     0.167 HD
ATOM     72  C   UNL A   1      42.559  29.329  33.961  1.00  0.00     0.074 A 
ATOM     73  C   UNL A   1      43.073  28.412  32.965  1.00  0.00     0.031 C 
ATOM     74  C   UNL A   1      43.165  29.589  35.148  1.00  0.00     0.037 A 
BRANCH  61  75
ATOM     75  C   UNL A   1      40.205  33.779  38.620  1.00  0.00     0.064 A 
ATOM     76  C   UNL A   1      40.981  34.942  38.759  1.00  0.00     0.173 A 
ATOM     77  C   UNL A   1      39.412  33.393  39.712  1.00  0.00     0.173 A 
ATOM     78  F   UNL A   1      41.767  35.356  37.753  1.00  0.00    -0.203 F 
ATOM     79  C   UNL A   1      41.010  35.648  39.961  1.00  0.00     0.198 A 
ATOM     80  C   UNL A   1      39.408  34.127  40.895  1.00  0.00     0.198 A 
ATOM     81  F   UNL A   1      38.643  32.296  39.636  1.00  0.00    -0.203 F 
ATOM     82  F   UNL A   1      41.829  36.700  40.097  1.00  0.00    -0.200 F 
ATOM     83  C   UNL A   1      40.221  35.241  41.026  1.00  0.00     0.200 A 
ATOM     84  F   UNL A   1      38.629  33.743  41.915  1.00  0.00    -0.200 F 
ATOM     85  F   UNL A   1      40.257  35.915  42.184  1.00  0.00    -0.200 F 
ENDBRANCH  61  75
BRANCH  62  86
ATOM     86  C   UNL A   1      40.030  28.641  30.045  1.00  0.00     0.064 A 
ATOM     87  C   UNL A   1      40.617  29.155  28.881  1.00  0.00     0.173 A 
ATOM     88  C   UNL A   1      39.436  27.373  29.970  1.00  0.00     0.173 A 
ATOM     89  F   UNL A   1      41.176  30.375  28.895  1.00  0.00    -0.203 F 
ATOM     90  C   UNL A   1      40.603  28.436  27.687  1.00  0.00     0.198 A 
ATOM     91  C   UNL A   1      39.449  26.641  28.784  1.00  0.00     0.198 A 
ATOM     92  F   UNL A   1      38.858  26.837  31.055  1.00  0.00    -0.203 F 
ATOM     93  F   UNL A   1      41.137  28.968  26.581  1.00  0.00    -0.200 F 
ATOM     94  C   UNL A   1      40.027  27.175  27.643  1.00  0.00     0.200 A 
ATOM     95  F   UNL A   1      38.905  25.417  28.750  1.00  0.00    -0.200 F 
ATOM     96  F   UNL A   1      40.026  26.478  26.500  1.00  0.00    -0.200 F 
ENDBRANCH  62  86
BRANCH  74  97
ATOM     97  C   UNL A   1      44.420  28.825  35.477  1.00  0.00     0.064 A 
ATOM     98  C   UNL A   1      44.392  27.576  36.115  1.00  0.00     0.173 A 
ATOM     99  C   UNL A   1      45.671  29.330  35.085  1.00  0.00     0.173 A 
ATOM    100  F   UNL A   1      43.227  27.050  36.521  1.00  0.00    -0.203 F 
ATOM    101  C   UNL A   1      45.570  26.877  36.373  1.00  0.00     0.198 A 
ATOM    102  C   UNL A   1      46.841  28.611  35.308  1.00  0.00     0.198 A 
ATOM    103  F   UNL A   1      45.757  30.516  34.462  1.00  0.00    -0.203 F 
ATOM    104  F   UNL A   1      45.523  25.710  37.031  1.00  0.00    -0.200 F 
ATOM    105  C   UNL A   1      46.791  27.389  35.959  1.00  0.00     0.200 A 
ATOM    106  F   UNL A   1      48.016  29.098  34.886  1.00  0.00    -0.200 F 
ATOM    107  F   UNL A   1      47.921  26.707  36.193  1.00  0.00    -0.200 F 
ENDBRANCH  74  97
ENDBRANCH  48  49
ENDBRANCH  41  43
ENDBRANCH  40  41
ENDBRANCH  39  40
ENDBRANCH  38  39
ENDBRANCH  37  38
ENDBRANCH  36  37
ENDBRANCH  35  36
ENDBRANCH  34  35
ENDBRANCH   1  34
TORSDOF 24
ENDMDL
