MODEL 1
REMARK VINA RESULT:     -10.5      0.000      0.000
REMARK SMILES CCCCNC(=O)c1c(Cl)c(Cl)c(Cl)c(Cl)c1C(=O)OCCOCCOCCOCCOC(=O)c1ccc(-c2c3nc(c(-c4c(F)c(F)c(F)c(F)c4F)c4ccc([nH]4)c(-c4c(F)c(F)c(F)c(F)c4F)c4nc(c(-c5c(F)c(F)c(F)c(F)c5F)c5ccc2[nH]5)C=C4)C=C3)cc1
REMARK SMILES IDX 25 1 24 2 23 3 22 4 21 5 20 6 18 7 19 8 17 9 8 10 9 11 10 12
REMARK SMILES IDX 11 13 15 14 12 15 13 16 16 17 14 18 6 19 5 20 7 22 4 23 3 24
REMARK SMILES IDX 2 25 1 26 26 27 27 28 28 29 29 30 30 31 31 32 32 33 33 34
REMARK SMILES IDX 34 35 35 36 36 37 97 38 37 39 96 40 38 41 39 42 40 43 90 44
REMARK SMILES IDX 41 45 95 46 89 47 91 48 42 49 94 50 88 51 87 52 43 54 75 55
REMARK SMILES IDX 55 56 74 57 56 58 59 59 73 60 92 61 57 62 58 63 72 65 93 66
REMARK SMILES IDX 60 67 44 68 45 69 53 70 46 71 47 72 51 73 54 74 48 75 49 76
REMARK SMILES IDX 52 77 50 78 76 79 77 80 85 81 78 82 79 83 83 84 86 85 80 86
REMARK SMILES IDX 81 87 84 88 82 89 61 90 62 91 70 92 63 93 64 94 68 95 71 96
REMARK SMILES IDX 65 97 66 98 69 99 67 100
REMARK H PARENT 5 21 91 53 59 64
REMARK Flexibility Score: inf
ROOT
ATOM      1  C   UNL A   1      34.379  34.466  28.508  1.00  0.00     0.188 C 
ENDROOT
BRANCH   1   2
ATOM      2  C   UNL A   1      33.518  33.294  27.986  1.00  0.00     0.188 C 
BRANCH   2   3
ATOM      3  O   UNL A   1      33.995  32.005  28.338  1.00  0.00    -0.376 OA
BRANCH   3   4
ATOM      4  C   UNL A   1      33.459  30.907  27.615  1.00  0.00     0.202 C 
BRANCH   4   5
ATOM      5  C   UNL A   1      32.454  31.254  26.509  1.00  0.00     0.261 C 
BRANCH   5   6
ATOM      6  O   UNL A   1      31.914  30.097  25.850  1.00  0.00    -0.460 OA
BRANCH   6   7
ATOM      7  C   UNL A   1      32.787  29.163  25.436  1.00  0.00     0.340 C 
ATOM      8  O   UNL A   1      33.997  29.174  25.579  1.00  0.00    -0.246 OA
BRANCH   7   9
ATOM      9  C   UNL A   1      32.055  28.007  24.869  1.00  0.00     0.094 A 
ATOM     10  C   UNL A   1      32.065  27.739  23.487  1.00  0.00     0.076 A 
ATOM     11  C   UNL A   1      31.704  26.460  23.037  1.00  0.00     0.074 A 
ATOM     12  Cl  UNL A   1      32.176  25.935  21.445  1.00  0.00    -0.082 Cl
ATOM     13  C   UNL A   1      31.047  25.570  23.903  1.00  0.00     0.080 A 
ATOM     14  C   UNL A   1      31.427  27.104  25.751  1.00  0.00     0.076 A 
ATOM     15  Cl  UNL A   1      30.443  24.054  23.296  1.00  0.00    -0.081 Cl
ATOM     16  C   UNL A   1      30.856  25.920  25.250  1.00  0.00     0.080 A 
ATOM     17  Cl  UNL A   1      31.291  27.466  27.449  1.00  0.00    -0.082 Cl
ATOM     18  Cl  UNL A   1      29.920  24.885  26.295  1.00  0.00    -0.081 Cl
BRANCH  10  19
ATOM     19  C   UNL A   1      32.415  28.809  22.521  1.00  0.00     0.253 C 
ATOM     20  N   UNL A   1      31.432  29.647  22.026  1.00  0.00    -0.352 N 
ATOM     21  H   UNL A   1      31.766  30.432  21.536  1.00  0.00     0.163 HD
ATOM     22  O   UNL A   1      33.590  28.967  22.208  1.00  0.00    -0.269 OA
BRANCH  20  23
ATOM     23  C   UNL A   1      29.977  29.549  22.117  1.00  0.00     0.116 C 
BRANCH  23  24
ATOM     24  C   UNL A   1      29.358  30.067  23.415  1.00  0.00     0.021 C 
BRANCH  24  25
ATOM     25  C   UNL A   1      27.884  30.475  23.353  1.00  0.00    -0.002 C 
ATOM     26  C   UNL A   1      27.654  31.952  23.066  1.00  0.00     0.004 C 
ENDBRANCH  24  25
ENDBRANCH  23  24
ENDBRANCH  20  23
ENDBRANCH  10  19
ENDBRANCH   7   9
ENDBRANCH   6   7
ENDBRANCH   5   6
ENDBRANCH   4   5
ENDBRANCH   3   4
ENDBRANCH   2   3
ENDBRANCH   1   2
BRANCH   1  27
ATOM     27  O   UNL A   1      34.053  35.801  28.145  1.00  0.00    -0.377 OA
BRANCH  27  28
ATOM     28  C   UNL A   1      33.476  36.670  29.117  1.00  0.00     0.188 C 
BRANCH  28  29
ATOM     29  C   UNL A   1      32.900  36.099  30.433  1.00  0.00     0.188 C 
BRANCH  29  30
ATOM     30  O   UNL A   1      33.625  36.468  31.596  1.00  0.00    -0.376 OA
BRANCH  30  31
ATOM     31  C   UNL A   1      33.849  35.452  32.559  1.00  0.00     0.202 C 
BRANCH  31  32
ATOM     32  C   UNL A   1      35.288  34.930  32.664  1.00  0.00     0.261 C 
BRANCH  32  33
ATOM     33  O   UNL A   1      35.741  34.104  31.576  1.00  0.00    -0.460 OA
BRANCH  33  34
ATOM     34  C   UNL A   1      35.479  32.780  31.631  1.00  0.00     0.338 C 
ATOM     35  O   UNL A   1      34.413  32.242  31.875  1.00  0.00    -0.246 OA
BRANCH  34  36
ATOM     36  C   UNL A   1      36.690  32.083  31.153  1.00  0.00     0.060 A 
ATOM     37  C   UNL A   1      37.471  31.348  32.056  1.00  0.00     0.016 A 
ATOM     38  C   UNL A   1      37.019  32.116  29.797  1.00  0.00     0.016 A 
ATOM     39  C   UNL A   1      38.585  30.638  31.600  1.00  0.00     0.010 A 
ATOM     40  C   UNL A   1      38.147  31.429  29.347  1.00  0.00     0.010 A 
ATOM     41  C   UNL A   1      38.941  30.696  30.246  1.00  0.00    -0.014 A 
BRANCH  41  42
ATOM     42  C   UNL A   1      40.219  30.113  29.770  1.00  0.00     0.031 A 
ATOM     43  C   UNL A   1      41.421  31.009  29.675  1.00  0.00     0.074 A 
ATOM     44  C   UNL A   1      40.301  28.824  29.395  1.00  0.00     0.049 A 
ATOM     45  N   UNL A   1      42.593  30.775  29.145  1.00  0.00    -0.248 NA
ATOM     46  C   UNL A   1      41.279  32.354  30.256  1.00  0.00     0.031 C 
ATOM     47  C   UNL A   1      39.220  27.846  29.486  1.00  0.00     0.029 A 
ATOM     48  N   UNL A   1      41.343  28.126  28.833  1.00  0.00    -0.354 N 
ATOM     49  C   UNL A   1      43.328  31.938  29.328  1.00  0.00     0.074 A 
ATOM     50  C   UNL A   1      42.462  32.889  29.993  1.00  0.00     0.031 C 
ATOM     51  C   UNL A   1      39.644  26.680  28.966  1.00  0.00     0.029 A 
ATOM     52  C   UNL A   1      41.009  26.845  28.466  1.00  0.00     0.049 A 
ATOM     53  H   UNL A   1      42.241  28.506  28.706  1.00  0.00     0.167 HD
ATOM     54  C   UNL A   1      44.612  32.187  28.982  1.00  0.00     0.037 A 
ATOM     55  C   UNL A   1      41.710  25.930  27.766  1.00  0.00     0.037 A 
ATOM     56  C   UNL A   1      45.465  31.244  28.309  1.00  0.00     0.049 A 
ATOM     57  C   UNL A   1      43.101  26.276  27.286  1.00  0.00     0.074 A 
ATOM     58  C   UNL A   1      46.781  31.403  27.913  1.00  0.00     0.029 A 
ATOM     59  N   UNL A   1      45.082  29.968  27.928  1.00  0.00    -0.354 N 
ATOM     60  N   UNL A   1      43.797  27.371  27.477  1.00  0.00    -0.248 NA
ATOM     61  C   UNL A   1      43.800  25.261  26.482  1.00  0.00     0.031 C 
ATOM     62  C   UNL A   1      47.179  30.241  27.245  1.00  0.00     0.029 A 
ATOM     63  C   UNL A   1      46.128  29.338  27.272  1.00  0.00     0.049 A 
ATOM     64  H   UNL A   1      44.198  29.568  28.096  1.00  0.00     0.167 HD
ATOM     65  C   UNL A   1      45.016  27.167  26.842  1.00  0.00     0.074 A 
ATOM     66  C   UNL A   1      44.976  25.835  26.277  1.00  0.00     0.031 C 
ATOM     67  C   UNL A   1      46.073  28.007  26.727  1.00  0.00     0.037 A 
BRANCH  54  68
ATOM     68  C   UNL A   1      45.175  33.538  29.310  1.00  0.00     0.064 A 
ATOM     69  C   UNL A   1      45.866  33.769  30.508  1.00  0.00     0.173 A 
ATOM     70  C   UNL A   1      45.081  34.591  28.390  1.00  0.00     0.173 A 
ATOM     71  F   UNL A   1      45.970  32.797  31.426  1.00  0.00    -0.203 F 
ATOM     72  C   UNL A   1      46.434  35.012  30.777  1.00  0.00     0.198 A 
ATOM     73  C   UNL A   1      45.673  35.824  28.650  1.00  0.00     0.198 A 
ATOM     74  F   UNL A   1      44.432  34.420  27.228  1.00  0.00    -0.203 F 
ATOM     75  F   UNL A   1      47.064  35.221  31.941  1.00  0.00    -0.200 F 
ATOM     76  C   UNL A   1      46.346  36.034  29.844  1.00  0.00     0.200 A 
ATOM     77  F   UNL A   1      45.599  36.807  27.742  1.00  0.00    -0.200 F 
ATOM     78  F   UNL A   1      46.909  37.223  30.097  1.00  0.00    -0.200 F 
ENDBRANCH  54  68
BRANCH  55  79
ATOM     79  C   UNL A   1      41.102  24.618  27.414  1.00  0.00     0.064 A 
ATOM     80  C   UNL A   1      40.054  24.528  26.485  1.00  0.00     0.173 A 
ATOM     81  C   UNL A   1      41.507  23.435  28.050  1.00  0.00     0.173 A 
ATOM     82  F   UNL A   1      39.608  25.635  25.872  1.00  0.00    -0.203 F 
ATOM     83  C   UNL A   1      39.416  23.316  26.233  1.00  0.00     0.198 A 
ATOM     84  C   UNL A   1      40.890  22.217  27.772  1.00  0.00     0.198 A 
ATOM     85  F   UNL A   1      42.496  23.462  28.955  1.00  0.00    -0.203 F 
ATOM     86  F   UNL A   1      38.370  23.274  25.395  1.00  0.00    -0.200 F 
ATOM     87  C   UNL A   1      39.835  22.160  26.874  1.00  0.00     0.200 A 
ATOM     88  F   UNL A   1      41.304  21.102  28.391  1.00  0.00    -0.200 F 
ATOM     89  F   UNL A   1      39.212  20.997  26.642  1.00  0.00    -0.200 F 
ENDBRANCH  55  79
BRANCH  67  90
ATOM     90  C   UNL A   1      47.281  27.512  25.985  1.00  0.00     0.064 A 
ATOM     91  C   UNL A   1      47.404  27.670  24.597  1.00  0.00     0.173 A 
ATOM     92  C   UNL A   1      48.355  26.932  26.678  1.00  0.00     0.173 A 
ATOM     93  F   UNL A   1      46.399  28.206  23.887  1.00  0.00    -0.203 F 
ATOM     94  C   UNL A   1      48.551  27.251  23.928  1.00  0.00     0.198 A 
ATOM     95  C   UNL A   1      49.513  26.543  26.010  1.00  0.00     0.198 A 
ATOM     96  F   UNL A   1      48.292  26.766  28.008  1.00  0.00    -0.203 F 
ATOM     97  F   UNL A   1      48.631  27.378  22.596  1.00  0.00    -0.200 F 
ATOM     98  C   UNL A   1      49.608  26.698  24.636  1.00  0.00     0.200 A 
ATOM     99  F   UNL A   1      50.540  26.025  26.698  1.00  0.00    -0.200 F 
ATOM    100  F   UNL A   1      50.718  26.311  23.992  1.00  0.00    -0.200 F 
ENDBRANCH  67  90
ENDBRANCH  41  42
ENDBRANCH  34  36
ENDBRANCH  33  34
ENDBRANCH  32  33
ENDBRANCH  31  32
ENDBRANCH  30  31
ENDBRANCH  29  30
ENDBRANCH  28  29
ENDBRANCH  27  28
ENDBRANCH   1  27
TORSDOF 24
ENDMDL
MODEL 2
REMARK VINA RESULT:      -9.8      1.600      2.954
REMARK SMILES CCCCNC(=O)c1c(Cl)c(Cl)c(Cl)c(Cl)c1C(=O)OCCOCCOCCOCCOC(=O)c1ccc(-c2c3nc(c(-c4c(F)c(F)c(F)c(F)c4F)c4ccc([nH]4)c(-c4c(F)c(F)c(F)c(F)c4F)c4nc(c(-c5c(F)c(F)c(F)c(F)c5F)c5ccc2[nH]5)C=C4)C=C3)cc1
REMARK SMILES IDX 25 1 24 2 23 3 22 4 21 5 20 6 18 7 19 8 17 9 8 10 9 11 10 12
REMARK SMILES IDX 11 13 15 14 12 15 13 16 16 17 14 18 6 19 5 20 7 22 4 23 3 24
REMARK SMILES IDX 2 25 1 26 26 27 27 28 28 29 29 30 30 31 31 32 32 33 33 34
REMARK SMILES IDX 34 35 35 36 36 37 97 38 37 39 96 40 38 41 39 42 40 43 90 44
REMARK SMILES IDX 41 45 95 46 89 47 91 48 42 49 94 50 88 51 87 52 43 54 75 55
REMARK SMILES IDX 55 56 74 57 56 58 59 59 73 60 92 61 57 62 58 63 72 65 93 66
REMARK SMILES IDX 60 67 44 68 45 69 53 70 46 71 47 72 51 73 54 74 48 75 49 76
REMARK SMILES IDX 52 77 50 78 76 79 77 80 85 81 78 82 79 83 83 84 86 85 80 86
REMARK SMILES IDX 81 87 84 88 82 89 61 90 62 91 70 92 63 93 64 94 68 95 71 96
REMARK SMILES IDX 65 97 66 98 69 99 67 100
REMARK H PARENT 5 21 91 53 59 64
REMARK Flexibility Score: inf
ROOT
ATOM      1  C   UNL A   1      31.635  32.355  26.546  1.00  0.00     0.188 C 
ENDROOT
BRANCH   1   2
ATOM      2  C   UNL A   1      32.478  31.077  26.746  1.00  0.00     0.188 C 
BRANCH   2   3
ATOM      3  O   UNL A   1      32.600  30.259  25.593  1.00  0.00    -0.376 OA
BRANCH   3   4
ATOM      4  C   UNL A   1      33.646  29.299  25.598  1.00  0.00     0.202 C 
BRANCH   4   5
ATOM      5  C   UNL A   1      33.418  28.048  24.739  1.00  0.00     0.261 C 
BRANCH   5   6
ATOM      6  O   UNL A   1      34.150  28.068  23.504  1.00  0.00    -0.460 OA
BRANCH   6   7
ATOM      7  C   UNL A   1      33.539  27.559  22.420  1.00  0.00     0.340 C 
ATOM      8  O   UNL A   1      34.027  27.383  21.317  1.00  0.00    -0.246 OA
BRANCH   7   9
ATOM      9  C   UNL A   1      32.176  27.101  22.779  1.00  0.00     0.094 A 
ATOM     10  C   UNL A   1      31.934  25.776  23.188  1.00  0.00     0.076 A 
ATOM     11  C   UNL A   1      30.747  25.481  23.878  1.00  0.00     0.074 A 
ATOM     12  Cl  UNL A   1      30.632  24.024  24.824  1.00  0.00    -0.082 Cl
ATOM     13  C   UNL A   1      29.689  26.406  23.880  1.00  0.00     0.080 A 
ATOM     14  C   UNL A   1      31.130  28.045  22.810  1.00  0.00     0.076 A 
ATOM     15  Cl  UNL A   1      28.157  25.969  24.583  1.00  0.00    -0.081 Cl
ATOM     16  C   UNL A   1      29.863  27.669  23.292  1.00  0.00     0.080 A 
ATOM     17  Cl  UNL A   1      31.366  29.658  22.197  1.00  0.00    -0.082 Cl
ATOM     18  Cl  UNL A   1      28.515  28.766  23.168  1.00  0.00    -0.081 Cl
BRANCH  10  19
ATOM     19  C   UNL A   1      32.902  24.703  22.859  1.00  0.00     0.253 C 
ATOM     20  N   UNL A   1      33.806  24.266  23.812  1.00  0.00    -0.352 N 
ATOM     21  H   UNL A   1      34.288  23.441  23.578  1.00  0.00     0.163 HD
ATOM     22  O   UNL A   1      32.858  24.179  21.752  1.00  0.00    -0.269 OA
BRANCH  20  23
ATOM     23  C   UNL A   1      34.156  24.838  25.110  1.00  0.00     0.116 C 
BRANCH  23  24
ATOM     24  C   UNL A   1      34.625  23.841  26.169  1.00  0.00     0.021 C 
BRANCH  24  25
ATOM     25  C   UNL A   1      34.331  22.364  25.892  1.00  0.00    -0.002 C 
ATOM     26  C   UNL A   1      33.478  21.685  26.955  1.00  0.00     0.004 C 
ENDBRANCH  24  25
ENDBRANCH  23  24
ENDBRANCH  20  23
ENDBRANCH  10  19
ENDBRANCH   7   9
ENDBRANCH   6   7
ENDBRANCH   5   6
ENDBRANCH   4   5
ENDBRANCH   3   4
ENDBRANCH   2   3
ENDBRANCH   1   2
BRANCH   1  27
ATOM     27  O   UNL A   1      31.798  33.457  27.428  1.00  0.00    -0.377 OA
BRANCH  27  28
ATOM     28  C   UNL A   1      33.059  33.667  28.059  1.00  0.00     0.188 C 
BRANCH  28  29
ATOM     29  C   UNL A   1      33.292  34.911  28.948  1.00  0.00     0.188 C 
BRANCH  29  30
ATOM     30  O   UNL A   1      32.970  34.720  30.316  1.00  0.00    -0.376 OA
BRANCH  30  31
ATOM     31  C   UNL A   1      33.846  35.304  31.267  1.00  0.00     0.202 C 
BRANCH  31  32
ATOM     32  C   UNL A   1      35.305  34.831  31.216  1.00  0.00     0.261 C 
BRANCH  32  33
ATOM     33  O   UNL A   1      35.658  33.776  32.127  1.00  0.00    -0.460 OA
BRANCH  33  34
ATOM     34  C   UNL A   1      35.306  32.512  31.804  1.00  0.00     0.338 C 
ATOM     35  O   UNL A   1      34.184  32.040  31.760  1.00  0.00    -0.246 OA
BRANCH  34  36
ATOM     36  C   UNL A   1      36.529  31.835  31.325  1.00  0.00     0.060 A 
ATOM     37  C   UNL A   1      37.434  31.298  32.251  1.00  0.00     0.016 A 
ATOM     38  C   UNL A   1      36.748  31.689  29.955  1.00  0.00     0.016 A 
ATOM     39  C   UNL A   1      38.562  30.605  31.804  1.00  0.00     0.010 A 
ATOM     40  C   UNL A   1      37.889  31.020  29.509  1.00  0.00     0.010 A 
ATOM     41  C   UNL A   1      38.807  30.485  30.429  1.00  0.00    -0.014 A 
BRANCH  41  42
ATOM     42  C   UNL A   1      40.086  29.926  29.930  1.00  0.00     0.031 A 
ATOM     43  C   UNL A   1      41.260  30.851  29.779  1.00  0.00     0.074 A 
ATOM     44  C   UNL A   1      40.193  28.631  29.583  1.00  0.00     0.049 A 
ATOM     45  N   UNL A   1      42.422  30.637  29.221  1.00  0.00    -0.248 NA
ATOM     46  C   UNL A   1      41.097  32.205  30.333  1.00  0.00     0.031 C 
ATOM     47  C   UNL A   1      39.143  27.626  29.727  1.00  0.00     0.029 A 
ATOM     48  N   UNL A   1      41.238  27.948  29.006  1.00  0.00    -0.354 N 
ATOM     49  C   UNL A   1      43.129  31.824  29.356  1.00  0.00     0.074 A 
ATOM     50  C   UNL A   1      42.256  32.766  30.023  1.00  0.00     0.031 C 
ATOM     51  C   UNL A   1      39.585  26.460  29.222  1.00  0.00     0.029 A 
ATOM     52  C   UNL A   1      40.929  26.650  28.679  1.00  0.00     0.049 A 
ATOM     53  H   UNL A   1      42.121  28.350  28.845  1.00  0.00     0.167 HD
ATOM     54  C   UNL A   1      44.395  32.099  28.966  1.00  0.00     0.037 A 
ATOM     55  C   UNL A   1      41.636  25.739  27.980  1.00  0.00     0.037 A 
ATOM     56  C   UNL A   1      45.255  31.164  28.291  1.00  0.00     0.049 A 
ATOM     57  C   UNL A   1      43.002  26.111  27.452  1.00  0.00     0.074 A 
ATOM     58  C   UNL A   1      46.554  31.349  27.853  1.00  0.00     0.029 A 
ATOM     59  N   UNL A   1      44.897  29.869  27.951  1.00  0.00    -0.354 N 
ATOM     60  N   UNL A   1      43.672  27.228  27.598  1.00  0.00    -0.248 NA
ATOM     61  C   UNL A   1      43.706  25.096  26.651  1.00  0.00     0.031 C 
ATOM     62  C   UNL A   1      46.965  30.183  27.201  1.00  0.00     0.029 A 
ATOM     63  C   UNL A   1      45.941  29.253  27.279  1.00  0.00     0.049 A 
ATOM     64  H   UNL A   1      44.030  29.450  28.154  1.00  0.00     0.167 HD
ATOM     65  C   UNL A   1      44.879  27.042  26.932  1.00  0.00     0.074 A 
ATOM     66  C   UNL A   1      44.859  25.697  26.399  1.00  0.00     0.031 C 
ATOM     67  C   UNL A   1      45.908  27.908  26.767  1.00  0.00     0.037 A 
BRANCH  54  68
ATOM     68  C   UNL A   1      44.930  33.472  29.247  1.00  0.00     0.064 A 
ATOM     69  C   UNL A   1      45.633  33.754  30.427  1.00  0.00     0.173 A 
ATOM     70  C   UNL A   1      44.795  34.496  28.299  1.00  0.00     0.173 A 
ATOM     71  F   UNL A   1      45.775  32.812  31.371  1.00  0.00    -0.203 F 
ATOM     72  C   UNL A   1      46.174  35.018  30.651  1.00  0.00     0.198 A 
ATOM     73  C   UNL A   1      45.361  35.750  28.514  1.00  0.00     0.198 A 
ATOM     74  F   UNL A   1      44.133  34.275  27.153  1.00  0.00    -0.203 F 
ATOM     75  F   UNL A   1      46.816  35.276  31.799  1.00  0.00    -0.200 F 
ATOM     76  C   UNL A   1      46.046  36.011  29.691  1.00  0.00     0.200 A 
ATOM     77  F   UNL A   1      45.248  36.704  27.580  1.00  0.00    -0.200 F 
ATOM     78  F   UNL A   1      46.583  37.220  29.901  1.00  0.00    -0.200 F 
ENDBRANCH  54  68
BRANCH  55  79
ATOM     79  C   UNL A   1      41.055  24.402  27.675  1.00  0.00     0.064 A 
ATOM     80  C   UNL A   1      41.588  23.233  28.238  1.00  0.00     0.173 A 
ATOM     81  C   UNL A   1      40.000  24.260  26.761  1.00  0.00     0.173 A 
ATOM     82  F   UNL A   1      42.618  23.311  29.092  1.00  0.00    -0.203 F 
ATOM     83  C   UNL A   1      41.111  21.975  27.872  1.00  0.00     0.198 A 
ATOM     84  C   UNL A   1      39.502  23.004  26.422  1.00  0.00     0.198 A 
ATOM     85  F   UNL A   1      39.458  25.343  26.185  1.00  0.00    -0.203 F 
ATOM     86  F   UNL A   1      41.688  20.873  28.370  1.00  0.00    -0.200 F 
ATOM     87  C   UNL A   1      40.066  21.860  26.967  1.00  0.00     0.200 A 
ATOM     88  F   UNL A   1      38.488  22.900  25.552  1.00  0.00    -0.200 F 
ATOM     89  F   UNL A   1      39.619  20.651  26.606  1.00  0.00    -0.200 F 
ENDBRANCH  55  79
BRANCH  67  90
ATOM     90  C   UNL A   1      47.108  27.429  26.002  1.00  0.00     0.064 A 
ATOM     91  C   UNL A   1      47.218  27.619  24.616  1.00  0.00     0.173 A 
ATOM     92  C   UNL A   1      48.188  26.831  26.670  1.00  0.00     0.173 A 
ATOM     93  F   UNL A   1      46.206  28.173  23.930  1.00  0.00    -0.203 F 
ATOM     94  C   UNL A   1      48.357  27.214  23.926  1.00  0.00     0.198 A 
ATOM     95  C   UNL A   1      49.338  26.456  25.982  1.00  0.00     0.198 A 
ATOM     96  F   UNL A   1      48.137  26.634  27.996  1.00  0.00    -0.203 F 
ATOM     97  F   UNL A   1      48.424  27.372  22.597  1.00  0.00    -0.200 F 
ATOM     98  C   UNL A   1      49.420  26.643  24.611  1.00  0.00     0.200 A 
ATOM     99  F   UNL A   1      50.371  25.920  26.647  1.00  0.00    -0.200 F 
ATOM    100  F   UNL A   1      50.522  26.269  23.947  1.00  0.00    -0.200 F 
ENDBRANCH  67  90
ENDBRANCH  41  42
ENDBRANCH  34  36
ENDBRANCH  33  34
ENDBRANCH  32  33
ENDBRANCH  31  32
ENDBRANCH  30  31
ENDBRANCH  29  30
ENDBRANCH  28  29
ENDBRANCH  27  28
ENDBRANCH   1  27
TORSDOF 24
ENDMDL
MODEL 3
REMARK VINA RESULT:      -9.7      3.020      4.493
REMARK SMILES CCCCNC(=O)c1c(Cl)c(Cl)c(Cl)c(Cl)c1C(=O)OCCOCCOCCOCCOC(=O)c1ccc(-c2c3nc(c(-c4c(F)c(F)c(F)c(F)c4F)c4ccc([nH]4)c(-c4c(F)c(F)c(F)c(F)c4F)c4nc(c(-c5c(F)c(F)c(F)c(F)c5F)c5ccc2[nH]5)C=C4)C=C3)cc1
REMARK SMILES IDX 25 1 24 2 23 3 22 4 21 5 20 6 18 7 19 8 17 9 8 10 9 11 10 12
REMARK SMILES IDX 11 13 15 14 12 15 13 16 16 17 14 18 6 19 5 20 7 22 4 23 3 24
REMARK SMILES IDX 2 25 1 26 26 27 27 28 28 29 29 30 30 31 31 32 32 33 33 34
REMARK SMILES IDX 34 35 35 36 36 37 97 38 37 39 96 40 38 41 39 42 40 43 90 44
REMARK SMILES IDX 41 45 95 46 89 47 91 48 42 49 94 50 88 51 87 52 43 54 75 55
REMARK SMILES IDX 55 56 74 57 56 58 59 59 73 60 92 61 57 62 58 63 72 65 93 66
REMARK SMILES IDX 60 67 44 68 45 69 53 70 46 71 47 72 51 73 54 74 48 75 49 76
REMARK SMILES IDX 52 77 50 78 76 79 77 80 85 81 78 82 79 83 83 84 86 85 80 86
REMARK SMILES IDX 81 87 84 88 82 89 61 90 62 91 70 92 63 93 64 94 68 95 71 96
REMARK SMILES IDX 65 97 66 98 69 99 67 100
REMARK H PARENT 5 21 91 53 59 64
REMARK Flexibility Score: inf
ROOT
ATOM      1  C   UNL A   1      31.154  32.125  26.502  1.00  0.00     0.188 C 
ENDROOT
BRANCH   1   2
ATOM      2  C   UNL A   1      31.872  30.774  26.718  1.00  0.00     0.188 C 
BRANCH   2   3
ATOM      3  O   UNL A   1      32.721  30.376  25.653  1.00  0.00    -0.376 OA
BRANCH   3   4
ATOM      4  C   UNL A   1      33.260  29.065  25.722  1.00  0.00     0.202 C 
BRANCH   4   5
ATOM      5  C   UNL A   1      32.679  28.154  26.811  1.00  0.00     0.261 C 
BRANCH   5   6
ATOM      6  O   UNL A   1      32.824  26.755  26.517  1.00  0.00    -0.460 OA
BRANCH   6   7
ATOM      7  C   UNL A   1      31.719  26.091  26.136  1.00  0.00     0.340 C 
ATOM      8  O   UNL A   1      30.569  26.329  26.463  1.00  0.00    -0.246 OA
BRANCH   7   9
ATOM      9  C   UNL A   1      32.072  25.067  25.124  1.00  0.00     0.094 A 
ATOM     10  C   UNL A   1      32.241  23.716  25.479  1.00  0.00     0.076 A 
ATOM     11  C   UNL A   1      32.188  22.735  24.477  1.00  0.00     0.074 A 
ATOM     12  Cl  UNL A   1      31.885  21.074  24.902  1.00  0.00    -0.082 Cl
ATOM     13  C   UNL A   1      32.284  23.107  23.125  1.00  0.00     0.080 A 
ATOM     14  C   UNL A   1      32.134  25.446  23.768  1.00  0.00     0.076 A 
ATOM     15  Cl  UNL A   1      32.396  21.882  21.893  1.00  0.00    -0.081 Cl
ATOM     16  C   UNL A   1      32.317  24.467  22.776  1.00  0.00     0.080 A 
ATOM     17  Cl  UNL A   1      32.051  27.124  23.308  1.00  0.00    -0.082 Cl
ATOM     18  Cl  UNL A   1      32.577  24.935  21.117  1.00  0.00    -0.081 Cl
BRANCH  10  19
ATOM     19  C   UNL A   1      32.509  23.340  26.889  1.00  0.00     0.253 C 
ATOM     20  N   UNL A   1      33.785  22.976  27.280  1.00  0.00    -0.352 N 
ATOM     21  H   UNL A   1      33.918  22.915  28.253  1.00  0.00     0.163 HD
ATOM     22  O   UNL A   1      31.597  23.404  27.706  1.00  0.00    -0.269 OA
BRANCH  20  23
ATOM     23  C   UNL A   1      34.965  22.667  26.475  1.00  0.00     0.116 C 
BRANCH  23  24
ATOM     24  C   UNL A   1      35.827  23.865  26.077  1.00  0.00     0.021 C 
BRANCH  24  25
ATOM     25  C   UNL A   1      36.617  23.734  24.773  1.00  0.00    -0.002 C 
ATOM     26  C   UNL A   1      35.817  23.162  23.610  1.00  0.00     0.004 C 
ENDBRANCH  24  25
ENDBRANCH  23  24
ENDBRANCH  20  23
ENDBRANCH  10  19
ENDBRANCH   7   9
ENDBRANCH   6   7
ENDBRANCH   5   6
ENDBRANCH   4   5
ENDBRANCH   3   4
ENDBRANCH   2   3
ENDBRANCH   1   2
BRANCH   1  27
ATOM     27  O   UNL A   1      31.761  33.329  26.949  1.00  0.00    -0.377 OA
BRANCH  27  28
ATOM     28  C   UNL A   1      32.936  33.264  27.753  1.00  0.00     0.188 C 
BRANCH  28  29
ATOM     29  C   UNL A   1      33.272  34.405  28.742  1.00  0.00     0.188 C 
BRANCH  29  30
ATOM     30  O   UNL A   1      33.652  33.962  30.036  1.00  0.00    -0.376 OA
BRANCH  30  31
ATOM     31  C   UNL A   1      34.994  34.204  30.425  1.00  0.00     0.202 C 
BRANCH  31  32
ATOM     32  C   UNL A   1      35.965  33.028  30.258  1.00  0.00     0.261 C 
BRANCH  32  33
ATOM     33  O   UNL A   1      35.376  31.716  30.269  1.00  0.00    -0.460 OA
BRANCH  33  34
ATOM     34  C   UNL A   1      35.580  30.918  29.199  1.00  0.00     0.338 C 
ATOM     35  O   UNL A   1      34.879  30.806  28.209  1.00  0.00    -0.246 OA
BRANCH  34  36
ATOM     36  C   UNL A   1      36.924  30.326  29.356  1.00  0.00     0.060 A 
ATOM     37  C   UNL A   1      37.228  29.586  30.508  1.00  0.00     0.016 A 
ATOM     38  C   UNL A   1      37.864  30.460  28.334  1.00  0.00     0.016 A 
ATOM     39  C   UNL A   1      38.477  28.974  30.636  1.00  0.00     0.010 A 
ATOM     40  C   UNL A   1      39.122  29.871  28.474  1.00  0.00     0.010 A 
ATOM     41  C   UNL A   1      39.439  29.135  29.629  1.00  0.00    -0.014 A 
BRANCH  41  42
ATOM     42  C   UNL A   1      40.830  28.661  29.823  1.00  0.00     0.031 A 
ATOM     43  C   UNL A   1      41.805  29.570  30.516  1.00  0.00     0.074 A 
ATOM     44  C   UNL A   1      41.230  27.463  29.361  1.00  0.00     0.049 A 
ATOM     45  N   UNL A   1      43.099  29.448  30.661  1.00  0.00    -0.248 NA
ATOM     46  C   UNL A   1      41.241  30.785  31.127  1.00  0.00     0.031 C 
ATOM     47  C   UNL A   1      40.369  26.475  28.715  1.00  0.00     0.029 A 
ATOM     48  N   UNL A   1      42.479  26.889  29.339  1.00  0.00    -0.354 N 
ATOM     49  C   UNL A   1      43.504  30.565  31.378  1.00  0.00     0.074 A 
ATOM     50  C   UNL A   1      42.325  31.370  31.615  1.00  0.00     0.031 C 
ATOM     51  C   UNL A   1      41.121  25.427  28.332  1.00  0.00     0.029 A 
ATOM     52  C   UNL A   1      42.520  25.694  28.664  1.00  0.00     0.049 A 
ATOM     53  H   UNL A   1      43.266  27.295  29.768  1.00  0.00     0.167 HD
ATOM     54  C   UNL A   1      44.746  30.885  31.808  1.00  0.00     0.037 A 
ATOM     55  C   UNL A   1      43.575  24.929  28.315  1.00  0.00     0.037 A 
ATOM     56  C   UNL A   1      45.918  30.089  31.558  1.00  0.00     0.049 A 
ATOM     57  C   UNL A   1      44.967  25.370  28.705  1.00  0.00     0.074 A 
ATOM     58  C   UNL A   1      47.223  30.329  31.950  1.00  0.00     0.029 A 
ATOM     59  N   UNL A   1      45.926  28.900  30.845  1.00  0.00    -0.354 N 
ATOM     60  N   UNL A   1      45.343  26.417  29.398  1.00  0.00    -0.248 NA
ATOM     61  C   UNL A   1      46.084  24.525  28.253  1.00  0.00     0.031 C 
ATOM     62  C   UNL A   1      48.030  29.313  31.430  1.00  0.00     0.029 A 
ATOM     63  C   UNL A   1      47.219  28.411  30.759  1.00  0.00     0.049 A 
ATOM     64  H   UNL A   1      45.131  28.469  30.457  1.00  0.00     0.167 HD
ATOM     65  C   UNL A   1      46.728  26.344  29.484  1.00  0.00     0.074 A 
ATOM     66  C   UNL A   1      47.128  25.137  28.792  1.00  0.00     0.031 C 
ATOM     67  C   UNL A   1      47.596  27.201  30.076  1.00  0.00     0.037 A 
BRANCH  54  68
ATOM     68  C   UNL A   1      44.911  32.158  32.583  1.00  0.00     0.064 A 
ATOM     69  C   UNL A   1      45.159  33.378  31.939  1.00  0.00     0.173 A 
ATOM     70  C   UNL A   1      44.753  32.169  33.976  1.00  0.00     0.173 A 
ATOM     71  F   UNL A   1      45.333  33.417  30.609  1.00  0.00    -0.203 F 
ATOM     72  C   UNL A   1      45.254  34.563  32.664  1.00  0.00     0.198 A 
ATOM     73  C   UNL A   1      44.821  33.359  34.695  1.00  0.00     0.198 A 
ATOM     74  F   UNL A   1      44.512  31.027  34.639  1.00  0.00    -0.203 F 
ATOM     75  F   UNL A   1      45.523  35.714  32.032  1.00  0.00    -0.200 F 
ATOM     76  C   UNL A   1      45.075  34.554  34.039  1.00  0.00     0.200 A 
ATOM     77  F   UNL A   1      44.635  33.350  36.022  1.00  0.00    -0.200 F 
ATOM     78  F   UNL A   1      45.148  35.698  34.733  1.00  0.00    -0.200 F 
ENDBRANCH  54  68
BRANCH  55  79
ATOM     79  C   UNL A   1      43.380  23.697  27.502  1.00  0.00     0.064 A 
ATOM     80  C   UNL A   1      43.617  23.695  26.119  1.00  0.00     0.173 A 
ATOM     81  C   UNL A   1      42.886  22.517  28.077  1.00  0.00     0.173 A 
ATOM     82  F   UNL A   1      44.059  24.807  25.515  1.00  0.00    -0.203 F 
ATOM     83  C   UNL A   1      43.335  22.574  25.341  1.00  0.00     0.198 A 
ATOM     84  C   UNL A   1      42.636  21.385  27.303  1.00  0.00     0.198 A 
ATOM     85  F   UNL A   1      42.631  22.465  29.392  1.00  0.00    -0.203 F 
ATOM     86  F   UNL A   1      43.502  22.624  24.012  1.00  0.00    -0.200 F 
ATOM     87  C   UNL A   1      42.848  21.418  25.933  1.00  0.00     0.200 A 
ATOM     88  F   UNL A   1      42.171  20.270  27.883  1.00  0.00    -0.200 F 
ATOM     89  F   UNL A   1      42.564  20.345  25.183  1.00  0.00    -0.200 F 
ENDBRANCH  55  79
BRANCH  67  90
ATOM     90  C   UNL A   1      49.058  26.861  30.024  1.00  0.00     0.064 A 
ATOM     91  C   UNL A   1      49.902  27.404  29.044  1.00  0.00     0.173 A 
ATOM     92  C   UNL A   1      49.633  26.035  31.002  1.00  0.00     0.173 A 
ATOM     93  F   UNL A   1      49.398  28.189  28.079  1.00  0.00    -0.203 F 
ATOM     94  C   UNL A   1      51.265  27.120  29.037  1.00  0.00     0.198 A 
ATOM     95  C   UNL A   1      51.001  25.779  31.010  1.00  0.00     0.198 A 
ATOM     96  F   UNL A   1      48.871  25.497  31.966  1.00  0.00    -0.203 F 
ATOM     97  F   UNL A   1      52.046  27.620  28.069  1.00  0.00    -0.200 F 
ATOM     98  C   UNL A   1      51.815  26.317  30.025  1.00  0.00     0.200 A 
ATOM     99  F   UNL A   1      51.533  25.016  31.975  1.00  0.00    -0.200 F 
ATOM    100  F   UNL A   1      53.130  26.058  30.025  1.00  0.00    -0.200 F 
ENDBRANCH  67  90
ENDBRANCH  41  42
ENDBRANCH  34  36
ENDBRANCH  33  34
ENDBRANCH  32  33
ENDBRANCH  31  32
ENDBRANCH  30  31
ENDBRANCH  29  30
ENDBRANCH  28  29
ENDBRANCH  27  28
ENDBRANCH   1  27
TORSDOF 24
ENDMDL
