MODEL 1
REMARK VINA RESULT:     -10.9      0.000      0.000
REMARK SMILES O=C(OCCOCCOCCOCCOC(=O)[C@@H]1CC2(CC[NH+](C(=O)C3(c4ccccc4F)CC3)CC2)C[NH2+]1)c1ccc(-c2c3nc(c(-c4c(F)c(F)c(F)c(F)c4F)c4ccc([nH]4)c(-c4c(F)c(F)c(F)c(F)c4F)c4nc(c(-c5c(F)c(F)c(F)c(F)c5F)c5ccc2[nH]5)C=C4)C=C3)cc1
REMARK SMILES IDX 10 1 9 2 8 3 7 4 6 5 5 6 4 7 3 8 2 9 1 10 40 11 41 12 102 13
REMARK SMILES IDX 42 14 101 15 43 16 44 17 45 18 95 19 46 20 100 21 94 22
REMARK SMILES IDX 96 23 47 24 99 25 93 26 92 27 48 29 80 30 60 31 79 32 61 33
REMARK SMILES IDX 64 34 78 35 97 36 62 37 63 38 77 40 98 41 65 42 49 43 50 44
REMARK SMILES IDX 58 45 51 46 52 47 56 48 59 49 53 50 54 51 57 52 55 53 81 54
REMARK SMILES IDX 82 55 90 56 83 57 84 58 88 59 91 60 85 61 86 62 89 63 87 64
REMARK SMILES IDX 66 65 67 66 75 67 68 68 69 69 73 70 76 71 70 72 71 73 74 74
REMARK SMILES IDX 72 75 11 76 12 77 13 78 14 79 15 80 16 81 17 82 18 83 19 84
REMARK SMILES IDX 39 85 20 86 38 87 21 90 37 91 22 92 36 93 23 94 24 96 25 97
REMARK SMILES IDX 26 98 34 99 35 100 27 101 28 102 32 103 29 104 31 105 33 106
REMARK SMILES IDX 30 107
REMARK H PARENT 96 28 64 39 39 88 39 89 23 95
REMARK Flexibility Score: inf
ROOT
ATOM      1  C   UNL A   1      39.819  23.010  26.511  1.00  0.00     0.188 C 
ENDROOT
BRANCH   1   2
ATOM      2  O   UNL A   1      40.354  22.327  27.641  1.00  0.00    -0.377 OA
BRANCH   2   3
ATOM      3  C   UNL A   1      41.445  21.437  27.408  1.00  0.00     0.188 C 
BRANCH   3   4
ATOM      4  C   UNL A   1      41.188  20.008  27.869  1.00  0.00     0.188 C 
BRANCH   4   5
ATOM      5  O   UNL A   1      42.277  19.183  27.474  1.00  0.00    -0.376 OA
BRANCH   5   6
ATOM      6  C   UNL A   1      42.419  18.920  26.081  1.00  0.00     0.202 C 
BRANCH   6   7
ATOM      7  C   UNL A   1      43.674  18.143  25.728  1.00  0.00     0.261 C 
BRANCH   7   8
ATOM      8  O   UNL A   1      44.240  18.507  24.462  1.00  0.00    -0.460 OA
BRANCH   8   9
ATOM      9  C   UNL A   1      45.164  19.449  24.169  1.00  0.00     0.338 C 
ATOM     10  O   UNL A   1      46.107  19.129  23.444  1.00  0.00    -0.246 OA
BRANCH   9  11
ATOM     11  C   UNL A   1      45.105  20.876  24.605  1.00  0.00     0.060 A 
ATOM     12  C   UNL A   1      44.680  21.961  23.837  1.00  0.00     0.016 A 
ATOM     13  C   UNL A   1      45.394  21.112  25.958  1.00  0.00     0.016 A 
ATOM     14  C   UNL A   1      44.580  23.237  24.358  1.00  0.00     0.010 A 
ATOM     15  C   UNL A   1      45.295  22.394  26.503  1.00  0.00     0.010 A 
ATOM     16  C   UNL A   1      44.910  23.460  25.685  1.00  0.00    -0.014 A 
BRANCH  16  17
ATOM     17  C   UNL A   1      45.068  24.857  26.099  1.00  0.00     0.031 A 
ATOM     18  C   UNL A   1      46.389  25.498  25.818  1.00  0.00     0.074 A 
ATOM     19  C   UNL A   1      44.005  25.555  26.528  1.00  0.00     0.049 A 
ATOM     20  N   UNL A   1      46.826  26.676  26.154  1.00  0.00    -0.248 NA
ATOM     21  C   UNL A   1      47.347  24.700  25.029  1.00  0.00     0.031 C 
ATOM     22  C   UNL A   1      42.640  25.032  26.629  1.00  0.00     0.029 A 
ATOM     23  N   UNL A   1      43.895  26.859  26.922  1.00  0.00    -0.354 N 
ATOM     24  C   UNL A   1      48.125  26.738  25.670  1.00  0.00     0.074 A 
ATOM     25  C   UNL A   1      48.405  25.492  24.999  1.00  0.00     0.031 C 
ATOM     26  C   UNL A   1      41.827  26.014  27.050  1.00  0.00     0.029 A 
ATOM     27  C   UNL A   1      42.631  27.199  27.330  1.00  0.00     0.049 A 
ATOM     28  H   UNL A   1      44.650  27.492  26.914  1.00  0.00     0.167 HD
ATOM     29  C   UNL A   1      49.002  27.755  25.807  1.00  0.00     0.037 A 
ATOM     30  C   UNL A   1      42.201  28.330  27.918  1.00  0.00     0.037 A 
ATOM     31  C   UNL A   1      48.658  28.980  26.470  1.00  0.00     0.049 A 
ATOM     32  C   UNL A   1      43.220  29.411  28.160  1.00  0.00     0.074 A 
ATOM     33  C   UNL A   1      49.456  30.072  26.741  1.00  0.00     0.029 A 
ATOM     34  N   UNL A   1      47.390  29.266  26.965  1.00  0.00    -0.354 N 
ATOM     35  N   UNL A   1      44.486  29.439  27.811  1.00  0.00    -0.248 NA
ATOM     36  C   UNL A   1      42.772  30.598  28.896  1.00  0.00     0.031 C 
ATOM     37  C   UNL A   1      48.685  30.995  27.453  1.00  0.00     0.029 A 
ATOM     38  C   UNL A   1      47.388  30.509  27.568  1.00  0.00     0.049 A 
ATOM     39  H   UNL A   1      46.609  28.671  26.897  1.00  0.00     0.167 HD
ATOM     40  C   UNL A   1      44.988  30.643  28.276  1.00  0.00     0.074 A 
ATOM     41  C   UNL A   1      43.881  31.327  28.919  1.00  0.00     0.031 C 
ATOM     42  C   UNL A   1      46.248  31.141  28.187  1.00  0.00     0.037 A 
BRANCH  29  43
ATOM     43  C   UNL A   1      50.403  27.525  25.328  1.00  0.00     0.064 A 
ATOM     44  C   UNL A   1      51.385  27.095  26.235  1.00  0.00     0.173 A 
ATOM     45  C   UNL A   1      50.777  27.685  23.986  1.00  0.00     0.173 A 
ATOM     46  F   UNL A   1      51.075  26.909  27.527  1.00  0.00    -0.203 F 
ATOM     47  C   UNL A   1      52.687  26.839  25.817  1.00  0.00     0.198 A 
ATOM     48  C   UNL A   1      52.076  27.400  23.566  1.00  0.00     0.198 A 
ATOM     49  F   UNL A   1      49.869  28.055  23.070  1.00  0.00    -0.203 F 
ATOM     50  F   UNL A   1      53.606  26.438  26.706  1.00  0.00    -0.200 F 
ATOM     51  C   UNL A   1      53.030  26.985  24.482  1.00  0.00     0.200 A 
ATOM     52  F   UNL A   1      52.395  27.501  22.269  1.00  0.00    -0.200 F 
ATOM     53  F   UNL A   1      54.277  26.709  24.076  1.00  0.00    -0.200 F 
ENDBRANCH  29  43
BRANCH  30  54
ATOM     54  C   UNL A   1      40.786  28.440  28.359  1.00  0.00     0.064 A 
ATOM     55  C   UNL A   1      39.806  28.995  27.518  1.00  0.00     0.173 A 
ATOM     56  C   UNL A   1      40.389  28.053  29.646  1.00  0.00     0.173 A 
ATOM     57  F   UNL A   1      40.128  29.381  26.275  1.00  0.00    -0.203 F 
ATOM     58  C   UNL A   1      38.499  29.193  27.959  1.00  0.00     0.198 A 
ATOM     59  C   UNL A   1      39.073  28.226  30.076  1.00  0.00     0.198 A 
ATOM     60  F   UNL A   1      41.279  27.500  30.482  1.00  0.00    -0.203 F 
ATOM     61  F   UNL A   1      37.602  29.774  27.151  1.00  0.00    -0.200 F 
ATOM     62  C   UNL A   1      38.133  28.808  29.238  1.00  0.00     0.200 A 
ATOM     63  F   UNL A   1      38.716  27.832  31.307  1.00  0.00    -0.200 F 
ATOM     64  F   UNL A   1      36.876  28.996  29.663  1.00  0.00    -0.200 F 
ENDBRANCH  30  54
BRANCH  42  65
ATOM     65  C   UNL A   1      46.490  32.493  28.783  1.00  0.00     0.064 A 
ATOM     66  C   UNL A   1      46.354  33.643  27.991  1.00  0.00     0.173 A 
ATOM     67  C   UNL A   1      46.980  32.636  30.087  1.00  0.00     0.173 A 
ATOM     68  F   UNL A   1      45.901  33.547  26.732  1.00  0.00    -0.203 F 
ATOM     69  C   UNL A   1      46.732  34.889  28.477  1.00  0.00     0.198 A 
ATOM     70  C   UNL A   1      47.327  33.890  30.580  1.00  0.00     0.198 A 
ATOM     71  F   UNL A   1      47.115  31.563  30.880  1.00  0.00    -0.203 F 
ATOM     72  F   UNL A   1      46.648  35.967  27.685  1.00  0.00    -0.200 F 
ATOM     73  C   UNL A   1      47.217  35.011  29.770  1.00  0.00     0.200 A 
ATOM     74  F   UNL A   1      47.777  34.011  31.836  1.00  0.00    -0.200 F 
ATOM     75  F   UNL A   1      47.586  36.212  30.235  1.00  0.00    -0.200 F 
ENDBRANCH  42  65
ENDBRANCH  16  17
ENDBRANCH   9  11
ENDBRANCH   8   9
ENDBRANCH   7   8
ENDBRANCH   6   7
ENDBRANCH   5   6
ENDBRANCH   4   5
ENDBRANCH   3   4
ENDBRANCH   2   3
ENDBRANCH   1   2
BRANCH   1  76
ATOM     76  C   UNL A   1      38.439  22.604  25.960  1.00  0.00     0.188 C 
BRANCH  76  77
ATOM     77  O   UNL A   1      37.472  23.647  25.876  1.00  0.00    -0.376 OA
BRANCH  77  78
ATOM     78  C   UNL A   1      36.124  23.224  26.099  1.00  0.00     0.202 C 
BRANCH  78  79
ATOM     79  C   UNL A   1      35.812  21.814  25.576  1.00  0.00     0.261 C 
BRANCH  79  80
ATOM     80  O   UNL A   1      34.546  21.308  26.015  1.00  0.00    -0.459 OA
BRANCH  80  81
ATOM     81  C   UNL A   1      33.527  21.291  25.119  1.00  0.00     0.364 C 
ATOM     82  O   UNL A   1      33.674  21.120  23.914  1.00  0.00    -0.245 OA
BRANCH  81  83
ATOM     83  C   UNL A   1      32.156  21.435  25.805  1.00  0.00     0.294 C 
ATOM     84  C   UNL A   1      31.254  22.406  25.124  1.00  0.00     0.090 C 
ATOM     85  N   UNL A   1      32.178  22.007  27.169  1.00  0.00    -0.334 N 
ATOM     86  C   UNL A   1      31.773  23.761  25.632  1.00  0.00     0.036 C 
ATOM     87  C   UNL A   1      32.203  23.464  27.071  1.00  0.00     0.268 C 
ATOM     88  H   UNL A   1      33.010  21.683  27.663  1.00  0.00     0.347 HD
ATOM     89  H   UNL A   1      31.348  21.710  27.683  1.00  0.00     0.347 HD
ATOM     90  C   UNL A   1      30.642  24.781  25.528  1.00  0.00     0.075 C 
ATOM     91  C   UNL A   1      32.974  24.295  24.818  1.00  0.00     0.075 C 
ATOM     92  C   UNL A   1      30.265  24.964  24.056  1.00  0.00     0.271 C 
ATOM     93  C   UNL A   1      32.583  24.433  23.357  1.00  0.00     0.271 C 
ATOM     94  N   UNL A   1      31.436  25.335  23.264  1.00  0.00    -0.271 N 
ATOM     95  H   UNL A   1      30.896  26.004  23.744  1.00  0.00     0.356 HD
BRANCH  94  96
ATOM     96  C   UNL A   1      31.724  26.599  22.783  1.00  0.00     0.322 C 
ATOM     97  O   UNL A   1      32.249  26.721  21.670  1.00  0.00    -0.230 OA
BRANCH  96  98
ATOM     98  C   UNL A   1      31.359  27.869  23.521  1.00  0.00     0.113 C 
ATOM     99  C   UNL A   1      30.944  29.236  22.987  1.00  0.00     0.028 C 
ATOM    100  C   UNL A   1      29.891  28.256  23.392  1.00  0.00     0.028 C 
BRANCH  98 101
ATOM    101  C   UNL A   1      32.114  27.959  24.847  1.00  0.00     0.007 A 
ATOM    102  C   UNL A   1      31.414  27.982  26.069  1.00  0.00     0.008 A 
ATOM    103  C   UNL A   1      33.494  28.206  24.888  1.00  0.00     0.127 A 
ATOM    104  C   UNL A   1      32.064  28.266  27.269  1.00  0.00     0.001 A 
ATOM    105  C   UNL A   1      34.145  28.518  26.076  1.00  0.00     0.039 A 
ATOM    106  F   UNL A   1      34.204  28.200  23.749  1.00  0.00    -0.207 F 
ATOM    107  C   UNL A   1      33.428  28.552  27.268  1.00  0.00     0.003 A 
ENDBRANCH  98 101
ENDBRANCH  96  98
ENDBRANCH  94  96
ENDBRANCH  81  83
ENDBRANCH  80  81
ENDBRANCH  79  80
ENDBRANCH  78  79
ENDBRANCH  77  78
ENDBRANCH  76  77
ENDBRANCH   1  76
TORSDOF 23
ENDMDL
MODEL 2
REMARK VINA RESULT:     -10.8      4.422      7.237
REMARK SMILES O=C(OCCOCCOCCOCCOC(=O)[C@@H]1CC2(CC[NH+](C(=O)C3(c4ccccc4F)CC3)CC2)C[NH2+]1)c1ccc(-c2c3nc(c(-c4c(F)c(F)c(F)c(F)c4F)c4ccc([nH]4)c(-c4c(F)c(F)c(F)c(F)c4F)c4nc(c(-c5c(F)c(F)c(F)c(F)c5F)c5ccc2[nH]5)C=C4)C=C3)cc1
REMARK SMILES IDX 10 1 9 2 8 3 7 4 6 5 5 6 4 7 3 8 2 9 1 10 40 11 41 12 102 13
REMARK SMILES IDX 42 14 101 15 43 16 44 17 45 18 95 19 46 20 100 21 94 22
REMARK SMILES IDX 96 23 47 24 99 25 93 26 92 27 48 29 80 30 60 31 79 32 61 33
REMARK SMILES IDX 64 34 78 35 97 36 62 37 63 38 77 40 98 41 65 42 49 43 50 44
REMARK SMILES IDX 58 45 51 46 52 47 56 48 59 49 53 50 54 51 57 52 55 53 81 54
REMARK SMILES IDX 82 55 90 56 83 57 84 58 88 59 91 60 85 61 86 62 89 63 87 64
REMARK SMILES IDX 66 65 67 66 75 67 68 68 69 69 73 70 76 71 70 72 71 73 74 74
REMARK SMILES IDX 72 75 11 76 12 77 13 78 14 79 15 80 16 81 17 82 18 83 19 84
REMARK SMILES IDX 39 85 20 86 38 87 21 90 37 91 22 92 36 93 23 94 24 96 25 97
REMARK SMILES IDX 26 98 34 99 35 100 27 101 28 102 32 103 29 104 31 105 33 106
REMARK SMILES IDX 30 107
REMARK H PARENT 96 28 64 39 39 88 39 89 23 95
REMARK Flexibility Score: inf
ROOT
ATOM      1  C   UNL A   1      40.522  25.433  26.197  1.00  0.00     0.188 C 
ENDROOT
BRANCH   1   2
ATOM      2  O   UNL A   1      41.639  24.673  25.744  1.00  0.00    -0.377 OA
BRANCH   2   3
ATOM      3  C   UNL A   1      41.835  23.389  26.333  1.00  0.00     0.188 C 
BRANCH   3   4
ATOM      4  C   UNL A   1      42.743  22.470  25.525  1.00  0.00     0.188 C 
BRANCH   4   5
ATOM      5  O   UNL A   1      43.471  23.241  24.576  1.00  0.00    -0.376 OA
BRANCH   5   6
ATOM      6  C   UNL A   1      44.611  22.628  23.982  1.00  0.00     0.202 C 
BRANCH   6   7
ATOM      7  C   UNL A   1      45.927  23.284  24.359  1.00  0.00     0.261 C 
BRANCH   7   8
ATOM      8  O   UNL A   1      45.818  24.214  25.444  1.00  0.00    -0.460 OA
BRANCH   8   9
ATOM      9  C   UNL A   1      45.714  25.562  25.419  1.00  0.00     0.338 C 
ATOM     10  O   UNL A   1      46.289  26.169  24.515  1.00  0.00    -0.246 OA
BRANCH   9  11
ATOM     11  C   UNL A   1      44.903  26.379  26.369  1.00  0.00     0.060 A 
ATOM     12  C   UNL A   1      44.597  27.735  26.244  1.00  0.00     0.016 A 
ATOM     13  C   UNL A   1      44.300  25.671  27.421  1.00  0.00     0.016 A 
ATOM     14  C   UNL A   1      43.765  28.386  27.136  1.00  0.00     0.010 A 
ATOM     15  C   UNL A   1      43.455  26.311  28.329  1.00  0.00     0.010 A 
ATOM     16  C   UNL A   1      43.213  27.681  28.193  1.00  0.00    -0.014 A 
BRANCH  16  17
ATOM     17  C   UNL A   1      42.588  28.473  29.258  1.00  0.00     0.031 A 
ATOM     18  C   UNL A   1      43.429  28.769  30.457  1.00  0.00     0.074 A 
ATOM     19  C   UNL A   1      41.393  29.048  29.055  1.00  0.00     0.049 A 
ATOM     20  N   UNL A   1      43.106  29.362  31.569  1.00  0.00    -0.248 NA
ATOM     21  C   UNL A   1      44.844  28.355  30.382  1.00  0.00     0.031 C 
ATOM     22  C   UNL A   1      40.615  28.957  27.817  1.00  0.00     0.029 A 
ATOM     23  N   UNL A   1      40.642  29.851  29.865  1.00  0.00    -0.354 N 
ATOM     24  C   UNL A   1      44.255  29.338  32.346  1.00  0.00     0.074 A 
ATOM     25  C   UNL A   1      45.293  28.694  31.578  1.00  0.00     0.031 C 
ATOM     26  C   UNL A   1      39.497  29.688  27.950  1.00  0.00     0.029 A 
ATOM     27  C   UNL A   1      39.444  30.219  29.308  1.00  0.00     0.049 A 
ATOM     28  H   UNL A   1      40.932  30.138  30.762  1.00  0.00     0.167 HD
ATOM     29  C   UNL A   1      44.402  29.803  33.605  1.00  0.00     0.037 A 
ATOM     30  C   UNL A   1      38.405  30.863  29.870  1.00  0.00     0.037 A 
ATOM     31  C   UNL A   1      43.336  30.453  34.312  1.00  0.00     0.049 A 
ATOM     32  C   UNL A   1      38.548  31.277  31.310  1.00  0.00     0.074 A 
ATOM     33  C   UNL A   1      43.315  30.919  35.610  1.00  0.00     0.029 A 
ATOM     34  N   UNL A   1      42.091  30.729  33.757  1.00  0.00    -0.354 N 
ATOM     35  N   UNL A   1      39.592  31.158  32.098  1.00  0.00    -0.248 NA
ATOM     36  C   UNL A   1      37.376  31.884  31.949  1.00  0.00     0.031 C 
ATOM     37  C   UNL A   1      42.036  31.424  35.859  1.00  0.00     0.029 A 
ATOM     38  C   UNL A   1      41.279  31.335  34.696  1.00  0.00     0.049 A 
ATOM     39  H   UNL A   1      41.826  30.523  32.831  1.00  0.00     0.167 HD
ATOM     40  C   UNL A   1      39.211  31.678  33.325  1.00  0.00     0.074 A 
ATOM     41  C   UNL A   1      37.840  32.131  33.168  1.00  0.00     0.031 C 
ATOM     42  C   UNL A   1      39.921  31.771  34.477  1.00  0.00     0.037 A 
BRANCH  29  43
ATOM     43  C   UNL A   1      45.703  29.524  34.294  1.00  0.00     0.064 A 
ATOM     44  C   UNL A   1      46.777  30.414  34.136  1.00  0.00     0.173 A 
ATOM     45  C   UNL A   1      45.889  28.418  35.136  1.00  0.00     0.173 A 
ATOM     46  F   UNL A   1      46.646  31.498  33.357  1.00  0.00    -0.203 F 
ATOM     47  C   UNL A   1      47.988  30.205  34.790  1.00  0.00     0.198 A 
ATOM     48  C   UNL A   1      47.093  28.226  35.812  1.00  0.00     0.198 A 
ATOM     49  F   UNL A   1      44.882  27.558  35.355  1.00  0.00    -0.203 F 
ATOM     50  F   UNL A   1      48.999  31.066  34.614  1.00  0.00    -0.200 F 
ATOM     51  C   UNL A   1      48.143  29.115  35.632  1.00  0.00     0.200 A 
ATOM     52  F   UNL A   1      47.228  27.196  36.658  1.00  0.00    -0.200 F 
ATOM     53  F   UNL A   1      49.298  28.931  36.285  1.00  0.00    -0.200 F 
ENDBRANCH  29  43
BRANCH  30  54
ATOM     54  C   UNL A   1      37.159  31.075  29.088  1.00  0.00     0.064 A 
ATOM     55  C   UNL A   1      36.813  32.350  28.608  1.00  0.00     0.173 A 
ATOM     56  C   UNL A   1      36.256  30.030  28.853  1.00  0.00     0.173 A 
ATOM     57  F   UNL A   1      37.640  33.388  28.802  1.00  0.00    -0.203 F 
ATOM     58  C   UNL A   1      35.600  32.577  27.961  1.00  0.00     0.198 A 
ATOM     59  C   UNL A   1      35.055  30.253  28.180  1.00  0.00     0.198 A 
ATOM     60  F   UNL A   1      36.546  28.790  29.272  1.00  0.00    -0.203 F 
ATOM     61  F   UNL A   1      35.276  33.815  27.563  1.00  0.00    -0.200 F 
ATOM     62  C   UNL A   1      34.721  31.528  27.747  1.00  0.00     0.200 A 
ATOM     63  F   UNL A   1      34.216  29.232  27.955  1.00  0.00    -0.200 F 
ATOM     64  F   UNL A   1      33.555  31.745  27.123  1.00  0.00    -0.200 F 
ENDBRANCH  30  54
BRANCH  42  65
ATOM     65  C   UNL A   1      39.236  32.398  35.651  1.00  0.00     0.064 A 
ATOM     66  C   UNL A   1      39.462  33.750  35.955  1.00  0.00     0.173 A 
ATOM     67  C   UNL A   1      38.470  31.635  36.540  1.00  0.00     0.173 A 
ATOM     68  F   UNL A   1      40.202  34.512  35.136  1.00  0.00    -0.203 F 
ATOM     69  C   UNL A   1      38.969  34.305  37.129  1.00  0.00     0.198 A 
ATOM     70  C   UNL A   1      37.951  32.204  37.699  1.00  0.00     0.198 A 
ATOM     71  F   UNL A   1      38.222  30.343  36.281  1.00  0.00    -0.203 F 
ATOM     72  F   UNL A   1      39.244  35.583  37.429  1.00  0.00    -0.200 F 
ATOM     73  C   UNL A   1      38.214  33.533  37.999  1.00  0.00     0.200 A 
ATOM     74  F   UNL A   1      37.205  31.464  38.529  1.00  0.00    -0.200 F 
ATOM     75  F   UNL A   1      37.743  34.070  39.132  1.00  0.00    -0.200 F 
ENDBRANCH  42  65
ENDBRANCH  16  17
ENDBRANCH   9  11
ENDBRANCH   8   9
ENDBRANCH   7   8
ENDBRANCH   6   7
ENDBRANCH   5   6
ENDBRANCH   4   5
ENDBRANCH   3   4
ENDBRANCH   2   3
ENDBRANCH   1   2
BRANCH   1  76
ATOM     76  C   UNL A   1      39.945  25.174  27.601  1.00  0.00     0.188 C 
BRANCH  76  77
ATOM     77  O   UNL A   1      38.876  24.234  27.670  1.00  0.00    -0.376 OA
BRANCH  77  78
ATOM     78  C   UNL A   1      38.155  24.068  26.445  1.00  0.00     0.202 C 
BRANCH  78  79
ATOM     79  C   UNL A   1      38.182  22.637  25.888  1.00  0.00     0.261 C 
BRANCH  79  80
ATOM     80  O   UNL A   1      36.911  21.977  25.943  1.00  0.00    -0.459 OA
BRANCH  80  81
ATOM     81  C   UNL A   1      36.224  21.831  24.782  1.00  0.00     0.364 C 
ATOM     82  O   UNL A   1      36.656  22.157  23.682  1.00  0.00    -0.245 OA
BRANCH  81  83
ATOM     83  C   UNL A   1      34.869  21.133  25.000  1.00  0.00     0.294 C 
ATOM     84  C   UNL A   1      33.737  21.815  24.313  1.00  0.00     0.090 C 
ATOM     85  N   UNL A   1      34.367  21.127  26.392  1.00  0.00    -0.334 N 
ATOM     86  C   UNL A   1      33.415  22.978  25.266  1.00  0.00     0.036 C 
ATOM     87  C   UNL A   1      33.680  22.389  26.653  1.00  0.00     0.268 C 
ATOM     88  H   UNL A   1      35.150  21.024  27.038  1.00  0.00     0.347 HD
ATOM     89  H   UNL A   1      33.722  20.348  26.524  1.00  0.00     0.347 HD
ATOM     90  C   UNL A   1      31.964  23.397  25.044  1.00  0.00     0.075 C 
ATOM     91  C   UNL A   1      34.311  24.217  25.035  1.00  0.00     0.075 C 
ATOM     92  C   UNL A   1      31.807  23.925  23.616  1.00  0.00     0.271 C 
ATOM     93  C   UNL A   1      34.162  24.698  23.601  1.00  0.00     0.271 C 
ATOM     94  N   UNL A   1      32.755  25.007  23.357  1.00  0.00    -0.271 N 
ATOM     95  H   UNL A   1      31.879  25.168  23.779  1.00  0.00     0.356 HD
BRANCH  94  96
ATOM     96  C   UNL A   1      32.452  26.357  23.307  1.00  0.00     0.322 C 
ATOM     97  O   UNL A   1      32.751  27.009  22.300  1.00  0.00    -0.230 OA
BRANCH  96  98
ATOM     98  C   UNL A   1      31.698  27.077  24.403  1.00  0.00     0.113 C 
ATOM     99  C   UNL A   1      31.480  26.698  25.864  1.00  0.00     0.028 C 
ATOM    100  C   UNL A   1      32.594  27.628  25.507  1.00  0.00     0.028 C 
BRANCH  98 101
ATOM    101  C   UNL A   1      30.532  27.877  23.822  1.00  0.00     0.007 A 
ATOM    102  C   UNL A   1      30.587  29.282  23.765  1.00  0.00     0.008 A 
ATOM    103  C   UNL A   1      29.313  27.264  23.502  1.00  0.00     0.127 A 
ATOM    104  C   UNL A   1      29.463  30.036  23.430  1.00  0.00     0.001 A 
ATOM    105  C   UNL A   1      28.179  28.008  23.195  1.00  0.00     0.039 A 
ATOM    106  F   UNL A   1      29.209  25.926  23.547  1.00  0.00    -0.207 F 
ATOM    107  C   UNL A   1      28.254  29.397  23.163  1.00  0.00     0.003 A 
ENDBRANCH  98 101
ENDBRANCH  96  98
ENDBRANCH  94  96
ENDBRANCH  81  83
ENDBRANCH  80  81
ENDBRANCH  79  80
ENDBRANCH  78  79
ENDBRANCH  77  78
ENDBRANCH  76  77
ENDBRANCH   1  76
TORSDOF 23
ENDMDL
MODEL 3
REMARK VINA RESULT:      -9.7      3.074      5.031
REMARK SMILES O=C(OCCOCCOCCOCCOC(=O)[C@@H]1CC2(CC[NH+](C(=O)C3(c4ccccc4F)CC3)CC2)C[NH2+]1)c1ccc(-c2c3nc(c(-c4c(F)c(F)c(F)c(F)c4F)c4ccc([nH]4)c(-c4c(F)c(F)c(F)c(F)c4F)c4nc(c(-c5c(F)c(F)c(F)c(F)c5F)c5ccc2[nH]5)C=C4)C=C3)cc1
REMARK SMILES IDX 10 1 9 2 8 3 7 4 6 5 5 6 4 7 3 8 2 9 1 10 40 11 41 12 102 13
REMARK SMILES IDX 42 14 101 15 43 16 44 17 45 18 95 19 46 20 100 21 94 22
REMARK SMILES IDX 96 23 47 24 99 25 93 26 92 27 48 29 80 30 60 31 79 32 61 33
REMARK SMILES IDX 64 34 78 35 97 36 62 37 63 38 77 40 98 41 65 42 49 43 50 44
REMARK SMILES IDX 58 45 51 46 52 47 56 48 59 49 53 50 54 51 57 52 55 53 81 54
REMARK SMILES IDX 82 55 90 56 83 57 84 58 88 59 91 60 85 61 86 62 89 63 87 64
REMARK SMILES IDX 66 65 67 66 75 67 68 68 69 69 73 70 76 71 70 72 71 73 74 74
REMARK SMILES IDX 72 75 11 76 12 77 13 78 14 79 15 80 16 81 17 82 18 83 19 84
REMARK SMILES IDX 39 85 20 86 38 87 21 90 37 91 22 92 36 93 23 94 24 96 25 97
REMARK SMILES IDX 26 98 34 99 35 100 27 101 28 102 32 103 29 104 31 105 33 106
REMARK SMILES IDX 30 107
REMARK H PARENT 96 28 64 39 39 88 39 89 23 95
REMARK Flexibility Score: inf
ROOT
ATOM      1  C   UNL A   1      41.145  19.699  27.361  1.00  0.00     0.188 C 
ENDROOT
BRANCH   1   2
ATOM      2  O   UNL A   1      42.431  19.307  26.891  1.00  0.00    -0.377 OA
BRANCH   2   3
ATOM      3  C   UNL A   1      43.055  20.147  25.922  1.00  0.00     0.188 C 
BRANCH   3   4
ATOM      4  C   UNL A   1      43.961  19.404  24.949  1.00  0.00     0.188 C 
BRANCH   4   5
ATOM      5  O   UNL A   1      44.330  20.277  23.888  1.00  0.00    -0.376 OA
BRANCH   5   6
ATOM      6  C   UNL A   1      45.221  21.342  24.205  1.00  0.00     0.202 C 
BRANCH   6   7
ATOM      7  C   UNL A   1      44.641  22.722  23.958  1.00  0.00     0.261 C 
BRANCH   7   8
ATOM      8  O   UNL A   1      45.499  23.791  24.379  1.00  0.00    -0.460 OA
BRANCH   8   9
ATOM      9  C   UNL A   1      45.798  24.217  25.627  1.00  0.00     0.338 C 
ATOM     10  O   UNL A   1      46.479  23.481  26.342  1.00  0.00    -0.246 OA
BRANCH   9  11
ATOM     11  C   UNL A   1      45.418  25.544  26.197  1.00  0.00     0.060 A 
ATOM     12  C   UNL A   1      44.743  26.568  25.532  1.00  0.00     0.016 A 
ATOM     13  C   UNL A   1      45.667  25.713  27.568  1.00  0.00     0.016 A 
ATOM     14  C   UNL A   1      44.360  27.732  26.172  1.00  0.00     0.010 A 
ATOM     15  C   UNL A   1      45.284  26.880  28.232  1.00  0.00     0.010 A 
ATOM     16  C   UNL A   1      44.651  27.900  27.516  1.00  0.00    -0.014 A 
BRANCH  16  17
ATOM     17  C   UNL A   1      44.489  29.251  28.062  1.00  0.00     0.031 A 
ATOM     18  C   UNL A   1      45.582  30.229  27.773  1.00  0.00     0.074 A 
ATOM     19  C   UNL A   1      43.325  29.615  28.620  1.00  0.00     0.049 A 
ATOM     20  N   UNL A   1      45.738  31.447  28.203  1.00  0.00    -0.248 NA
ATOM     21  C   UNL A   1      46.641  29.772  26.853  1.00  0.00     0.031 C 
ATOM     22  C   UNL A   1      42.146  28.754  28.745  1.00  0.00     0.029 A 
ATOM     23  N   UNL A   1      42.926  30.809  29.152  1.00  0.00    -0.354 N 
ATOM     24  C   UNL A   1      46.937  31.880  27.655  1.00  0.00     0.074 A 
ATOM     25  C   UNL A   1      47.462  30.808  26.844  1.00  0.00     0.031 C 
ATOM     26  C   UNL A   1      41.151  29.457  29.310  1.00  0.00     0.029 A 
ATOM     27  C   UNL A   1      41.655  30.779  29.664  1.00  0.00     0.049 A 
ATOM     28  H   UNL A   1      43.497  31.612  29.166  1.00  0.00     0.167 HD
ATOM     29  C   UNL A   1      47.541  33.071  27.845  1.00  0.00     0.037 A 
ATOM     30  C   UNL A   1      41.006  31.709  30.389  1.00  0.00     0.037 A 
ATOM     31  C   UNL A   1      46.959  34.107  28.649  1.00  0.00     0.049 A 
ATOM     32  C   UNL A   1      41.740  32.989  30.683  1.00  0.00     0.074 A 
ATOM     33  C   UNL A   1      47.479  35.339  28.985  1.00  0.00     0.029 A 
ATOM     34  N   UNL A   1      45.704  34.017  29.243  1.00  0.00    -0.354 N 
ATOM     35  N   UNL A   1      42.927  33.369  30.266  1.00  0.00    -0.248 NA
ATOM     36  C   UNL A   1      41.072  33.955  31.561  1.00  0.00     0.031 C 
ATOM     37  C   UNL A   1      46.563  35.971  29.831  1.00  0.00     0.029 A 
ATOM     38  C   UNL A   1      45.442  35.161  29.970  1.00  0.00     0.049 A 
ATOM     39  H   UNL A   1      45.093  33.250  29.158  1.00  0.00     0.167 HD
ATOM     40  C   UNL A   1      43.150  34.618  30.823  1.00  0.00     0.074 A 
ATOM     41  C   UNL A   1      41.963  34.939  31.596  1.00  0.00     0.031 C 
ATOM     42  C   UNL A   1      44.234  35.427  30.714  1.00  0.00     0.037 A 
BRANCH  29  43
ATOM     43  C   UNL A   1      48.912  33.249  27.266  1.00  0.00     0.064 A 
ATOM     44  C   UNL A   1      49.074  33.978  26.078  1.00  0.00     0.173 A 
ATOM     45  C   UNL A   1      50.064  32.745  27.887  1.00  0.00     0.173 A 
ATOM     46  F   UNL A   1      48.007  34.498  25.454  1.00  0.00    -0.203 F 
ATOM     47  C   UNL A   1      50.336  34.192  25.532  1.00  0.00     0.198 A 
ATOM     48  C   UNL A   1      51.329  32.985  27.352  1.00  0.00     0.198 A 
ATOM     49  F   UNL A   1      49.970  32.075  29.046  1.00  0.00    -0.203 F 
ATOM     50  F   UNL A   1      50.462  34.885  24.392  1.00  0.00    -0.200 F 
ATOM     51  C   UNL A   1      51.463  33.701  26.173  1.00  0.00     0.200 A 
ATOM     52  F   UNL A   1      52.420  32.546  27.995  1.00  0.00    -0.200 F 
ATOM     53  F   UNL A   1      52.680  33.934  25.662  1.00  0.00    -0.200 F 
ENDBRANCH  29  43
BRANCH  30  54
ATOM     54  C   UNL A   1      39.649  31.415  30.919  1.00  0.00     0.064 A 
ATOM     55  C   UNL A   1      38.499  31.918  30.285  1.00  0.00     0.173 A 
ATOM     56  C   UNL A   1      39.467  30.682  32.099  1.00  0.00     0.173 A 
ATOM     57  F   UNL A   1      38.612  32.626  29.152  1.00  0.00    -0.203 F 
ATOM     58  C   UNL A   1      37.231  31.733  30.831  1.00  0.00     0.198 A 
ATOM     59  C   UNL A   1      38.193  30.473  32.628  1.00  0.00     0.198 A 
ATOM     60  F   UNL A   1      40.528  30.163  32.733  1.00  0.00    -0.203 F 
ATOM     61  F   UNL A   1      36.160  32.271  30.230  1.00  0.00    -0.200 F 
ATOM     62  C   UNL A   1      37.078  31.009  32.002  1.00  0.00     0.200 A 
ATOM     63  F   UNL A   1      38.047  29.753  33.750  1.00  0.00    -0.200 F 
ATOM     64  F   UNL A   1      35.858  30.828  32.525  1.00  0.00    -0.200 F 
ENDBRANCH  30  54
BRANCH  42  65
ATOM     65  C   UNL A   1      44.180  36.740  31.431  1.00  0.00     0.064 A 
ATOM     66  C   UNL A   1      44.402  36.792  32.816  1.00  0.00     0.173 A 
ATOM     67  C   UNL A   1      43.783  37.911  30.775  1.00  0.00     0.173 A 
ATOM     68  F   UNL A   1      44.771  35.688  33.484  1.00  0.00    -0.203 F 
ATOM     69  C   UNL A   1      44.195  37.969  33.524  1.00  0.00     0.198 A 
ATOM     70  C   UNL A   1      43.609  39.096  31.484  1.00  0.00     0.198 A 
ATOM     71  F   UNL A   1      43.571  37.906  29.451  1.00  0.00    -0.203 F 
ATOM     72  F   UNL A   1      44.357  37.985  34.855  1.00  0.00    -0.200 F 
ATOM     73  C   UNL A   1      43.800  39.119  32.858  1.00  0.00     0.200 A 
ATOM     74  F   UNL A   1      43.246  40.212  30.837  1.00  0.00    -0.200 F 
ATOM     75  F   UNL A   1      43.596  40.253  33.543  1.00  0.00    -0.200 F 
ENDBRANCH  42  65
ENDBRANCH  16  17
ENDBRANCH   9  11
ENDBRANCH   8   9
ENDBRANCH   7   8
ENDBRANCH   6   7
ENDBRANCH   5   6
ENDBRANCH   4   5
ENDBRANCH   3   4
ENDBRANCH   2   3
ENDBRANCH   1   2
BRANCH   1  76
ATOM     76  C   UNL A   1      40.284  20.657  26.515  1.00  0.00     0.188 C 
BRANCH  76  77
ATOM     77  O   UNL A   1      39.985  21.915  27.114  1.00  0.00    -0.376 OA
BRANCH  77  78
ATOM     78  C   UNL A   1      39.156  22.766  26.317  1.00  0.00     0.202 C 
BRANCH  78  79
ATOM     79  C   UNL A   1      38.042  22.030  25.559  1.00  0.00     0.261 C 
BRANCH  79  80
ATOM     80  O   UNL A   1      36.776  22.699  25.610  1.00  0.00    -0.459 OA
BRANCH  80  81
ATOM     81  C   UNL A   1      35.658  21.932  25.682  1.00  0.00     0.364 C 
ATOM     82  O   UNL A   1      35.166  21.531  26.730  1.00  0.00    -0.245 OA
BRANCH  81  83
ATOM     83  C   UNL A   1      35.037  21.690  24.293  1.00  0.00     0.294 C 
ATOM     84  C   UNL A   1      34.748  22.948  23.550  1.00  0.00     0.090 C 
ATOM     85  N   UNL A   1      33.695  21.067  24.290  1.00  0.00    -0.334 N 
ATOM     86  C   UNL A   1      33.426  23.416  24.179  1.00  0.00     0.036 C 
ATOM     87  C   UNL A   1      32.690  22.108  24.481  1.00  0.00     0.268 C 
ATOM     88  H   UNL A   1      33.632  20.387  25.048  1.00  0.00     0.347 HD
ATOM     89  H   UNL A   1      33.536  20.592  23.402  1.00  0.00     0.347 HD
ATOM     90  C   UNL A   1      32.702  24.310  23.177  1.00  0.00     0.075 C 
ATOM     91  C   UNL A   1      33.627  24.225  25.482  1.00  0.00     0.075 C 
ATOM     92  C   UNL A   1      33.547  25.560  22.916  1.00  0.00     0.271 C 
ATOM     93  C   UNL A   1      34.497  25.438  25.203  1.00  0.00     0.271 C 
ATOM     94  N   UNL A   1      33.852  26.247  24.170  1.00  0.00    -0.271 N 
ATOM     95  H   UNL A   1      33.015  26.407  23.677  1.00  0.00     0.356 HD
BRANCH  94  96
ATOM     96  C   UNL A   1      33.257  27.409  24.625  1.00  0.00     0.322 C 
ATOM     97  O   UNL A   1      33.900  28.466  24.616  1.00  0.00    -0.230 OA
BRANCH  96  98
ATOM     98  C   UNL A   1      31.813  27.479  25.073  1.00  0.00     0.113 C 
ATOM     99  C   UNL A   1      30.934  26.425  25.737  1.00  0.00     0.028 C 
ATOM    100  C   UNL A   1      31.635  27.434  26.586  1.00  0.00     0.028 C 
BRANCH  98 101
ATOM    101  C   UNL A   1      31.016  28.435  24.185  1.00  0.00     0.007 A 
ATOM    102  C   UNL A   1      30.778  29.761  24.595  1.00  0.00     0.008 A 
ATOM    103  C   UNL A   1      30.349  27.983  23.038  1.00  0.00     0.127 A 
ATOM    104  C   UNL A   1      29.890  30.582  23.901  1.00  0.00     0.001 A 
ATOM    105  C   UNL A   1      29.440  28.784  22.357  1.00  0.00     0.039 A 
ATOM    106  F   UNL A   1      30.540  26.724  22.611  1.00  0.00    -0.207 F 
ATOM    107  C   UNL A   1      29.207  30.086  22.792  1.00  0.00     0.003 A 
ENDBRANCH  98 101
ENDBRANCH  96  98
ENDBRANCH  94  96
ENDBRANCH  81  83
ENDBRANCH  80  81
ENDBRANCH  79  80
ENDBRANCH  78  79
ENDBRANCH  77  78
ENDBRANCH  76  77
ENDBRANCH   1  76
TORSDOF 23
ENDMDL
