MODEL 1
REMARK VINA RESULT:     -10.9      0.000      0.000
REMARK SMILES COc1ccc(NC(=O)N[C@@H]2C=C[C@H](C(=O)OCCOCCOCCOCCOC(=O)c3ccc(-c4c5nc(c(-c6c(F)c(F)c(F)c(F)c6F)c6ccc([nH]6)c(-c6c(F)c(F)c(F)c(F)c6F)c6nc(c(-c7c(F)c(F)c(F)c(F)c7F)c7ccc4[nH]7)C=C6)C=C5)cc3)C2)c(C)c1
REMARK SMILES IDX 22 1 21 2 20 3 19 4 18 5 17 6 15 7 16 8 14 9 11 10 12 11
REMARK SMILES IDX 95 12 13 13 10 14 7 15 8 16 9 18 6 20 3 21 4 22 98 23 5 24
REMARK SMILES IDX 96 25 97 26 2 27 1 28 23 29 24 30 25 31 26 32 27 33 28 34
REMARK SMILES IDX 29 35 30 36 31 37 32 38 33 39 94 40 34 41 93 42 35 43 36 44
REMARK SMILES IDX 37 45 87 46 38 47 92 48 86 49 88 50 39 51 91 52 85 53 84 54
REMARK SMILES IDX 40 56 72 57 52 58 71 59 53 60 56 61 70 62 89 63 54 64 55 65
REMARK SMILES IDX 69 67 90 68 57 69 41 70 42 71 50 72 43 73 44 74 48 75 51 76
REMARK SMILES IDX 45 77 46 78 49 79 47 80 73 81 74 82 82 83 75 84 76 85 80 86
REMARK SMILES IDX 83 87 77 88 78 89 81 90 79 91 58 92 59 93 67 94 60 95 61 96
REMARK SMILES IDX 65 97 68 98 62 99 63 100 66 101 64 102
REMARK H PARENT 7 17 10 19 88 55 56 66
REMARK Flexibility Score: inf
ROOT
ATOM      1  C   UNL A   1      37.328  22.740  25.224  1.00  0.00     0.188 C 
ENDROOT
BRANCH   1   2
ATOM      2  C   UNL A   1      36.249  22.559  24.125  1.00  0.00     0.188 C 
BRANCH   2   3
ATOM      3  O   UNL A   1      34.909  22.221  24.413  1.00  0.00    -0.376 OA
BRANCH   3   4
ATOM      4  C   UNL A   1      34.725  21.155  25.325  1.00  0.00     0.202 C 
BRANCH   4   5
ATOM      5  C   UNL A   1      33.345  20.939  25.944  1.00  0.00     0.261 C 
BRANCH   5   6
ATOM      6  O   UNL A   1      32.515  22.091  25.718  1.00  0.00    -0.463 OA
BRANCH   6   7
ATOM      7  C   UNL A   1      32.221  22.809  26.842  1.00  0.00     0.312 C 
ATOM      8  O   UNL A   1      32.644  22.567  27.953  1.00  0.00    -0.252 OA
BRANCH   7   9
ATOM      9  C   UNL A   1      31.611  24.165  26.485  1.00  0.00     0.124 C 
ATOM     10  C   UNL A   1      32.024  25.450  24.392  1.00  0.00     0.107 C 
ATOM     11  C   UNL A   1      33.177  25.440  25.343  1.00  0.00    -0.006 C 
ATOM     12  C   UNL A   1      31.095  24.386  25.044  1.00  0.00     0.048 C 
ATOM     13  C   UNL A   1      32.861  24.982  26.549  1.00  0.00    -0.014 C 
BRANCH  10  14
ATOM     14  N   UNL A   1      32.561  25.286  23.053  1.00  0.00    -0.332 N 
ATOM     15  N   UNL A   1      32.726  27.399  21.911  1.00  0.00    -0.308 N 
ATOM     16  C   UNL A   1      32.847  26.055  21.984  1.00  0.00     0.319 C 
ATOM     17  H   UNL A   1      32.754  27.752  20.993  1.00  0.00     0.171 HD
ATOM     18  O   UNL A   1      33.196  25.451  20.962  1.00  0.00    -0.248 OA
ATOM     19  H   UNL A   1      32.776  24.343  22.874  1.00  0.00     0.165 HD
BRANCH  15  20
ATOM     20  C   UNL A   1      32.567  28.383  22.893  1.00  0.00     0.046 A 
ATOM     21  C   UNL A   1      32.236  29.271  25.471  1.00  0.00     0.119 A 
ATOM     22  C   UNL A   1      33.502  29.239  24.917  1.00  0.00     0.048 A 
ATOM     23  C   UNL A   1      31.147  29.257  24.595  1.00  0.00     0.052 A 
ATOM     24  C   UNL A   1      33.637  28.888  23.582  1.00  0.00     0.030 A 
ATOM     25  C   UNL A   1      31.326  28.878  23.251  1.00  0.00    -0.024 A 
ATOM     26  C   UNL A   1      30.335  29.288  22.201  1.00  0.00     0.047 C 
BRANCH  21  27
ATOM     27  O   UNL A   1      31.996  29.425  26.805  1.00  0.00    -0.497 OA
ATOM     28  C   UNL A   1      31.440  28.264  27.434  1.00  0.00     0.278 C 
ENDBRANCH  21  27
ENDBRANCH  15  20
ENDBRANCH  10  14
ENDBRANCH   7   9
ENDBRANCH   6   7
ENDBRANCH   5   6
ENDBRANCH   4   5
ENDBRANCH   3   4
ENDBRANCH   2   3
ENDBRANCH   1   2
BRANCH   1  29
ATOM     29  O   UNL A   1      37.952  23.955  25.561  1.00  0.00    -0.377 OA
BRANCH  29  30
ATOM     30  C   UNL A   1      38.567  24.022  26.833  1.00  0.00     0.188 C 
BRANCH  30  31
ATOM     31  C   UNL A   1      39.977  23.517  27.033  1.00  0.00     0.188 C 
BRANCH  31  32
ATOM     32  O   UNL A   1      39.859  22.105  27.170  1.00  0.00    -0.376 OA
BRANCH  32  33
ATOM     33  C   UNL A   1      40.634  21.342  26.258  1.00  0.00     0.202 C 
BRANCH  33  34
ATOM     34  C   UNL A   1      42.144  21.497  26.494  1.00  0.00     0.261 C 
BRANCH  34  35
ATOM     35  O   UNL A   1      42.811  21.500  25.212  1.00  0.00    -0.460 OA
BRANCH  35  36
ATOM     36  C   UNL A   1      44.168  21.382  25.227  1.00  0.00     0.338 C 
ATOM     37  O   UNL A   1      44.789  20.332  25.199  1.00  0.00    -0.246 OA
BRANCH  36  38
ATOM     38  C   UNL A   1      44.795  22.698  25.585  1.00  0.00     0.060 A 
ATOM     39  C   UNL A   1      45.231  22.916  26.908  1.00  0.00     0.016 A 
ATOM     40  C   UNL A   1      44.654  23.797  24.736  1.00  0.00     0.016 A 
ATOM     41  C   UNL A   1      45.378  24.226  27.418  1.00  0.00     0.010 A 
ATOM     42  C   UNL A   1      44.761  25.090  25.260  1.00  0.00     0.010 A 
ATOM     43  C   UNL A   1      45.069  25.334  26.618  1.00  0.00    -0.014 A 
BRANCH  43  44
ATOM     44  C   UNL A   1      44.793  26.707  27.147  1.00  0.00     0.031 A 
ATOM     45  C   UNL A   1      43.387  27.260  27.180  1.00  0.00     0.074 A 
ATOM     46  C   UNL A   1      45.712  27.315  27.958  1.00  0.00     0.049 A 
ATOM     47  N   UNL A   1      43.067  28.414  27.679  1.00  0.00    -0.248 NA
ATOM     48  C   UNL A   1      42.203  26.560  26.680  1.00  0.00     0.031 C 
ATOM     49  C   UNL A   1      45.391  28.219  29.076  1.00  0.00     0.029 A 
ATOM     50  N   UNL A   1      47.100  27.118  28.134  1.00  0.00    -0.354 N 
ATOM     51  C   UNL A   1      41.714  28.425  27.939  1.00  0.00     0.074 A 
ATOM     52  C   UNL A   1      41.208  27.324  27.156  1.00  0.00     0.031 C 
ATOM     53  C   UNL A   1      46.488  28.550  29.761  1.00  0.00     0.029 A 
ATOM     54  C   UNL A   1      47.593  28.192  28.921  1.00  0.00     0.049 A 
ATOM     55  H   UNL A   1      47.630  26.370  27.777  1.00  0.00     0.167 HD
ATOM     56  C   UNL A   1      41.214  29.271  28.894  1.00  0.00     0.037 A 
ATOM     57  C   UNL A   1      48.489  29.109  28.452  1.00  0.00     0.037 A 
ATOM     58  C   UNL A   1      42.226  30.238  29.386  1.00  0.00     0.049 A 
ATOM     59  C   UNL A   1      47.911  30.504  28.366  1.00  0.00     0.074 A 
ATOM     60  C   UNL A   1      42.635  30.663  30.638  1.00  0.00     0.029 A 
ATOM     61  N   UNL A   1      43.102  30.863  28.487  1.00  0.00    -0.354 N 
ATOM     62  N   UNL A   1      46.638  30.725  28.565  1.00  0.00    -0.248 NA
ATOM     63  C   UNL A   1      48.617  31.747  28.069  1.00  0.00     0.031 C 
ATOM     64  C   UNL A   1      43.814  31.449  30.494  1.00  0.00     0.029 A 
ATOM     65  C   UNL A   1      44.076  31.593  29.143  1.00  0.00     0.049 A 
ATOM     66  H   UNL A   1      43.032  30.791  27.509  1.00  0.00     0.167 HD
ATOM     67  C   UNL A   1      46.322  32.026  28.372  1.00  0.00     0.074 A 
ATOM     68  C   UNL A   1      47.604  32.640  28.078  1.00  0.00     0.031 C 
ATOM     69  C   UNL A   1      45.021  32.434  28.407  1.00  0.00     0.037 A 
BRANCH  56  70
ATOM     70  C   UNL A   1      39.821  29.162  29.543  1.00  0.00     0.064 A 
ATOM     71  C   UNL A   1      38.673  29.697  28.903  1.00  0.00     0.173 A 
ATOM     72  C   UNL A   1      39.551  28.629  30.826  1.00  0.00     0.173 A 
ATOM     73  F   UNL A   1      38.746  30.232  27.677  1.00  0.00    -0.203 F 
ATOM     74  C   UNL A   1      37.396  29.706  29.491  1.00  0.00     0.198 A 
ATOM     75  C   UNL A   1      38.261  28.568  31.378  1.00  0.00     0.198 A 
ATOM     76  F   UNL A   1      40.524  28.199  31.633  1.00  0.00    -0.203 F 
ATOM     77  F   UNL A   1      36.371  30.291  28.855  1.00  0.00    -0.200 F 
ATOM     78  C   UNL A   1      37.186  29.121  30.720  1.00  0.00     0.200 A 
ATOM     79  F   UNL A   1      38.079  27.986  32.574  1.00  0.00    -0.200 F 
ATOM     80  F   UNL A   1      35.965  29.102  31.271  1.00  0.00    -0.200 F 
ENDBRANCH  56  70
BRANCH  57  81
ATOM     81  C   UNL A   1      49.633  28.441  27.778  1.00  0.00     0.064 A 
ATOM     82  C   UNL A   1      50.462  27.719  28.666  1.00  0.00     0.173 A 
ATOM     83  C   UNL A   1      49.464  27.916  26.488  1.00  0.00     0.173 A 
ATOM     84  F   UNL A   1      50.681  28.196  29.903  1.00  0.00    -0.203 F 
ATOM     85  C   UNL A   1      50.869  26.420  28.374  1.00  0.00     0.198 A 
ATOM     86  C   UNL A   1      49.886  26.613  26.195  1.00  0.00     0.198 A 
ATOM     87  F   UNL A   1      48.720  28.572  25.586  1.00  0.00    -0.203 F 
ATOM     88  F   UNL A   1      51.470  25.679  29.318  1.00  0.00    -0.200 F 
ATOM     89  C   UNL A   1      50.533  25.850  27.159  1.00  0.00     0.200 A 
ATOM     90  F   UNL A   1      49.553  26.049  25.025  1.00  0.00    -0.200 F 
ATOM     91  F   UNL A   1      50.773  24.548  26.942  1.00  0.00    -0.200 F 
ENDBRANCH  57  81
BRANCH  69  92
ATOM     92  C   UNL A   1      44.497  33.687  27.759  1.00  0.00     0.064 A 
ATOM     93  C   UNL A   1      44.017  33.718  26.439  1.00  0.00     0.173 A 
ATOM     94  C   UNL A   1      44.252  34.849  28.530  1.00  0.00     0.173 A 
ATOM     95  F   UNL A   1      44.093  32.645  25.642  1.00  0.00    -0.203 F 
ATOM     96  C   UNL A   1      43.374  34.840  25.918  1.00  0.00     0.198 A 
ATOM     97  C   UNL A   1      43.558  35.944  28.023  1.00  0.00     0.198 A 
ATOM     98  F   UNL A   1      44.641  34.941  29.810  1.00  0.00    -0.203 F 
ATOM     99  F   UNL A   1      42.954  34.828  24.645  1.00  0.00    -0.200 F 
ATOM    100  C   UNL A   1      43.129  35.944  26.712  1.00  0.00     0.200 A 
ATOM    101  F   UNL A   1      43.280  36.984  28.822  1.00  0.00    -0.200 F 
ATOM    102  F   UNL A   1      42.460  36.995  26.222  1.00  0.00    -0.200 F 
ENDBRANCH  69  92
ENDBRANCH  43  44
ENDBRANCH  36  38
ENDBRANCH  35  36
ENDBRANCH  34  35
ENDBRANCH  33  34
ENDBRANCH  32  33
ENDBRANCH  31  32
ENDBRANCH  30  31
ENDBRANCH  29  30
ENDBRANCH   1  29
TORSDOF 23
ENDMDL
MODEL 2
REMARK VINA RESULT:     -10.5      4.375     10.381
REMARK SMILES COc1ccc(NC(=O)N[C@@H]2C=C[C@H](C(=O)OCCOCCOCCOCCOC(=O)c3ccc(-c4c5nc(c(-c6c(F)c(F)c(F)c(F)c6F)c6ccc([nH]6)c(-c6c(F)c(F)c(F)c(F)c6F)c6nc(c(-c7c(F)c(F)c(F)c(F)c7F)c7ccc4[nH]7)C=C6)C=C5)cc3)C2)c(C)c1
REMARK SMILES IDX 22 1 21 2 20 3 19 4 18 5 17 6 15 7 16 8 14 9 11 10 12 11
REMARK SMILES IDX 95 12 13 13 10 14 7 15 8 16 9 18 6 20 3 21 4 22 98 23 5 24
REMARK SMILES IDX 96 25 97 26 2 27 1 28 23 29 24 30 25 31 26 32 27 33 28 34
REMARK SMILES IDX 29 35 30 36 31 37 32 38 33 39 94 40 34 41 93 42 35 43 36 44
REMARK SMILES IDX 37 45 87 46 38 47 92 48 86 49 88 50 39 51 91 52 85 53 84 54
REMARK SMILES IDX 40 56 72 57 52 58 71 59 53 60 56 61 70 62 89 63 54 64 55 65
REMARK SMILES IDX 69 67 90 68 57 69 41 70 42 71 50 72 43 73 44 74 48 75 51 76
REMARK SMILES IDX 45 77 46 78 49 79 47 80 73 81 74 82 82 83 75 84 76 85 80 86
REMARK SMILES IDX 83 87 77 88 78 89 81 90 79 91 58 92 59 93 67 94 60 95 61 96
REMARK SMILES IDX 65 97 68 98 62 99 63 100 66 101 64 102
REMARK H PARENT 7 17 10 19 88 55 56 66
REMARK Flexibility Score: inf
ROOT
ATOM      1  C   UNL A   1      30.675  29.076  22.668  1.00  0.00     0.188 C 
ENDROOT
BRANCH   1   2
ATOM      2  C   UNL A   1      29.355  28.331  22.998  1.00  0.00     0.188 C 
BRANCH   2   3
ATOM      3  O   UNL A   1      29.315  26.972  23.375  1.00  0.00    -0.376 OA
BRANCH   3   4
ATOM      4  C   UNL A   1      30.096  26.622  24.504  1.00  0.00     0.202 C 
BRANCH   4   5
ATOM      5  C   UNL A   1      30.947  25.354  24.451  1.00  0.00     0.261 C 
BRANCH   5   6
ATOM      6  O   UNL A   1      30.757  24.681  23.195  1.00  0.00    -0.463 OA
BRANCH   6   7
ATOM      7  C   UNL A   1      31.722  24.938  22.262  1.00  0.00     0.312 C 
ATOM      8  O   UNL A   1      31.918  26.016  21.743  1.00  0.00    -0.252 OA
BRANCH   7   9
ATOM      9  C   UNL A   1      32.764  23.819  22.226  1.00  0.00     0.124 C 
ATOM     10  C   UNL A   1      34.009  22.915  24.184  1.00  0.00     0.107 C 
ATOM     11  C   UNL A   1      34.445  24.279  23.757  1.00  0.00    -0.006 C 
ATOM     12  C   UNL A   1      32.721  22.736  23.329  1.00  0.00     0.048 C 
ATOM     13  C   UNL A   1      33.965  24.638  22.572  1.00  0.00    -0.014 C 
BRANCH  10  14
ATOM     14  N   UNL A   1      33.975  22.901  25.636  1.00  0.00    -0.332 N 
ATOM     15  N   UNL A   1      33.417  20.716  26.477  1.00  0.00    -0.308 N 
ATOM     16  C   UNL A   1      33.714  22.025  26.626  1.00  0.00     0.319 C 
ATOM     17  H   UNL A   1      33.032  20.300  27.282  1.00  0.00     0.171 HD
ATOM     18  O   UNL A   1      33.690  22.495  27.770  1.00  0.00    -0.248 OA
ATOM     19  H   UNL A   1      34.210  23.784  26.001  1.00  0.00     0.165 HD
BRANCH  15  20
ATOM     20  C   UNL A   1      33.553  19.838  25.396  1.00  0.00     0.046 A 
ATOM     21  C   UNL A   1      33.536  17.362  24.206  1.00  0.00     0.119 A 
ATOM     22  C   UNL A   1      32.413  18.164  24.131  1.00  0.00     0.048 A 
ATOM     23  C   UNL A   1      34.752  17.981  24.506  1.00  0.00     0.052 A 
ATOM     24  C   UNL A   1      32.475  19.450  24.646  1.00  0.00     0.030 A 
ATOM     25  C   UNL A   1      34.770  19.282  25.043  1.00  0.00    -0.024 A 
ATOM     26  C   UNL A   1      35.998  20.139  24.938  1.00  0.00     0.047 C 
BRANCH  21  27
ATOM     27  O   UNL A   1      33.540  16.032  23.900  1.00  0.00    -0.497 OA
ATOM     28  C   UNL A   1      33.432  15.172  25.040  1.00  0.00     0.278 C 
ENDBRANCH  21  27
ENDBRANCH  15  20
ENDBRANCH  10  14
ENDBRANCH   7   9
ENDBRANCH   6   7
ENDBRANCH   5   6
ENDBRANCH   4   5
ENDBRANCH   3   4
ENDBRANCH   2   3
ENDBRANCH   1   2
BRANCH   1  29
ATOM     29  O   UNL A   1      31.971  28.591  22.925  1.00  0.00    -0.377 OA
BRANCH  29  30
ATOM     30  C   UNL A   1      32.659  29.166  24.018  1.00  0.00     0.188 C 
BRANCH  30  31
ATOM     31  C   UNL A   1      31.900  29.858  25.127  1.00  0.00     0.188 C 
BRANCH  31  32
ATOM     32  O   UNL A   1      32.176  29.106  26.304  1.00  0.00    -0.376 OA
BRANCH  32  33
ATOM     33  C   UNL A   1      32.575  29.871  27.430  1.00  0.00     0.202 C 
BRANCH  33  34
ATOM     34  C   UNL A   1      34.069  30.224  27.405  1.00  0.00     0.261 C 
BRANCH  34  35
ATOM     35  O   UNL A   1      34.208  31.611  27.020  1.00  0.00    -0.460 OA
BRANCH  35  36
ATOM     36  C   UNL A   1      34.014  32.539  27.997  1.00  0.00     0.338 C 
ATOM     37  O   UNL A   1      33.115  33.365  28.021  1.00  0.00    -0.246 OA
BRANCH  36  38
ATOM     38  C   UNL A   1      35.221  32.611  28.887  1.00  0.00     0.060 A 
ATOM     39  C   UNL A   1      36.453  33.022  28.342  1.00  0.00     0.016 A 
ATOM     40  C   UNL A   1      35.215  31.978  30.131  1.00  0.00     0.016 A 
ATOM     41  C   UNL A   1      37.675  32.670  28.961  1.00  0.00     0.010 A 
ATOM     42  C   UNL A   1      36.427  31.597  30.715  1.00  0.00     0.010 A 
ATOM     43  C   UNL A   1      37.678  31.884  30.121  1.00  0.00    -0.014 A 
BRANCH  43  44
ATOM     44  C   UNL A   1      38.864  31.122  30.622  1.00  0.00     0.031 A 
ATOM     45  C   UNL A   1      39.266  29.807  29.994  1.00  0.00     0.074 A 
ATOM     46  C   UNL A   1      39.818  31.768  31.360  1.00  0.00     0.049 A 
ATOM     47  N   UNL A   1      40.315  29.125  30.335  1.00  0.00    -0.248 NA
ATOM     48  C   UNL A   1      38.544  29.146  28.906  1.00  0.00     0.031 C 
ATOM     49  C   UNL A   1      41.262  31.472  31.326  1.00  0.00     0.029 A 
ATOM     50  N   UNL A   1      39.783  32.952  32.129  1.00  0.00    -0.354 N 
ATOM     51  C   UNL A   1      40.621  28.245  29.320  1.00  0.00     0.074 A 
ATOM     52  C   UNL A   1      39.408  28.187  28.543  1.00  0.00     0.031 C 
ATOM     53  C   UNL A   1      41.952  32.353  32.055  1.00  0.00     0.029 A 
ATOM     54  C   UNL A   1      40.986  33.017  32.879  1.00  0.00     0.049 A 
ATOM     55  H   UNL A   1      39.055  33.614  32.141  1.00  0.00     0.167 HD
ATOM     56  C   UNL A   1      41.906  27.787  29.184  1.00  0.00     0.037 A 
ATOM     57  C   UNL A   1      41.017  32.961  34.243  1.00  0.00     0.037 A 
ATOM     58  C   UNL A   1      42.772  28.170  30.325  1.00  0.00     0.049 A 
ATOM     59  C   UNL A   1      41.712  31.722  34.764  1.00  0.00     0.074 A 
ATOM     60  C   UNL A   1      44.034  28.727  30.443  1.00  0.00     0.029 A 
ATOM     61  N   UNL A   1      42.288  28.092  31.638  1.00  0.00    -0.354 N 
ATOM     62  N   UNL A   1      42.072  30.757  33.958  1.00  0.00    -0.248 NA
ATOM     63  C   UNL A   1      42.072  31.413  36.143  1.00  0.00     0.031 C 
ATOM     64  C   UNL A   1      44.257  29.078  31.806  1.00  0.00     0.029 A 
ATOM     65  C   UNL A   1      43.171  28.647  32.546  1.00  0.00     0.049 A 
ATOM     66  H   UNL A   1      41.424  27.691  31.884  1.00  0.00     0.167 HD
ATOM     67  C   UNL A   1      42.611  29.718  34.637  1.00  0.00     0.074 A 
ATOM     68  C   UNL A   1      42.610  30.181  36.012  1.00  0.00     0.031 C 
ATOM     69  C   UNL A   1      42.933  28.561  33.988  1.00  0.00     0.037 A 
BRANCH  56  70
ATOM     70  C   UNL A   1      42.482  27.101  27.929  1.00  0.00     0.064 A 
ATOM     71  C   UNL A   1      42.254  25.723  27.681  1.00  0.00     0.173 A 
ATOM     72  C   UNL A   1      43.337  27.708  26.980  1.00  0.00     0.173 A 
ATOM     73  F   UNL A   1      41.459  24.995  28.477  1.00  0.00    -0.203 F 
ATOM     74  C   UNL A   1      42.830  25.028  26.604  1.00  0.00     0.198 A 
ATOM     75  C   UNL A   1      43.848  27.031  25.860  1.00  0.00     0.198 A 
ATOM     76  F   UNL A   1      43.771  28.964  27.117  1.00  0.00    -0.203 F 
ATOM     77  F   UNL A   1      42.623  23.709  26.472  1.00  0.00    -0.200 F 
ATOM     78  C   UNL A   1      43.609  25.688  25.680  1.00  0.00     0.200 A 
ATOM     79  F   UNL A   1      44.599  27.697  24.968  1.00  0.00    -0.200 F 
ATOM     80  F   UNL A   1      44.137  25.035  24.635  1.00  0.00    -0.200 F 
ENDBRANCH  56  70
BRANCH  57  81
ATOM     81  C   UNL A   1      40.027  33.895  34.839  1.00  0.00     0.064 A 
ATOM     82  C   UNL A   1      38.975  33.237  35.516  1.00  0.00     0.173 A 
ATOM     83  C   UNL A   1      40.463  35.120  35.366  1.00  0.00     0.173 A 
ATOM     84  F   UNL A   1      38.500  32.077  35.034  1.00  0.00    -0.203 F 
ATOM     85  C   UNL A   1      38.576  33.640  36.788  1.00  0.00     0.198 A 
ATOM     86  C   UNL A   1      40.050  35.527  36.641  1.00  0.00     0.198 A 
ATOM     87  F   UNL A   1      41.432  35.812  34.750  1.00  0.00    -0.203 F 
ATOM     88  F   UNL A   1      37.731  32.876  37.498  1.00  0.00    -0.200 F 
ATOM     89  C   UNL A   1      39.155  34.755  37.370  1.00  0.00     0.200 A 
ATOM     90  F   UNL A   1      40.615  36.597  37.217  1.00  0.00    -0.200 F 
ATOM     91  F   UNL A   1      38.900  35.046  38.655  1.00  0.00    -0.200 F 
ENDBRANCH  57  81
BRANCH  69  92
ATOM     92  C   UNL A   1      43.072  27.217  34.650  1.00  0.00     0.064 A 
ATOM     93  C   UNL A   1      41.980  26.367  34.886  1.00  0.00     0.173 A 
ATOM     94  C   UNL A   1      44.352  26.647  34.862  1.00  0.00     0.173 A 
ATOM     95  F   UNL A   1      40.725  26.752  34.622  1.00  0.00    -0.203 F 
ATOM     96  C   UNL A   1      42.151  25.058  35.335  1.00  0.00     0.198 A 
ATOM     97  C   UNL A   1      44.519  25.323  35.254  1.00  0.00     0.198 A 
ATOM     98  F   UNL A   1      45.478  27.346  34.654  1.00  0.00    -0.203 F 
ATOM     99  F   UNL A   1      41.075  24.294  35.567  1.00  0.00    -0.200 F 
ATOM    100  C   UNL A   1      43.417  24.531  35.502  1.00  0.00     0.200 A 
ATOM    101  F   UNL A   1      45.753  24.810  35.359  1.00  0.00    -0.200 F 
ATOM    102  F   UNL A   1      43.575  23.255  35.878  1.00  0.00    -0.200 F 
ENDBRANCH  69  92
ENDBRANCH  43  44
ENDBRANCH  36  38
ENDBRANCH  35  36
ENDBRANCH  34  35
ENDBRANCH  33  34
ENDBRANCH  32  33
ENDBRANCH  31  32
ENDBRANCH  30  31
ENDBRANCH  29  30
ENDBRANCH   1  29
TORSDOF 23
ENDMDL
MODEL 3
REMARK VINA RESULT:     -10.3      4.660     10.430
REMARK SMILES COc1ccc(NC(=O)N[C@@H]2C=C[C@H](C(=O)OCCOCCOCCOCCOC(=O)c3ccc(-c4c5nc(c(-c6c(F)c(F)c(F)c(F)c6F)c6ccc([nH]6)c(-c6c(F)c(F)c(F)c(F)c6F)c6nc(c(-c7c(F)c(F)c(F)c(F)c7F)c7ccc4[nH]7)C=C6)C=C5)cc3)C2)c(C)c1
REMARK SMILES IDX 22 1 21 2 20 3 19 4 18 5 17 6 15 7 16 8 14 9 11 10 12 11
REMARK SMILES IDX 95 12 13 13 10 14 7 15 8 16 9 18 6 20 3 21 4 22 98 23 5 24
REMARK SMILES IDX 96 25 97 26 2 27 1 28 23 29 24 30 25 31 26 32 27 33 28 34
REMARK SMILES IDX 29 35 30 36 31 37 32 38 33 39 94 40 34 41 93 42 35 43 36 44
REMARK SMILES IDX 37 45 87 46 38 47 92 48 86 49 88 50 39 51 91 52 85 53 84 54
REMARK SMILES IDX 40 56 72 57 52 58 71 59 53 60 56 61 70 62 89 63 54 64 55 65
REMARK SMILES IDX 69 67 90 68 57 69 41 70 42 71 50 72 43 73 44 74 48 75 51 76
REMARK SMILES IDX 45 77 46 78 49 79 47 80 73 81 74 82 82 83 75 84 76 85 80 86
REMARK SMILES IDX 83 87 77 88 78 89 81 90 79 91 58 92 59 93 67 94 60 95 61 96
REMARK SMILES IDX 65 97 68 98 62 99 63 100 66 101 64 102
REMARK H PARENT 7 17 10 19 88 55 56 66
REMARK Flexibility Score: inf
ROOT
ATOM      1  C   UNL A   1      29.508  32.453  23.559  1.00  0.00     0.188 C 
ENDROOT
BRANCH   1   2
ATOM      2  C   UNL A   1      28.245  32.763  22.714  1.00  0.00     0.188 C 
BRANCH   2   3
ATOM      3  O   UNL A   1      28.153  32.475  21.335  1.00  0.00    -0.376 OA
BRANCH   3   4
ATOM      4  C   UNL A   1      28.647  31.209  20.937  1.00  0.00     0.202 C 
BRANCH   4   5
ATOM      5  C   UNL A   1      28.065  29.951  21.581  1.00  0.00     0.261 C 
BRANCH   5   6
ATOM      6  O   UNL A   1      29.119  29.146  22.137  1.00  0.00    -0.463 OA
BRANCH   6   7
ATOM      7  C   UNL A   1      28.715  28.273  23.107  1.00  0.00     0.312 C 
ATOM      8  O   UNL A   1      27.642  27.709  23.132  1.00  0.00    -0.252 OA
BRANCH   7   9
ATOM      9  C   UNL A   1      29.901  27.797  23.947  1.00  0.00     0.124 C 
ATOM     10  C   UNL A   1      31.628  26.148  23.240  1.00  0.00     0.107 C 
ATOM     11  C   UNL A   1      30.290  25.549  23.531  1.00  0.00    -0.006 C 
ATOM     12  C   UNL A   1      31.283  27.665  23.265  1.00  0.00     0.048 C 
ATOM     13  C   UNL A   1      29.462  26.383  24.149  1.00  0.00    -0.014 C 
BRANCH  10  14
ATOM     14  N   UNL A   1      32.149  25.498  22.051  1.00  0.00    -0.332 N 
ATOM     15  N   UNL A   1      33.442  23.547  22.616  1.00  0.00    -0.308 N 
ATOM     16  C   UNL A   1      32.921  24.437  21.743  1.00  0.00     0.319 C 
ATOM     17  H   UNL A   1      34.159  22.990  22.237  1.00  0.00     0.171 HD
ATOM     18  O   UNL A   1      33.220  24.315  20.548  1.00  0.00    -0.248 OA
ATOM     19  H   UNL A   1      31.855  25.966  21.237  1.00  0.00     0.165 HD
BRANCH  15  20
ATOM     20  C   UNL A   1      33.155  23.267  23.956  1.00  0.00     0.046 A 
ATOM     21  C   UNL A   1      31.651  23.435  26.249  1.00  0.00     0.119 A 
ATOM     22  C   UNL A   1      31.500  22.347  25.411  1.00  0.00     0.048 A 
ATOM     23  C   UNL A   1      32.828  24.180  26.133  1.00  0.00     0.052 A 
ATOM     24  C   UNL A   1      32.340  22.227  24.314  1.00  0.00     0.030 A 
ATOM     25  C   UNL A   1      33.645  24.040  24.995  1.00  0.00    -0.024 A 
ATOM     26  C   UNL A   1      35.091  24.436  25.035  1.00  0.00     0.047 C 
BRANCH  21  27
ATOM     27  O   UNL A   1      30.776  23.752  27.246  1.00  0.00    -0.497 OA
ATOM     28  C   UNL A   1      29.586  22.954  27.251  1.00  0.00     0.278 C 
ENDBRANCH  21  27
ENDBRANCH  15  20
ENDBRANCH  10  14
ENDBRANCH   7   9
ENDBRANCH   6   7
ENDBRANCH   5   6
ENDBRANCH   4   5
ENDBRANCH   3   4
ENDBRANCH   2   3
ENDBRANCH   1   2
BRANCH   1  29
ATOM     29  O   UNL A   1      29.563  31.559  24.643  1.00  0.00    -0.377 OA
BRANCH  29  30
ATOM     30  C   UNL A   1      30.762  31.544  25.394  1.00  0.00     0.188 C 
BRANCH  30  31
ATOM     31  C   UNL A   1      31.420  30.236  25.765  1.00  0.00     0.188 C 
BRANCH  31  32
ATOM     32  O   UNL A   1      32.774  30.561  26.060  1.00  0.00    -0.376 OA
BRANCH  32  33
ATOM     33  C   UNL A   1      33.047  30.833  27.425  1.00  0.00     0.202 C 
BRANCH  33  34
ATOM     34  C   UNL A   1      34.397  31.537  27.629  1.00  0.00     0.261 C 
BRANCH  34  35
ATOM     35  O   UNL A   1      34.173  32.966  27.641  1.00  0.00    -0.460 OA
BRANCH  35  36
ATOM     36  C   UNL A   1      33.901  33.533  28.849  1.00  0.00     0.338 C 
ATOM     37  O   UNL A   1      32.911  34.195  29.114  1.00  0.00    -0.246 OA
BRANCH  36  38
ATOM     38  C   UNL A   1      35.120  33.489  29.724  1.00  0.00     0.060 A 
ATOM     39  C   UNL A   1      36.355  33.928  29.206  1.00  0.00     0.016 A 
ATOM     40  C   UNL A   1      35.115  32.733  30.897  1.00  0.00     0.016 A 
ATOM     41  C   UNL A   1      37.576  33.489  29.769  1.00  0.00     0.010 A 
ATOM     42  C   UNL A   1      36.326  32.270  31.423  1.00  0.00     0.010 A 
ATOM     43  C   UNL A   1      37.576  32.589  30.843  1.00  0.00    -0.014 A 
BRANCH  43  44
ATOM     44  C   UNL A   1      38.751  31.756  31.246  1.00  0.00     0.031 A 
ATOM     45  C   UNL A   1      39.036  30.434  30.572  1.00  0.00     0.074 A 
ATOM     46  C   UNL A   1      39.788  32.336  31.925  1.00  0.00     0.049 A 
ATOM     47  N   UNL A   1      40.068  29.690  30.828  1.00  0.00    -0.248 NA
ATOM     48  C   UNL A   1      38.204  29.833  29.529  1.00  0.00     0.031 C 
ATOM     49  C   UNL A   1      41.207  31.965  31.784  1.00  0.00     0.029 A 
ATOM     50  N   UNL A   1      39.871  33.506  32.712  1.00  0.00    -0.354 N 
ATOM     51  C   UNL A   1      40.254  28.814  29.781  1.00  0.00     0.074 A 
ATOM     52  C   UNL A   1      38.988  28.836  29.090  1.00  0.00     0.031 C 
ATOM     53  C   UNL A   1      41.994  32.794  32.476  1.00  0.00     0.029 A 
ATOM     54  C   UNL A   1      41.126  33.493  33.376  1.00  0.00     0.049 A 
ATOM     55  H   UNL A   1      39.183  34.206  32.786  1.00  0.00     0.167 HD
ATOM     56  C   UNL A   1      41.499  28.292  29.546  1.00  0.00     0.037 A 
ATOM     57  C   UNL A   1      41.249  33.409  34.733  1.00  0.00     0.037 A 
ATOM     58  C   UNL A   1      42.463  28.607  30.630  1.00  0.00     0.049 A 
ATOM     59  C   UNL A   1      41.911  32.126  35.185  1.00  0.00     0.074 A 
ATOM     60  C   UNL A   1      43.758  29.094  30.666  1.00  0.00     0.029 A 
ATOM     61  N   UNL A   1      42.067  28.530  31.972  1.00  0.00    -0.354 N 
ATOM     62  N   UNL A   1      42.160  31.158  34.341  1.00  0.00    -0.248 NA
ATOM     63  C   UNL A   1      42.349  31.772  36.531  1.00  0.00     0.031 C 
ATOM     64  C   UNL A   1      44.094  29.406  32.014  1.00  0.00     0.029 A 
ATOM     65  C   UNL A   1      43.041  29.020  32.824  1.00  0.00     0.049 A 
ATOM     66  H   UNL A   1      41.202  28.171  32.273  1.00  0.00     0.167 HD
ATOM     67  C   UNL A   1      42.688  30.080  34.964  1.00  0.00     0.074 A 
ATOM     68  C   UNL A   1      42.808  30.516  36.343  1.00  0.00     0.031 C 
ATOM     69  C   UNL A   1      42.900  28.919  34.277  1.00  0.00     0.037 A 
BRANCH  56  70
ATOM     70  C   UNL A   1      41.948  27.600  28.244  1.00  0.00     0.064 A 
ATOM     71  C   UNL A   1      42.503  26.295  28.265  1.00  0.00     0.173 A 
ATOM     72  C   UNL A   1      41.946  28.189  26.958  1.00  0.00     0.173 A 
ATOM     73  F   UNL A   1      42.573  25.586  29.400  1.00  0.00    -0.203 F 
ATOM     74  C   UNL A   1      43.011  25.655  27.122  1.00  0.00     0.198 A 
ATOM     75  C   UNL A   1      42.382  27.518  25.804  1.00  0.00     0.198 A 
ATOM     76  F   UNL A   1      41.583  29.459  26.761  1.00  0.00    -0.203 F 
ATOM     77  F   UNL A   1      43.583  24.447  27.230  1.00  0.00    -0.200 F 
ATOM     78  C   UNL A   1      42.930  26.258  25.886  1.00  0.00     0.200 A 
ATOM     79  F   UNL A   1      42.286  28.122  24.609  1.00  0.00    -0.200 F 
ATOM     80  F   UNL A   1      43.387  25.639  24.789  1.00  0.00    -0.200 F 
ENDBRANCH  56  70
BRANCH  57  81
ATOM     81  C   UNL A   1      40.355  34.383  35.412  1.00  0.00     0.064 A 
ATOM     82  C   UNL A   1      39.282  33.772  36.100  1.00  0.00     0.173 A 
ATOM     83  C   UNL A   1      40.901  35.545  35.978  1.00  0.00     0.173 A 
ATOM     84  F   UNL A   1      38.703  32.676  35.584  1.00  0.00    -0.203 F 
ATOM     85  C   UNL A   1      38.962  34.140  37.404  1.00  0.00     0.198 A 
ATOM     86  C   UNL A   1      40.568  35.918  37.286  1.00  0.00     0.198 A 
ATOM     87  F   UNL A   1      41.897  36.193  35.355  1.00  0.00    -0.203 F 
ATOM     88  F   UNL A   1      38.089  33.406  38.111  1.00  0.00    -0.200 F 
ATOM     89  C   UNL A   1      39.645  35.179  38.014  1.00  0.00     0.200 A 
ATOM     90  F   UNL A   1      41.233  36.914  37.888  1.00  0.00    -0.200 F 
ATOM     91  F   UNL A   1      39.461  35.424  39.320  1.00  0.00    -0.200 F 
ENDBRANCH  57  81
BRANCH  69  92
ATOM     92  C   UNL A   1      43.012  27.558  34.907  1.00  0.00     0.064 A 
ATOM     93  C   UNL A   1      41.924  26.903  35.506  1.00  0.00     0.173 A 
ATOM     94  C   UNL A   1      44.177  26.773  34.723  1.00  0.00     0.173 A 
ATOM     95  F   UNL A   1      40.734  27.504  35.640  1.00  0.00    -0.203 F 
ATOM     96  C   UNL A   1      42.004  25.576  35.923  1.00  0.00     0.198 A 
ATOM     97  C   UNL A   1      44.233  25.431  35.088  1.00  0.00     0.198 A 
ATOM     98  F   UNL A   1      45.280  27.272  34.145  1.00  0.00    -0.203 F 
ATOM     99  F   UNL A   1      40.944  25.003  36.510  1.00  0.00    -0.200 F 
ATOM    100  C   UNL A   1      43.149  24.835  35.699  1.00  0.00     0.200 A 
ATOM    101  F   UNL A   1      45.330  24.712  34.815  1.00  0.00    -0.200 F 
ATOM    102  F   UNL A   1      43.199  23.544  36.051  1.00  0.00    -0.200 F 
ENDBRANCH  69  92
ENDBRANCH  43  44
ENDBRANCH  36  38
ENDBRANCH  35  36
ENDBRANCH  34  35
ENDBRANCH  33  34
ENDBRANCH  32  33
ENDBRANCH  31  32
ENDBRANCH  30  31
ENDBRANCH  29  30
ENDBRANCH   1  29
TORSDOF 23
ENDMDL
