MODEL 1
REMARK VINA RESULT:     -10.6      0.000      0.000
REMARK SMILES O=C(OCCOCCOCCOCCOC(=O)[C@H]1CCCN(C(=O)C2CC[NH+](Cc3ccco3)CC2)C1)c1ccc(-c2c3nc(c(-c4c(F)c(F)c(F)c(F)c4F)c4ccc([nH]4)c(-c4c(F)c(F)c(F)c(F)c4F)c4nc(c(-c5c(F)c(F)c(F)c(F)c5F)c5ccc2[nH]5)C=C4)C=C3)cc1
REMARK SMILES IDX 10 1 9 2 8 3 7 4 6 5 5 6 4 7 3 8 2 9 1 10 38 11 39 12 100 13
REMARK SMILES IDX 40 14 99 15 41 16 42 17 43 18 93 19 44 20 98 21 92 22 94 23
REMARK SMILES IDX 45 24 97 25 91 26 90 27 46 29 78 30 58 31 77 32 59 33 62 34
REMARK SMILES IDX 76 35 95 36 60 37 61 38 75 40 96 41 63 42 47 43 48 44 56 45
REMARK SMILES IDX 49 46 50 47 54 48 57 49 51 50 52 51 55 52 53 53 79 54 80 55
REMARK SMILES IDX 88 56 81 57 82 58 86 59 89 60 83 61 84 62 87 63 85 64 64 65
REMARK SMILES IDX 65 66 73 67 66 68 67 69 71 70 74 71 68 72 69 73 72 74 70 75
REMARK SMILES IDX 11 76 12 77 13 78 14 79 15 80 16 81 17 82 18 83 19 84 37 85
REMARK SMILES IDX 20 86 22 87 21 88 23 89 24 90 25 91 26 92 36 93 27 94 35 95
REMARK SMILES IDX 28 96 29 98 30 99 31 100 34 101 32 102 33 103
REMARK H PARENT 94 28 62 39 28 97
REMARK Flexibility Score: inf
ROOT
ATOM      1  C   UNL A   1      42.303  18.727  26.197  1.00  0.00     0.188 C 
ENDROOT
BRANCH   1   2
ATOM      2  O   UNL A   1      43.476  17.960  25.995  1.00  0.00    -0.377 OA
BRANCH   2   3
ATOM      3  C   UNL A   1      44.637  18.612  25.505  1.00  0.00     0.188 C 
BRANCH   3   4
ATOM      4  C   UNL A   1      44.591  19.111  24.068  1.00  0.00     0.188 C 
BRANCH   4   5
ATOM      5  O   UNL A   1      44.496  20.526  24.070  1.00  0.00    -0.376 OA
BRANCH   5   6
ATOM      6  C   UNL A   1      45.537  21.273  24.693  1.00  0.00     0.202 C 
BRANCH   6   7
ATOM      7  C   UNL A   1      45.103  22.136  25.869  1.00  0.00     0.261 C 
BRANCH   7   8
ATOM      8  O   UNL A   1      44.096  23.126  25.585  1.00  0.00    -0.460 OA
BRANCH   8   9
ATOM      9  C   UNL A   1      44.126  24.478  25.559  1.00  0.00     0.338 C 
ATOM     10  O   UNL A   1      44.568  25.029  24.552  1.00  0.00    -0.246 OA
BRANCH   9  11
ATOM     11  C   UNL A   1      43.687  25.362  26.677  1.00  0.00     0.060 A 
ATOM     12  C   UNL A   1      42.984  24.938  27.794  1.00  0.00     0.016 A 
ATOM     13  C   UNL A   1      44.117  26.698  26.662  1.00  0.00     0.016 A 
ATOM     14  C   UNL A   1      42.650  25.766  28.835  1.00  0.00     0.010 A 
ATOM     15  C   UNL A   1      43.816  27.557  27.726  1.00  0.00     0.010 A 
ATOM     16  C   UNL A   1      43.066  27.080  28.804  1.00  0.00    -0.014 A 
BRANCH  16  17
ATOM     17  C   UNL A   1      42.490  27.928  29.847  1.00  0.00     0.031 A 
ATOM     18  C   UNL A   1      43.300  28.103  31.088  1.00  0.00     0.074 A 
ATOM     19  C   UNL A   1      41.421  28.692  29.559  1.00  0.00     0.049 A 
ATOM     20  N   UNL A   1      42.997  28.726  32.188  1.00  0.00    -0.248 NA
ATOM     21  C   UNL A   1      44.654  27.513  31.079  1.00  0.00     0.031 C 
ATOM     22  C   UNL A   1      40.743  28.748  28.257  1.00  0.00     0.029 A 
ATOM     23  N   UNL A   1      40.744  29.598  30.324  1.00  0.00    -0.354 N 
ATOM     24  C   UNL A   1      44.091  28.549  33.021  1.00  0.00     0.074 A 
ATOM     25  C   UNL A   1      45.082  27.790  32.299  1.00  0.00     0.031 C 
ATOM     26  C   UNL A   1      39.739  29.636  28.323  1.00  0.00     0.029 A 
ATOM     27  C   UNL A   1      39.650  30.131  29.688  1.00  0.00     0.049 A 
ATOM     28  H   UNL A   1      41.014  29.844  31.238  1.00  0.00     0.167 HD
ATOM     29  C   UNL A   1      44.216  28.974  34.295  1.00  0.00     0.037 A 
ATOM     30  C   UNL A   1      38.656  30.876  30.203  1.00  0.00     0.037 A 
ATOM     31  C   UNL A   1      43.194  29.736  34.952  1.00  0.00     0.049 A 
ATOM     32  C   UNL A   1      38.753  31.210  31.669  1.00  0.00     0.074 A 
ATOM     33  C   UNL A   1      43.139  30.169  36.260  1.00  0.00     0.029 A 
ATOM     34  N   UNL A   1      42.033  30.178  34.324  1.00  0.00    -0.354 N 
ATOM     35  N   UNL A   1      39.728  30.954  32.512  1.00  0.00    -0.248 NA
ATOM     36  C   UNL A   1      37.612  31.910  32.264  1.00  0.00     0.031 C 
ATOM     37  C   UNL A   1      41.914  30.819  36.440  1.00  0.00     0.029 A 
ATOM     38  C   UNL A   1      41.237  30.853  35.227  1.00  0.00     0.049 A 
ATOM     39  H   UNL A   1      41.814  30.031  33.376  1.00  0.00     0.167 HD
ATOM     40  C   UNL A   1      39.330  31.479  33.731  1.00  0.00     0.074 A 
ATOM     41  C   UNL A   1      38.034  32.092  33.507  1.00  0.00     0.031 C 
ATOM     42  C   UNL A   1      39.961  31.456  34.931  1.00  0.00     0.037 A 
BRANCH  29  43
ATOM     43  C   UNL A   1      45.420  28.518  35.057  1.00  0.00     0.064 A 
ATOM     44  C   UNL A   1      46.616  29.246  35.088  1.00  0.00     0.173 A 
ATOM     45  C   UNL A   1      45.375  27.297  35.750  1.00  0.00     0.173 A 
ATOM     46  F   UNL A   1      46.726  30.393  34.401  1.00  0.00    -0.203 F 
ATOM     47  C   UNL A   1      47.728  28.766  35.776  1.00  0.00     0.198 A 
ATOM     48  C   UNL A   1      46.478  26.833  36.460  1.00  0.00     0.198 A 
ATOM     49  F   UNL A   1      44.262  26.548  35.728  1.00  0.00    -0.203 F 
ATOM     50  F   UNL A   1      48.879  29.452  35.751  1.00  0.00    -0.200 F 
ATOM     51  C   UNL A   1      47.655  27.566  36.469  1.00  0.00     0.200 A 
ATOM     52  F   UNL A   1      46.405  25.671  37.123  1.00  0.00    -0.200 F 
ATOM     53  F   UNL A   1      48.724  27.107  37.135  1.00  0.00    -0.200 F 
ENDBRANCH  29  43
BRANCH  30  54
ATOM     54  C   UNL A   1      37.464  31.242  29.389  1.00  0.00     0.064 A 
ATOM     55  C   UNL A   1      37.215  32.568  29.011  1.00  0.00     0.173 A 
ATOM     56  C   UNL A   1      36.503  30.280  29.030  1.00  0.00     0.173 A 
ATOM     57  F   UNL A   1      38.088  33.532  29.340  1.00  0.00    -0.203 F 
ATOM     58  C   UNL A   1      36.040  32.924  28.348  1.00  0.00     0.198 A 
ATOM     59  C   UNL A   1      35.347  30.630  28.334  1.00  0.00     0.198 A 
ATOM     60  F   UNL A   1      36.679  28.992  29.364  1.00  0.00    -0.203 F 
ATOM     61  F   UNL A   1      35.795  34.211  28.069  1.00  0.00    -0.200 F 
ATOM     62  C   UNL A   1      35.108  31.954  28.010  1.00  0.00     0.200 A 
ATOM     63  F   UNL A   1      34.459  29.685  27.996  1.00  0.00    -0.200 F 
ATOM     64  F   UNL A   1      33.972  32.299  27.388  1.00  0.00    -0.200 F 
ENDBRANCH  30  54
BRANCH  42  65
ATOM     65  C   UNL A   1      39.270  32.148  36.064  1.00  0.00     0.064 A 
ATOM     66  C   UNL A   1      38.320  31.490  36.858  1.00  0.00     0.173 A 
ATOM     67  C   UNL A   1      39.614  33.467  36.393  1.00  0.00     0.173 A 
ATOM     68  F   UNL A   1      37.951  30.233  36.568  1.00  0.00    -0.203 F 
ATOM     69  C   UNL A   1      37.718  32.141  37.927  1.00  0.00     0.198 A 
ATOM     70  C   UNL A   1      39.041  34.099  37.489  1.00  0.00     0.198 A 
ATOM     71  F   UNL A   1      40.528  34.129  35.666  1.00  0.00    -0.203 F 
ATOM     72  F   UNL A   1      36.774  31.515  38.642  1.00  0.00    -0.200 F 
ATOM     73  C   UNL A   1      38.088  33.439  38.249  1.00  0.00     0.200 A 
ATOM     74  F   UNL A   1      39.414  35.344  37.811  1.00  0.00    -0.200 F 
ATOM     75  F   UNL A   1      37.519  34.058  39.293  1.00  0.00    -0.200 F 
ENDBRANCH  42  65
ENDBRANCH  16  17
ENDBRANCH   9  11
ENDBRANCH   8   9
ENDBRANCH   7   8
ENDBRANCH   6   7
ENDBRANCH   5   6
ENDBRANCH   4   5
ENDBRANCH   3   4
ENDBRANCH   2   3
ENDBRANCH   1   2
BRANCH   1  76
ATOM     76  C   UNL A   1      42.218  19.772  27.324  1.00  0.00     0.188 C 
BRANCH  76  77
ATOM     77  O   UNL A   1      41.885  21.123  27.067  1.00  0.00    -0.376 OA
BRANCH  77  78
ATOM     78  C   UNL A   1      40.537  21.493  26.802  1.00  0.00     0.202 C 
BRANCH  78  79
ATOM     79  C   UNL A   1      39.750  20.943  25.594  1.00  0.00     0.261 C 
BRANCH  79  80
ATOM     80  O   UNL A   1      38.492  21.591  25.418  1.00  0.00    -0.463 OA
BRANCH  80  81
ATOM     81  C   UNL A   1      37.377  20.923  24.978  1.00  0.00     0.310 C 
ATOM     82  O   UNL A   1      37.296  19.731  24.789  1.00  0.00    -0.252 OA
BRANCH  81  83
ATOM     83  C   UNL A   1      36.228  21.928  24.948  1.00  0.00     0.119 C 
ATOM     84  C   UNL A   1      36.407  22.886  26.142  1.00  0.00     0.019 C 
ATOM     85  C   UNL A   1      35.924  22.731  23.654  1.00  0.00     0.134 C 
ATOM     86  C   UNL A   1      35.122  23.642  26.277  1.00  0.00     0.022 C 
ATOM     87  N   UNL A   1      34.952  23.851  23.908  1.00  0.00    -0.342 N 
ATOM     88  C   UNL A   1      35.193  24.571  25.113  1.00  0.00     0.119 C 
BRANCH  87  89
ATOM     89  C   UNL A   1      33.878  24.186  23.102  1.00  0.00     0.226 C 
ATOM     90  O   UNL A   1      33.960  25.150  22.333  1.00  0.00    -0.275 OA
BRANCH  89  91
ATOM     91  C   UNL A   1      32.522  23.360  23.151  1.00  0.00     0.090 C 
ATOM     92  C   UNL A   1      31.793  23.269  24.499  1.00  0.00     0.075 C 
ATOM     93  C   UNL A   1      32.434  22.015  22.408  1.00  0.00     0.075 C 
ATOM     94  C   UNL A   1      32.033  22.005  25.343  1.00  0.00     0.263 C 
ATOM     95  C   UNL A   1      32.594  20.718  23.237  1.00  0.00     0.263 C 
ATOM     96  N   UNL A   1      32.166  20.734  24.637  1.00  0.00    -0.329 N 
ATOM     97  H   UNL A   1      31.172  20.550  24.503  1.00  0.00     0.348 HD
BRANCH  96  98
ATOM     98  C   UNL A   1      32.701  19.609  25.453  1.00  0.00     0.338 C 
BRANCH  98  99
ATOM     99  C   UNL A   1      33.339  18.428  24.753  1.00  0.00     0.157 A 
ATOM    100  C   UNL A   1      34.631  17.937  24.654  1.00  0.00     0.052 A 
ATOM    101  O   UNL A   1      32.491  17.552  24.117  1.00  0.00    -0.463 OA
ATOM    102  C   UNL A   1      34.579  16.762  23.857  1.00  0.00     0.042 A 
ATOM    103  C   UNL A   1      33.250  16.557  23.576  1.00  0.00     0.195 A 
ENDBRANCH  98  99
ENDBRANCH  96  98
ENDBRANCH  89  91
ENDBRANCH  87  89
ENDBRANCH  81  83
ENDBRANCH  80  81
ENDBRANCH  79  80
ENDBRANCH  78  79
ENDBRANCH  77  78
ENDBRANCH  76  77
ENDBRANCH   1  76
TORSDOF 24
ENDMDL
MODEL 2
REMARK VINA RESULT:     -10.3      1.419      3.121
REMARK SMILES O=C(OCCOCCOCCOCCOC(=O)[C@H]1CCCN(C(=O)C2CC[NH+](Cc3ccco3)CC2)C1)c1ccc(-c2c3nc(c(-c4c(F)c(F)c(F)c(F)c4F)c4ccc([nH]4)c(-c4c(F)c(F)c(F)c(F)c4F)c4nc(c(-c5c(F)c(F)c(F)c(F)c5F)c5ccc2[nH]5)C=C4)C=C3)cc1
REMARK SMILES IDX 10 1 9 2 8 3 7 4 6 5 5 6 4 7 3 8 2 9 1 10 38 11 39 12 100 13
REMARK SMILES IDX 40 14 99 15 41 16 42 17 43 18 93 19 44 20 98 21 92 22 94 23
REMARK SMILES IDX 45 24 97 25 91 26 90 27 46 29 78 30 58 31 77 32 59 33 62 34
REMARK SMILES IDX 76 35 95 36 60 37 61 38 75 40 96 41 63 42 47 43 48 44 56 45
REMARK SMILES IDX 49 46 50 47 54 48 57 49 51 50 52 51 55 52 53 53 79 54 80 55
REMARK SMILES IDX 88 56 81 57 82 58 86 59 89 60 83 61 84 62 87 63 85 64 64 65
REMARK SMILES IDX 65 66 73 67 66 68 67 69 71 70 74 71 68 72 69 73 72 74 70 75
REMARK SMILES IDX 11 76 12 77 13 78 14 79 15 80 16 81 17 82 18 83 19 84 37 85
REMARK SMILES IDX 20 86 22 87 21 88 23 89 24 90 25 91 26 92 36 93 27 94 35 95
REMARK SMILES IDX 28 96 29 98 30 99 31 100 34 101 32 102 33 103
REMARK H PARENT 94 28 62 39 28 97
REMARK Flexibility Score: inf
ROOT
ATOM      1  C   UNL A   1      42.445  18.778  26.058  1.00  0.00     0.188 C 
ENDROOT
BRANCH   1   2
ATOM      2  O   UNL A   1      43.622  18.006  25.903  1.00  0.00    -0.377 OA
BRANCH   2   3
ATOM      3  C   UNL A   1      44.787  18.639  25.399  1.00  0.00     0.188 C 
BRANCH   3   4
ATOM      4  C   UNL A   1      44.699  19.230  24.000  1.00  0.00     0.188 C 
BRANCH   4   5
ATOM      5  O   UNL A   1      44.666  20.644  24.094  1.00  0.00    -0.376 OA
BRANCH   5   6
ATOM      6  C   UNL A   1      45.760  21.307  24.720  1.00  0.00     0.202 C 
BRANCH   6   7
ATOM      7  C   UNL A   1      45.390  22.209  25.889  1.00  0.00     0.261 C 
BRANCH   7   8
ATOM      8  O   UNL A   1      44.476  23.282  25.591  1.00  0.00    -0.460 OA
BRANCH   8   9
ATOM      9  C   UNL A   1      44.609  24.628  25.614  1.00  0.00     0.338 C 
ATOM     10  O   UNL A   1      45.193  25.168  24.676  1.00  0.00    -0.246 OA
BRANCH   9  11
ATOM     11  C   UNL A   1      44.122  25.513  26.709  1.00  0.00     0.060 A 
ATOM     12  C   UNL A   1      43.464  25.077  27.849  1.00  0.00     0.016 A 
ATOM     13  C   UNL A   1      44.456  26.875  26.648  1.00  0.00     0.016 A 
ATOM     14  C   UNL A   1      43.084  25.912  28.868  1.00  0.00     0.010 A 
ATOM     15  C   UNL A   1      44.109  27.745  27.689  1.00  0.00     0.010 A 
ATOM     16  C   UNL A   1      43.407  27.250  28.792  1.00  0.00    -0.014 A 
BRANCH  16  17
ATOM     17  C   UNL A   1      42.785  28.089  29.816  1.00  0.00     0.031 A 
ATOM     18  C   UNL A   1      43.611  28.395  31.019  1.00  0.00     0.074 A 
ATOM     19  C   UNL A   1      41.640  28.735  29.532  1.00  0.00     0.049 A 
ATOM     20  N   UNL A   1      43.284  29.038  32.102  1.00  0.00    -0.248 NA
ATOM     21  C   UNL A   1      45.014  27.934  30.990  1.00  0.00     0.031 C 
ATOM     22  C   UNL A   1      40.921  28.668  28.252  1.00  0.00     0.029 A 
ATOM     23  N   UNL A   1      40.904  29.609  30.279  1.00  0.00    -0.354 N 
ATOM     24  C   UNL A   1      44.415  29.002  32.903  1.00  0.00     0.074 A 
ATOM     25  C   UNL A   1      45.451  28.306  32.182  1.00  0.00     0.031 C 
ATOM     26  C   UNL A   1      39.841  29.461  28.314  1.00  0.00     0.029 A 
ATOM     27  C   UNL A   1      39.746  30.009  29.659  1.00  0.00     0.049 A 
ATOM     28  H   UNL A   1      41.177  29.922  31.171  1.00  0.00     0.167 HD
ATOM     29  C   UNL A   1      44.537  29.495  34.153  1.00  0.00     0.037 A 
ATOM     30  C   UNL A   1      38.702  30.681  30.174  1.00  0.00     0.037 A 
ATOM     31  C   UNL A   1      43.468  30.189  34.811  1.00  0.00     0.049 A 
ATOM     32  C   UNL A   1      38.811  31.090  31.620  1.00  0.00     0.074 A 
ATOM     33  C   UNL A   1      43.411  30.675  36.100  1.00  0.00     0.029 A 
ATOM     34  N   UNL A   1      42.252  30.492  34.204  1.00  0.00    -0.354 N 
ATOM     35  N   UNL A   1      39.831  30.965  32.440  1.00  0.00    -0.248 NA
ATOM     36  C   UNL A   1      37.628  31.708  32.223  1.00  0.00     0.031 C 
ATOM     37  C   UNL A   1      42.136  31.217  36.293  1.00  0.00     0.029 A 
ATOM     38  C   UNL A   1      41.423  31.130  35.104  1.00  0.00     0.049 A 
ATOM     39  H   UNL A   1      42.019  30.281  33.271  1.00  0.00     0.167 HD
ATOM     40  C   UNL A   1      39.421  31.507  33.647  1.00  0.00     0.074 A 
ATOM     41  C   UNL A   1      38.068  31.986  33.442  1.00  0.00     0.031 C 
ATOM     42  C   UNL A   1      40.088  31.598  34.826  1.00  0.00     0.037 A 
BRANCH  29  43
ATOM     43  C   UNL A   1      45.800  29.189  34.892  1.00  0.00     0.064 A 
ATOM     44  C   UNL A   1      46.954  29.976  34.777  1.00  0.00     0.173 A 
ATOM     45  C   UNL A   1      45.859  28.053  35.716  1.00  0.00     0.173 A 
ATOM     46  F   UNL A   1      46.965  31.043  33.965  1.00  0.00    -0.203 F 
ATOM     47  C   UNL A   1      48.123  29.632  35.452  1.00  0.00     0.198 A 
ATOM     48  C   UNL A   1      47.020  27.727  36.409  1.00  0.00     0.198 A 
ATOM     49  F   UNL A   1      44.790  27.250  35.837  1.00  0.00    -0.203 F 
ATOM     50  F   UNL A   1      49.232  30.369  35.288  1.00  0.00    -0.200 F 
ATOM     51  C   UNL A   1      48.152  28.515  36.274  1.00  0.00     0.200 A 
ATOM     52  F   UNL A   1      47.046  26.645  37.198  1.00  0.00    -0.200 F 
ATOM     53  F   UNL A   1      49.278  28.188  36.926  1.00  0.00    -0.200 F 
ENDBRANCH  29  43
BRANCH  30  54
ATOM     54  C   UNL A   1      37.457  30.896  29.387  1.00  0.00     0.064 A 
ATOM     55  C   UNL A   1      36.602  29.833  29.064  1.00  0.00     0.173 A 
ATOM     56  C   UNL A   1      37.127  32.163  28.876  1.00  0.00     0.173 A 
ATOM     57  F   UNL A   1      36.874  28.597  29.510  1.00  0.00    -0.203 F 
ATOM     58  C   UNL A   1      35.498  30.018  28.231  1.00  0.00     0.198 A 
ATOM     59  C   UNL A   1      36.002  32.356  28.075  1.00  0.00     0.198 A 
ATOM     60  F   UNL A   1      37.905  33.223  29.145  1.00  0.00    -0.203 F 
ATOM     61  F   UNL A   1      34.745  28.968  27.877  1.00  0.00    -0.200 F 
ATOM     62  C   UNL A   1      35.200  31.280  27.738  1.00  0.00     0.200 A 
ATOM     63  F   UNL A   1      35.711  33.581  27.616  1.00  0.00    -0.200 F 
ATOM     64  F   UNL A   1      34.149  31.454  26.925  1.00  0.00    -0.200 F 
ENDBRANCH  30  54
BRANCH  42  65
ATOM     65  C   UNL A   1      39.369  32.275  35.950  1.00  0.00     0.064 A 
ATOM     66  C   UNL A   1      38.474  31.579  36.775  1.00  0.00     0.173 A 
ATOM     67  C   UNL A   1      39.632  33.621  36.239  1.00  0.00     0.173 A 
ATOM     68  F   UNL A   1      38.183  30.293  36.524  1.00  0.00    -0.203 F 
ATOM     69  C   UNL A   1      37.846  32.218  37.837  1.00  0.00     0.198 A 
ATOM     70  C   UNL A   1      39.033  34.245  37.327  1.00  0.00     0.198 A 
ATOM     71  F   UNL A   1      40.491  34.322  35.482  1.00  0.00    -0.203 F 
ATOM     72  F   UNL A   1      36.954  31.553  38.582  1.00  0.00    -0.200 F 
ATOM     73  C   UNL A   1      38.135  33.546  38.118  1.00  0.00     0.200 A 
ATOM     74  F   UNL A   1      39.330  35.520  37.611  1.00  0.00    -0.200 F 
ATOM     75  F   UNL A   1      37.542  34.155  39.154  1.00  0.00    -0.200 F 
ENDBRANCH  42  65
ENDBRANCH  16  17
ENDBRANCH   9  11
ENDBRANCH   8   9
ENDBRANCH   7   8
ENDBRANCH   6   7
ENDBRANCH   5   6
ENDBRANCH   4   5
ENDBRANCH   3   4
ENDBRANCH   2   3
ENDBRANCH   1   2
BRANCH   1  76
ATOM     76  C   UNL A   1      42.453  20.090  26.863  1.00  0.00     0.188 C 
BRANCH  76  77
ATOM     77  O   UNL A   1      41.952  21.299  26.325  1.00  0.00    -0.376 OA
BRANCH  77  78
ATOM     78  C   UNL A   1      40.575  21.423  25.991  1.00  0.00     0.202 C 
BRANCH  78  79
ATOM     79  C   UNL A   1      39.616  22.349  26.768  1.00  0.00     0.261 C 
BRANCH  79  80
ATOM     80  O   UNL A   1      38.391  22.577  26.074  1.00  0.00    -0.463 OA
BRANCH  80  81
ATOM     81  C   UNL A   1      37.682  23.744  26.199  1.00  0.00     0.310 C 
ATOM     82  O   UNL A   1      38.135  24.812  26.545  1.00  0.00    -0.252 OA
BRANCH  81  83
ATOM     83  C   UNL A   1      36.279  23.485  25.655  1.00  0.00     0.119 C 
ATOM     84  C   UNL A   1      36.310  23.736  24.135  1.00  0.00     0.019 C 
ATOM     85  C   UNL A   1      35.553  22.149  25.967  1.00  0.00     0.134 C 
ATOM     86  C   UNL A   1      34.883  23.790  23.685  1.00  0.00     0.022 C 
ATOM     87  N   UNL A   1      34.320  21.975  25.122  1.00  0.00    -0.342 N 
ATOM     88  C   UNL A   1      34.486  22.356  23.760  1.00  0.00     0.119 C 
BRANCH  87  89
ATOM     89  C   UNL A   1      33.092  21.521  25.572  1.00  0.00     0.226 C 
ATOM     90  O   UNL A   1      32.704  20.387  25.269  1.00  0.00    -0.275 OA
BRANCH  89  91
ATOM     91  C   UNL A   1      32.153  22.437  26.468  1.00  0.00     0.090 C 
ATOM     92  C   UNL A   1      30.698  22.626  26.011  1.00  0.00     0.075 C 
ATOM     93  C   UNL A   1      32.705  23.756  27.034  1.00  0.00     0.075 C 
ATOM     94  C   UNL A   1      30.373  23.901  25.213  1.00  0.00     0.263 C 
ATOM     95  C   UNL A   1      32.336  25.069  26.303  1.00  0.00     0.263 C 
ATOM     96  N   UNL A   1      31.054  25.133  25.601  1.00  0.00    -0.329 N 
ATOM     97  H   UNL A   1      30.452  25.378  26.388  1.00  0.00     0.348 HD
BRANCH  96  98
ATOM     98  C   UNL A   1      30.948  26.250  24.621  1.00  0.00     0.338 C 
BRANCH  98  99
ATOM     99  C   UNL A   1      32.149  27.142  24.386  1.00  0.00     0.157 A 
ATOM    100  C   UNL A   1      33.347  27.001  23.703  1.00  0.00     0.052 A 
ATOM    101  O   UNL A   1      32.067  28.429  24.860  1.00  0.00    -0.463 OA
ATOM    102  C   UNL A   1      34.058  28.223  23.838  1.00  0.00     0.042 A 
ATOM    103  C   UNL A   1      33.225  29.069  24.530  1.00  0.00     0.195 A 
ENDBRANCH  98  99
ENDBRANCH  96  98
ENDBRANCH  89  91
ENDBRANCH  87  89
ENDBRANCH  81  83
ENDBRANCH  80  81
ENDBRANCH  79  80
ENDBRANCH  78  79
ENDBRANCH  77  78
ENDBRANCH  76  77
ENDBRANCH   1  76
TORSDOF 24
ENDMDL
MODEL 3
REMARK VINA RESULT:      -9.3      6.979     12.139
REMARK SMILES O=C(OCCOCCOCCOCCOC(=O)[C@H]1CCCN(C(=O)C2CC[NH+](Cc3ccco3)CC2)C1)c1ccc(-c2c3nc(c(-c4c(F)c(F)c(F)c(F)c4F)c4ccc([nH]4)c(-c4c(F)c(F)c(F)c(F)c4F)c4nc(c(-c5c(F)c(F)c(F)c(F)c5F)c5ccc2[nH]5)C=C4)C=C3)cc1
REMARK SMILES IDX 10 1 9 2 8 3 7 4 6 5 5 6 4 7 3 8 2 9 1 10 38 11 39 12 100 13
REMARK SMILES IDX 40 14 99 15 41 16 42 17 43 18 93 19 44 20 98 21 92 22 94 23
REMARK SMILES IDX 45 24 97 25 91 26 90 27 46 29 78 30 58 31 77 32 59 33 62 34
REMARK SMILES IDX 76 35 95 36 60 37 61 38 75 40 96 41 63 42 47 43 48 44 56 45
REMARK SMILES IDX 49 46 50 47 54 48 57 49 51 50 52 51 55 52 53 53 79 54 80 55
REMARK SMILES IDX 88 56 81 57 82 58 86 59 89 60 83 61 84 62 87 63 85 64 64 65
REMARK SMILES IDX 65 66 73 67 66 68 67 69 71 70 74 71 68 72 69 73 72 74 70 75
REMARK SMILES IDX 11 76 12 77 13 78 14 79 15 80 16 81 17 82 18 83 19 84 37 85
REMARK SMILES IDX 20 86 22 87 21 88 23 89 24 90 25 91 26 92 36 93 27 94 35 95
REMARK SMILES IDX 28 96 29 98 30 99 31 100 34 101 32 102 33 103
REMARK H PARENT 94 28 62 39 28 97
REMARK Flexibility Score: inf
ROOT
ATOM      1  C   UNL A   1      37.107  20.621  25.060  1.00  0.00     0.188 C 
ENDROOT
BRANCH   1   2
ATOM      2  O   UNL A   1      38.080  19.649  24.722  1.00  0.00    -0.377 OA
BRANCH   2   3
ATOM      3  C   UNL A   1      39.194  19.475  25.583  1.00  0.00     0.188 C 
BRANCH   3   4
ATOM      4  C   UNL A   1      39.849  20.738  26.124  1.00  0.00     0.188 C 
BRANCH   4   5
ATOM      5  O   UNL A   1      41.017  20.383  26.845  1.00  0.00    -0.376 OA
BRANCH   5   6
ATOM      6  C   UNL A   1      42.249  20.294  26.137  1.00  0.00     0.202 C 
BRANCH   6   7
ATOM      7  C   UNL A   1      42.994  21.609  25.961  1.00  0.00     0.261 C 
BRANCH   7   8
ATOM      8  O   UNL A   1      42.337  22.780  26.483  1.00  0.00    -0.460 OA
BRANCH   8   9
ATOM      9  C   UNL A   1      42.654  23.637  27.480  1.00  0.00     0.338 C 
ATOM     10  O   UNL A   1      42.069  23.516  28.556  1.00  0.00    -0.246 OA
BRANCH   9  11
ATOM     11  C   UNL A   1      43.645  24.744  27.369  1.00  0.00     0.060 A 
ATOM     12  C   UNL A   1      44.086  25.297  26.176  1.00  0.00     0.016 A 
ATOM     13  C   UNL A   1      44.078  25.358  28.555  1.00  0.00     0.016 A 
ATOM     14  C   UNL A   1      44.953  26.358  26.111  1.00  0.00     0.010 A 
ATOM     15  C   UNL A   1      44.938  26.461  28.516  1.00  0.00     0.010 A 
ATOM     16  C   UNL A   1      45.382  26.945  27.282  1.00  0.00    -0.014 A 
BRANCH  16  17
ATOM     17  C   UNL A   1      46.455  27.925  27.118  1.00  0.00     0.031 A 
ATOM     18  C   UNL A   1      46.061  29.362  27.179  1.00  0.00     0.074 A 
ATOM     19  C   UNL A   1      47.735  27.515  27.175  1.00  0.00     0.049 A 
ATOM     20  N   UNL A   1      46.786  30.424  26.985  1.00  0.00    -0.248 NA
ATOM     21  C   UNL A   1      44.655  29.645  27.531  1.00  0.00     0.031 C 
ATOM     22  C   UNL A   1      48.175  26.128  27.378  1.00  0.00     0.029 A 
ATOM     23  N   UNL A   1      48.899  28.225  27.112  1.00  0.00    -0.354 N 
ATOM     24  C   UNL A   1      45.915  31.492  27.130  1.00  0.00     0.074 A 
ATOM     25  C   UNL A   1      44.614  30.965  27.457  1.00  0.00     0.031 C 
ATOM     26  C   UNL A   1      49.516  26.094  27.412  1.00  0.00     0.029 A 
ATOM     27  C   UNL A   1      50.019  27.432  27.138  1.00  0.00     0.049 A 
ATOM     28  H   UNL A   1      48.931  29.207  27.054  1.00  0.00     0.167 HD
ATOM     29  C   UNL A   1      46.203  32.800  26.965  1.00  0.00     0.037 A 
ATOM     30  C   UNL A   1      51.296  27.767  26.886  1.00  0.00     0.037 A 
ATOM     31  C   UNL A   1      47.525  33.259  26.650  1.00  0.00     0.049 A 
ATOM     32  C   UNL A   1      51.562  29.214  26.560  1.00  0.00     0.074 A 
ATOM     33  C   UNL A   1      47.956  34.540  26.375  1.00  0.00     0.029 A 
ATOM     34  N   UNL A   1      48.636  32.425  26.570  1.00  0.00    -0.354 N 
ATOM     35  N   UNL A   1      50.730  30.231  26.576  1.00  0.00    -0.248 NA
ATOM     36  C   UNL A   1      52.927  29.561  26.160  1.00  0.00     0.031 C 
ATOM     37  C   UNL A   1      49.318  34.471  26.066  1.00  0.00     0.029 A 
ATOM     38  C   UNL A   1      49.750  33.159  26.217  1.00  0.00     0.049 A 
ATOM     39  H   UNL A   1      48.627  31.456  26.740  1.00  0.00     0.167 HD
ATOM     40  C   UNL A   1      51.473  31.341  26.210  1.00  0.00     0.074 A 
ATOM     41  C   UNL A   1      52.830  30.874  26.005  1.00  0.00     0.031 C 
ATOM     42  C   UNL A   1      51.081  32.630  26.046  1.00  0.00     0.037 A 
BRANCH  29  43
ATOM     43  C   UNL A   1      45.061  33.766  27.003  1.00  0.00     0.064 A 
ATOM     44  C   UNL A   1      44.760  34.536  28.133  1.00  0.00     0.173 A 
ATOM     45  C   UNL A   1      44.230  33.894  25.878  1.00  0.00     0.173 A 
ATOM     46  F   UNL A   1      45.493  34.413  29.250  1.00  0.00    -0.203 F 
ATOM     47  C   UNL A   1      43.662  35.394  28.141  1.00  0.00     0.198 A 
ATOM     48  C   UNL A   1      43.150  34.772  25.880  1.00  0.00     0.198 A 
ATOM     49  F   UNL A   1      44.459  33.157  24.781  1.00  0.00    -0.203 F 
ATOM     50  F   UNL A   1      43.360  36.084  29.250  1.00  0.00    -0.200 F 
ATOM     51  C   UNL A   1      42.865  35.518  27.012  1.00  0.00     0.200 A 
ATOM     52  F   UNL A   1      42.380  34.885  24.790  1.00  0.00    -0.200 F 
ATOM     53  F   UNL A   1      41.812  36.348  27.020  1.00  0.00    -0.200 F 
ENDBRANCH  29  43
BRANCH  30  54
ATOM     54  C   UNL A   1      52.366  26.734  26.812  1.00  0.00     0.064 A 
ATOM     55  C   UNL A   1      53.340  26.617  27.813  1.00  0.00     0.173 A 
ATOM     56  C   UNL A   1      52.483  25.883  25.699  1.00  0.00     0.173 A 
ATOM     57  F   UNL A   1      53.290  27.414  28.891  1.00  0.00    -0.203 F 
ATOM     58  C   UNL A   1      54.407  25.727  27.684  1.00  0.00     0.198 A 
ATOM     59  C   UNL A   1      53.527  24.966  25.589  1.00  0.00     0.198 A 
ATOM     60  F   UNL A   1      51.585  25.946  24.704  1.00  0.00    -0.203 F 
ATOM     61  F   UNL A   1      55.364  25.693  28.621  1.00  0.00    -0.200 F 
ATOM     62  C   UNL A   1      54.498  24.901  26.574  1.00  0.00     0.200 A 
ATOM     63  F   UNL A   1      53.599  24.160  24.521  1.00  0.00    -0.200 F 
ATOM     64  F   UNL A   1      55.531  24.058  26.444  1.00  0.00    -0.200 F 
ENDBRANCH  30  54
BRANCH  42  65
ATOM     65  C   UNL A   1      52.146  33.610  25.668  1.00  0.00     0.064 A 
ATOM     66  C   UNL A   1      52.503  33.829  24.331  1.00  0.00     0.173 A 
ATOM     67  C   UNL A   1      52.770  34.382  26.659  1.00  0.00     0.173 A 
ATOM     68  F   UNL A   1      51.942  33.101  23.353  1.00  0.00    -0.203 F 
ATOM     69  C   UNL A   1      53.469  34.771  24.000  1.00  0.00     0.198 A 
ATOM     70  C   UNL A   1      53.705  35.352  26.321  1.00  0.00     0.198 A 
ATOM     71  F   UNL A   1      52.449  34.213  27.951  1.00  0.00    -0.203 F 
ATOM     72  F   UNL A   1      53.836  34.930  22.722  1.00  0.00    -0.200 F 
ATOM     73  C   UNL A   1      54.060  35.540  24.994  1.00  0.00     0.200 A 
ATOM     74  F   UNL A   1      54.258  36.109  27.278  1.00  0.00    -0.200 F 
ATOM     75  F   UNL A   1      54.978  36.461  24.671  1.00  0.00    -0.200 F 
ENDBRANCH  42  65
ENDBRANCH  16  17
ENDBRANCH   9  11
ENDBRANCH   8   9
ENDBRANCH   7   8
ENDBRANCH   6   7
ENDBRANCH   5   6
ENDBRANCH   4   5
ENDBRANCH   3   4
ENDBRANCH   2   3
ENDBRANCH   1   2
BRANCH   1  76
ATOM     76  C   UNL A   1      37.101  22.008  24.393  1.00  0.00     0.188 C 
BRANCH  76  77
ATOM     77  O   UNL A   1      36.092  22.962  24.662  1.00  0.00    -0.376 OA
BRANCH  77  78
ATOM     78  C   UNL A   1      34.889  22.971  23.903  1.00  0.00     0.202 C 
BRANCH  78  79
ATOM     79  C   UNL A   1      33.787  21.906  24.087  1.00  0.00     0.261 C 
BRANCH  79  80
ATOM     80  O   UNL A   1      33.118  22.019  25.340  1.00  0.00    -0.463 OA
BRANCH  80  81
ATOM     81  C   UNL A   1      31.782  22.315  25.437  1.00  0.00     0.310 C 
ATOM     82  O   UNL A   1      30.910  21.546  25.771  1.00  0.00    -0.252 OA
BRANCH  81  83
ATOM     83  C   UNL A   1      31.633  23.819  25.221  1.00  0.00     0.119 C 
ATOM     84  C   UNL A   1      30.635  24.033  24.067  1.00  0.00     0.019 C 
ATOM     85  C   UNL A   1      31.287  24.750  26.414  1.00  0.00     0.134 C 
ATOM     86  C   UNL A   1      30.750  25.472  23.668  1.00  0.00     0.022 C 
ATOM     87  N   UNL A   1      30.913  26.133  25.952  1.00  0.00    -0.342 N 
ATOM     88  C   UNL A   1      30.071  26.157  24.804  1.00  0.00     0.119 C 
BRANCH  87  89
ATOM     89  C   UNL A   1      31.341  27.318  26.524  1.00  0.00     0.226 C 
ATOM     90  O   UNL A   1      31.056  27.575  27.700  1.00  0.00    -0.275 OA
BRANCH  89  91
ATOM     91  C   UNL A   1      32.190  28.374  25.695  1.00  0.00     0.090 C 
ATOM     92  C   UNL A   1      33.695  28.110  25.538  1.00  0.00     0.075 C 
ATOM     93  C   UNL A   1      31.936  29.877  25.906  1.00  0.00     0.075 C 
ATOM     94  C   UNL A   1      34.641  28.833  26.512  1.00  0.00     0.263 C 
ATOM     95  C   UNL A   1      32.912  30.656  26.819  1.00  0.00     0.263 C 
ATOM     96  N   UNL A   1      34.300  30.200  26.896  1.00  0.00    -0.329 N 
ATOM     97  H   UNL A   1      34.669  30.668  26.068  1.00  0.00     0.348 HD
BRANCH  96  98
ATOM     98  C   UNL A   1      35.058  30.738  28.061  1.00  0.00     0.338 C 
BRANCH  98  99
ATOM     99  C   UNL A   1      36.308  30.020  28.523  1.00  0.00     0.157 A 
ATOM    100  C   UNL A   1      37.550  29.768  27.962  1.00  0.00     0.052 A 
ATOM    101  O   UNL A   1      36.314  29.555  29.817  1.00  0.00    -0.463 OA
ATOM    102  C   UNL A   1      38.312  29.050  28.921  1.00  0.00     0.042 A 
ATOM    103  C   UNL A   1      37.522  28.968  30.043  1.00  0.00     0.195 A 
ENDBRANCH  98  99
ENDBRANCH  96  98
ENDBRANCH  89  91
ENDBRANCH  87  89
ENDBRANCH  81  83
ENDBRANCH  80  81
ENDBRANCH  79  80
ENDBRANCH  78  79
ENDBRANCH  77  78
ENDBRANCH  76  77
ENDBRANCH   1  76
TORSDOF 24
ENDMDL
