MODEL 1
REMARK VINA RESULT:      -8.4      0.000      0.000
REMARK SMILES CCCCCCC(=O)Nc1ccc(Cl)c(C(=O)OCCOCCOCCOCCOC(=O)c2ccc(-c3c4nc(c(-c5c(F)c(F)c(F)c(F)c5F)c5ccc([nH]5)c(-c5c(F)c(F)c(F)c(F)c5F)c5nc(c(-c6c(F)c(F)c(F)c(F)c6F)c6ccc3[nH]6)C=C5)C=C4)cc2)c1
REMARK SMILES IDX 22 1 21 2 20 3 19 4 18 5 16 6 17 7 15 8 10 9 11 10 96 11
REMARK SMILES IDX 12 12 13 13 14 14 9 15 7 16 8 17 6 19 5 20 4 21 3 22 2 23
REMARK SMILES IDX 1 24 23 25 24 26 25 27 26 28 27 29 28 30 29 31 30 32 31 33
REMARK SMILES IDX 32 34 33 35 34 36 95 37 35 38 94 39 36 40 37 41 38 42 88 43
REMARK SMILES IDX 39 44 93 45 87 46 89 47 40 48 92 49 86 50 85 51 41 53 73 54
REMARK SMILES IDX 53 55 72 56 54 57 57 58 71 59 90 60 55 61 56 62 70 64 91 65
REMARK SMILES IDX 58 66 42 67 43 68 51 69 44 70 45 71 49 72 52 73 46 74 47 75
REMARK SMILES IDX 50 76 48 77 74 78 75 79 83 80 76 81 77 82 81 83 84 84 78 85
REMARK SMILES IDX 79 86 82 87 80 88 59 89 60 90 68 91 61 92 62 93 66 94 69 95
REMARK SMILES IDX 63 96 64 97 67 98 65 99
REMARK H PARENT 9 18 89 52 57 63
REMARK Flexibility Score: inf
ROOT
ATOM      1  C   UNL A   1      40.205  22.304  26.871  1.00  0.00     0.188 C 
ENDROOT
BRANCH   1   2
ATOM      2  O   UNL A   1      39.009  22.189  26.120  1.00  0.00    -0.376 OA
BRANCH   2   3
ATOM      3  C   UNL A   1      37.890  23.040  26.346  1.00  0.00     0.202 C 
BRANCH   3   4
ATOM      4  C   UNL A   1      37.034  23.668  25.230  1.00  0.00     0.261 C 
BRANCH   4   5
ATOM      5  O   UNL A   1      36.064  22.793  24.659  1.00  0.00    -0.460 OA
BRANCH   5   6
ATOM      6  C   UNL A   1      35.640  23.046  23.399  1.00  0.00     0.339 C 
ATOM      7  O   UNL A   1      36.293  22.954  22.374  1.00  0.00    -0.246 OA
BRANCH   6   8
ATOM      8  C   UNL A   1      34.162  23.156  23.430  1.00  0.00     0.080 A 
ATOM      9  C   UNL A   1      32.250  24.521  22.822  1.00  0.00     0.042 A 
ATOM     10  C   UNL A   1      31.439  23.386  22.858  1.00  0.00     0.028 A 
ATOM     11  C   UNL A   1      33.618  24.409  23.071  1.00  0.00     0.043 A 
ATOM     12  C   UNL A   1      31.954  22.172  23.318  1.00  0.00     0.023 A 
ATOM     13  C   UNL A   1      33.314  22.056  23.633  1.00  0.00     0.055 A 
ATOM     14  Cl  UNL A   1      33.851  20.546  24.278  1.00  0.00    -0.083 Cl
BRANCH   9  15
ATOM     15  N   UNL A   1      31.678  25.728  22.421  1.00  0.00    -0.326 N 
ATOM     16  C   UNL A   1      31.041  26.651  23.208  1.00  0.00     0.224 C 
ATOM     17  O   UNL A   1      30.352  27.509  22.647  1.00  0.00    -0.275 OA
ATOM     18  H   UNL A   1      31.738  25.942  21.462  1.00  0.00     0.169 HD
BRANCH  16  19
ATOM     19  C   UNL A   1      31.166  26.632  24.720  1.00  0.00     0.100 C 
BRANCH  19  20
ATOM     20  C   UNL A   1      30.023  25.940  25.475  1.00  0.00     0.010 C 
BRANCH  20  21
ATOM     21  C   UNL A   1      30.340  24.647  26.237  1.00  0.00     0.001 C 
BRANCH  21  22
ATOM     22  C   UNL A   1      31.812  24.490  26.628  1.00  0.00    -0.000 C 
BRANCH  22  23
ATOM     23  C   UNL A   1      32.305  23.058  26.794  1.00  0.00    -0.003 C 
ATOM     24  C   UNL A   1      33.765  22.958  27.200  1.00  0.00     0.004 C 
ENDBRANCH  22  23
ENDBRANCH  21  22
ENDBRANCH  20  21
ENDBRANCH  19  20
ENDBRANCH  16  19
ENDBRANCH   9  15
ENDBRANCH   6   8
ENDBRANCH   5   6
ENDBRANCH   4   5
ENDBRANCH   3   4
ENDBRANCH   2   3
ENDBRANCH   1   2
BRANCH   1  25
ATOM     25  C   UNL A   1      40.758  23.691  27.240  1.00  0.00     0.188 C 
BRANCH  25  26
ATOM     26  O   UNL A   1      41.567  23.725  28.395  1.00  0.00    -0.377 OA
BRANCH  26  27
ATOM     27  C   UNL A   1      42.655  22.813  28.473  1.00  0.00     0.188 C 
BRANCH  27  28
ATOM     28  C   UNL A   1      44.103  23.286  28.212  1.00  0.00     0.188 C 
BRANCH  28  29
ATOM     29  O   UNL A   1      44.700  22.798  27.020  1.00  0.00    -0.376 OA
BRANCH  29  30
ATOM     30  C   UNL A   1      43.870  22.404  25.938  1.00  0.00     0.202 C 
BRANCH  30  31
ATOM     31  C   UNL A   1      43.715  23.380  24.761  1.00  0.00     0.261 C 
BRANCH  31  32
ATOM     32  O   UNL A   1      43.652  24.771  25.106  1.00  0.00    -0.460 OA
BRANCH  32  33
ATOM     33  C   UNL A   1      44.821  25.438  25.157  1.00  0.00     0.338 C 
ATOM     34  O   UNL A   1      45.865  25.146  24.593  1.00  0.00    -0.246 OA
BRANCH  33  35
ATOM     35  C   UNL A   1      44.595  26.705  25.873  1.00  0.00     0.060 A 
ATOM     36  C   UNL A   1      45.699  27.374  26.418  1.00  0.00     0.016 A 
ATOM     37  C   UNL A   1      43.303  27.211  26.037  1.00  0.00     0.016 A 
ATOM     38  C   UNL A   1      45.507  28.516  27.191  1.00  0.00     0.010 A 
ATOM     39  C   UNL A   1      43.109  28.344  26.829  1.00  0.00     0.010 A 
ATOM     40  C   UNL A   1      44.206  28.966  27.454  1.00  0.00    -0.014 A 
BRANCH  40  41
ATOM     41  C   UNL A   1      43.985  29.897  28.586  1.00  0.00     0.031 A 
ATOM     42  C   UNL A   1      43.800  29.304  29.957  1.00  0.00     0.074 A 
ATOM     43  C   UNL A   1      44.002  31.230  28.419  1.00  0.00     0.049 A 
ATOM     44  N   UNL A   1      43.571  29.896  31.101  1.00  0.00    -0.248 NA
ATOM     45  C   UNL A   1      43.883  27.837  30.048  1.00  0.00     0.031 C 
ATOM     46  C   UNL A   1      44.226  31.922  27.153  1.00  0.00     0.029 A 
ATOM     47  N   UNL A   1      43.826  32.240  29.331  1.00  0.00    -0.354 N 
ATOM     48  C   UNL A   1      43.476  28.876  32.040  1.00  0.00     0.074 A 
ATOM     49  C   UNL A   1      43.629  27.627  31.329  1.00  0.00     0.031 C 
ATOM     50  C   UNL A   1      44.168  33.248  27.367  1.00  0.00     0.029 A 
ATOM     51  C   UNL A   1      43.870  33.495  28.777  1.00  0.00     0.049 A 
ATOM     52  H   UNL A   1      43.680  32.080  30.292  1.00  0.00     0.167 HD
ATOM     53  C   UNL A   1      43.293  28.972  33.377  1.00  0.00     0.037 A 
ATOM     54  C   UNL A   1      43.671  34.699  29.347  1.00  0.00     0.037 A 
ATOM     55  C   UNL A   1      43.139  30.218  34.080  1.00  0.00     0.049 A 
ATOM     56  C   UNL A   1      43.383  34.776  30.827  1.00  0.00     0.074 A 
ATOM     57  C   UNL A   1      42.948  30.428  35.433  1.00  0.00     0.029 A 
ATOM     58  N   UNL A   1      43.151  31.468  33.478  1.00  0.00    -0.354 N 
ATOM     59  N   UNL A   1      43.310  33.811  31.712  1.00  0.00    -0.248 NA
ATOM     60  C   UNL A   1      43.160  36.117  31.388  1.00  0.00     0.031 C 
ATOM     61  C   UNL A   1      42.782  31.800  35.643  1.00  0.00     0.029 A 
ATOM     62  C   UNL A   1      42.947  32.453  34.431  1.00  0.00     0.049 A 
ATOM     63  H   UNL A   1      43.284  31.631  32.516  1.00  0.00     0.167 HD
ATOM     64  C   UNL A   1      43.077  34.428  32.936  1.00  0.00     0.074 A 
ATOM     65  C   UNL A   1      43.030  35.853  32.679  1.00  0.00     0.031 C 
ATOM     66  C   UNL A   1      42.923  33.869  34.163  1.00  0.00     0.037 A 
BRANCH  53  67
ATOM     67  C   UNL A   1      43.216  27.692  34.159  1.00  0.00     0.064 A 
ATOM     68  C   UNL A   1      41.992  27.068  34.444  1.00  0.00     0.173 A 
ATOM     69  C   UNL A   1      44.389  27.072  34.620  1.00  0.00     0.173 A 
ATOM     70  F   UNL A   1      40.840  27.626  34.043  1.00  0.00    -0.203 F 
ATOM     71  C   UNL A   1      41.942  25.893  35.190  1.00  0.00     0.198 A 
ATOM     72  C   UNL A   1      44.337  25.879  35.334  1.00  0.00     0.198 A 
ATOM     73  F   UNL A   1      45.587  27.625  34.376  1.00  0.00    -0.203 F 
ATOM     74  F   UNL A   1      40.757  25.349  35.502  1.00  0.00    -0.200 F 
ATOM     75  C   UNL A   1      43.114  25.295  35.627  1.00  0.00     0.200 A 
ATOM     76  F   UNL A   1      45.473  25.295  35.744  1.00  0.00    -0.200 F 
ATOM     77  F   UNL A   1      43.065  24.161  36.340  1.00  0.00    -0.200 F 
ENDBRANCH  53  67
BRANCH  54  78
ATOM     78  C   UNL A   1      43.737  35.936  28.523  1.00  0.00     0.064 A 
ATOM     79  C   UNL A   1      42.572  36.538  28.026  1.00  0.00     0.173 A 
ATOM     80  C   UNL A   1      44.966  36.523  28.188  1.00  0.00     0.173 A 
ATOM     81  F   UNL A   1      41.373  36.001  28.296  1.00  0.00    -0.203 F 
ATOM     82  C   UNL A   1      42.635  37.662  27.206  1.00  0.00     0.198 A 
ATOM     83  C   UNL A   1      45.026  37.667  27.395  1.00  0.00     0.198 A 
ATOM     84  F   UNL A   1      46.111  35.987  28.635  1.00  0.00    -0.203 F 
ATOM     85  F   UNL A   1      41.509  38.182  26.696  1.00  0.00    -0.200 F 
ATOM     86  C   UNL A   1      43.861  38.230  26.895  1.00  0.00     0.200 A 
ATOM     87  F   UNL A   1      46.213  38.218  27.107  1.00  0.00    -0.200 F 
ATOM     88  F   UNL A   1      43.922  39.310  26.105  1.00  0.00    -0.200 F 
ENDBRANCH  54  78
BRANCH  66  89
ATOM     89  C   UNL A   1      42.759  34.797  35.335  1.00  0.00     0.064 A 
ATOM     90  C   UNL A   1      41.505  35.275  35.739  1.00  0.00     0.173 A 
ATOM     91  C   UNL A   1      43.881  35.180  36.089  1.00  0.00     0.173 A 
ATOM     92  F   UNL A   1      40.402  34.948  35.048  1.00  0.00    -0.203 F 
ATOM     93  C   UNL A   1      41.382  36.132  36.830  1.00  0.00     0.198 A 
ATOM     94  C   UNL A   1      43.750  36.006  37.202  1.00  0.00     0.198 A 
ATOM     95  F   UNL A   1      45.104  34.741  35.756  1.00  0.00    -0.203 F 
ATOM     96  F   UNL A   1      40.181  36.627  37.161  1.00  0.00    -0.200 F 
ATOM     97  C   UNL A   1      42.503  36.491  37.565  1.00  0.00     0.200 A 
ATOM     98  F   UNL A   1      44.832  36.333  37.923  1.00  0.00    -0.200 F 
ATOM     99  F   UNL A   1      42.382  37.310  38.618  1.00  0.00    -0.200 F 
ENDBRANCH  66  89
ENDBRANCH  40  41
ENDBRANCH  33  35
ENDBRANCH  32  33
ENDBRANCH  31  32
ENDBRANCH  30  31
ENDBRANCH  29  30
ENDBRANCH  28  29
ENDBRANCH  27  28
ENDBRANCH  26  27
ENDBRANCH  25  26
ENDBRANCH   1  25
TORSDOF 26
ENDMDL
MODEL 2
REMARK VINA RESULT:      -7.7      5.790     11.443
REMARK SMILES CCCCCCC(=O)Nc1ccc(Cl)c(C(=O)OCCOCCOCCOCCOC(=O)c2ccc(-c3c4nc(c(-c5c(F)c(F)c(F)c(F)c5F)c5ccc([nH]5)c(-c5c(F)c(F)c(F)c(F)c5F)c5nc(c(-c6c(F)c(F)c(F)c(F)c6F)c6ccc3[nH]6)C=C5)C=C4)cc2)c1
REMARK SMILES IDX 22 1 21 2 20 3 19 4 18 5 16 6 17 7 15 8 10 9 11 10 96 11
REMARK SMILES IDX 12 12 13 13 14 14 9 15 7 16 8 17 6 19 5 20 4 21 3 22 2 23
REMARK SMILES IDX 1 24 23 25 24 26 25 27 26 28 27 29 28 30 29 31 30 32 31 33
REMARK SMILES IDX 32 34 33 35 34 36 95 37 35 38 94 39 36 40 37 41 38 42 88 43
REMARK SMILES IDX 39 44 93 45 87 46 89 47 40 48 92 49 86 50 85 51 41 53 73 54
REMARK SMILES IDX 53 55 72 56 54 57 57 58 71 59 90 60 55 61 56 62 70 64 91 65
REMARK SMILES IDX 58 66 42 67 43 68 51 69 44 70 45 71 49 72 52 73 46 74 47 75
REMARK SMILES IDX 50 76 48 77 74 78 75 79 83 80 76 81 77 82 81 83 84 84 78 85
REMARK SMILES IDX 79 86 82 87 80 88 59 89 60 90 68 91 61 92 62 93 66 94 69 95
REMARK SMILES IDX 63 96 64 97 67 98 65 99
REMARK H PARENT 9 18 89 52 57 63
REMARK Flexibility Score: inf
ROOT
ATOM      1  C   UNL A   1      34.759  33.921  30.754  1.00  0.00     0.188 C 
ENDROOT
BRANCH   1   2
ATOM      2  O   UNL A   1      35.129  34.131  29.402  1.00  0.00    -0.376 OA
BRANCH   2   3
ATOM      3  C   UNL A   1      35.208  33.062  28.466  1.00  0.00     0.202 C 
BRANCH   3   4
ATOM      4  C   UNL A   1      35.594  31.615  28.828  1.00  0.00     0.261 C 
BRANCH   4   5
ATOM      5  O   UNL A   1      36.720  31.102  28.120  1.00  0.00    -0.460 OA
BRANCH   5   6
ATOM      6  C   UNL A   1      37.909  31.051  28.762  1.00  0.00     0.339 C 
ATOM      7  O   UNL A   1      38.373  31.891  29.513  1.00  0.00    -0.246 OA
BRANCH   6   8
ATOM      8  C   UNL A   1      38.427  29.667  28.651  1.00  0.00     0.080 A 
ATOM      9  C   UNL A   1      39.946  28.194  27.463  1.00  0.00     0.042 A 
ATOM     10  C   UNL A   1      39.961  27.335  28.563  1.00  0.00     0.028 A 
ATOM     11  C   UNL A   1      39.212  29.379  27.513  1.00  0.00     0.043 A 
ATOM     12  C   UNL A   1      39.103  27.564  29.641  1.00  0.00     0.023 A 
ATOM     13  C   UNL A   1      38.310  28.718  29.680  1.00  0.00     0.055 A 
ATOM     14  Cl  UNL A   1      37.213  28.881  31.004  1.00  0.00    -0.083 Cl
BRANCH   9  15
ATOM     15  N   UNL A   1      40.769  27.891  26.378  1.00  0.00    -0.326 N 
ATOM     16  C   UNL A   1      41.871  28.582  25.950  1.00  0.00     0.224 C 
ATOM     17  O   UNL A   1      42.300  28.336  24.818  1.00  0.00    -0.275 OA
ATOM     18  H   UNL A   1      40.531  27.088  25.861  1.00  0.00     0.169 HD
BRANCH  16  19
ATOM     19  C   UNL A   1      42.553  29.619  26.822  1.00  0.00     0.100 C 
BRANCH  19  20
ATOM     20  C   UNL A   1      43.692  29.100  27.711  1.00  0.00     0.010 C 
BRANCH  20  21
ATOM     21  C   UNL A   1      43.351  28.059  28.784  1.00  0.00     0.001 C 
BRANCH  21  22
ATOM     22  C   UNL A   1      44.568  27.352  29.388  1.00  0.00    -0.000 C 
BRANCH  22  23
ATOM     23  C   UNL A   1      44.330  26.637  30.711  1.00  0.00    -0.003 C 
ATOM     24  C   UNL A   1      43.492  27.437  31.695  1.00  0.00     0.004 C 
ENDBRANCH  22  23
ENDBRANCH  21  22
ENDBRANCH  20  21
ENDBRANCH  19  20
ENDBRANCH  16  19
ENDBRANCH   9  15
ENDBRANCH   6   8
ENDBRANCH   5   6
ENDBRANCH   4   5
ENDBRANCH   3   4
ENDBRANCH   2   3
ENDBRANCH   1   2
BRANCH   1  25
ATOM     25  C   UNL A   1      35.534  34.614  31.887  1.00  0.00     0.188 C 
BRANCH  25  26
ATOM     26  O   UNL A   1      36.696  33.940  32.317  1.00  0.00    -0.377 OA
BRANCH  26  27
ATOM     27  C   UNL A   1      36.694  33.379  33.624  1.00  0.00     0.188 C 
BRANCH  27  28
ATOM     28  C   UNL A   1      37.842  33.679  34.615  1.00  0.00     0.188 C 
BRANCH  28  29
ATOM     29  O   UNL A   1      38.671  32.574  34.942  1.00  0.00    -0.376 OA
BRANCH  29  30
ATOM     30  C   UNL A   1      38.361  31.293  34.416  1.00  0.00     0.202 C 
BRANCH  30  31
ATOM     31  C   UNL A   1      38.878  30.061  35.176  1.00  0.00     0.261 C 
BRANCH  31  32
ATOM     32  O   UNL A   1      40.189  29.607  34.813  1.00  0.00    -0.460 OA
BRANCH  32  33
ATOM     33  C   UNL A   1      40.353  29.173  33.549  1.00  0.00     0.338 C 
ATOM     34  O   UNL A   1      39.829  28.201  33.025  1.00  0.00    -0.246 OA
BRANCH  33  35
ATOM     35  C   UNL A   1      41.147  30.177  32.819  1.00  0.00     0.060 A 
ATOM     36  C   UNL A   1      41.124  30.162  31.418  1.00  0.00     0.016 A 
ATOM     37  C   UNL A   1      41.933  31.102  33.509  1.00  0.00     0.016 A 
ATOM     38  C   UNL A   1      41.946  31.027  30.701  1.00  0.00     0.010 A 
ATOM     39  C   UNL A   1      42.772  31.956  32.789  1.00  0.00     0.010 A 
ATOM     40  C   UNL A   1      42.821  31.881  31.385  1.00  0.00    -0.014 A 
BRANCH  40  41
ATOM     41  C   UNL A   1      43.960  32.478  30.650  1.00  0.00     0.031 A 
ATOM     42  C   UNL A   1      43.778  33.855  30.070  1.00  0.00     0.074 A 
ATOM     43  C   UNL A   1      45.141  31.847  30.542  1.00  0.00     0.049 A 
ATOM     44  N   UNL A   1      44.608  34.585  29.369  1.00  0.00    -0.248 NA
ATOM     45  C   UNL A   1      42.476  34.497  30.314  1.00  0.00     0.031 C 
ATOM     46  C   UNL A   1      45.456  30.537  31.107  1.00  0.00     0.029 A 
ATOM     47  N   UNL A   1      46.300  32.233  29.916  1.00  0.00    -0.354 N 
ATOM     48  C   UNL A   1      43.926  35.761  29.085  1.00  0.00     0.074 A 
ATOM     49  C   UNL A   1      42.602  35.634  29.651  1.00  0.00     0.031 C 
ATOM     50  C   UNL A   1      46.726  30.224  30.796  1.00  0.00     0.029 A 
ATOM     51  C   UNL A   1      47.300  31.295  29.983  1.00  0.00     0.049 A 
ATOM     52  H   UNL A   1      46.403  33.099  29.460  1.00  0.00     0.167 HD
ATOM     53  C   UNL A   1      44.369  36.857  28.425  1.00  0.00     0.037 A 
ATOM     54  C   UNL A   1      48.529  31.302  29.431  1.00  0.00     0.037 A 
ATOM     55  C   UNL A   1      45.686  36.978  27.861  1.00  0.00     0.049 A 
ATOM     56  C   UNL A   1      48.970  32.500  28.626  1.00  0.00     0.074 A 
ATOM     57  C   UNL A   1      46.237  38.043  27.173  1.00  0.00     0.029 A 
ATOM     58  N   UNL A   1      46.660  35.991  27.917  1.00  0.00    -0.354 N 
ATOM     59  N   UNL A   1      48.328  33.616  28.374  1.00  0.00    -0.248 NA
ATOM     60  C   UNL A   1      50.316  32.441  28.037  1.00  0.00     0.031 C 
ATOM     61  C   UNL A   1      47.521  37.678  26.758  1.00  0.00     0.029 A 
ATOM     62  C   UNL A   1      47.800  36.414  27.253  1.00  0.00     0.049 A 
ATOM     63  H   UNL A   1      46.556  35.118  28.361  1.00  0.00     0.167 HD
ATOM     64  C   UNL A   1      49.204  34.405  27.637  1.00  0.00     0.074 A 
ATOM     65  C   UNL A   1      50.426  33.643  27.491  1.00  0.00     0.031 C 
ATOM     66  C   UNL A   1      49.017  35.651  27.134  1.00  0.00     0.037 A 
BRANCH  53  67
ATOM     67  C   UNL A   1      43.404  37.995  28.250  1.00  0.00     0.064 A 
ATOM     68  C   UNL A   1      43.335  39.057  29.165  1.00  0.00     0.173 A 
ATOM     69  C   UNL A   1      42.543  38.030  27.142  1.00  0.00     0.173 A 
ATOM     70  F   UNL A   1      44.122  39.065  30.251  1.00  0.00    -0.203 F 
ATOM     71  C   UNL A   1      42.417  40.092  28.995  1.00  0.00     0.198 A 
ATOM     72  C   UNL A   1      41.653  39.084  26.957  1.00  0.00     0.198 A 
ATOM     73  F   UNL A   1      42.567  37.040  26.236  1.00  0.00    -0.203 F 
ATOM     74  F   UNL A   1      42.328  41.063  29.915  1.00  0.00    -0.200 F 
ATOM     75  C   UNL A   1      41.584  40.108  27.888  1.00  0.00     0.200 A 
ATOM     76  F   UNL A   1      40.858  39.105  25.878  1.00  0.00    -0.200 F 
ATOM     77  F   UNL A   1      40.706  41.107  27.723  1.00  0.00    -0.200 F 
ENDBRANCH  53  67
BRANCH  54  78
ATOM     78  C   UNL A   1      49.438  30.138  29.617  1.00  0.00     0.064 A 
ATOM     79  C   UNL A   1      50.374  30.109  30.661  1.00  0.00     0.173 A 
ATOM     80  C   UNL A   1      49.413  29.048  28.735  1.00  0.00     0.173 A 
ATOM     81  F   UNL A   1      50.455  31.139  31.517  1.00  0.00    -0.203 F 
ATOM     82  C   UNL A   1      51.266  29.048  30.800  1.00  0.00     0.198 A 
ATOM     83  C   UNL A   1      50.283  27.972  28.894  1.00  0.00     0.198 A 
ATOM     84  F   UNL A   1      48.540  29.026  27.717  1.00  0.00    -0.203 F 
ATOM     85  F   UNL A   1      52.188  29.074  31.772  1.00  0.00    -0.200 F 
ATOM     86  C   UNL A   1      51.217  27.977  29.920  1.00  0.00     0.200 A 
ATOM     87  F   UNL A   1      50.224  26.934  28.049  1.00  0.00    -0.200 F 
ATOM     88  F   UNL A   1      52.075  26.957  30.054  1.00  0.00    -0.200 F 
ENDBRANCH  54  78
BRANCH  66  89
ATOM     89  C   UNL A   1      50.181  36.302  26.437  1.00  0.00     0.064 A 
ATOM     90  C   UNL A   1      51.058  37.172  27.100  1.00  0.00     0.173 A 
ATOM     91  C   UNL A   1      50.440  36.014  25.086  1.00  0.00     0.173 A 
ATOM     92  F   UNL A   1      50.850  37.488  28.387  1.00  0.00    -0.203 F 
ATOM     93  C   UNL A   1      52.128  37.759  26.429  1.00  0.00     0.198 A 
ATOM     94  C   UNL A   1      51.533  36.572  24.429  1.00  0.00     0.198 A 
ATOM     95  F   UNL A   1      49.640  35.178  24.406  1.00  0.00    -0.203 F 
ATOM     96  F   UNL A   1      52.917  38.635  27.066  1.00  0.00    -0.200 F 
ATOM     97  C   UNL A   1      52.369  37.453  25.098  1.00  0.00     0.200 A 
ATOM     98  F   UNL A   1      51.775  36.258  23.149  1.00  0.00    -0.200 F 
ATOM     99  F   UNL A   1      53.403  38.014  24.456  1.00  0.00    -0.200 F 
ENDBRANCH  66  89
ENDBRANCH  40  41
ENDBRANCH  33  35
ENDBRANCH  32  33
ENDBRANCH  31  32
ENDBRANCH  30  31
ENDBRANCH  29  30
ENDBRANCH  28  29
ENDBRANCH  27  28
ENDBRANCH  26  27
ENDBRANCH  25  26
ENDBRANCH   1  25
TORSDOF 26
ENDMDL
MODEL 3
REMARK VINA RESULT:      -7.7      4.914      7.733
REMARK SMILES CCCCCCC(=O)Nc1ccc(Cl)c(C(=O)OCCOCCOCCOCCOC(=O)c2ccc(-c3c4nc(c(-c5c(F)c(F)c(F)c(F)c5F)c5ccc([nH]5)c(-c5c(F)c(F)c(F)c(F)c5F)c5nc(c(-c6c(F)c(F)c(F)c(F)c6F)c6ccc3[nH]6)C=C5)C=C4)cc2)c1
REMARK SMILES IDX 22 1 21 2 20 3 19 4 18 5 16 6 17 7 15 8 10 9 11 10 96 11
REMARK SMILES IDX 12 12 13 13 14 14 9 15 7 16 8 17 6 19 5 20 4 21 3 22 2 23
REMARK SMILES IDX 1 24 23 25 24 26 25 27 26 28 27 29 28 30 29 31 30 32 31 33
REMARK SMILES IDX 32 34 33 35 34 36 95 37 35 38 94 39 36 40 37 41 38 42 88 43
REMARK SMILES IDX 39 44 93 45 87 46 89 47 40 48 92 49 86 50 85 51 41 53 73 54
REMARK SMILES IDX 53 55 72 56 54 57 57 58 71 59 90 60 55 61 56 62 70 64 91 65
REMARK SMILES IDX 58 66 42 67 43 68 51 69 44 70 45 71 49 72 52 73 46 74 47 75
REMARK SMILES IDX 50 76 48 77 74 78 75 79 83 80 76 81 77 82 81 83 84 84 78 85
REMARK SMILES IDX 79 86 82 87 80 88 59 89 60 90 68 91 61 92 62 93 66 94 69 95
REMARK SMILES IDX 63 96 64 97 67 98 65 99
REMARK H PARENT 9 18 89 52 57 63
REMARK Flexibility Score: inf
ROOT
ATOM      1  C   UNL A   1      48.390  26.618  23.643  1.00  0.00     0.188 C 
ENDROOT
BRANCH   1   2
ATOM      2  O   UNL A   1      48.358  27.019  25.002  1.00  0.00    -0.376 OA
BRANCH   2   3
ATOM      3  C   UNL A   1      47.142  27.102  25.737  1.00  0.00     0.202 C 
BRANCH   3   4
ATOM      4  C   UNL A   1      45.739  26.965  25.115  1.00  0.00     0.261 C 
BRANCH   4   5
ATOM      5  O   UNL A   1      44.860  26.087  25.813  1.00  0.00    -0.460 OA
BRANCH   5   6
ATOM      6  C   UNL A   1      44.538  26.390  27.092  1.00  0.00     0.339 C 
ATOM      7  O   UNL A   1      44.541  27.495  27.607  1.00  0.00    -0.246 OA
BRANCH   6   8
ATOM      8  C   UNL A   1      43.880  25.203  27.688  1.00  0.00     0.080 A 
ATOM      9  C   UNL A   1      43.420  22.835  27.427  1.00  0.00     0.042 A 
ATOM     10  C   UNL A   1      43.229  22.728  28.806  1.00  0.00     0.028 A 
ATOM     11  C   UNL A   1      43.781  24.059  26.865  1.00  0.00     0.043 A 
ATOM     12  C   UNL A   1      43.220  23.876  29.602  1.00  0.00     0.023 A 
ATOM     13  C   UNL A   1      43.519  25.125  29.043  1.00  0.00     0.055 A 
ATOM     14  Cl  UNL A   1      43.399  26.503  30.077  1.00  0.00    -0.083 Cl
BRANCH   9  15
ATOM     15  N   UNL A   1      43.354  21.671  26.660  1.00  0.00    -0.326 N 
ATOM     16  C   UNL A   1      42.330  20.763  26.612  1.00  0.00     0.224 C 
ATOM     17  O   UNL A   1      42.563  19.660  26.106  1.00  0.00    -0.275 OA
ATOM     18  H   UNL A   1      44.132  21.481  26.088  1.00  0.00     0.169 HD
BRANCH  16  19
ATOM     19  C   UNL A   1      40.952  21.082  27.160  1.00  0.00     0.100 C 
BRANCH  19  20
ATOM     20  C   UNL A   1      39.987  21.767  26.182  1.00  0.00     0.010 C 
BRANCH  20  21
ATOM     21  C   UNL A   1      39.244  23.019  26.662  1.00  0.00     0.001 C 
BRANCH  21  22
ATOM     22  C   UNL A   1      40.025  23.873  27.665  1.00  0.00    -0.000 C 
BRANCH  22  23
ATOM     23  C   UNL A   1      40.154  25.351  27.320  1.00  0.00    -0.003 C 
ATOM     24  C   UNL A   1      39.660  26.279  28.417  1.00  0.00     0.004 C 
ENDBRANCH  22  23
ENDBRANCH  21  22
ENDBRANCH  20  21
ENDBRANCH  19  20
ENDBRANCH  16  19
ENDBRANCH   9  15
ENDBRANCH   6   8
ENDBRANCH   5   6
ENDBRANCH   4   5
ENDBRANCH   3   4
ENDBRANCH   2   3
ENDBRANCH   1   2
BRANCH   1  25
ATOM     25  C   UNL A   1      49.327  27.324  22.649  1.00  0.00     0.188 C 
BRANCH  25  26
ATOM     26  O   UNL A   1      50.619  26.767  22.546  1.00  0.00    -0.377 OA
BRANCH  26  27
ATOM     27  C   UNL A   1      51.700  27.644  22.256  1.00  0.00     0.188 C 
BRANCH  27  28
ATOM     28  C   UNL A   1      51.629  29.141  22.637  1.00  0.00     0.188 C 
BRANCH  28  29
ATOM     29  O   UNL A   1      52.150  29.471  23.915  1.00  0.00    -0.376 OA
BRANCH  29  30
ATOM     30  C   UNL A   1      51.895  28.609  25.014  1.00  0.00     0.202 C 
BRANCH  30  31
ATOM     31  C   UNL A   1      53.049  27.723  25.512  1.00  0.00     0.261 C 
BRANCH  31  32
ATOM     32  O   UNL A   1      52.665  26.501  26.159  1.00  0.00    -0.460 OA
BRANCH  32  33
ATOM     33  C   UNL A   1      53.015  26.362  27.452  1.00  0.00     0.338 C 
ATOM     34  O   UNL A   1      54.146  26.286  27.909  1.00  0.00    -0.246 OA
BRANCH  33  35
ATOM     35  C   UNL A   1      51.799  26.497  28.273  1.00  0.00     0.060 A 
ATOM     36  C   UNL A   1      50.631  25.847  27.855  1.00  0.00     0.016 A 
ATOM     37  C   UNL A   1      51.802  27.287  29.425  1.00  0.00     0.016 A 
ATOM     38  C   UNL A   1      49.441  26.042  28.551  1.00  0.00     0.010 A 
ATOM     39  C   UNL A   1      50.604  27.499  30.110  1.00  0.00     0.010 A 
ATOM     40  C   UNL A   1      49.410  26.921  29.641  1.00  0.00    -0.014 A 
BRANCH  40  41
ATOM     41  C   UNL A   1      48.102  27.442  30.104  1.00  0.00     0.031 A 
ATOM     42  C   UNL A   1      47.423  26.725  31.241  1.00  0.00     0.074 A 
ATOM     43  C   UNL A   1      47.554  28.548  29.575  1.00  0.00     0.049 A 
ATOM     44  N   UNL A   1      46.271  26.965  31.813  1.00  0.00    -0.248 NA
ATOM     45  C   UNL A   1      48.145  25.575  31.809  1.00  0.00     0.031 C 
ATOM     46  C   UNL A   1      48.140  29.358  28.511  1.00  0.00     0.029 A 
ATOM     47  N   UNL A   1      46.371  29.180  29.869  1.00  0.00    -0.354 N 
ATOM     48  C   UNL A   1      46.131  25.995  32.798  1.00  0.00     0.074 A 
ATOM     49  C   UNL A   1      47.292  25.137  32.719  1.00  0.00     0.031 C 
ATOM     50  C   UNL A   1      47.311  30.380  28.236  1.00  0.00     0.029 A 
ATOM     51  C   UNL A   1      46.122  30.275  29.080  1.00  0.00     0.049 A 
ATOM     52  H   UNL A   1      45.759  28.875  30.578  1.00  0.00     0.167 HD
ATOM     53  C   UNL A   1      45.132  25.842  33.697  1.00  0.00     0.037 A 
ATOM     54  C   UNL A   1      45.045  31.083  29.040  1.00  0.00     0.037 A 
ATOM     55  C   UNL A   1      43.977  26.697  33.771  1.00  0.00     0.049 A 
ATOM     56  C   UNL A   1      43.903  30.841  29.996  1.00  0.00     0.074 A 
ATOM     57  C   UNL A   1      42.907  26.630  34.643  1.00  0.00     0.029 A 
ATOM     58  N   UNL A   1      43.742  27.774  32.929  1.00  0.00    -0.354 N 
ATOM     59  N   UNL A   1      43.782  29.932  30.935  1.00  0.00    -0.248 NA
ATOM     60  C   UNL A   1      42.750  31.747  29.892  1.00  0.00     0.031 C 
ATOM     61  C   UNL A   1      41.993  27.627  34.290  1.00  0.00     0.029 A 
ATOM     62  C   UNL A   1      42.530  28.365  33.246  1.00  0.00     0.049 A 
ATOM     63  H   UNL A   1      44.346  28.074  32.211  1.00  0.00     0.167 HD
ATOM     64  C   UNL A   1      42.565  30.183  31.559  1.00  0.00     0.074 A 
ATOM     65  C   UNL A   1      41.990  31.335  30.897  1.00  0.00     0.031 C 
ATOM     66  C   UNL A   1      41.980  29.526  32.591  1.00  0.00     0.037 A 
BRANCH  53  67
ATOM     67  C   UNL A   1      45.231  24.685  34.651  1.00  0.00     0.064 A 
ATOM     68  C   UNL A   1      45.728  24.838  35.955  1.00  0.00     0.173 A 
ATOM     69  C   UNL A   1      44.812  23.405  34.257  1.00  0.00     0.173 A 
ATOM     70  F   UNL A   1      46.160  26.036  36.376  1.00  0.00    -0.203 F 
ATOM     71  C   UNL A   1      45.833  23.747  36.815  1.00  0.00     0.198 A 
ATOM     72  C   UNL A   1      44.884  22.325  35.132  1.00  0.00     0.198 A 
ATOM     73  F   UNL A   1      44.328  23.201  33.022  1.00  0.00    -0.203 F 
ATOM     74  F   UNL A   1      46.367  23.907  38.034  1.00  0.00    -0.200 F 
ATOM     75  C   UNL A   1      45.403  22.495  36.406  1.00  0.00     0.200 A 
ATOM     76  F   UNL A   1      44.455  21.117  34.740  1.00  0.00    -0.200 F 
ATOM     77  F   UNL A   1      45.499  21.447  37.237  1.00  0.00    -0.200 F 
ENDBRANCH  53  67
BRANCH  54  78
ATOM     78  C   UNL A   1      44.987  32.202  28.060  1.00  0.00     0.064 A 
ATOM     79  C   UNL A   1      45.579  33.442  28.341  1.00  0.00     0.173 A 
ATOM     80  C   UNL A   1      44.310  32.066  26.839  1.00  0.00     0.173 A 
ATOM     81  F   UNL A   1      46.215  33.633  29.506  1.00  0.00    -0.203 F 
ATOM     82  C   UNL A   1      45.473  34.509  27.451  1.00  0.00     0.198 A 
ATOM     83  C   UNL A   1      44.234  33.123  25.935  1.00  0.00     0.198 A 
ATOM     84  F   UNL A   1      43.724  30.902  26.522  1.00  0.00    -0.203 F 
ATOM     85  F   UNL A   1      45.998  35.701  27.771  1.00  0.00    -0.200 F 
ATOM     86  C   UNL A   1      44.806  34.348  26.246  1.00  0.00     0.200 A 
ATOM     87  F   UNL A   1      43.599  32.959  24.767  1.00  0.00    -0.200 F 
ATOM     88  F   UNL A   1      44.705  35.373  25.391  1.00  0.00    -0.200 F 
ENDBRANCH  54  78
BRANCH  66  89
ATOM     89  C   UNL A   1      40.682  30.073  33.118  1.00  0.00     0.064 A 
ATOM     90  C   UNL A   1      40.635  31.136  34.032  1.00  0.00     0.173 A 
ATOM     91  C   UNL A   1      39.462  29.543  32.667  1.00  0.00     0.173 A 
ATOM     92  F   UNL A   1      41.771  31.671  34.503  1.00  0.00    -0.203 F 
ATOM     93  C   UNL A   1      39.418  31.623  34.502  1.00  0.00     0.198 A 
ATOM     94  C   UNL A   1      38.246  30.058  33.109  1.00  0.00     0.198 A 
ATOM     95  F   UNL A   1      39.447  28.534  31.783  1.00  0.00    -0.203 F 
ATOM     96  F   UNL A   1      39.399  32.598  35.422  1.00  0.00    -0.200 F 
ATOM     97  C   UNL A   1      38.225  31.090  34.036  1.00  0.00     0.200 A 
ATOM     98  F   UNL A   1      37.096  29.555  32.640  1.00  0.00    -0.200 F 
ATOM     99  F   UNL A   1      37.056  31.565  34.484  1.00  0.00    -0.200 F 
ENDBRANCH  66  89
ENDBRANCH  40  41
ENDBRANCH  33  35
ENDBRANCH  32  33
ENDBRANCH  31  32
ENDBRANCH  30  31
ENDBRANCH  29  30
ENDBRANCH  28  29
ENDBRANCH  27  28
ENDBRANCH  26  27
ENDBRANCH  25  26
ENDBRANCH   1  25
TORSDOF 26
ENDMDL
