MODEL 1
REMARK VINA RESULT:     -10.8      0.000      0.000
REMARK SMILES COc1cccc(CC2(CO)CCN(c3nc(C)ccc3C(=O)OCCOCCOCCOCCOC(=O)c3ccc(-c4c5nc(c(-c6c(F)c(F)c(F)c(F)c6F)c6ccc([nH]6)c(-c6c(F)c(F)c(F)c(F)c6F)c6nc(c(-c7c(F)c(F)c(F)c(F)c7F)c7ccc4[nH]7)C=C6)C=C5)cc3)CC2)c1
REMARK SMILES IDX 29 1 28 2 27 3 26 4 25 5 24 6 22 7 23 8 21 9 15 10 16 11
REMARK SMILES IDX 17 12 20 13 18 14 19 15 14 16 9 17 12 18 103 19 13 20 102 21
REMARK SMILES IDX 8 22 7 23 3 24 4 25 104 26 5 27 6 28 2 29 1 30 10 31 11 32
REMARK SMILES IDX 30 34 31 35 32 36 33 37 34 38 35 39 36 40 37 41 38 42 39 43
REMARK SMILES IDX 40 44 101 45 41 46 100 47 42 48 43 49 44 50 94 51 45 52
REMARK SMILES IDX 99 53 93 54 95 55 46 56 98 57 92 58 91 59 47 61 79 62 59 63
REMARK SMILES IDX 78 64 60 65 63 66 77 67 96 68 61 69 62 70 76 72 97 73 64 74
REMARK SMILES IDX 48 75 49 76 57 77 50 78 51 79 55 80 58 81 52 82 53 83 56 84
REMARK SMILES IDX 54 85 80 86 81 87 89 88 82 89 83 90 87 91 90 92 84 93 85 94
REMARK SMILES IDX 88 95 86 96 65 97 66 98 74 99 67 100 68 101 72 102 75 103
REMARK SMILES IDX 69 104 70 105 73 106 71 107
REMARK H PARENT 11 33 95 60 63 71
REMARK Flexibility Score: inf
ROOT
ATOM      1  C   UNL A   1      33.108  27.555  26.489  1.00  0.00     0.188 C 
ENDROOT
BRANCH   1   2
ATOM      2  C   UNL A   1      31.569  27.478  26.495  1.00  0.00     0.188 C 
BRANCH   2   3
ATOM      3  O   UNL A   1      31.104  26.325  25.821  1.00  0.00    -0.376 OA
BRANCH   3   4
ATOM      4  C   UNL A   1      31.074  25.066  26.453  1.00  0.00     0.202 C 
BRANCH   4   5
ATOM      5  C   UNL A   1      30.895  23.751  25.684  1.00  0.00     0.261 C 
BRANCH   5   6
ATOM      6  O   UNL A   1      30.539  23.853  24.303  1.00  0.00    -0.460 OA
BRANCH   6   7
ATOM      7  C   UNL A   1      31.448  23.502  23.358  1.00  0.00     0.341 C 
ATOM      8  O   UNL A   1      31.610  22.379  22.901  1.00  0.00    -0.246 OA
BRANCH   7   9
ATOM      9  C   UNL A   1      32.226  24.711  23.004  1.00  0.00     0.102 A 
ATOM     10  C   UNL A   1      33.535  24.969  23.437  1.00  0.00     0.143 A 
ATOM     11  N   UNL A   1      34.093  26.186  23.223  1.00  0.00    -0.235 NA
ATOM     12  C   UNL A   1      33.405  27.142  22.555  1.00  0.00     0.040 A 
ATOM     13  C   UNL A   1      31.561  25.684  22.234  1.00  0.00     0.021 A 
ATOM     14  C   UNL A   1      34.017  28.507  22.530  1.00  0.00     0.067 C 
ATOM     15  C   UNL A   1      32.158  26.913  22.001  1.00  0.00     0.024 A 
BRANCH  10  16
ATOM     16  N   UNL A   1      34.389  24.080  24.044  1.00  0.00    -0.356 N 
ATOM     17  C   UNL A   1      36.641  22.553  25.175  1.00  0.00     0.001 C 
ATOM     18  C   UNL A   1      35.962  23.737  25.923  1.00  0.00     0.031 C 
ATOM     19  C   UNL A   1      36.398  22.717  23.661  1.00  0.00     0.031 C 
ATOM     20  C   UNL A   1      34.550  24.153  25.479  1.00  0.00     0.119 C 
ATOM     21  C   UNL A   1      34.945  22.970  23.301  1.00  0.00     0.119 C 
BRANCH  17  22
ATOM     22  C   UNL A   1      36.267  21.125  25.719  1.00  0.00     0.045 C 
BRANCH  22  23
ATOM     23  C   UNL A   1      34.949  20.471  25.375  1.00  0.00    -0.044 A 
ATOM     24  C   UNL A   1      33.663  18.708  24.285  1.00  0.00     0.119 A 
ATOM     25  C   UNL A   1      32.489  19.315  24.737  1.00  0.00     0.046 A 
ATOM     26  C   UNL A   1      34.893  19.286  24.610  1.00  0.00     0.050 A 
ATOM     27  C   UNL A   1      32.530  20.463  25.517  1.00  0.00     0.004 A 
ATOM     28  C   UNL A   1      33.757  21.012  25.866  1.00  0.00     0.004 A 
BRANCH  24  29
ATOM     29  O   UNL A   1      33.444  17.605  23.513  1.00  0.00    -0.497 OA
ATOM     30  C   UNL A   1      34.114  16.395  23.832  1.00  0.00     0.278 C 
ENDBRANCH  24  29
ENDBRANCH  22  23
ENDBRANCH  17  22
BRANCH  17  31
ATOM     31  C   UNL A   1      38.187  22.678  25.370  1.00  0.00     0.163 C 
BRANCH  31  32
ATOM     32  O   UNL A   1      38.781  21.445  25.758  1.00  0.00    -0.396 OA
ATOM     33  H   UNL A   1      38.166  20.955  26.327  1.00  0.00     0.210 HD
ENDBRANCH  31  32
ENDBRANCH  17  31
ENDBRANCH  10  16
ENDBRANCH   7   9
ENDBRANCH   6   7
ENDBRANCH   5   6
ENDBRANCH   4   5
ENDBRANCH   3   4
ENDBRANCH   2   3
ENDBRANCH   1   2
BRANCH   1  34
ATOM     34  O   UNL A   1      33.684  28.738  25.945  1.00  0.00    -0.377 OA
BRANCH  34  35
ATOM     35  C   UNL A   1      34.368  29.548  26.884  1.00  0.00     0.188 C 
BRANCH  35  36
ATOM     36  C   UNL A   1      33.473  30.637  27.518  1.00  0.00     0.188 C 
BRANCH  36  37
ATOM     37  O   UNL A   1      32.212  30.981  26.962  1.00  0.00    -0.376 OA
BRANCH  37  38
ATOM     38  C   UNL A   1      31.772  32.324  26.859  1.00  0.00     0.202 C 
BRANCH  38  39
ATOM     39  C   UNL A   1      32.625  33.548  27.254  1.00  0.00     0.261 C 
BRANCH  39  40
ATOM     40  O   UNL A   1      32.201  34.333  28.368  1.00  0.00    -0.460 OA
BRANCH  40  41
ATOM     41  C   UNL A   1      33.086  35.236  28.849  1.00  0.00     0.338 C 
ATOM     42  O   UNL A   1      32.916  36.431  29.005  1.00  0.00    -0.246 OA
BRANCH  41  43
ATOM     43  C   UNL A   1      34.246  34.476  29.371  1.00  0.00     0.060 A 
ATOM     44  C   UNL A   1      34.030  33.543  30.397  1.00  0.00     0.016 A 
ATOM     45  C   UNL A   1      35.511  34.605  28.792  1.00  0.00     0.016 A 
ATOM     46  C   UNL A   1      35.073  32.737  30.845  1.00  0.00     0.010 A 
ATOM     47  C   UNL A   1      36.570  33.834  29.277  1.00  0.00     0.010 A 
ATOM     48  C   UNL A   1      36.358  32.918  30.322  1.00  0.00    -0.014 A 
BRANCH  48  49
ATOM     49  C   UNL A   1      37.515  32.348  31.049  1.00  0.00     0.031 A 
ATOM     50  C   UNL A   1      38.273  31.240  30.374  1.00  0.00     0.074 A 
ATOM     51  C   UNL A   1      37.899  32.808  32.251  1.00  0.00     0.049 A 
ATOM     52  N   UNL A   1      39.278  30.528  30.813  1.00  0.00    -0.248 NA
ATOM     53  C   UNL A   1      37.831  30.885  29.014  1.00  0.00     0.031 C 
ATOM     54  C   UNL A   1      37.277  33.914  32.975  1.00  0.00     0.029 A 
ATOM     55  N   UNL A   1      38.909  32.386  33.079  1.00  0.00    -0.354 N 
ATOM     56  C   UNL A   1      39.580  29.641  29.790  1.00  0.00     0.074 A 
ATOM     57  C   UNL A   1      38.640  29.881  28.718  1.00  0.00     0.031 C 
ATOM     58  C   UNL A   1      37.908  34.068  34.155  1.00  0.00     0.029 A 
ATOM     59  C   UNL A   1      38.952  33.052  34.279  1.00  0.00     0.049 A 
ATOM     60  H   UNL A   1      39.543  31.672  32.836  1.00  0.00     0.167 HD
ATOM     61  C   UNL A   1      40.562  28.712  29.746  1.00  0.00     0.037 A 
ATOM     62  C   UNL A   1      39.729  32.837  35.360  1.00  0.00     0.037 A 
ATOM     63  C   UNL A   1      41.490  28.473  30.816  1.00  0.00     0.049 A 
ATOM     64  C   UNL A   1      40.758  31.733  35.318  1.00  0.00     0.074 A 
ATOM     65  C   UNL A   1      42.529  27.562  30.867  1.00  0.00     0.029 A 
ATOM     66  N   UNL A   1      41.482  29.143  32.030  1.00  0.00    -0.354 N 
ATOM     67  N   UNL A   1      41.060  30.913  34.341  1.00  0.00    -0.248 NA
ATOM     68  C   UNL A   1      41.558  31.526  36.535  1.00  0.00     0.031 C 
ATOM     69  C   UNL A   1      43.111  27.639  32.137  1.00  0.00     0.029 A 
ATOM     70  C   UNL A   1      42.479  28.644  32.851  1.00  0.00     0.049 A 
ATOM     71  H   UNL A   1      40.858  29.866  32.272  1.00  0.00     0.167 HD
ATOM     72  C   UNL A   1      42.101  30.119  34.809  1.00  0.00     0.074 A 
ATOM     73  C   UNL A   1      42.389  30.566  36.156  1.00  0.00     0.031 C 
ATOM     74  C   UNL A   1      42.759  29.112  34.184  1.00  0.00     0.037 A 
BRANCH  61  75
ATOM     75  C   UNL A   1      40.655  27.861  28.514  1.00  0.00     0.064 A 
ATOM     76  C   UNL A   1      41.396  28.261  27.391  1.00  0.00     0.173 A 
ATOM     77  C   UNL A   1      40.017  26.611  28.469  1.00  0.00     0.173 A 
ATOM     78  F   UNL A   1      42.006  29.456  27.376  1.00  0.00    -0.203 F 
ATOM     79  C   UNL A   1      41.478  27.450  26.262  1.00  0.00     0.198 A 
ATOM     80  C   UNL A   1      40.129  25.790  27.351  1.00  0.00     0.198 A 
ATOM     81  F   UNL A   1      39.295  26.183  29.515  1.00  0.00    -0.203 F 
ATOM     82  F   UNL A   1      42.152  27.873  25.185  1.00  0.00    -0.200 F 
ATOM     83  C   UNL A   1      40.853  26.212  26.248  1.00  0.00     0.200 A 
ATOM     84  F   UNL A   1      39.534  24.589  27.344  1.00  0.00    -0.200 F 
ATOM     85  F   UNL A   1      40.944  25.427  25.165  1.00  0.00    -0.200 F 
ENDBRANCH  61  75
BRANCH  62  86
ATOM     86  C   UNL A   1      39.554  33.661  36.586  1.00  0.00     0.064 A 
ATOM     87  C   UNL A   1      38.759  33.217  37.653  1.00  0.00     0.173 A 
ATOM     88  C   UNL A   1      40.141  34.930  36.700  1.00  0.00     0.173 A 
ATOM     89  F   UNL A   1      38.152  32.023  37.582  1.00  0.00    -0.203 F 
ATOM     90  C   UNL A   1      38.535  34.020  38.769  1.00  0.00     0.198 A 
ATOM     91  C   UNL A   1      39.945  35.719  37.831  1.00  0.00     0.198 A 
ATOM     92  F   UNL A   1      40.908  35.408  35.708  1.00  0.00    -0.203 F 
ATOM     93  F   UNL A   1      37.721  33.595  39.745  1.00  0.00    -0.200 F 
ATOM     94  C   UNL A   1      39.132  35.268  38.861  1.00  0.00     0.200 A 
ATOM     95  F   UNL A   1      40.534  36.918  37.920  1.00  0.00    -0.200 F 
ATOM     96  F   UNL A   1      38.916  36.040  39.934  1.00  0.00    -0.200 F 
ENDBRANCH  62  86
BRANCH  74  97
ATOM     97  C   UNL A   1      43.888  28.452  34.926  1.00  0.00     0.064 A 
ATOM     98  C   UNL A   1      45.195  28.956  34.886  1.00  0.00     0.173 A 
ATOM     99  C   UNL A   1      43.643  27.328  35.731  1.00  0.00     0.173 A 
ATOM    100  F   UNL A   1      45.486  30.021  34.122  1.00  0.00    -0.203 F 
ATOM    101  C   UNL A   1      46.221  28.344  35.601  1.00  0.00     0.198 A 
ATOM    102  C   UNL A   1      44.663  26.740  36.473  1.00  0.00     0.198 A 
ATOM    103  F   UNL A   1      42.408  26.812  35.815  1.00  0.00    -0.203 F 
ATOM    104  F   UNL A   1      47.474  28.812  35.507  1.00  0.00    -0.200 F 
ATOM    105  C   UNL A   1      45.953  27.242  36.401  1.00  0.00     0.200 A 
ATOM    106  F   UNL A   1      44.396  25.689  37.260  1.00  0.00    -0.200 F 
ATOM    107  F   UNL A   1      46.940  26.661  37.097  1.00  0.00    -0.200 F 
ENDBRANCH  74  97
ENDBRANCH  48  49
ENDBRANCH  41  43
ENDBRANCH  40  41
ENDBRANCH  39  40
ENDBRANCH  38  39
ENDBRANCH  37  38
ENDBRANCH  36  37
ENDBRANCH  35  36
ENDBRANCH  34  35
ENDBRANCH   1  34
TORSDOF 26
ENDMDL
MODEL 2
REMARK VINA RESULT:     -10.8      1.359      6.990
REMARK SMILES COc1cccc(CC2(CO)CCN(c3nc(C)ccc3C(=O)OCCOCCOCCOCCOC(=O)c3ccc(-c4c5nc(c(-c6c(F)c(F)c(F)c(F)c6F)c6ccc([nH]6)c(-c6c(F)c(F)c(F)c(F)c6F)c6nc(c(-c7c(F)c(F)c(F)c(F)c7F)c7ccc4[nH]7)C=C6)C=C5)cc3)CC2)c1
REMARK SMILES IDX 29 1 28 2 27 3 26 4 25 5 24 6 22 7 23 8 21 9 15 10 16 11
REMARK SMILES IDX 17 12 20 13 18 14 19 15 14 16 9 17 12 18 103 19 13 20 102 21
REMARK SMILES IDX 8 22 7 23 3 24 4 25 104 26 5 27 6 28 2 29 1 30 10 31 11 32
REMARK SMILES IDX 30 34 31 35 32 36 33 37 34 38 35 39 36 40 37 41 38 42 39 43
REMARK SMILES IDX 40 44 101 45 41 46 100 47 42 48 43 49 44 50 94 51 45 52
REMARK SMILES IDX 99 53 93 54 95 55 46 56 98 57 92 58 91 59 47 61 79 62 59 63
REMARK SMILES IDX 78 64 60 65 63 66 77 67 96 68 61 69 62 70 76 72 97 73 64 74
REMARK SMILES IDX 48 75 49 76 57 77 50 78 51 79 55 80 58 81 52 82 53 83 56 84
REMARK SMILES IDX 54 85 80 86 81 87 89 88 82 89 83 90 87 91 90 92 84 93 85 94
REMARK SMILES IDX 88 95 86 96 65 97 66 98 74 99 67 100 68 101 72 102 75 103
REMARK SMILES IDX 69 104 70 105 73 106 71 107
REMARK H PARENT 11 33 95 60 63 71
REMARK Flexibility Score: inf
ROOT
ATOM      1  C   UNL A   1      32.677  26.508  26.561  1.00  0.00     0.188 C 
ENDROOT
BRANCH   1   2
ATOM      2  C   UNL A   1      31.332  25.766  26.434  1.00  0.00     0.188 C 
BRANCH   2   3
ATOM      3  O   UNL A   1      31.347  24.539  27.137  1.00  0.00    -0.376 OA
BRANCH   3   4
ATOM      4  C   UNL A   1      30.535  23.457  26.745  1.00  0.00     0.202 C 
BRANCH   4   5
ATOM      5  C   UNL A   1      30.794  22.635  25.476  1.00  0.00     0.261 C 
BRANCH   5   6
ATOM      6  O   UNL A   1      30.714  23.330  24.228  1.00  0.00    -0.460 OA
BRANCH   6   7
ATOM      7  C   UNL A   1      31.652  23.092  23.277  1.00  0.00     0.341 C 
ATOM      8  O   UNL A   1      31.916  22.004  22.786  1.00  0.00    -0.246 OA
BRANCH   7   9
ATOM      9  C   UNL A   1      32.318  24.378  22.965  1.00  0.00     0.102 A 
ATOM     10  C   UNL A   1      33.580  24.756  23.446  1.00  0.00     0.143 A 
ATOM     11  N   UNL A   1      34.022  26.025  23.266  1.00  0.00    -0.235 NA
ATOM     12  C   UNL A   1      33.265  26.919  22.586  1.00  0.00     0.040 A 
ATOM     13  C   UNL A   1      31.586  25.293  22.185  1.00  0.00     0.021 A 
ATOM     14  C   UNL A   1      33.741  28.338  22.599  1.00  0.00     0.067 C 
ATOM     15  C   UNL A   1      32.066  26.577  21.987  1.00  0.00     0.024 A 
BRANCH  10  16
ATOM     16  N   UNL A   1      34.497  23.945  24.071  1.00  0.00    -0.356 N 
ATOM     17  C   UNL A   1      36.852  22.627  25.254  1.00  0.00     0.001 C 
ATOM     18  C   UNL A   1      36.045  23.736  25.990  1.00  0.00     0.031 C 
ATOM     19  C   UNL A   1      36.634  22.780  23.735  1.00  0.00     0.031 C 
ATOM     20  C   UNL A   1      34.613  24.022  25.510  1.00  0.00     0.119 C 
ATOM     21  C   UNL A   1      35.174  22.899  23.336  1.00  0.00     0.119 C 
BRANCH  17  22
ATOM     22  C   UNL A   1      36.599  21.166  25.779  1.00  0.00     0.045 C 
BRANCH  22  23
ATOM     23  C   UNL A   1      35.362  20.391  25.388  1.00  0.00    -0.044 A 
ATOM     24  C   UNL A   1      34.292  18.496  24.285  1.00  0.00     0.119 A 
ATOM     25  C   UNL A   1      33.048  19.008  24.659  1.00  0.00     0.046 A 
ATOM     26  C   UNL A   1      35.449  19.187  24.656  1.00  0.00     0.050 A 
ATOM     27  C   UNL A   1      32.948  20.174  25.407  1.00  0.00     0.004 A 
ATOM     28  C   UNL A   1      34.104  20.836  25.802  1.00  0.00     0.004 A 
BRANCH  24  29
ATOM     29  O   UNL A   1      34.210  17.359  23.534  1.00  0.00    -0.497 OA
ATOM     30  C   UNL A   1      33.535  16.228  24.065  1.00  0.00     0.278 C 
ENDBRANCH  24  29
ENDBRANCH  22  23
ENDBRANCH  17  22
BRANCH  17  31
ATOM     31  C   UNL A   1      38.373  22.894  25.492  1.00  0.00     0.163 C 
BRANCH  31  32
ATOM     32  O   UNL A   1      38.881  22.161  26.600  1.00  0.00    -0.396 OA
ATOM     33  H   UNL A   1      38.197  22.097  27.286  1.00  0.00     0.210 HD
ENDBRANCH  31  32
ENDBRANCH  17  31
ENDBRANCH  10  16
ENDBRANCH   7   9
ENDBRANCH   6   7
ENDBRANCH   5   6
ENDBRANCH   4   5
ENDBRANCH   3   4
ENDBRANCH   2   3
ENDBRANCH   1   2
BRANCH   1  34
ATOM     34  O   UNL A   1      32.753  27.793  25.953  1.00  0.00    -0.377 OA
BRANCH  34  35
ATOM     35  C   UNL A   1      33.415  28.776  26.729  1.00  0.00     0.188 C 
BRANCH  35  36
ATOM     36  C   UNL A   1      33.222  30.211  26.190  1.00  0.00     0.188 C 
BRANCH  36  37
ATOM     37  O   UNL A   1      31.936  30.715  25.859  1.00  0.00    -0.376 OA
BRANCH  37  38
ATOM     38  C   UNL A   1      31.336  31.783  26.572  1.00  0.00     0.202 C 
BRANCH  38  39
ATOM     39  C   UNL A   1      32.053  33.106  26.916  1.00  0.00     0.261 C 
BRANCH  39  40
ATOM     40  O   UNL A   1      32.871  33.144  28.086  1.00  0.00    -0.460 OA
BRANCH  40  41
ATOM     41  C   UNL A   1      33.958  33.949  28.043  1.00  0.00     0.338 C 
ATOM     42  O   UNL A   1      33.983  35.151  27.855  1.00  0.00    -0.246 OA
BRANCH  41  43
ATOM     43  C   UNL A   1      35.117  33.142  28.490  1.00  0.00     0.060 A 
ATOM     44  C   UNL A   1      34.905  31.799  28.840  1.00  0.00     0.016 A 
ATOM     45  C   UNL A   1      36.411  33.668  28.470  1.00  0.00     0.016 A 
ATOM     46  C   UNL A   1      35.982  30.980  29.168  1.00  0.00     0.010 A 
ATOM     47  C   UNL A   1      37.486  32.862  28.850  1.00  0.00     0.010 A 
ATOM     48  C   UNL A   1      37.270  31.524  29.225  1.00  0.00    -0.014 A 
BRANCH  48  49
ATOM     49  C   UNL A   1      38.335  30.775  29.929  1.00  0.00     0.031 A 
ATOM     50  C   UNL A   1      38.556  31.095  31.380  1.00  0.00     0.074 A 
ATOM     51  C   UNL A   1      39.065  29.828  29.317  1.00  0.00     0.049 A 
ATOM     52  N   UNL A   1      39.458  30.635  32.208  1.00  0.00    -0.248 NA
ATOM     53  C   UNL A   1      37.631  32.073  31.979  1.00  0.00     0.031 C 
ATOM     54  C   UNL A   1      38.902  29.393  27.931  1.00  0.00     0.029 A 
ATOM     55  N   UNL A   1      40.104  29.067  29.791  1.00  0.00    -0.354 N 
ATOM     56  C   UNL A   1      39.212  31.272  33.416  1.00  0.00     0.074 A 
ATOM     57  C   UNL A   1      38.098  32.170  33.212  1.00  0.00     0.031 C 
ATOM     58  C   UNL A   1      39.828  28.454  27.660  1.00  0.00     0.029 A 
ATOM     59  C   UNL A   1      40.665  28.249  28.842  1.00  0.00     0.049 A 
ATOM     60  H   UNL A   1      40.417  29.103  30.725  1.00  0.00     0.167 HD
ATOM     61  C   UNL A   1      39.857  31.116  34.595  1.00  0.00     0.037 A 
ATOM     62  C   UNL A   1      41.751  27.453  28.919  1.00  0.00     0.037 A 
ATOM     63  C   UNL A   1      40.968  30.227  34.791  1.00  0.00     0.049 A 
ATOM     64  C   UNL A   1      42.508  27.365  30.223  1.00  0.00     0.074 A 
ATOM     65  C   UNL A   1      41.684  29.987  35.949  1.00  0.00     0.029 A 
ATOM     66  N   UNL A   1      41.532  29.440  33.798  1.00  0.00    -0.354 N 
ATOM     67  N   UNL A   1      42.259  27.948  31.370  1.00  0.00    -0.248 NA
ATOM     68  C   UNL A   1      43.699  26.503  30.241  1.00  0.00     0.031 C 
ATOM     69  C   UNL A   1      42.721  29.100  35.642  1.00  0.00     0.029 A 
ATOM     70  C   UNL A   1      42.608  28.736  34.309  1.00  0.00     0.049 A 
ATOM     71  H   UNL A   1      41.213  29.391  32.868  1.00  0.00     0.167 HD
ATOM     72  C   UNL A   1      43.237  27.501  32.251  1.00  0.00     0.074 A 
ATOM     73  C   UNL A   1      44.077  26.585  31.508  1.00  0.00     0.031 C 
ATOM     74  C   UNL A   1      43.424  27.818  33.556  1.00  0.00     0.037 A 
BRANCH  61  75
ATOM     75  C   UNL A   1      39.397  31.953  35.752  1.00  0.00     0.064 A 
ATOM     76  C   UNL A   1      38.430  31.496  36.660  1.00  0.00     0.173 A 
ATOM     77  C   UNL A   1      39.956  33.222  35.971  1.00  0.00     0.173 A 
ATOM     78  F   UNL A   1      37.849  30.299  36.482  1.00  0.00    -0.203 F 
ATOM     79  C   UNL A   1      38.026  32.285  37.733  1.00  0.00     0.198 A 
ATOM     80  C   UNL A   1      39.573  33.994  37.064  1.00  0.00     0.198 A 
ATOM     81  F   UNL A   1      40.883  33.707  35.131  1.00  0.00    -0.203 F 
ATOM     82  F   UNL A   1      37.068  31.847  38.561  1.00  0.00    -0.200 F 
ATOM     83  C   UNL A   1      38.605  33.529  37.940  1.00  0.00     0.200 A 
ATOM     84  F   UNL A   1      40.143  35.190  37.268  1.00  0.00    -0.200 F 
ATOM     85  F   UNL A   1      38.224  34.282  38.980  1.00  0.00    -0.200 F 
ENDBRANCH  61  75
BRANCH  62  86
ATOM     86  C   UNL A   1      42.212  26.694  27.725  1.00  0.00     0.064 A 
ATOM     87  C   UNL A   1      41.746  25.398  27.463  1.00  0.00     0.173 A 
ATOM     88  C   UNL A   1      43.165  27.230  26.847  1.00  0.00     0.173 A 
ATOM     89  F   UNL A   1      40.856  24.827  28.289  1.00  0.00    -0.203 F 
ATOM     90  C   UNL A   1      42.234  24.659  26.388  1.00  0.00     0.198 A 
ATOM     91  C   UNL A   1      43.628  26.503  25.751  1.00  0.00     0.198 A 
ATOM     92  F   UNL A   1      43.650  28.464  27.051  1.00  0.00    -0.203 F 
ATOM     93  F   UNL A   1      41.816  23.400  26.197  1.00  0.00    -0.200 F 
ATOM     94  C   UNL A   1      43.171  25.213  25.529  1.00  0.00     0.200 A 
ATOM     95  F   UNL A   1      44.523  27.049  24.918  1.00  0.00    -0.200 F 
ATOM     96  F   UNL A   1      43.641  24.502  24.496  1.00  0.00    -0.200 F 
ENDBRANCH  62  86
BRANCH  74  97
ATOM     97  C   UNL A   1      44.551  27.138  34.283  1.00  0.00     0.064 A 
ATOM     98  C   UNL A   1      44.412  25.854  34.829  1.00  0.00     0.173 A 
ATOM     99  C   UNL A   1      45.805  27.762  34.386  1.00  0.00     0.173 A 
ATOM    100  F   UNL A   1      43.233  25.218  34.768  1.00  0.00    -0.203 F 
ATOM    101  C   UNL A   1      45.478  25.232  35.475  1.00  0.00     0.198 A 
ATOM    102  C   UNL A   1      46.877  27.124  35.001  1.00  0.00     0.198 A 
ATOM    103  F   UNL A   1      45.995  28.986  33.871  1.00  0.00    -0.203 F 
ATOM    104  F   UNL A   1      45.307  24.026  36.035  1.00  0.00    -0.200 F 
ATOM    105  C   UNL A   1      46.711  25.863  35.554  1.00  0.00     0.200 A 
ATOM    106  F   UNL A   1      48.072  27.728  35.058  1.00  0.00    -0.200 F 
ATOM    107  F   UNL A   1      47.737  25.258  36.167  1.00  0.00    -0.200 F 
ENDBRANCH  74  97
ENDBRANCH  48  49
ENDBRANCH  41  43
ENDBRANCH  40  41
ENDBRANCH  39  40
ENDBRANCH  38  39
ENDBRANCH  37  38
ENDBRANCH  36  37
ENDBRANCH  35  36
ENDBRANCH  34  35
ENDBRANCH   1  34
TORSDOF 26
ENDMDL
MODEL 3
REMARK VINA RESULT:      -9.6      1.328      2.146
REMARK SMILES COc1cccc(CC2(CO)CCN(c3nc(C)ccc3C(=O)OCCOCCOCCOCCOC(=O)c3ccc(-c4c5nc(c(-c6c(F)c(F)c(F)c(F)c6F)c6ccc([nH]6)c(-c6c(F)c(F)c(F)c(F)c6F)c6nc(c(-c7c(F)c(F)c(F)c(F)c7F)c7ccc4[nH]7)C=C6)C=C5)cc3)CC2)c1
REMARK SMILES IDX 29 1 28 2 27 3 26 4 25 5 24 6 22 7 23 8 21 9 15 10 16 11
REMARK SMILES IDX 17 12 20 13 18 14 19 15 14 16 9 17 12 18 103 19 13 20 102 21
REMARK SMILES IDX 8 22 7 23 3 24 4 25 104 26 5 27 6 28 2 29 1 30 10 31 11 32
REMARK SMILES IDX 30 34 31 35 32 36 33 37 34 38 35 39 36 40 37 41 38 42 39 43
REMARK SMILES IDX 40 44 101 45 41 46 100 47 42 48 43 49 44 50 94 51 45 52
REMARK SMILES IDX 99 53 93 54 95 55 46 56 98 57 92 58 91 59 47 61 79 62 59 63
REMARK SMILES IDX 78 64 60 65 63 66 77 67 96 68 61 69 62 70 76 72 97 73 64 74
REMARK SMILES IDX 48 75 49 76 57 77 50 78 51 79 55 80 58 81 52 82 53 83 56 84
REMARK SMILES IDX 54 85 80 86 81 87 89 88 82 89 83 90 87 91 90 92 84 93 85 94
REMARK SMILES IDX 88 95 86 96 65 97 66 98 74 99 67 100 68 101 72 102 75 103
REMARK SMILES IDX 69 104 70 105 73 106 71 107
REMARK H PARENT 11 33 95 60 63 71
REMARK Flexibility Score: inf
ROOT
ATOM      1  C   UNL A   1      32.149  26.508  26.492  1.00  0.00     0.188 C 
ENDROOT
BRANCH   1   2
ATOM      2  C   UNL A   1      31.091  25.571  27.109  1.00  0.00     0.188 C 
BRANCH   2   3
ATOM      3  O   UNL A   1      31.405  24.211  26.878  1.00  0.00    -0.376 OA
BRANCH   3   4
ATOM      4  C   UNL A   1      30.536  23.369  26.159  1.00  0.00     0.202 C 
BRANCH   4   5
ATOM      5  C   UNL A   1      30.985  22.549  24.942  1.00  0.00     0.261 C 
BRANCH   5   6
ATOM      6  O   UNL A   1      30.886  23.182  23.664  1.00  0.00    -0.460 OA
BRANCH   6   7
ATOM      7  C   UNL A   1      31.914  23.067  22.786  1.00  0.00     0.341 C 
ATOM      8  O   UNL A   1      32.280  22.036  22.241  1.00  0.00    -0.246 OA
BRANCH   7   9
ATOM      9  C   UNL A   1      32.533  24.404  22.632  1.00  0.00     0.102 A 
ATOM     10  C   UNL A   1      33.689  24.826  23.303  1.00  0.00     0.143 A 
ATOM     11  N   UNL A   1      34.069  26.127  23.249  1.00  0.00    -0.235 NA
ATOM     12  C   UNL A   1      33.356  27.013  22.513  1.00  0.00     0.040 A 
ATOM     13  C   UNL A   1      31.857  25.318  21.802  1.00  0.00     0.021 A 
ATOM     14  C   UNL A   1      33.733  28.454  22.661  1.00  0.00     0.067 C 
ATOM     15  C   UNL A   1      32.276  26.638  21.736  1.00  0.00     0.024 A 
BRANCH  10  16
ATOM     16  N   UNL A   1      34.563  24.036  24.012  1.00  0.00    -0.356 N 
ATOM     17  C   UNL A   1      36.844  22.720  25.333  1.00  0.00     0.001 C 
ATOM     18  C   UNL A   1      36.098  23.940  25.949  1.00  0.00     0.031 C 
ATOM     19  C   UNL A   1      36.634  22.730  23.805  1.00  0.00     0.031 C 
ATOM     20  C   UNL A   1      34.683  24.252  25.436  1.00  0.00     0.119 C 
ATOM     21  C   UNL A   1      35.182  22.886  23.390  1.00  0.00     0.119 C 
BRANCH  17  22
ATOM     22  C   UNL A   1      36.513  21.336  26.003  1.00  0.00     0.045 C 
BRANCH  22  23
ATOM     23  C   UNL A   1      35.356  20.488  25.529  1.00  0.00    -0.044 A 
ATOM     24  C   UNL A   1      34.482  18.530  24.366  1.00  0.00     0.119 A 
ATOM     25  C   UNL A   1      33.186  18.968  24.646  1.00  0.00     0.046 A 
ATOM     26  C   UNL A   1      35.567  19.290  24.813  1.00  0.00     0.050 A 
ATOM     27  C   UNL A   1      32.964  20.127  25.378  1.00  0.00     0.004 A 
ATOM     28  C   UNL A   1      34.047  20.858  25.850  1.00  0.00     0.004 A 
BRANCH  24  29
ATOM     29  O   UNL A   1      34.522  17.388  23.618  1.00  0.00    -0.497 OA
ATOM     30  C   UNL A   1      33.460  16.453  23.729  1.00  0.00     0.278 C 
ENDBRANCH  24  29
ENDBRANCH  22  23
ENDBRANCH  17  22
BRANCH  17  31
ATOM     31  C   UNL A   1      38.378  22.929  25.550  1.00  0.00     0.163 C 
BRANCH  31  32
ATOM     32  O   UNL A   1      38.938  21.945  26.411  1.00  0.00    -0.396 OA
ATOM     33  H   UNL A   1      39.790  22.261  26.752  1.00  0.00     0.210 HD
ENDBRANCH  31  32
ENDBRANCH  17  31
ENDBRANCH  10  16
ENDBRANCH   7   9
ENDBRANCH   6   7
ENDBRANCH   5   6
ENDBRANCH   4   5
ENDBRANCH   3   4
ENDBRANCH   2   3
ENDBRANCH   1   2
BRANCH   1  34
ATOM     34  O   UNL A   1      31.685  27.774  26.033  1.00  0.00    -0.377 OA
BRANCH  34  35
ATOM     35  C   UNL A   1      32.357  28.888  26.593  1.00  0.00     0.188 C 
BRANCH  35  36
ATOM     36  C   UNL A   1      32.425  30.102  25.640  1.00  0.00     0.188 C 
BRANCH  36  37
ATOM     37  O   UNL A   1      31.343  31.014  25.518  1.00  0.00    -0.376 OA
BRANCH  37  38
ATOM     38  C   UNL A   1      31.034  31.961  26.526  1.00  0.00     0.202 C 
BRANCH  38  39
ATOM     39  C   UNL A   1      31.996  33.073  26.993  1.00  0.00     0.261 C 
BRANCH  39  40
ATOM     40  O   UNL A   1      33.163  32.693  27.722  1.00  0.00    -0.460 OA
BRANCH  40  41
ATOM     41  C   UNL A   1      34.120  33.637  27.875  1.00  0.00     0.338 C 
ATOM     42  O   UNL A   1      34.008  34.839  27.721  1.00  0.00    -0.246 OA
BRANCH  41  43
ATOM     43  C   UNL A   1      35.295  32.973  28.487  1.00  0.00     0.060 A 
ATOM     44  C   UNL A   1      35.119  31.714  29.083  1.00  0.00     0.016 A 
ATOM     45  C   UNL A   1      36.570  33.534  28.390  1.00  0.00     0.016 A 
ATOM     46  C   UNL A   1      36.214  31.013  29.579  1.00  0.00     0.010 A 
ATOM     47  C   UNL A   1      37.662  32.855  28.934  1.00  0.00     0.010 A 
ATOM     48  C   UNL A   1      37.482  31.605  29.554  1.00  0.00    -0.014 A 
BRANCH  48  49
ATOM     49  C   UNL A   1      38.554  31.043  30.405  1.00  0.00     0.031 A 
ATOM     50  C   UNL A   1      39.458  30.016  29.784  1.00  0.00     0.074 A 
ATOM     51  C   UNL A   1      38.739  31.442  31.675  1.00  0.00     0.049 A 
ATOM     52  N   UNL A   1      40.428  29.324  30.323  1.00  0.00    -0.248 NA
ATOM     53  C   UNL A   1      39.233  29.730  28.357  1.00  0.00     0.031 C 
ATOM     54  C   UNL A   1      37.962  32.469  32.364  1.00  0.00     0.029 A 
ATOM     55  N   UNL A   1      39.643  31.013  32.614  1.00  0.00    -0.354 N 
ATOM     56  C   UNL A   1      40.919  28.519  29.304  1.00  0.00     0.074 A 
ATOM     57  C   UNL A   1      40.128  28.784  28.124  1.00  0.00     0.031 C 
ATOM     58  C   UNL A   1      38.411  32.575  33.629  1.00  0.00     0.029 A 
ATOM     59  C   UNL A   1      39.481  31.602  33.844  1.00  0.00     0.049 A 
ATOM     60  H   UNL A   1      40.343  30.346  32.424  1.00  0.00     0.167 HD
ATOM     61  C   UNL A   1      41.946  27.640  29.349  1.00  0.00     0.037 A 
ATOM     62  C   UNL A   1      40.108  31.353  35.011  1.00  0.00     0.037 A 
ATOM     63  C   UNL A   1      42.725  27.375  30.527  1.00  0.00     0.049 A 
ATOM     64  C   UNL A   1      41.191  30.301  35.056  1.00  0.00     0.074 A 
ATOM     65  C   UNL A   1      43.794  26.510  30.675  1.00  0.00     0.029 A 
ATOM     66  N   UNL A   1      42.510  27.964  31.763  1.00  0.00    -0.354 N 
ATOM     67  N   UNL A   1      41.671  29.560  34.086  1.00  0.00    -0.248 NA
ATOM     68  C   UNL A   1      41.821  30.053  36.361  1.00  0.00     0.031 C 
ATOM     69  C   UNL A   1      44.187  26.532  32.017  1.00  0.00     0.029 A 
ATOM     70  C   UNL A   1      43.406  27.459  32.689  1.00  0.00     0.049 A 
ATOM     71  H   UNL A   1      41.820  28.641  31.953  1.00  0.00     0.167 HD
ATOM     72  C   UNL A   1      42.677  28.786  34.654  1.00  0.00     0.074 A 
ATOM     73  C   UNL A   1      42.748  29.159  36.051  1.00  0.00     0.031 C 
ATOM     74  C   UNL A   1      43.470  27.853  34.074  1.00  0.00     0.037 A 
BRANCH  61  75
ATOM     75  C   UNL A   1      42.258  26.875  28.097  1.00  0.00     0.064 A 
ATOM     76  C   UNL A   1      41.713  25.606  27.849  1.00  0.00     0.173 A 
ATOM     77  C   UNL A   1      43.092  27.435  27.117  1.00  0.00     0.173 A 
ATOM     78  F   UNL A   1      40.927  25.018  28.764  1.00  0.00    -0.203 F 
ATOM     79  C   UNL A   1      42.007  24.918  26.674  1.00  0.00     0.198 A 
ATOM     80  C   UNL A   1      43.357  26.758  25.931  1.00  0.00     0.198 A 
ATOM     81  F   UNL A   1      43.640  28.644  27.307  1.00  0.00    -0.203 F 
ATOM     82  F   UNL A   1      41.512  23.689  26.479  1.00  0.00    -0.200 F 
ATOM     83  C   UNL A   1      42.820  25.499  25.713  1.00  0.00     0.200 A 
ATOM     84  F   UNL A   1      44.134  27.327  24.997  1.00  0.00    -0.200 F 
ATOM     85  F   UNL A   1      43.092  24.841  24.577  1.00  0.00    -0.200 F 
ENDBRANCH  61  75
BRANCH  62  86
ATOM     86  C   UNL A   1      39.717  32.087  36.245  1.00  0.00     0.064 A 
ATOM     87  C   UNL A   1      38.583  31.718  36.982  1.00  0.00     0.173 A 
ATOM     88  C   UNL A   1      40.444  33.202  36.688  1.00  0.00     0.173 A 
ATOM     89  F   UNL A   1      37.836  30.677  36.585  1.00  0.00    -0.203 F 
ATOM     90  C   UNL A   1      38.175  32.451  38.095  1.00  0.00     0.198 A 
ATOM     91  C   UNL A   1      40.055  33.914  37.821  1.00  0.00     0.198 A 
ATOM     92  F   UNL A   1      41.536  33.603  36.020  1.00  0.00    -0.203 F 
ATOM     93  F   UNL A   1      37.052  32.112  38.743  1.00  0.00    -0.200 F 
ATOM     94  C   UNL A   1      38.914  33.546  38.517  1.00  0.00     0.200 A 
ATOM     95  F   UNL A   1      40.780  34.963  38.232  1.00  0.00    -0.200 F 
ATOM     96  F   UNL A   1      38.522  34.251  39.586  1.00  0.00    -0.200 F 
ENDBRANCH  62  86
BRANCH  74  97
ATOM     97  C   UNL A   1      44.517  27.198  34.931  1.00  0.00     0.064 A 
ATOM     98  C   UNL A   1      44.269  26.002  35.618  1.00  0.00     0.173 A 
ATOM     99  C   UNL A   1      45.804  27.752  35.023  1.00  0.00     0.173 A 
ATOM    100  F   UNL A   1      43.053  25.436  35.574  1.00  0.00    -0.203 F 
ATOM    101  C   UNL A   1      45.261  25.398  36.387  1.00  0.00     0.198 A 
ATOM    102  C   UNL A   1      46.803  27.128  35.763  1.00  0.00     0.198 A 
ATOM    103  F   UNL A   1      46.098  28.890  34.377  1.00  0.00    -0.203 F 
ATOM    104  F   UNL A   1      44.986  24.282  37.076  1.00  0.00    -0.200 F 
ATOM    105  C   UNL A   1      46.530  25.956  36.452  1.00  0.00     0.200 A 
ATOM    106  F   UNL A   1      48.033  27.659  35.808  1.00  0.00    -0.200 F 
ATOM    107  F   UNL A   1      47.486  25.368  37.183  1.00  0.00    -0.200 F 
ENDBRANCH  74  97
ENDBRANCH  48  49
ENDBRANCH  41  43
ENDBRANCH  40  41
ENDBRANCH  39  40
ENDBRANCH  38  39
ENDBRANCH  37  38
ENDBRANCH  36  37
ENDBRANCH  35  36
ENDBRANCH  34  35
ENDBRANCH   1  34
TORSDOF 26
ENDMDL
