MODEL 1
REMARK VINA RESULT:      -9.6      0.000      0.000
REMARK SMILES CC[C@@H](C)[C@@H](C(=O)OCCOCCOCCOCCOC(=O)c1ccc(-c2c3nc(c(-c4c(F)c(F)c(F)c(F)c4F)c4ccc([nH]4)c(-c4c(F)c(F)c(F)c(F)c4F)c4nc(c(-c5c(F)c(F)c(F)c(F)c5F)c5ccc2[nH]5)C=C4)C=C3)cc1)N1C(=O)/C(=C/c2ccc(O)cc2)SC1=S
REMARK SMILES IDX 13 1 12 2 11 3 10 4 9 5 8 6 6 7 7 8 5 9 3 10 4 11 2 12 1 13
REMARK SMILES IDX 86 14 87 15 99 16 88 17 89 18 98 19 100 20 90 21 91 22 92 23
REMARK SMILES IDX 97 24 93 25 96 26 94 27 95 28 14 30 15 31 16 32 17 33 18 34
REMARK SMILES IDX 19 35 20 36 21 37 22 38 23 39 24 40 85 41 25 42 84 43 26 44
REMARK SMILES IDX 27 45 28 46 78 47 29 48 83 49 77 50 79 51 30 52 82 53 76 54
REMARK SMILES IDX 75 55 31 57 63 58 43 59 62 60 44 61 47 62 61 63 80 64 45 65
REMARK SMILES IDX 46 66 60 68 81 69 48 70 32 71 33 72 41 73 34 74 35 75 39 76
REMARK SMILES IDX 42 77 36 78 37 79 40 80 38 81 64 82 65 83 73 84 66 85 67 86
REMARK SMILES IDX 71 87 74 88 68 89 69 90 72 91 70 92 49 93 50 94 58 95 51 96
REMARK SMILES IDX 52 97 56 98 59 99 53 100 54 101 57 102 55 103
REMARK H PARENT 95 29 79 56 47 67
REMARK Flexibility Score: inf
ROOT
ATOM      1  C   UNL A   1      37.725  22.471  25.829  1.00  0.00     0.188 C 
ENDROOT
BRANCH   1   2
ATOM      2  C   UNL A   1      37.072  21.609  24.729  1.00  0.00     0.188 C 
BRANCH   2   3
ATOM      3  O   UNL A   1      36.120  20.685  25.220  1.00  0.00    -0.376 OA
BRANCH   3   4
ATOM      4  C   UNL A   1      34.739  21.012  25.163  1.00  0.00     0.202 C 
BRANCH   4   5
ATOM      5  C   UNL A   1      34.069  21.905  26.226  1.00  0.00     0.261 C 
BRANCH   5   6
ATOM      6  O   UNL A   1      33.923  23.268  25.809  1.00  0.00    -0.462 OA
BRANCH   6   7
ATOM      7  C   UNL A   1      32.715  23.862  25.874  1.00  0.00     0.329 C 
ATOM      8  O   UNL A   1      32.015  23.888  26.880  1.00  0.00    -0.250 OA
BRANCH   7   9
ATOM      9  C   UNL A   1      32.290  24.483  24.510  1.00  0.00     0.204 C 
BRANCH   9  10
ATOM     10  C   UNL A   1      33.371  24.265  23.388  1.00  0.00     0.020 C 
ATOM     11  C   UNL A   1      33.399  25.516  22.486  1.00  0.00     0.010 C 
BRANCH  10  12
ATOM     12  C   UNL A   1      33.321  23.007  22.486  1.00  0.00     0.002 C 
ATOM     13  C   UNL A   1      32.052  22.183  22.760  1.00  0.00     0.004 C 
ENDBRANCH  10  12
ENDBRANCH   9  10
BRANCH   9  14
ATOM     14  N   UNL A   1      31.664  25.891  24.581  1.00  0.00    -0.278 N 
ATOM     15  C   UNL A   1      30.492  26.091  23.842  1.00  0.00     0.267 C 
ATOM     16  C   UNL A   1      32.225  27.080  25.053  1.00  0.00     0.149 C 
ATOM     17  O   UNL A   1      29.803  25.218  23.334  1.00  0.00    -0.268 OA
ATOM     18  C   UNL A   1      30.142  27.535  23.718  1.00  0.00     0.081 C 
ATOM     19  S   UNL A   1      31.381  28.482  24.401  1.00  0.00    -0.054 SA
ATOM     20  S   UNL A   1      33.474  27.430  26.108  1.00  0.00    -0.052 S 
ATOM     21  C   UNL A   1      29.031  28.000  23.128  1.00  0.00     0.029 C 
BRANCH  21  22
ATOM     22  C   UNL A   1      28.781  29.423  22.833  1.00  0.00    -0.024 A 
ATOM     23  C   UNL A   1      29.474  30.106  21.828  1.00  0.00     0.012 A 
ATOM     24  C   UNL A   1      27.817  30.112  23.586  1.00  0.00     0.012 A 
ATOM     25  C   UNL A   1      29.197  31.457  21.579  1.00  0.00     0.047 A 
ATOM     26  C   UNL A   1      27.537  31.457  23.335  1.00  0.00     0.047 A 
ATOM     27  C   UNL A   1      28.232  32.119  22.331  1.00  0.00     0.115 A 
BRANCH  27  28
ATOM     28  O   UNL A   1      27.990  33.431  22.053  1.00  0.00    -0.508 OA
ATOM     29  H   UNL A   1      28.570  33.905  21.487  1.00  0.00     0.293 HD
ENDBRANCH  27  28
ENDBRANCH  21  22
ENDBRANCH   9  14
ENDBRANCH   7   9
ENDBRANCH   6   7
ENDBRANCH   5   6
ENDBRANCH   4   5
ENDBRANCH   3   4
ENDBRANCH   2   3
ENDBRANCH   1   2
BRANCH   1  30
ATOM     30  O   UNL A   1      39.035  22.149  26.267  1.00  0.00    -0.377 OA
BRANCH  30  31
ATOM     31  C   UNL A   1      39.697  23.004  27.193  1.00  0.00     0.188 C 
BRANCH  31  32
ATOM     32  C   UNL A   1      40.730  24.049  26.718  1.00  0.00     0.188 C 
BRANCH  32  33
ATOM     33  O   UNL A   1      42.081  23.624  26.750  1.00  0.00    -0.376 OA
BRANCH  33  34
ATOM     34  C   UNL A   1      42.760  23.471  25.514  1.00  0.00     0.202 C 
BRANCH  34  35
ATOM     35  C   UNL A   1      44.268  23.767  25.485  1.00  0.00     0.261 C 
BRANCH  35  36
ATOM     36  O   UNL A   1      44.681  24.885  24.680  1.00  0.00    -0.460 OA
BRANCH  36  37
ATOM     37  C   UNL A   1      45.862  25.465  24.968  1.00  0.00     0.338 C 
ATOM     38  O   UNL A   1      46.959  25.188  24.506  1.00  0.00    -0.246 OA
BRANCH  37  39
ATOM     39  C   UNL A   1      45.593  26.639  25.819  1.00  0.00     0.060 A 
ATOM     40  C   UNL A   1      46.617  27.140  26.635  1.00  0.00     0.016 A 
ATOM     41  C   UNL A   1      44.332  27.239  25.814  1.00  0.00     0.016 A 
ATOM     42  C   UNL A   1      46.371  28.221  27.479  1.00  0.00     0.010 A 
ATOM     43  C   UNL A   1      44.080  28.306  26.679  1.00  0.00     0.010 A 
ATOM     44  C   UNL A   1      45.087  28.777  27.541  1.00  0.00    -0.014 A 
BRANCH  44  45
ATOM     45  C   UNL A   1      44.742  29.698  28.651  1.00  0.00     0.031 A 
ATOM     46  C   UNL A   1      44.453  29.104  30.003  1.00  0.00     0.074 A 
ATOM     47  C   UNL A   1      44.713  31.030  28.478  1.00  0.00     0.049 A 
ATOM     48  N   UNL A   1      44.081  29.691  31.111  1.00  0.00    -0.248 NA
ATOM     49  C   UNL A   1      44.601  27.644  30.116  1.00  0.00     0.031 C 
ATOM     50  C   UNL A   1      45.023  31.728  27.234  1.00  0.00     0.029 A 
ATOM     51  N   UNL A   1      44.398  32.034  29.361  1.00  0.00    -0.354 N 
ATOM     52  C   UNL A   1      43.945  28.674  32.048  1.00  0.00     0.074 A 
ATOM     53  C   UNL A   1      44.238  27.431  31.372  1.00  0.00     0.031 C 
ATOM     54  C   UNL A   1      44.872  33.050  27.428  1.00  0.00     0.029 A 
ATOM     55  C   UNL A   1      44.418  33.287  28.798  1.00  0.00     0.049 A 
ATOM     56  H   UNL A   1      44.178  31.872  30.306  1.00  0.00     0.167 HD
ATOM     57  C   UNL A   1      43.615  28.771  33.357  1.00  0.00     0.037 A 
ATOM     58  C   UNL A   1      44.082  34.481  29.326  1.00  0.00     0.037 A 
ATOM     59  C   UNL A   1      43.317  30.011  34.026  1.00  0.00     0.049 A 
ATOM     60  C   UNL A   1      43.629  34.552  30.764  1.00  0.00     0.074 A 
ATOM     61  C   UNL A   1      42.982  30.217  35.352  1.00  0.00     0.029 A 
ATOM     62  N   UNL A   1      43.310  31.255  33.412  1.00  0.00    -0.354 N 
ATOM     63  N   UNL A   1      43.523  33.591  31.650  1.00  0.00    -0.248 NA
ATOM     64  C   UNL A   1      43.252  35.878  31.275  1.00  0.00     0.031 C 
ATOM     65  C   UNL A   1      42.707  31.576  35.526  1.00  0.00     0.029 A 
ATOM     66  C   UNL A   1      42.944  32.230  34.327  1.00  0.00     0.049 A 
ATOM     67  H   UNL A   1      43.531  31.421  32.468  1.00  0.00     0.167 HD
ATOM     68  C   UNL A   1      43.104  34.200  32.828  1.00  0.00     0.074 A 
ATOM     69  C   UNL A   1      42.987  35.614  32.546  1.00  0.00     0.031 C 
ATOM     70  C   UNL A   1      42.840  33.638  34.035  1.00  0.00     0.037 A 
BRANCH  57  71
ATOM     71  C   UNL A   1      43.520  27.494  34.144  1.00  0.00     0.064 A 
ATOM     72  C   UNL A   1      42.290  26.861  34.383  1.00  0.00     0.173 A 
ATOM     73  C   UNL A   1      44.679  26.884  34.648  1.00  0.00     0.173 A 
ATOM     74  F   UNL A   1      41.150  27.409  33.938  1.00  0.00    -0.203 F 
ATOM     75  C   UNL A   1      42.223  25.683  35.123  1.00  0.00     0.198 A 
ATOM     76  C   UNL A   1      44.611  25.688  35.355  1.00  0.00     0.198 A 
ATOM     77  F   UNL A   1      45.880  27.446  34.445  1.00  0.00    -0.203 F 
ATOM     78  F   UNL A   1      41.032  25.125  35.386  1.00  0.00    -0.200 F 
ATOM     79  C   UNL A   1      43.384  25.093  35.601  1.00  0.00     0.200 A 
ATOM     80  F   UNL A   1      45.736  25.112  35.803  1.00  0.00    -0.200 F 
ATOM     81  F   UNL A   1      43.318  23.955  36.306  1.00  0.00    -0.200 F 
ENDBRANCH  57  71
BRANCH  58  82
ATOM     82  C   UNL A   1      44.145  35.711  28.491  1.00  0.00     0.064 A 
ATOM     83  C   UNL A   1      45.339  36.435  28.355  1.00  0.00     0.173 A 
ATOM     84  C   UNL A   1      43.007  36.206  27.836  1.00  0.00     0.173 A 
ATOM     85  F   UNL A   1      46.448  36.020  28.983  1.00  0.00    -0.203 F 
ATOM     86  C   UNL A   1      45.386  37.616  27.616  1.00  0.00     0.198 A 
ATOM     87  C   UNL A   1      43.063  37.368  27.070  1.00  0.00     0.198 A 
ATOM     88  F   UNL A   1      41.838  35.555  27.936  1.00  0.00    -0.203 F 
ATOM     89  F   UNL A   1      46.525  38.316  27.549  1.00  0.00    -0.200 F 
ATOM     90  C   UNL A   1      44.249  38.078  26.969  1.00  0.00     0.200 A 
ATOM     91  F   UNL A   1      41.966  37.804  26.437  1.00  0.00    -0.200 F 
ATOM     92  F   UNL A   1      44.296  39.212  26.257  1.00  0.00    -0.200 F 
ENDBRANCH  58  82
BRANCH  70  93
ATOM     93  C   UNL A   1      42.450  34.556  35.159  1.00  0.00     0.064 A 
ATOM     94  C   UNL A   1      43.404  35.188  35.969  1.00  0.00     0.173 A 
ATOM     95  C   UNL A   1      41.095  34.841  35.402  1.00  0.00     0.173 A 
ATOM     96  F   UNL A   1      44.710  34.943  35.789  1.00  0.00    -0.203 F 
ATOM     97  C   UNL A   1      43.019  36.046  36.998  1.00  0.00     0.198 A 
ATOM     98  C   UNL A   1      40.716  35.728  36.405  1.00  0.00     0.198 A 
ATOM     99  F   UNL A   1      40.139  34.272  34.652  1.00  0.00    -0.203 F 
ATOM    100  F   UNL A   1      43.947  36.595  37.792  1.00  0.00    -0.200 F 
ATOM    101  C   UNL A   1      41.676  36.322  37.209  1.00  0.00     0.200 A 
ATOM    102  F   UNL A   1      39.418  36.007  36.594  1.00  0.00    -0.200 F 
ATOM    103  F   UNL A   1      41.307  37.155  38.192  1.00  0.00    -0.200 F 
ENDBRANCH  70  93
ENDBRANCH  44  45
ENDBRANCH  37  39
ENDBRANCH  36  37
ENDBRANCH  35  36
ENDBRANCH  34  35
ENDBRANCH  33  34
ENDBRANCH  32  33
ENDBRANCH  31  32
ENDBRANCH  30  31
ENDBRANCH   1  30
TORSDOF 25
ENDMDL
MODEL 2
REMARK VINA RESULT:      -9.3      5.695      9.330
REMARK SMILES CC[C@@H](C)[C@@H](C(=O)OCCOCCOCCOCCOC(=O)c1ccc(-c2c3nc(c(-c4c(F)c(F)c(F)c(F)c4F)c4ccc([nH]4)c(-c4c(F)c(F)c(F)c(F)c4F)c4nc(c(-c5c(F)c(F)c(F)c(F)c5F)c5ccc2[nH]5)C=C4)C=C3)cc1)N1C(=O)/C(=C/c2ccc(O)cc2)SC1=S
REMARK SMILES IDX 13 1 12 2 11 3 10 4 9 5 8 6 6 7 7 8 5 9 3 10 4 11 2 12 1 13
REMARK SMILES IDX 86 14 87 15 99 16 88 17 89 18 98 19 100 20 90 21 91 22 92 23
REMARK SMILES IDX 97 24 93 25 96 26 94 27 95 28 14 30 15 31 16 32 17 33 18 34
REMARK SMILES IDX 19 35 20 36 21 37 22 38 23 39 24 40 85 41 25 42 84 43 26 44
REMARK SMILES IDX 27 45 28 46 78 47 29 48 83 49 77 50 79 51 30 52 82 53 76 54
REMARK SMILES IDX 75 55 31 57 63 58 43 59 62 60 44 61 47 62 61 63 80 64 45 65
REMARK SMILES IDX 46 66 60 68 81 69 48 70 32 71 33 72 41 73 34 74 35 75 39 76
REMARK SMILES IDX 42 77 36 78 37 79 40 80 38 81 64 82 65 83 73 84 66 85 67 86
REMARK SMILES IDX 71 87 74 88 68 89 69 90 72 91 70 92 49 93 50 94 58 95 51 96
REMARK SMILES IDX 52 97 56 98 59 99 53 100 54 101 57 102 55 103
REMARK H PARENT 95 29 79 56 47 67
REMARK Flexibility Score: inf
ROOT
ATOM      1  C   UNL A   1      37.428  23.706  25.943  1.00  0.00     0.188 C 
ENDROOT
BRANCH   1   2
ATOM      2  C   UNL A   1      36.899  22.447  25.224  1.00  0.00     0.188 C 
BRANCH   2   3
ATOM      3  O   UNL A   1      36.213  21.551  26.077  1.00  0.00    -0.376 OA
BRANCH   3   4
ATOM      4  C   UNL A   1      34.797  21.471  26.009  1.00  0.00     0.202 C 
BRANCH   4   5
ATOM      5  C   UNL A   1      33.888  22.293  26.944  1.00  0.00     0.261 C 
BRANCH   5   6
ATOM      6  O   UNL A   1      33.712  23.649  26.514  1.00  0.00    -0.462 OA
BRANCH   6   7
ATOM      7  C   UNL A   1      32.468  24.145  26.362  1.00  0.00     0.329 C 
ATOM      8  O   UNL A   1      31.600  24.100  27.225  1.00  0.00    -0.250 OA
BRANCH   7   9
ATOM      9  C   UNL A   1      32.246  24.752  24.944  1.00  0.00     0.204 C 
BRANCH   9  10
ATOM     10  C   UNL A   1      33.497  24.566  24.009  1.00  0.00     0.020 C 
ATOM     11  C   UNL A   1      33.619  25.809  23.103  1.00  0.00     0.010 C 
BRANCH  10  12
ATOM     12  C   UNL A   1      33.637  23.298  23.130  1.00  0.00     0.002 C 
ATOM     13  C   UNL A   1      32.291  22.568  23.000  1.00  0.00     0.004 C 
ENDBRANCH  10  12
ENDBRANCH   9  10
BRANCH   9  14
ATOM     14  N   UNL A   1      31.575  26.140  24.908  1.00  0.00    -0.278 N 
ATOM     15  C   UNL A   1      30.465  26.275  24.065  1.00  0.00     0.267 C 
ATOM     16  C   UNL A   1      32.058  27.363  25.380  1.00  0.00     0.149 C 
ATOM     17  O   UNL A   1      29.849  25.362  23.534  1.00  0.00    -0.268 OA
ATOM     18  C   UNL A   1      30.085  27.701  23.856  1.00  0.00     0.081 C 
ATOM     19  S   UNL A   1      31.232  28.712  24.604  1.00  0.00    -0.054 SA
ATOM     20  S   UNL A   1      33.200  27.792  26.523  1.00  0.00    -0.052 S 
ATOM     21  C   UNL A   1      29.015  28.109  23.156  1.00  0.00     0.029 C 
BRANCH  21  22
ATOM     22  C   UNL A   1      28.750  29.510  22.787  1.00  0.00    -0.024 A 
ATOM     23  C   UNL A   1      29.367  30.119  21.689  1.00  0.00     0.012 A 
ATOM     24  C   UNL A   1      27.848  30.257  23.562  1.00  0.00     0.012 A 
ATOM     25  C   UNL A   1      29.078  31.453  21.372  1.00  0.00     0.047 A 
ATOM     26  C   UNL A   1      27.556  31.585  23.244  1.00  0.00     0.047 A 
ATOM     27  C   UNL A   1      28.175  32.173  22.149  1.00  0.00     0.115 A 
BRANCH  27  28
ATOM     28  O   UNL A   1      27.918  33.465  21.802  1.00  0.00    -0.508 OA
ATOM     29  H   UNL A   1      28.404  33.871  21.110  1.00  0.00     0.293 HD
ENDBRANCH  27  28
ENDBRANCH  21  22
ENDBRANCH   9  14
ENDBRANCH   7   9
ENDBRANCH   6   7
ENDBRANCH   5   6
ENDBRANCH   4   5
ENDBRANCH   3   4
ENDBRANCH   2   3
ENDBRANCH   1   2
BRANCH   1  30
ATOM     30  O   UNL A   1      38.819  23.818  26.198  1.00  0.00    -0.377 OA
BRANCH  30  31
ATOM     31  C   UNL A   1      39.278  24.702  27.215  1.00  0.00     0.188 C 
BRANCH  31  32
ATOM     32  C   UNL A   1      40.567  25.531  27.031  1.00  0.00     0.188 C 
BRANCH  32  33
ATOM     33  O   UNL A   1      41.572  24.922  26.239  1.00  0.00    -0.376 OA
BRANCH  33  34
ATOM     34  C   UNL A   1      42.286  25.740  25.326  1.00  0.00     0.202 C 
BRANCH  34  35
ATOM     35  C   UNL A   1      43.799  25.505  25.189  1.00  0.00     0.261 C 
BRANCH  35  36
ATOM     36  O   UNL A   1      44.642  26.649  25.406  1.00  0.00    -0.460 OA
BRANCH  36  37
ATOM     37  C   UNL A   1      45.965  26.503  25.200  1.00  0.00     0.338 C 
ATOM     38  O   UNL A   1      46.567  26.592  24.140  1.00  0.00    -0.246 OA
BRANCH  37  39
ATOM     39  C   UNL A   1      46.618  26.392  26.517  1.00  0.00     0.060 A 
ATOM     40  C   UNL A   1      46.920  25.121  27.025  1.00  0.00     0.016 A 
ATOM     41  C   UNL A   1      46.925  27.540  27.251  1.00  0.00     0.016 A 
ATOM     42  C   UNL A   1      47.497  24.992  28.287  1.00  0.00     0.010 A 
ATOM     43  C   UNL A   1      47.480  27.408  28.526  1.00  0.00     0.010 A 
ATOM     44  C   UNL A   1      47.733  26.133  29.064  1.00  0.00    -0.014 A 
BRANCH  44  45
ATOM     45  C   UNL A   1      48.039  25.985  30.507  1.00  0.00     0.031 A 
ATOM     46  C   UNL A   1      49.482  25.888  30.922  1.00  0.00     0.074 A 
ATOM     47  C   UNL A   1      47.066  25.966  31.435  1.00  0.00     0.049 A 
ATOM     48  N   UNL A   1      50.000  25.704  32.109  1.00  0.00    -0.248 NA
ATOM     49  C   UNL A   1      50.476  26.012  29.844  1.00  0.00     0.031 C 
ATOM     50  C   UNL A   1      45.638  26.103  31.165  1.00  0.00     0.029 A 
ATOM     51  N   UNL A   1      47.141  25.815  32.798  1.00  0.00    -0.354 N 
ATOM     52  C   UNL A   1      51.376  25.684  31.919  1.00  0.00     0.074 A 
ATOM     53  C   UNL A   1      51.613  25.838  30.502  1.00  0.00     0.031 C 
ATOM     54  C   UNL A   1      44.967  26.018  32.327  1.00  0.00     0.029 A 
ATOM     55  C   UNL A   1      45.916  25.783  33.415  1.00  0.00     0.049 A 
ATOM     56  H   UNL A   1      47.992  25.736  33.285  1.00  0.00     0.167 HD
ATOM     57  C   UNL A   1      52.354  25.558  32.847  1.00  0.00     0.037 A 
ATOM     58  C   UNL A   1      45.600  25.563  34.708  1.00  0.00     0.037 A 
ATOM     59  C   UNL A   1      52.114  25.399  34.257  1.00  0.00     0.049 A 
ATOM     60  C   UNL A   1      46.706  25.336  35.709  1.00  0.00     0.074 A 
ATOM     61  C   UNL A   1      53.036  25.274  35.281  1.00  0.00     0.029 A 
ATOM     62  N   UNL A   1      50.856  25.332  34.840  1.00  0.00    -0.354 N 
ATOM     63  N   UNL A   1      48.005  25.340  35.529  1.00  0.00    -0.248 NA
ATOM     64  C   UNL A   1      46.298  25.076  37.098  1.00  0.00     0.031 C 
ATOM     65  C   UNL A   1      52.338  25.065  36.473  1.00  0.00     0.029 A 
ATOM     66  C   UNL A   1      50.980  25.135  36.207  1.00  0.00     0.049 A 
ATOM     67  H   UNL A   1      50.004  25.412  34.356  1.00  0.00     0.167 HD
ATOM     68  C   UNL A   1      48.567  25.120  36.782  1.00  0.00     0.074 A 
ATOM     69  C   UNL A   1      47.468  25.000  37.715  1.00  0.00     0.031 C 
ATOM     70  C   UNL A   1      49.876  25.027  37.127  1.00  0.00     0.037 A 
BRANCH  57  71
ATOM     71  C   UNL A   1      53.775  25.549  32.359  1.00  0.00     0.064 A 
ATOM     72  C   UNL A   1      54.479  26.736  32.106  1.00  0.00     0.173 A 
ATOM     73  C   UNL A   1      54.449  24.334  32.162  1.00  0.00     0.173 A 
ATOM     74  F   UNL A   1      53.878  27.925  32.261  1.00  0.00    -0.203 F 
ATOM     75  C   UNL A   1      55.793  26.706  31.644  1.00  0.00     0.198 A 
ATOM     76  C   UNL A   1      55.774  24.308  31.737  1.00  0.00     0.198 A 
ATOM     77  F   UNL A   1      53.824  23.170  32.393  1.00  0.00    -0.203 F 
ATOM     78  F   UNL A   1      56.428  27.851  31.356  1.00  0.00    -0.200 F 
ATOM     79  C   UNL A   1      56.442  25.492  31.469  1.00  0.00     0.200 A 
ATOM     80  F   UNL A   1      56.403  23.135  31.582  1.00  0.00    -0.200 F 
ATOM     81  F   UNL A   1      57.709  25.465  31.033  1.00  0.00    -0.200 F 
ENDBRANCH  57  71
BRANCH  58  82
ATOM     82  C   UNL A   1      44.175  25.533  35.134  1.00  0.00     0.064 A 
ATOM     83  C   UNL A   1      43.560  26.663  35.691  1.00  0.00     0.173 A 
ATOM     84  C   UNL A   1      43.406  24.365  35.020  1.00  0.00     0.173 A 
ATOM     85  F   UNL A   1      44.259  27.797  35.847  1.00  0.00    -0.203 F 
ATOM     86  C   UNL A   1      42.241  26.619  36.139  1.00  0.00     0.198 A 
ATOM     87  C   UNL A   1      42.077  24.331  35.437  1.00  0.00     0.198 A 
ATOM     88  F   UNL A   1      43.945  23.253  34.498  1.00  0.00    -0.203 F 
ATOM     89  F   UNL A   1      41.697  27.697  36.719  1.00  0.00    -0.200 F 
ATOM     90  C   UNL A   1      41.498  25.455  36.005  1.00  0.00     0.200 A 
ATOM     91  F   UNL A   1      41.361  23.208  35.295  1.00  0.00    -0.200 F 
ATOM     92  F   UNL A   1      40.229  25.415  36.434  1.00  0.00    -0.200 F 
ENDBRANCH  58  82
BRANCH  70  93
ATOM     93  C   UNL A   1      50.199  24.836  38.583  1.00  0.00     0.064 A 
ATOM     94  C   UNL A   1      50.439  25.920  39.440  1.00  0.00     0.173 A 
ATOM     95  C   UNL A   1      50.225  23.545  39.139  1.00  0.00     0.173 A 
ATOM     96  F   UNL A   1      50.438  27.172  38.961  1.00  0.00    -0.203 F 
ATOM     97  C   UNL A   1      50.724  25.719  40.790  1.00  0.00     0.198 A 
ATOM     98  C   UNL A   1      50.472  23.351  40.495  1.00  0.00     0.198 A 
ATOM     99  F   UNL A   1      49.993  22.472  38.367  1.00  0.00    -0.203 F 
ATOM    100  F   UNL A   1      51.004  26.767  41.576  1.00  0.00    -0.200 F 
ATOM    101  C   UNL A   1      50.731  24.436  41.317  1.00  0.00     0.200 A 
ATOM    102  F   UNL A   1      50.460  22.111  41.005  1.00  0.00    -0.200 F 
ATOM    103  F   UNL A   1      50.995  24.245  42.617  1.00  0.00    -0.200 F 
ENDBRANCH  70  93
ENDBRANCH  44  45
ENDBRANCH  37  39
ENDBRANCH  36  37
ENDBRANCH  35  36
ENDBRANCH  34  35
ENDBRANCH  33  34
ENDBRANCH  32  33
ENDBRANCH  31  32
ENDBRANCH  30  31
ENDBRANCH   1  30
TORSDOF 25
ENDMDL
MODEL 3
REMARK VINA RESULT:      -9.0      4.557     10.606
REMARK SMILES CC[C@@H](C)[C@@H](C(=O)OCCOCCOCCOCCOC(=O)c1ccc(-c2c3nc(c(-c4c(F)c(F)c(F)c(F)c4F)c4ccc([nH]4)c(-c4c(F)c(F)c(F)c(F)c4F)c4nc(c(-c5c(F)c(F)c(F)c(F)c5F)c5ccc2[nH]5)C=C4)C=C3)cc1)N1C(=O)/C(=C/c2ccc(O)cc2)SC1=S
REMARK SMILES IDX 13 1 12 2 11 3 10 4 9 5 8 6 6 7 7 8 5 9 3 10 4 11 2 12 1 13
REMARK SMILES IDX 86 14 87 15 99 16 88 17 89 18 98 19 100 20 90 21 91 22 92 23
REMARK SMILES IDX 97 24 93 25 96 26 94 27 95 28 14 30 15 31 16 32 17 33 18 34
REMARK SMILES IDX 19 35 20 36 21 37 22 38 23 39 24 40 85 41 25 42 84 43 26 44
REMARK SMILES IDX 27 45 28 46 78 47 29 48 83 49 77 50 79 51 30 52 82 53 76 54
REMARK SMILES IDX 75 55 31 57 63 58 43 59 62 60 44 61 47 62 61 63 80 64 45 65
REMARK SMILES IDX 46 66 60 68 81 69 48 70 32 71 33 72 41 73 34 74 35 75 39 76
REMARK SMILES IDX 42 77 36 78 37 79 40 80 38 81 64 82 65 83 73 84 66 85 67 86
REMARK SMILES IDX 71 87 74 88 68 89 69 90 72 91 70 92 49 93 50 94 58 95 51 96
REMARK SMILES IDX 52 97 56 98 59 99 53 100 54 101 57 102 55 103
REMARK H PARENT 95 29 79 56 47 67
REMARK Flexibility Score: inf
ROOT
ATOM      1  C   UNL A   1      34.122  33.620  28.032  1.00  0.00     0.188 C 
ENDROOT
BRANCH   1   2
ATOM      2  C   UNL A   1      34.042  32.079  28.024  1.00  0.00     0.188 C 
BRANCH   2   3
ATOM      3  O   UNL A   1      32.909  31.571  27.347  1.00  0.00    -0.376 OA
BRANCH   3   4
ATOM      4  C   UNL A   1      33.064  30.481  26.451  1.00  0.00     0.202 C 
BRANCH   4   5
ATOM      5  C   UNL A   1      33.789  29.184  26.863  1.00  0.00     0.261 C 
BRANCH   5   6
ATOM      6  O   UNL A   1      33.559  28.096  25.958  1.00  0.00    -0.462 OA
BRANCH   6   7
ATOM      7  C   UNL A   1      32.446  27.347  26.083  1.00  0.00     0.329 C 
ATOM      8  O   UNL A   1      31.667  27.425  27.026  1.00  0.00    -0.250 OA
BRANCH   7   9
ATOM      9  C   UNL A   1      32.278  26.341  24.906  1.00  0.00     0.204 C 
BRANCH   9  10
ATOM     10  C   UNL A   1      31.267  26.855  23.816  1.00  0.00     0.020 C 
ATOM     11  C   UNL A   1      31.967  26.811  22.442  1.00  0.00     0.010 C 
BRANCH  10  12
ATOM     12  C   UNL A   1      30.578  28.233  23.976  1.00  0.00     0.002 C 
ATOM     13  C   UNL A   1      30.228  28.836  22.606  1.00  0.00     0.004 C 
ENDBRANCH  10  12
ENDBRANCH   9  10
BRANCH   9  14
ATOM     14  N   UNL A   1      32.144  24.857  25.307  1.00  0.00    -0.278 N 
ATOM     15  C   UNL A   1      33.174  24.004  24.896  1.00  0.00     0.267 C 
ATOM     16  C   UNL A   1      31.023  24.175  25.786  1.00  0.00     0.149 C 
ATOM     17  O   UNL A   1      34.260  24.348  24.453  1.00  0.00    -0.268 OA
ATOM     18  C   UNL A   1      32.811  22.566  25.048  1.00  0.00     0.081 C 
ATOM     19  S   UNL A   1      31.187  22.438  25.540  1.00  0.00    -0.054 SA
ATOM     20  S   UNL A   1      29.618  24.654  26.556  1.00  0.00    -0.052 S 
ATOM     21  C   UNL A   1      33.642  21.541  24.801  1.00  0.00     0.029 C 
BRANCH  21  22
ATOM     22  C   UNL A   1      33.227  20.128  24.764  1.00  0.00    -0.024 A 
ATOM     23  C   UNL A   1      32.841  19.498  23.575  1.00  0.00     0.012 A 
ATOM     24  C   UNL A   1      33.219  19.391  25.959  1.00  0.00     0.012 A 
ATOM     25  C   UNL A   1      32.462  18.149  23.587  1.00  0.00     0.047 A 
ATOM     26  C   UNL A   1      32.846  18.045  25.970  1.00  0.00     0.047 A 
ATOM     27  C   UNL A   1      32.469  17.435  24.782  1.00  0.00     0.115 A 
BRANCH  27  28
ATOM     28  O   UNL A   1      32.097  16.124  24.747  1.00  0.00    -0.508 OA
ATOM     29  H   UNL A   1      32.399  15.533  25.411  1.00  0.00     0.293 HD
ENDBRANCH  27  28
ENDBRANCH  21  22
ENDBRANCH   9  14
ENDBRANCH   7   9
ENDBRANCH   6   7
ENDBRANCH   5   6
ENDBRANCH   4   5
ENDBRANCH   3   4
ENDBRANCH   2   3
ENDBRANCH   1   2
BRANCH   1  30
ATOM     30  O   UNL A   1      33.923  34.312  29.255  1.00  0.00    -0.377 OA
BRANCH  30  31
ATOM     31  C   UNL A   1      34.760  34.024  30.369  1.00  0.00     0.188 C 
BRANCH  31  32
ATOM     32  C   UNL A   1      36.223  33.571  30.174  1.00  0.00     0.188 C 
BRANCH  32  33
ATOM     33  O   UNL A   1      36.563  32.341  30.789  1.00  0.00    -0.376 OA
BRANCH  33  34
ATOM     34  C   UNL A   1      36.114  32.113  32.115  1.00  0.00     0.202 C 
BRANCH  34  35
ATOM     35  C   UNL A   1      36.255  30.692  32.683  1.00  0.00     0.261 C 
BRANCH  35  36
ATOM     36  O   UNL A   1      36.838  29.713  31.807  1.00  0.00    -0.460 OA
BRANCH  36  37
ATOM     37  C   UNL A   1      37.984  29.121  32.199  1.00  0.00     0.338 C 
ATOM     38  O   UNL A   1      38.110  28.040  32.754  1.00  0.00    -0.246 OA
BRANCH  37  39
ATOM     39  C   UNL A   1      39.107  29.922  31.678  1.00  0.00     0.060 A 
ATOM     40  C   UNL A   1      39.368  29.917  30.301  1.00  0.00     0.016 A 
ATOM     41  C   UNL A   1      39.901  30.671  32.548  1.00  0.00     0.016 A 
ATOM     42  C   UNL A   1      40.451  30.632  29.793  1.00  0.00     0.010 A 
ATOM     43  C   UNL A   1      41.001  31.368  32.040  1.00  0.00     0.010 A 
ATOM     44  C   UNL A   1      41.301  31.320  30.667  1.00  0.00    -0.014 A 
BRANCH  44  45
ATOM     45  C   UNL A   1      42.615  31.805  30.178  1.00  0.00     0.031 A 
ATOM     46  C   UNL A   1      42.718  33.233  29.716  1.00  0.00     0.074 A 
ATOM     47  C   UNL A   1      43.700  31.013  30.171  1.00  0.00     0.049 A 
ATOM     48  N   UNL A   1      43.737  33.874  29.202  1.00  0.00    -0.248 NA
ATOM     49  C   UNL A   1      41.500  34.048  29.849  1.00  0.00     0.031 C 
ATOM     50  C   UNL A   1      43.741  29.631  30.640  1.00  0.00     0.029 A 
ATOM     51  N   UNL A   1      44.980  31.263  29.742  1.00  0.00    -0.354 N 
ATOM     52  C   UNL A   1      43.280  35.161  28.946  1.00  0.00     0.074 A 
ATOM     53  C   UNL A   1      41.886  35.202  29.326  1.00  0.00     0.031 C 
ATOM     54  C   UNL A   1      44.983  29.148  30.463  1.00  0.00     0.029 A 
ATOM     55  C   UNL A   1      45.813  30.175  29.834  1.00  0.00     0.049 A 
ATOM     56  H   UNL A   1      45.273  32.138  29.400  1.00  0.00     0.167 HD
ATOM     57  C   UNL A   1      43.966  36.216  28.447  1.00  0.00     0.037 A 
ATOM     58  C   UNL A   1      47.091  30.024  29.430  1.00  0.00     0.037 A 
ATOM     59  C   UNL A   1      45.353  36.169  28.064  1.00  0.00     0.049 A 
ATOM     60  C   UNL A   1      47.807  31.189  28.794  1.00  0.00     0.074 A 
ATOM     61  C   UNL A   1      46.144  37.186  27.558  1.00  0.00     0.029 A 
ATOM     62  N   UNL A   1      46.153  35.037  28.134  1.00  0.00    -0.354 N 
ATOM     63  N   UNL A   1      47.379  32.409  28.574  1.00  0.00    -0.248 NA
ATOM     64  C   UNL A   1      49.190  30.954  28.351  1.00  0.00     0.031 C 
ATOM     65  C   UNL A   1      47.401  36.654  27.260  1.00  0.00     0.029 A 
ATOM     66  C   UNL A   1      47.420  35.324  27.651  1.00  0.00     0.049 A 
ATOM     67  H   UNL A   1      45.864  34.162  28.477  1.00  0.00     0.167 HD
ATOM     68  C   UNL A   1      48.446  33.094  28.003  1.00  0.00     0.074 A 
ATOM     69  C   UNL A   1      49.546  32.157  27.923  1.00  0.00     0.031 C 
ATOM     70  C   UNL A   1      48.510  34.384  27.585  1.00  0.00     0.037 A 
BRANCH  57  71
ATOM     71  C   UNL A   1      43.214  37.502  28.251  1.00  0.00     0.064 A 
ATOM     72  C   UNL A   1      42.428  37.735  27.113  1.00  0.00     0.173 A 
ATOM     73  C   UNL A   1      43.263  38.507  29.229  1.00  0.00     0.173 A 
ATOM     74  F   UNL A   1      42.358  36.814  26.140  1.00  0.00    -0.203 F 
ATOM     75  C   UNL A   1      41.746  38.938  26.946  1.00  0.00     0.198 A 
ATOM     76  C   UNL A   1      42.551  39.693  29.076  1.00  0.00     0.198 A 
ATOM     77  F   UNL A   1      43.997  38.335  30.339  1.00  0.00    -0.203 F 
ATOM     78  F   UNL A   1      41.046  39.160  25.824  1.00  0.00    -0.200 F 
ATOM     79  C   UNL A   1      41.801  39.912  27.932  1.00  0.00     0.200 A 
ATOM     80  F   UNL A   1      42.594  40.627  30.037  1.00  0.00    -0.200 F 
ATOM     81  F   UNL A   1      41.138  41.065  27.774  1.00  0.00    -0.200 F 
ENDBRANCH  57  71
BRANCH  58  82
ATOM     82  C   UNL A   1      47.777  28.714  29.601  1.00  0.00     0.064 A 
ATOM     83  C   UNL A   1      47.747  27.742  28.591  1.00  0.00     0.173 A 
ATOM     84  C   UNL A   1      48.454  28.396  30.788  1.00  0.00     0.173 A 
ATOM     85  F   UNL A   1      47.090  27.986  27.447  1.00  0.00    -0.203 F 
ATOM     86  C   UNL A   1      48.344  26.496  28.771  1.00  0.00     0.198 A 
ATOM     87  C   UNL A   1      49.080  27.163  30.955  1.00  0.00     0.198 A 
ATOM     88  F   UNL A   1      48.511  29.288  31.789  1.00  0.00    -0.203 F 
ATOM     89  F   UNL A   1      48.251  25.566  27.812  1.00  0.00    -0.200 F 
ATOM     90  C   UNL A   1      49.017  26.209  29.950  1.00  0.00     0.200 A 
ATOM     91  F   UNL A   1      49.738  26.896  32.090  1.00  0.00    -0.200 F 
ATOM     92  F   UNL A   1      49.593  25.013  30.121  1.00  0.00    -0.200 F 
ENDBRANCH  58  82
BRANCH  70  93
ATOM     93  C   UNL A   1      49.825  34.877  27.050  1.00  0.00     0.064 A 
ATOM     94  C   UNL A   1      50.049  35.057  25.677  1.00  0.00     0.173 A 
ATOM     95  C   UNL A   1      50.866  35.216  27.931  1.00  0.00     0.173 A 
ATOM     96  F   UNL A   1      49.095  34.737  24.790  1.00  0.00    -0.203 F 
ATOM     97  C   UNL A   1      51.273  35.527  25.204  1.00  0.00     0.198 A 
ATOM     98  C   UNL A   1      52.073  35.722  27.458  1.00  0.00     0.198 A 
ATOM     99  F   UNL A   1      50.703  35.074  29.255  1.00  0.00    -0.203 F 
ATOM    100  F   UNL A   1      51.481  35.638  23.885  1.00  0.00    -0.200 F 
ATOM    101  C   UNL A   1      52.280  35.868  26.095  1.00  0.00     0.200 A 
ATOM    102  F   UNL A   1      53.037  36.068  28.323  1.00  0.00    -0.200 F 
ATOM    103  F   UNL A   1      53.452  36.330  25.639  1.00  0.00    -0.200 F 
ENDBRANCH  70  93
ENDBRANCH  44  45
ENDBRANCH  37  39
ENDBRANCH  36  37
ENDBRANCH  35  36
ENDBRANCH  34  35
ENDBRANCH  33  34
ENDBRANCH  32  33
ENDBRANCH  31  32
ENDBRANCH  30  31
ENDBRANCH   1  30
TORSDOF 25
ENDMDL
