MODEL 1
REMARK VINA RESULT:      -6.7      0.000      0.000
REMARK SMILES CC[C@@H](C)CN(CC)C(=O)Nc1c(Br)cccc1C(=O)OCCOCCOCCOCCOC(=O)c1ccc(-c2c3nc(c(-c4c(F)c(F)c(F)c(F)c4F)c4ccc([nH]4)c(-c4c(F)c(F)c(F)c(F)c4F)c4nc(c(-c5c(F)c(F)c(F)c(F)c5F)c5ccc2[nH]5)C=C4)C=C3)cc1
REMARK SMILES IDX 25 1 24 2 23 3 22 4 21 5 19 6 20 7 18 8 12 9 13 10 14 11
REMARK SMILES IDX 15 12 17 13 16 14 11 15 9 16 10 17 6 19 5 20 3 21 4 22 2 23
REMARK SMILES IDX 1 24 7 25 8 26 26 27 27 28 28 29 29 30 30 31 31 32 32 33
REMARK SMILES IDX 33 34 34 35 35 36 36 37 37 38 98 39 38 40 97 41 39 42 40 43
REMARK SMILES IDX 41 44 91 45 42 46 96 47 90 48 92 49 43 50 95 51 89 52 88 53
REMARK SMILES IDX 44 55 76 56 56 57 75 58 57 59 60 60 74 61 93 62 58 63 59 64
REMARK SMILES IDX 73 66 94 67 61 68 45 69 46 70 54 71 47 72 48 73 52 74 55 75
REMARK SMILES IDX 49 76 50 77 53 78 51 79 77 80 78 81 86 82 79 83 80 84 84 85
REMARK SMILES IDX 87 86 81 87 82 88 85 89 83 90 62 91 63 92 71 93 64 94 65 95
REMARK SMILES IDX 69 96 72 97 66 98 67 99 70 100 68 101
REMARK H PARENT 11 18 92 54 60 65
REMARK Flexibility Score: inf
ROOT
ATOM      1  C   UNL A   1      48.210  33.096  26.494  1.00  0.00     0.188 C 
ENDROOT
BRANCH   1   2
ATOM      2  O   UNL A   1      46.914  32.842  25.981  1.00  0.00    -0.376 OA
BRANCH   2   3
ATOM      3  C   UNL A   1      46.121  31.847  26.600  1.00  0.00     0.202 C 
BRANCH   3   4
ATOM      4  C   UNL A   1      44.598  32.059  26.614  1.00  0.00     0.261 C 
BRANCH   4   5
ATOM      5  O   UNL A   1      43.798  30.866  26.673  1.00  0.00    -0.460 OA
BRANCH   5   6
ATOM      6  C   UNL A   1      43.743  30.262  27.878  1.00  0.00     0.340 C 
ATOM      7  O   UNL A   1      43.066  30.631  28.825  1.00  0.00    -0.246 OA
BRANCH   6   8
ATOM      8  C   UNL A   1      44.510  28.989  27.895  1.00  0.00     0.084 A 
ATOM      9  C   UNL A   1      44.397  27.971  26.935  1.00  0.00     0.071 A 
ATOM     10  C   UNL A   1      45.513  27.146  26.765  1.00  0.00     0.042 A 
ATOM     11  Br  UNL A   1      45.942  26.419  25.053  1.00  0.00    -0.049 Br
ATOM     12  C   UNL A   1      46.473  27.031  27.776  1.00  0.00     0.018 A 
ATOM     13  C   UNL A   1      45.464  28.872  28.922  1.00  0.00     0.018 A 
ATOM     14  C   UNL A   1      46.389  27.835  28.907  1.00  0.00     0.002 A 
BRANCH   9  15
ATOM     15  N   UNL A   1      43.198  27.791  26.217  1.00  0.00    -0.306 N 
ATOM     16  C   UNL A   1      42.332  26.743  26.114  1.00  0.00     0.321 C 
ATOM     17  O   UNL A   1      41.822  26.573  25.001  1.00  0.00    -0.248 OA
ATOM     18  H   UNL A   1      42.934  28.576  25.686  1.00  0.00     0.171 HD
BRANCH  16  19
ATOM     19  N   UNL A   1      41.901  26.029  27.229  1.00  0.00    -0.325 N 
BRANCH  19  20
ATOM     20  C   UNL A   1      41.483  26.824  28.403  1.00  0.00     0.124 C 
BRANCH  20  21
ATOM     21  C   UNL A   1      40.043  27.402  28.296  1.00  0.00     0.005 C 
ATOM     22  C   UNL A   1      40.110  28.890  27.927  1.00  0.00     0.009 C 
BRANCH  21  23
ATOM     23  C   UNL A   1      39.262  27.175  29.604  1.00  0.00     0.002 C 
ATOM     24  C   UNL A   1      38.181  28.200  29.876  1.00  0.00     0.004 C 
ENDBRANCH  21  23
ENDBRANCH  20  21
ENDBRANCH  19  20
BRANCH  19  25
ATOM     25  C   UNL A   1      41.975  24.578  27.468  1.00  0.00     0.118 C 
ATOM     26  C   UNL A   1      40.665  23.992  28.000  1.00  0.00     0.027 C 
ENDBRANCH  19  25
ENDBRANCH  16  19
ENDBRANCH   9  15
ENDBRANCH   6   8
ENDBRANCH   5   6
ENDBRANCH   4   5
ENDBRANCH   3   4
ENDBRANCH   2   3
ENDBRANCH   1   2
BRANCH   1  27
ATOM     27  C   UNL A   1      48.748  34.506  26.170  1.00  0.00     0.188 C 
BRANCH  27  28
ATOM     28  O   UNL A   1      47.841  35.498  25.710  1.00  0.00    -0.377 OA
BRANCH  28  29
ATOM     29  C   UNL A   1      47.721  36.733  26.413  1.00  0.00     0.188 C 
BRANCH  29  30
ATOM     30  C   UNL A   1      47.014  37.961  25.791  1.00  0.00     0.188 C 
BRANCH  30  31
ATOM     31  O   UNL A   1      46.250  38.731  26.704  1.00  0.00    -0.376 OA
BRANCH  31  32
ATOM     32  C   UNL A   1      46.363  40.139  26.626  1.00  0.00     0.202 C 
BRANCH  32  33
ATOM     33  C   UNL A   1      45.082  40.897  26.253  1.00  0.00     0.261 C 
BRANCH  33  34
ATOM     34  O   UNL A   1      44.002  40.092  25.751  1.00  0.00    -0.460 OA
BRANCH  34  35
ATOM     35  C   UNL A   1      42.853  40.075  26.462  1.00  0.00     0.338 C 
ATOM     36  O   UNL A   1      41.940  40.881  26.418  1.00  0.00    -0.246 OA
BRANCH  35  37
ATOM     37  C   UNL A   1      42.811  38.795  27.194  1.00  0.00     0.060 A 
ATOM     38  C   UNL A   1      43.029  38.773  28.580  1.00  0.00     0.016 A 
ATOM     39  C   UNL A   1      42.530  37.617  26.505  1.00  0.00     0.016 A 
ATOM     40  C   UNL A   1      42.969  37.566  29.280  1.00  0.00     0.010 A 
ATOM     41  C   UNL A   1      42.495  36.408  27.203  1.00  0.00     0.010 A 
ATOM     42  C   UNL A   1      42.729  36.371  28.590  1.00  0.00    -0.014 A 
BRANCH  42  43
ATOM     43  C   UNL A   1      42.934  35.059  29.256  1.00  0.00     0.031 A 
ATOM     44  C   UNL A   1      41.715  34.341  29.768  1.00  0.00     0.074 A 
ATOM     45  C   UNL A   1      44.155  34.519  29.420  1.00  0.00     0.049 A 
ATOM     46  N   UNL A   1      41.625  33.243  30.471  1.00  0.00    -0.248 NA
ATOM     47  C   UNL A   1      40.416  34.959  29.450  1.00  0.00     0.031 C 
ATOM     48  C   UNL A   1      45.411  35.093  28.944  1.00  0.00     0.029 A 
ATOM     49  N   UNL A   1      44.538  33.363  30.060  1.00  0.00    -0.354 N 
ATOM     50  C   UNL A   1      40.268  33.051  30.693  1.00  0.00     0.074 A 
ATOM     51  C   UNL A   1      39.572  34.162  30.086  1.00  0.00     0.031 C 
ATOM     52  C   UNL A   1      46.430  34.307  29.337  1.00  0.00     0.029 A 
ATOM     53  C   UNL A   1      45.900  33.185  30.110  1.00  0.00     0.049 A 
ATOM     54  H   UNL A   1      43.896  32.724  30.447  1.00  0.00     0.167 HD
ATOM     55  C   UNL A   1      39.656  32.031  31.335  1.00  0.00     0.037 A 
ATOM     56  C   UNL A   1      46.631  32.239  30.734  1.00  0.00     0.037 A 
ATOM     57  C   UNL A   1      40.347  30.915  31.921  1.00  0.00     0.049 A 
ATOM     58  C   UNL A   1      45.924  31.139  31.492  1.00  0.00     0.074 A 
ATOM     59  C   UNL A   1      39.813  29.808  32.555  1.00  0.00     0.029 A 
ATOM     60  N   UNL A   1      41.726  30.769  31.950  1.00  0.00    -0.354 N 
ATOM     61  N   UNL A   1      44.638  30.938  31.658  1.00  0.00    -0.248 NA
ATOM     62  C   UNL A   1      46.772  30.128  32.142  1.00  0.00     0.031 C 
ATOM     63  C   UNL A   1      40.870  29.023  33.024  1.00  0.00     0.029 A 
ATOM     64  C   UNL A   1      42.061  29.605  32.621  1.00  0.00     0.049 A 
ATOM     65  H   UNL A   1      42.370  31.400  31.554  1.00  0.00     0.167 HD
ATOM     66  C   UNL A   1      44.524  29.766  32.394  1.00  0.00     0.074 A 
ATOM     67  C   UNL A   1      45.869  29.290  32.633  1.00  0.00     0.031 C 
ATOM     68  C   UNL A   1      43.406  29.137  32.834  1.00  0.00     0.037 A 
BRANCH  55  69
ATOM     69  C   UNL A   1      38.162  32.083  31.459  1.00  0.00     0.064 A 
ATOM     70  C   UNL A   1      37.530  32.495  32.641  1.00  0.00     0.173 A 
ATOM     71  C   UNL A   1      37.353  31.757  30.359  1.00  0.00     0.173 A 
ATOM     72  F   UNL A   1      38.257  32.797  33.727  1.00  0.00    -0.203 F 
ATOM     73  C   UNL A   1      36.141  32.560  32.724  1.00  0.00     0.198 A 
ATOM     74  C   UNL A   1      35.967  31.856  30.435  1.00  0.00     0.198 A 
ATOM     75  F   UNL A   1      37.908  31.356  29.205  1.00  0.00    -0.203 F 
ATOM     76  F   UNL A   1      35.557  32.913  33.877  1.00  0.00    -0.200 F 
ATOM     77  C   UNL A   1      35.362  32.251  31.618  1.00  0.00     0.200 A 
ATOM     78  F   UNL A   1      35.217  31.569  29.362  1.00  0.00    -0.200 F 
ATOM     79  F   UNL A   1      34.027  32.330  31.695  1.00  0.00    -0.200 F 
ENDBRANCH  55  69
BRANCH  56  80
ATOM     80  C   UNL A   1      48.119  32.285  30.695  1.00  0.00     0.064 A 
ATOM     81  C   UNL A   1      48.843  33.113  31.564  1.00  0.00     0.173 A 
ATOM     82  C   UNL A   1      48.844  31.545  29.749  1.00  0.00     0.173 A 
ATOM     83  F   UNL A   1      48.197  33.866  32.467  1.00  0.00    -0.203 F 
ATOM     84  C   UNL A   1      50.230  33.225  31.466  1.00  0.00     0.198 A 
ATOM     85  C   UNL A   1      50.233  31.632  29.674  1.00  0.00     0.198 A 
ATOM     86  F   UNL A   1      48.200  30.743  28.887  1.00  0.00    -0.203 F 
ATOM     87  F   UNL A   1      50.889  34.076  32.263  1.00  0.00    -0.200 F 
ATOM     88  C   UNL A   1      50.924  32.480  30.525  1.00  0.00     0.200 A 
ATOM     89  F   UNL A   1      50.900  30.906  28.766  1.00  0.00    -0.200 F 
ATOM     90  F   UNL A   1      52.256  32.596  30.425  1.00  0.00    -0.200 F 
ENDBRANCH  56  80
BRANCH  68  91
ATOM     91  C   UNL A   1      43.579  27.839  33.572  1.00  0.00     0.064 A 
ATOM     92  C   UNL A   1      43.499  27.763  34.970  1.00  0.00     0.173 A 
ATOM     93  C   UNL A   1      43.773  26.643  32.861  1.00  0.00     0.173 A 
ATOM     94  F   UNL A   1      43.325  28.877  35.697  1.00  0.00    -0.203 F 
ATOM     95  C   UNL A   1      43.636  26.545  35.630  1.00  0.00     0.198 A 
ATOM     96  C   UNL A   1      43.873  25.422  33.521  1.00  0.00     0.198 A 
ATOM     97  F   UNL A   1      43.844  26.656  31.522  1.00  0.00    -0.203 F 
ATOM     98  F   UNL A   1      43.608  26.504  36.970  1.00  0.00    -0.200 F 
ATOM     99  C   UNL A   1      43.814  25.375  34.906  1.00  0.00     0.200 A 
ATOM    100  F   UNL A   1      44.023  24.292  32.819  1.00  0.00    -0.200 F 
ATOM    101  F   UNL A   1      43.932  24.202  35.543  1.00  0.00    -0.200 F 
ENDBRANCH  68  91
ENDBRANCH  42  43
ENDBRANCH  35  37
ENDBRANCH  34  35
ENDBRANCH  33  34
ENDBRANCH  32  33
ENDBRANCH  31  32
ENDBRANCH  30  31
ENDBRANCH  29  30
ENDBRANCH  28  29
ENDBRANCH  27  28
ENDBRANCH   1  27
TORSDOF 26
ENDMDL
MODEL 2
REMARK VINA RESULT:      -6.2      7.536     10.900
REMARK SMILES CC[C@@H](C)CN(CC)C(=O)Nc1c(Br)cccc1C(=O)OCCOCCOCCOCCOC(=O)c1ccc(-c2c3nc(c(-c4c(F)c(F)c(F)c(F)c4F)c4ccc([nH]4)c(-c4c(F)c(F)c(F)c(F)c4F)c4nc(c(-c5c(F)c(F)c(F)c(F)c5F)c5ccc2[nH]5)C=C4)C=C3)cc1
REMARK SMILES IDX 25 1 24 2 23 3 22 4 21 5 19 6 20 7 18 8 12 9 13 10 14 11
REMARK SMILES IDX 15 12 17 13 16 14 11 15 9 16 10 17 6 19 5 20 3 21 4 22 2 23
REMARK SMILES IDX 1 24 7 25 8 26 26 27 27 28 28 29 29 30 30 31 31 32 32 33
REMARK SMILES IDX 33 34 34 35 35 36 36 37 37 38 98 39 38 40 97 41 39 42 40 43
REMARK SMILES IDX 41 44 91 45 42 46 96 47 90 48 92 49 43 50 95 51 89 52 88 53
REMARK SMILES IDX 44 55 76 56 56 57 75 58 57 59 60 60 74 61 93 62 58 63 59 64
REMARK SMILES IDX 73 66 94 67 61 68 45 69 46 70 54 71 47 72 48 73 52 74 55 75
REMARK SMILES IDX 49 76 50 77 53 78 51 79 77 80 78 81 86 82 79 83 80 84 84 85
REMARK SMILES IDX 87 86 81 87 82 88 85 89 83 90 62 91 63 92 71 93 64 94 65 95
REMARK SMILES IDX 69 96 72 97 66 98 67 99 70 100 68 101
REMARK H PARENT 11 18 92 54 60 65
REMARK Flexibility Score: inf
ROOT
ATOM      1  C   UNL A   1      33.235  30.210  27.231  1.00  0.00     0.188 C 
ENDROOT
BRANCH   1   2
ATOM      2  O   UNL A   1      33.359  29.810  25.877  1.00  0.00    -0.376 OA
BRANCH   2   3
ATOM      3  C   UNL A   1      34.004  28.584  25.586  1.00  0.00     0.202 C 
BRANCH   3   4
ATOM      4  C   UNL A   1      33.231  27.558  24.742  1.00  0.00     0.261 C 
BRANCH   4   5
ATOM      5  O   UNL A   1      34.031  26.600  24.028  1.00  0.00    -0.460 OA
BRANCH   5   6
ATOM      6  C   UNL A   1      34.202  25.413  24.644  1.00  0.00     0.340 C 
ATOM      7  O   UNL A   1      35.136  25.121  25.374  1.00  0.00    -0.246 OA
BRANCH   6   8
ATOM      8  C   UNL A   1      33.035  24.513  24.445  1.00  0.00     0.084 A 
ATOM      9  C   UNL A   1      32.528  23.631  25.412  1.00  0.00     0.071 A 
ATOM     10  C   UNL A   1      31.176  23.293  25.301  1.00  0.00     0.042 A 
ATOM     11  Br  UNL A   1      30.121  22.957  26.856  1.00  0.00    -0.049 Br
ATOM     12  C   UNL A   1      30.506  23.431  24.081  1.00  0.00     0.018 A 
ATOM     13  C   UNL A   1      32.373  24.645  23.211  1.00  0.00     0.018 A 
ATOM     14  C   UNL A   1      31.147  24.025  23.000  1.00  0.00     0.002 A 
BRANCH   9  15
ATOM     15  N   UNL A   1      33.369  23.102  26.412  1.00  0.00    -0.306 N 
ATOM     16  C   UNL A   1      33.886  21.858  26.620  1.00  0.00     0.321 C 
ATOM     17  O   UNL A   1      33.972  21.501  27.800  1.00  0.00    -0.248 OA
ATOM     18  H   UNL A   1      33.634  23.760  27.093  1.00  0.00     0.171 HD
BRANCH  16  19
ATOM     19  N   UNL A   1      34.458  21.115  25.590  1.00  0.00    -0.325 N 
BRANCH  19  20
ATOM     20  C   UNL A   1      33.983  19.724  25.434  1.00  0.00     0.124 C 
BRANCH  20  21
ATOM     21  C   UNL A   1      33.528  19.368  23.990  1.00  0.00     0.005 C 
ATOM     22  C   UNL A   1      32.421  20.334  23.545  1.00  0.00     0.009 C 
BRANCH  21  23
ATOM     23  C   UNL A   1      33.071  17.900  23.904  1.00  0.00     0.002 C 
ATOM     24  C   UNL A   1      34.013  16.992  23.142  1.00  0.00     0.004 C 
ENDBRANCH  21  23
ENDBRANCH  20  21
ENDBRANCH  19  20
BRANCH  19  25
ATOM     25  C   UNL A   1      35.609  21.467  24.742  1.00  0.00     0.118 C 
ATOM     26  C   UNL A   1      36.794  22.019  25.537  1.00  0.00     0.027 C 
ENDBRANCH  19  25
ENDBRANCH  16  19
ENDBRANCH   9  15
ENDBRANCH   6   8
ENDBRANCH   5   6
ENDBRANCH   4   5
ENDBRANCH   3   4
ENDBRANCH   2   3
ENDBRANCH   1   2
BRANCH   1  27
ATOM     27  C   UNL A   1      34.175  31.367  27.632  1.00  0.00     0.188 C 
BRANCH  27  28
ATOM     28  O   UNL A   1      33.665  32.418  28.440  1.00  0.00    -0.377 OA
BRANCH  28  29
ATOM     29  C   UNL A   1      33.342  33.676  27.850  1.00  0.00     0.188 C 
BRANCH  29  30
ATOM     30  C   UNL A   1      34.251  34.916  28.024  1.00  0.00     0.188 C 
BRANCH  30  31
ATOM     31  O   UNL A   1      33.980  35.693  29.179  1.00  0.00    -0.376 OA
BRANCH  31  32
ATOM     32  C   UNL A   1      33.461  35.021  30.311  1.00  0.00     0.202 C 
BRANCH  32  33
ATOM     33  C   UNL A   1      34.464  34.185  31.116  1.00  0.00     0.261 C 
BRANCH  33  34
ATOM     34  O   UNL A   1      34.351  34.277  32.546  1.00  0.00    -0.460 OA
BRANCH  34  35
ATOM     35  C   UNL A   1      35.057  35.245  33.168  1.00  0.00     0.338 C 
ATOM     36  O   UNL A   1      34.767  36.425  33.275  1.00  0.00    -0.246 OA
BRANCH  35  37
ATOM     37  C   UNL A   1      36.184  34.590  33.859  1.00  0.00     0.060 A 
ATOM     38  C   UNL A   1      35.975  33.953  35.091  1.00  0.00     0.016 A 
ATOM     39  C   UNL A   1      37.447  34.590  33.269  1.00  0.00     0.016 A 
ATOM     40  C   UNL A   1      37.035  33.314  35.739  1.00  0.00     0.010 A 
ATOM     41  C   UNL A   1      38.510  33.971  33.930  1.00  0.00     0.010 A 
ATOM     42  C   UNL A   1      38.317  33.344  35.175  1.00  0.00    -0.014 A 
BRANCH  42  43
ATOM     43  C   UNL A   1      39.500  32.920  35.965  1.00  0.00     0.031 A 
ATOM     44  C   UNL A   1      40.084  33.913  36.933  1.00  0.00     0.074 A 
ATOM     45  C   UNL A   1      40.057  31.703  35.829  1.00  0.00     0.049 A 
ATOM     46  N   UNL A   1      41.165  33.834  37.662  1.00  0.00    -0.248 NA
ATOM     47  C   UNL A   1      39.345  35.179  37.089  1.00  0.00     0.031 C 
ATOM     48  C   UNL A   1      39.573  30.638  34.953  1.00  0.00     0.029 A 
ATOM     49  N   UNL A   1      41.178  31.166  36.419  1.00  0.00    -0.354 N 
ATOM     50  C   UNL A   1      41.246  35.041  38.344  1.00  0.00     0.074 A 
ATOM     51  C   UNL A   1      40.127  35.851  37.918  1.00  0.00     0.031 C 
ATOM     52  C   UNL A   1      40.409  29.588  35.037  1.00  0.00     0.029 A 
ATOM     53  C   UNL A   1      41.499  29.913  35.955  1.00  0.00     0.049 A 
ATOM     54  H   UNL A   1      41.700  31.636  37.109  1.00  0.00     0.167 HD
ATOM     55  C   UNL A   1      42.163  35.433  39.257  1.00  0.00     0.037 A 
ATOM     56  C   UNL A   1      42.567  29.133  36.222  1.00  0.00     0.037 A 
ATOM     57  C   UNL A   1      43.263  34.619  39.696  1.00  0.00     0.049 A 
ATOM     58  C   UNL A   1      43.608  29.619  37.205  1.00  0.00     0.074 A 
ATOM     59  C   UNL A   1      44.222  34.911  40.649  1.00  0.00     0.029 A 
ATOM     60  N   UNL A   1      43.555  33.356  39.204  1.00  0.00    -0.354 N 
ATOM     61  N   UNL A   1      43.652  30.742  37.882  1.00  0.00    -0.248 NA
ATOM     62  C   UNL A   1      44.744  28.722  37.467  1.00  0.00     0.031 C 
ATOM     63  C   UNL A   1      45.131  33.850  40.689  1.00  0.00     0.029 A 
ATOM     64  C   UNL A   1      44.699  32.868  39.812  1.00  0.00     0.049 A 
ATOM     65  H   UNL A   1      43.028  32.878  38.524  1.00  0.00     0.167 HD
ATOM     66  C   UNL A   1      44.792  30.669  38.673  1.00  0.00     0.074 A 
ATOM     67  C   UNL A   1      45.407  29.387  38.403  1.00  0.00     0.031 C 
ATOM     68  C   UNL A   1      45.288  31.581  39.545  1.00  0.00     0.037 A 
BRANCH  55  69
ATOM     69  C   UNL A   1      42.030  36.814  39.827  1.00  0.00     0.064 A 
ATOM     70  C   UNL A   1      42.675  37.918  39.253  1.00  0.00     0.173 A 
ATOM     71  C   UNL A   1      41.208  37.039  40.942  1.00  0.00     0.173 A 
ATOM     72  F   UNL A   1      43.489  37.754  38.199  1.00  0.00    -0.203 F 
ATOM     73  C   UNL A   1      42.517  39.196  39.785  1.00  0.00     0.198 A 
ATOM     74  C   UNL A   1      41.025  38.321  41.450  1.00  0.00     0.198 A 
ATOM     75  F   UNL A   1      40.569  36.015  41.530  1.00  0.00    -0.203 F 
ATOM     76  F   UNL A   1      43.178  40.230  39.247  1.00  0.00    -0.200 F 
ATOM     77  C   UNL A   1      41.683  39.397  40.875  1.00  0.00     0.200 A 
ATOM     78  F   UNL A   1      40.210  38.515  42.496  1.00  0.00    -0.200 F 
ATOM     79  F   UNL A   1      41.520  40.629  41.376  1.00  0.00    -0.200 F 
ENDBRANCH  55  69
BRANCH  56  80
ATOM     80  C   UNL A   1      42.732  27.818  35.544  1.00  0.00     0.064 A 
ATOM     81  C   UNL A   1      42.107  26.664  36.034  1.00  0.00     0.173 A 
ATOM     82  C   UNL A   1      43.567  27.679  34.423  1.00  0.00     0.173 A 
ATOM     83  F   UNL A   1      41.324  26.736  37.121  1.00  0.00    -0.203 F 
ATOM     84  C   UNL A   1      42.334  25.417  35.452  1.00  0.00     0.198 A 
ATOM     85  C   UNL A   1      43.767  26.438  33.822  1.00  0.00     0.198 A 
ATOM     86  F   UNL A   1      44.197  28.750  33.919  1.00  0.00    -0.203 F 
ATOM     87  F   UNL A   1      41.778  24.320  35.983  1.00  0.00    -0.200 F 
ATOM     88  C   UNL A   1      43.160  25.306  34.343  1.00  0.00     0.200 A 
ATOM     89  F   UNL A   1      44.561  26.336  32.748  1.00  0.00    -0.200 F 
ATOM     90  F   UNL A   1      43.385  24.106  33.791  1.00  0.00    -0.200 F 
ENDBRANCH  56  80
BRANCH  68  91
ATOM     91  C   UNL A   1      46.525  31.212  40.315  1.00  0.00     0.064 A 
ATOM     92  C   UNL A   1      46.464  30.490  41.516  1.00  0.00     0.173 A 
ATOM     93  C   UNL A   1      47.794  31.540  39.811  1.00  0.00     0.173 A 
ATOM     94  F   UNL A   1      45.277  30.161  42.046  1.00  0.00    -0.203 F 
ATOM     95  C   UNL A   1      47.625  30.136  42.198  1.00  0.00     0.198 A 
ATOM     96  C   UNL A   1      48.954  31.153  40.476  1.00  0.00     0.198 A 
ATOM     97  F   UNL A   1      47.910  32.219  38.660  1.00  0.00    -0.203 F 
ATOM     98  F   UNL A   1      47.542  29.491  43.370  1.00  0.00    -0.200 F 
ATOM     99  C   UNL A   1      48.869  30.459  41.673  1.00  0.00     0.200 A 
ATOM    100  F   UNL A   1      50.153  31.448  39.956  1.00  0.00    -0.200 F 
ATOM    101  F   UNL A   1      49.985  30.106  42.324  1.00  0.00    -0.200 F 
ENDBRANCH  68  91
ENDBRANCH  42  43
ENDBRANCH  35  37
ENDBRANCH  34  35
ENDBRANCH  33  34
ENDBRANCH  32  33
ENDBRANCH  31  32
ENDBRANCH  30  31
ENDBRANCH  29  30
ENDBRANCH  28  29
ENDBRANCH  27  28
ENDBRANCH   1  27
TORSDOF 26
ENDMDL
MODEL 3
REMARK VINA RESULT:      -6.1      1.517      2.300
REMARK SMILES CC[C@@H](C)CN(CC)C(=O)Nc1c(Br)cccc1C(=O)OCCOCCOCCOCCOC(=O)c1ccc(-c2c3nc(c(-c4c(F)c(F)c(F)c(F)c4F)c4ccc([nH]4)c(-c4c(F)c(F)c(F)c(F)c4F)c4nc(c(-c5c(F)c(F)c(F)c(F)c5F)c5ccc2[nH]5)C=C4)C=C3)cc1
REMARK SMILES IDX 25 1 24 2 23 3 22 4 21 5 19 6 20 7 18 8 12 9 13 10 14 11
REMARK SMILES IDX 15 12 17 13 16 14 11 15 9 16 10 17 6 19 5 20 3 21 4 22 2 23
REMARK SMILES IDX 1 24 7 25 8 26 26 27 27 28 28 29 29 30 30 31 31 32 32 33
REMARK SMILES IDX 33 34 34 35 35 36 36 37 37 38 98 39 38 40 97 41 39 42 40 43
REMARK SMILES IDX 41 44 91 45 42 46 96 47 90 48 92 49 43 50 95 51 89 52 88 53
REMARK SMILES IDX 44 55 76 56 56 57 75 58 57 59 60 60 74 61 93 62 58 63 59 64
REMARK SMILES IDX 73 66 94 67 61 68 45 69 46 70 54 71 47 72 48 73 52 74 55 75
REMARK SMILES IDX 49 76 50 77 53 78 51 79 77 80 78 81 86 82 79 83 80 84 84 85
REMARK SMILES IDX 87 86 81 87 82 88 85 89 83 90 62 91 63 92 71 93 64 94 65 95
REMARK SMILES IDX 69 96 72 97 66 98 67 99 70 100 68 101
REMARK H PARENT 11 18 92 54 60 65
REMARK Flexibility Score: inf
ROOT
ATOM      1  C   UNL A   1      48.112  32.618  26.724  1.00  0.00     0.188 C 
ENDROOT
BRANCH   1   2
ATOM      2  O   UNL A   1      46.785  32.500  26.238  1.00  0.00    -0.376 OA
BRANCH   2   3
ATOM      3  C   UNL A   1      46.160  31.231  26.270  1.00  0.00     0.202 C 
BRANCH   3   4
ATOM      4  C   UNL A   1      44.750  31.149  26.877  1.00  0.00     0.261 C 
BRANCH   4   5
ATOM      5  O   UNL A   1      43.859  30.195  26.273  1.00  0.00    -0.460 OA
BRANCH   5   6
ATOM      6  C   UNL A   1      43.834  28.978  26.852  1.00  0.00     0.340 C 
ATOM      7  O   UNL A   1      44.815  28.314  27.150  1.00  0.00    -0.246 OA
BRANCH   6   8
ATOM      8  C   UNL A   1      42.454  28.570  27.223  1.00  0.00     0.084 A 
ATOM      9  C   UNL A   1      42.118  27.803  28.350  1.00  0.00     0.071 A 
ATOM     10  C   UNL A   1      40.827  27.971  28.857  1.00  0.00     0.042 A 
ATOM     11  Br  UNL A   1      40.485  27.827  30.730  1.00  0.00    -0.049 Br
ATOM     12  C   UNL A   1      39.806  28.484  28.051  1.00  0.00     0.018 A 
ATOM     13  C   UNL A   1      41.431  29.077  26.400  1.00  0.00     0.018 A 
ATOM     14  C   UNL A   1      40.099  28.951  26.775  1.00  0.00     0.002 A 
BRANCH   9  15
ATOM     15  N   UNL A   1      43.044  26.895  28.901  1.00  0.00    -0.306 N 
ATOM     16  C   UNL A   1      43.059  25.534  28.996  1.00  0.00     0.321 C 
ATOM     17  O   UNL A   1      43.544  25.072  30.034  1.00  0.00    -0.248 OA
ATOM     18  H   UNL A   1      43.836  27.327  29.294  1.00  0.00     0.171 HD
BRANCH  16  19
ATOM     19  N   UNL A   1      42.728  24.716  27.919  1.00  0.00    -0.325 N 
BRANCH  19  20
ATOM     20  C   UNL A   1      41.521  23.877  28.070  1.00  0.00     0.124 C 
BRANCH  20  21
ATOM     21  C   UNL A   1      40.637  23.801  26.793  1.00  0.00     0.005 C 
ATOM     22  C   UNL A   1      39.906  25.136  26.591  1.00  0.00     0.009 C 
BRANCH  21  23
ATOM     23  C   UNL A   1      39.653  22.620  26.876  1.00  0.00     0.002 C 
ATOM     24  C   UNL A   1      40.142  21.346  26.220  1.00  0.00     0.004 C 
ENDBRANCH  21  23
ENDBRANCH  20  21
ENDBRANCH  19  20
BRANCH  19  25
ATOM     25  C   UNL A   1      43.520  24.435  26.710  1.00  0.00     0.118 C 
ATOM     26  C   UNL A   1      45.003  24.776  26.872  1.00  0.00     0.027 C 
ENDBRANCH  19  25
ENDBRANCH  16  19
ENDBRANCH   9  15
ENDBRANCH   6   8
ENDBRANCH   5   6
ENDBRANCH   4   5
ENDBRANCH   3   4
ENDBRANCH   2   3
ENDBRANCH   1   2
BRANCH   1  27
ATOM     27  C   UNL A   1      48.724  34.023  26.542  1.00  0.00     0.188 C 
BRANCH  27  28
ATOM     28  O   UNL A   1      47.942  35.039  25.931  1.00  0.00    -0.377 OA
BRANCH  28  29
ATOM     29  C   UNL A   1      47.715  36.271  26.613  1.00  0.00     0.188 C 
BRANCH  29  30
ATOM     30  C   UNL A   1      46.798  37.371  26.028  1.00  0.00     0.188 C 
BRANCH  30  31
ATOM     31  O   UNL A   1      46.034  38.080  26.989  1.00  0.00    -0.376 OA
BRANCH  31  32
ATOM     32  C   UNL A   1      46.182  39.486  27.034  1.00  0.00     0.202 C 
BRANCH  32  33
ATOM     33  C   UNL A   1      45.024  40.303  26.444  1.00  0.00     0.261 C 
BRANCH  33  34
ATOM     34  O   UNL A   1      43.940  39.541  25.886  1.00  0.00    -0.460 OA
BRANCH  34  35
ATOM     35  C   UNL A   1      42.754  39.578  26.531  1.00  0.00     0.338 C 
ATOM     36  O   UNL A   1      41.845  40.374  26.370  1.00  0.00    -0.246 OA
BRANCH  35  37
ATOM     37  C   UNL A   1      42.671  38.362  27.362  1.00  0.00     0.060 A 
ATOM     38  C   UNL A   1      42.929  38.436  28.739  1.00  0.00     0.016 A 
ATOM     39  C   UNL A   1      42.311  37.150  26.775  1.00  0.00     0.016 A 
ATOM     40  C   UNL A   1      42.831  37.290  29.533  1.00  0.00     0.010 A 
ATOM     41  C   UNL A   1      42.237  36.002  27.567  1.00  0.00     0.010 A 
ATOM     42  C   UNL A   1      42.512  36.060  28.946  1.00  0.00    -0.014 A 
BRANCH  42  43
ATOM     43  C   UNL A   1      42.671  34.795  29.708  1.00  0.00     0.031 A 
ATOM     44  C   UNL A   1      41.456  34.242  30.402  1.00  0.00     0.074 A 
ATOM     45  C   UNL A   1      43.851  34.155  29.800  1.00  0.00     0.049 A 
ATOM     46  N   UNL A   1      41.346  33.220  31.208  1.00  0.00    -0.248 NA
ATOM     47  C   UNL A   1      40.188  34.954  30.158  1.00  0.00     0.031 C 
ATOM     48  C   UNL A   1      45.094  34.564  29.151  1.00  0.00     0.029 A 
ATOM     49  N   UNL A   1      44.198  33.026  30.504  1.00  0.00    -0.354 N 
ATOM     50  C   UNL A   1      40.009  33.179  31.581  1.00  0.00     0.074 A 
ATOM     51  C   UNL A   1      39.351  34.298  30.944  1.00  0.00     0.031 C 
ATOM     52  C   UNL A   1      46.076  33.719  29.513  1.00  0.00     0.029 A 
ATOM     53  C   UNL A   1      45.536  32.722  30.436  1.00  0.00     0.049 A 
ATOM     54  H   UNL A   1      43.547  32.486  31.009  1.00  0.00     0.167 HD
ATOM     55  C   UNL A   1      39.382  32.280  32.371  1.00  0.00     0.037 A 
ATOM     56  C   UNL A   1      46.245  31.765  31.070  1.00  0.00     0.037 A 
ATOM     57  C   UNL A   1      40.032  31.155  32.987  1.00  0.00     0.049 A 
ATOM     58  C   UNL A   1      45.529  30.805  31.992  1.00  0.00     0.074 A 
ATOM     59  C   UNL A   1      39.474  30.162  33.771  1.00  0.00     0.029 A 
ATOM     60  N   UNL A   1      41.388  30.881  32.894  1.00  0.00    -0.354 N 
ATOM     61  N   UNL A   1      44.256  30.744  32.302  1.00  0.00    -0.248 NA
ATOM     62  C   UNL A   1      46.350  29.775  32.646  1.00  0.00     0.031 C 
ATOM     63  C   UNL A   1      40.502  29.321  34.204  1.00  0.00     0.029 A 
ATOM     64  C   UNL A   1      41.690  29.750  33.634  1.00  0.00     0.049 A 
ATOM     65  H   UNL A   1      42.039  31.411  32.380  1.00  0.00     0.167 HD
ATOM     66  C   UNL A   1      44.119  29.653  33.152  1.00  0.00     0.074 A 
ATOM     67  C   UNL A   1      45.436  29.072  33.300  1.00  0.00     0.031 C 
ATOM     68  C   UNL A   1      43.004  29.173  33.756  1.00  0.00     0.037 A 
BRANCH  55  69
ATOM     69  C   UNL A   1      37.920  32.485  32.636  1.00  0.00     0.064 A 
ATOM     70  C   UNL A   1      37.459  33.121  33.798  1.00  0.00     0.173 A 
ATOM     71  C   UNL A   1      36.969  32.078  31.688  1.00  0.00     0.173 A 
ATOM     72  F   UNL A   1      38.326  33.512  34.744  1.00  0.00    -0.203 F 
ATOM     73  C   UNL A   1      36.098  33.324  34.011  1.00  0.00     0.198 A 
ATOM     74  C   UNL A   1      35.612  32.312  31.888  1.00  0.00     0.198 A 
ATOM     75  F   UNL A   1      37.357  31.463  30.560  1.00  0.00    -0.203 F 
ATOM     76  F   UNL A   1      35.677  33.894  35.148  1.00  0.00    -0.200 F 
ATOM     77  C   UNL A   1      35.177  32.930  33.050  1.00  0.00     0.200 A 
ATOM     78  F   UNL A   1      34.725  31.942  30.954  1.00  0.00    -0.200 F 
ATOM     79  F   UNL A   1      33.869  33.140  33.249  1.00  0.00    -0.200 F 
ENDBRANCH  55  69
BRANCH  56  80
ATOM     80  C   UNL A   1      47.718  31.665  30.880  1.00  0.00     0.064 A 
ATOM     81  C   UNL A   1      48.604  32.419  31.661  1.00  0.00     0.173 A 
ATOM     82  C   UNL A   1      48.267  30.855  29.874  1.00  0.00     0.173 A 
ATOM     83  F   UNL A   1      48.130  33.233  32.616  1.00  0.00    -0.203 F 
ATOM     84  C   UNL A   1      49.978  32.393  31.423  1.00  0.00     0.198 A 
ATOM     85  C   UNL A   1      49.644  30.804  29.658  1.00  0.00     0.198 A 
ATOM     86  F   UNL A   1      47.464  30.119  29.092  1.00  0.00    -0.203 F 
ATOM     87  F   UNL A   1      50.795  33.177  32.139  1.00  0.00    -0.200 F 
ATOM     88  C   UNL A   1      50.497  31.582  30.425  1.00  0.00     0.200 A 
ATOM     89  F   UNL A   1      50.141  30.015  28.697  1.00  0.00    -0.200 F 
ATOM     90  F   UNL A   1      51.817  31.566  30.191  1.00  0.00    -0.200 F 
ENDBRANCH  56  80
BRANCH  68  91
ATOM     91  C   UNL A   1      43.141  27.931  34.590  1.00  0.00     0.064 A 
ATOM     92  C   UNL A   1      43.186  27.978  35.991  1.00  0.00     0.173 A 
ATOM     93  C   UNL A   1      43.172  26.668  33.976  1.00  0.00     0.173 A 
ATOM     94  F   UNL A   1      43.170  29.159  36.627  1.00  0.00    -0.203 F 
ATOM     95  C   UNL A   1      43.286  26.812  36.744  1.00  0.00     0.198 A 
ATOM     96  C   UNL A   1      43.235  25.502  34.733  1.00  0.00     0.198 A 
ATOM     97  F   UNL A   1      43.119  26.564  32.640  1.00  0.00    -0.203 F 
ATOM     98  F   UNL A   1      43.380  26.884  38.079  1.00  0.00    -0.200 F 
ATOM     99  C   UNL A   1      43.302  25.574  36.116  1.00  0.00     0.200 A 
ATOM    100  F   UNL A   1      43.228  24.308  34.125  1.00  0.00    -0.200 F 
ATOM    101  F   UNL A   1      43.385  24.453  36.844  1.00  0.00    -0.200 F 
ENDBRANCH  68  91
ENDBRANCH  42  43
ENDBRANCH  35  37
ENDBRANCH  34  35
ENDBRANCH  33  34
ENDBRANCH  32  33
ENDBRANCH  31  32
ENDBRANCH  30  31
ENDBRANCH  29  30
ENDBRANCH  28  29
ENDBRANCH  27  28
ENDBRANCH   1  27
TORSDOF 26
ENDMDL
