MODEL 1
REMARK VINA RESULT:     -11.0      0.000      0.000
REMARK SMILES [H]/N=C1\C=CC2=NC(C(=O)OCCOCCOCCOCCOC(=O)c3ccc(-c4c5nc(c(-c6c(F)c(F)c(F)c(F)c6F)c6ccc([nH]6)c(-c6c(F)c(F)c(F)c(F)c6F)c6nc(c(-c7c(F)c(F)c(F)c(F)c7F)c7ccc4[nH]7)C=C6)C=C5)cc3)=C[C@@H]2C1
REMARK SMILES IDX 18 1 17 2 16 3 15 4 14 5 13 6 12 7 11 8 9 9 10 10 8 11 2 12
REMARK SMILES IDX 3 13 1 14 4 15 91 16 5 17 90 18 6 19 89 20 7 21 19 22 20 23
REMARK SMILES IDX 21 24 22 25 23 26 24 27 25 28 26 29 27 30 88 31 28 32 87 33
REMARK SMILES IDX 29 34 30 35 31 36 81 37 32 38 86 39 80 40 82 41 33 42 85 43
REMARK SMILES IDX 79 44 78 45 34 47 66 48 46 49 65 50 47 51 50 52 64 53 83 54
REMARK SMILES IDX 48 55 49 56 63 58 84 59 51 60 35 61 36 62 44 63 37 64 38 65
REMARK SMILES IDX 42 66 45 67 39 68 40 69 43 70 41 71 67 72 68 73 76 74 69 75
REMARK SMILES IDX 70 76 74 77 77 78 71 79 72 80 75 81 73 82 52 83 53 84 61 85
REMARK SMILES IDX 54 86 55 87 59 88 62 89 56 90 57 91 60 92 58 93
REMARK H PARENT 82 46 50 57
REMARK Flexibility Score: inf
ROOT
ATOM      1  C   UNL A   1      43.869  18.877  25.353  1.00  0.00     0.188 C 
ENDROOT
BRANCH   1   2
ATOM      2  O   UNL A   1      42.492  19.176  25.181  1.00  0.00    -0.377 OA
BRANCH   2   3
ATOM      3  C   UNL A   1      41.649  19.296  26.324  1.00  0.00     0.188 C 
BRANCH   3   4
ATOM      4  C   UNL A   1      41.518  20.623  27.107  1.00  0.00     0.188 C 
BRANCH   4   5
ATOM      5  O   UNL A   1      40.769  21.638  26.451  1.00  0.00    -0.376 OA
BRANCH   5   6
ATOM      6  C   UNL A   1      39.516  21.247  25.910  1.00  0.00     0.202 C 
BRANCH   6   7
ATOM      7  C   UNL A   1      38.468  22.368  25.882  1.00  0.00     0.261 C 
BRANCH   7   8
ATOM      8  O   UNL A   1      37.531  22.246  24.797  1.00  0.00    -0.459 OA
BRANCH   8   9
ATOM      9  C   UNL A   1      36.233  22.428  25.141  1.00  0.00     0.356 C 
ATOM     10  O   UNL A   1      35.725  23.480  25.497  1.00  0.00    -0.244 OA
BRANCH   9  11
ATOM     11  C   UNL A   1      35.465  21.184  24.870  1.00  0.00     0.145 C 
ATOM     12  N   UNL A   1      33.252  15.957  24.149  1.00  0.00    -0.305 NA
ATOM     13  C   UNL A   1      33.412  17.231  24.029  1.00  0.00     0.032 C 
ATOM     14  H   UNL A   1      32.344  15.575  24.173  1.00  0.00     0.187 HD
ATOM     15  C   UNL A   1      32.266  18.174  23.913  1.00  0.00     0.025 C 
ATOM     16  C   UNL A   1      34.821  17.806  23.994  1.00  0.00     0.069 C 
ATOM     17  C   UNL A   1      32.443  19.486  24.108  1.00  0.00     0.026 C 
ATOM     18  C   UNL A   1      34.829  18.978  24.947  1.00  0.00     0.069 C 
ATOM     19  C   UNL A   1      33.772  19.974  24.517  1.00  0.00     0.049 C 
ATOM     20  C   UNL A   1      35.965  19.946  24.986  1.00  0.00     0.019 C 
ATOM     21  N   UNL A   1      34.123  21.219  24.550  1.00  0.00    -0.245 NA
ENDBRANCH   9  11
ENDBRANCH   8   9
ENDBRANCH   7   8
ENDBRANCH   6   7
ENDBRANCH   5   6
ENDBRANCH   4   5
ENDBRANCH   3   4
ENDBRANCH   2   3
ENDBRANCH   1   2
BRANCH   1  22
ATOM     22  C   UNL A   1      44.904  19.529  24.408  1.00  0.00     0.188 C 
BRANCH  22  23
ATOM     23  O   UNL A   1      44.458  20.712  23.749  1.00  0.00    -0.376 OA
BRANCH  23  24
ATOM     24  C   UNL A   1      45.060  21.940  24.138  1.00  0.00     0.202 C 
BRANCH  24  25
ATOM     25  C   UNL A   1      44.333  22.604  25.307  1.00  0.00     0.261 C 
BRANCH  25  26
ATOM     26  O   UNL A   1      43.222  23.378  24.874  1.00  0.00    -0.460 OA
BRANCH  26  27
ATOM     27  C   UNL A   1      43.266  24.678  25.224  1.00  0.00     0.338 C 
ATOM     28  O   UNL A   1      44.125  25.492  24.937  1.00  0.00    -0.246 OA
BRANCH  27  29
ATOM     29  C   UNL A   1      42.114  24.979  26.086  1.00  0.00     0.060 A 
ATOM     30  C   UNL A   1      41.207  25.906  25.570  1.00  0.00     0.016 A 
ATOM     31  C   UNL A   1      42.216  24.697  27.452  1.00  0.00     0.016 A 
ATOM     32  C   UNL A   1      40.693  26.833  26.442  1.00  0.00     0.010 A 
ATOM     33  C   UNL A   1      41.739  25.642  28.319  1.00  0.00     0.010 A 
ATOM     34  C   UNL A   1      41.119  26.766  27.770  1.00  0.00    -0.014 A 
BRANCH  34  35
ATOM     35  C   UNL A   1      41.223  28.026  28.479  1.00  0.00     0.031 A 
ATOM     36  C   UNL A   1      42.406  28.849  28.188  1.00  0.00     0.074 A 
ATOM     37  C   UNL A   1      40.185  28.439  29.236  1.00  0.00     0.049 A 
ATOM     38  N   UNL A   1      43.273  29.324  29.020  1.00  0.00    -0.248 NA
ATOM     39  C   UNL A   1      42.696  29.130  26.775  1.00  0.00     0.031 C 
ATOM     40  C   UNL A   1      38.835  27.859  29.307  1.00  0.00     0.029 A 
ATOM     41  N   UNL A   1      40.082  29.549  30.014  1.00  0.00    -0.354 N 
ATOM     42  C   UNL A   1      44.139  30.089  28.250  1.00  0.00     0.074 A 
ATOM     43  C   UNL A   1      43.826  29.824  26.871  1.00  0.00     0.031 C 
ATOM     44  C   UNL A   1      38.005  28.737  29.911  1.00  0.00     0.029 A 
ATOM     45  C   UNL A   1      38.781  29.881  30.356  1.00  0.00     0.049 A 
ATOM     46  H   UNL A   1      40.863  30.071  30.309  1.00  0.00     0.167 HD
ATOM     47  C   UNL A   1      44.920  31.058  28.791  1.00  0.00     0.037 A 
ATOM     48  C   UNL A   1      38.367  31.062  30.872  1.00  0.00     0.037 A 
ATOM     49  C   UNL A   1      45.097  30.889  30.206  1.00  0.00     0.049 A 
ATOM     50  C   UNL A   1      39.563  31.775  31.389  1.00  0.00     0.074 A 
ATOM     51  C   UNL A   1      45.654  29.901  30.995  1.00  0.00     0.029 A 
ATOM     52  N   UNL A   1      44.370  31.680  31.058  1.00  0.00    -0.354 N 
ATOM     53  N   UNL A   1      40.246  31.414  32.439  1.00  0.00    -0.248 NA
ATOM     54  C   UNL A   1      40.250  32.686  30.484  1.00  0.00     0.031 C 
ATOM     55  C   UNL A   1      44.882  29.890  32.192  1.00  0.00     0.029 A 
ATOM     56  C   UNL A   1      43.900  30.873  32.064  1.00  0.00     0.049 A 
ATOM     57  H   UNL A   1      44.216  32.648  30.967  1.00  0.00     0.167 HD
ATOM     58  C   UNL A   1      41.564  31.724  32.132  1.00  0.00     0.074 A 
ATOM     59  C   UNL A   1      41.490  32.599  30.970  1.00  0.00     0.031 C 
ATOM     60  C   UNL A   1      42.599  31.017  32.673  1.00  0.00     0.037 A 
BRANCH  47  61
ATOM     61  C   UNL A   1      45.285  32.311  28.053  1.00  0.00     0.064 A 
ATOM     62  C   UNL A   1      44.319  33.309  27.848  1.00  0.00     0.173 A 
ATOM     63  C   UNL A   1      46.491  32.463  27.331  1.00  0.00     0.173 A 
ATOM     64  F   UNL A   1      43.119  33.230  28.443  1.00  0.00    -0.203 F 
ATOM     65  C   UNL A   1      44.540  34.372  26.968  1.00  0.00     0.198 A 
ATOM     66  C   UNL A   1      46.734  33.557  26.507  1.00  0.00     0.198 A 
ATOM     67  F   UNL A   1      47.432  31.509  27.318  1.00  0.00    -0.203 F 
ATOM     68  F   UNL A   1      43.556  35.247  26.723  1.00  0.00    -0.200 F 
ATOM     69  C   UNL A   1      45.750  34.500  26.308  1.00  0.00     0.200 A 
ATOM     70  F   UNL A   1      47.904  33.649  25.859  1.00  0.00    -0.200 F 
ATOM     71  F   UNL A   1      45.948  35.501  25.440  1.00  0.00    -0.200 F 
ENDBRANCH  47  61
BRANCH  48  72
ATOM     72  C   UNL A   1      37.062  31.730  30.659  1.00  0.00     0.064 A 
ATOM     73  C   UNL A   1      36.120  31.832  31.692  1.00  0.00     0.173 A 
ATOM     74  C   UNL A   1      36.806  32.491  29.500  1.00  0.00     0.173 A 
ATOM     75  F   UNL A   1      36.317  31.183  32.849  1.00  0.00    -0.203 F 
ATOM     76  C   UNL A   1      34.990  32.647  31.575  1.00  0.00     0.198 A 
ATOM     77  C   UNL A   1      35.670  33.291  29.377  1.00  0.00     0.198 A 
ATOM     78  F   UNL A   1      37.694  32.545  28.497  1.00  0.00    -0.203 F 
ATOM     79  F   UNL A   1      34.138  32.762  32.604  1.00  0.00    -0.200 F 
ATOM     80  C   UNL A   1      34.767  33.377  30.418  1.00  0.00     0.200 A 
ATOM     81  F   UNL A   1      35.487  34.018  28.265  1.00  0.00    -0.200 F 
ATOM     82  F   UNL A   1      33.708  34.193  30.323  1.00  0.00    -0.200 F 
ENDBRANCH  48  72
BRANCH  60  83
ATOM     83  C   UNL A   1      42.281  30.097  33.816  1.00  0.00     0.064 A 
ATOM     84  C   UNL A   1      41.816  28.782  33.638  1.00  0.00     0.173 A 
ATOM     85  C   UNL A   1      42.586  30.504  35.121  1.00  0.00     0.173 A 
ATOM     86  F   UNL A   1      41.610  28.288  32.409  1.00  0.00    -0.203 F 
ATOM     87  C   UNL A   1      41.617  27.933  34.724  1.00  0.00     0.198 A 
ATOM     88  C   UNL A   1      42.419  29.641  36.201  1.00  0.00     0.198 A 
ATOM     89  F   UNL A   1      43.095  31.726  35.343  1.00  0.00    -0.203 F 
ATOM     90  F   UNL A   1      41.161  26.687  34.529  1.00  0.00    -0.200 F 
ATOM     91  C   UNL A   1      41.923  28.362  36.004  1.00  0.00     0.200 A 
ATOM     92  F   UNL A   1      42.766  30.040  37.433  1.00  0.00    -0.200 F 
ATOM     93  F   UNL A   1      41.770  27.532  37.047  1.00  0.00    -0.200 F 
ENDBRANCH  60  83
ENDBRANCH  34  35
ENDBRANCH  27  29
ENDBRANCH  26  27
ENDBRANCH  25  26
ENDBRANCH  24  25
ENDBRANCH  23  24
ENDBRANCH  22  23
ENDBRANCH   1  22
TORSDOF 20
ENDMDL
MODEL 2
REMARK VINA RESULT:     -10.8      1.527      1.946
REMARK SMILES [H]/N=C1\C=CC2=NC(C(=O)OCCOCCOCCOCCOC(=O)c3ccc(-c4c5nc(c(-c6c(F)c(F)c(F)c(F)c6F)c6ccc([nH]6)c(-c6c(F)c(F)c(F)c(F)c6F)c6nc(c(-c7c(F)c(F)c(F)c(F)c7F)c7ccc4[nH]7)C=C6)C=C5)cc3)=C[C@@H]2C1
REMARK SMILES IDX 18 1 17 2 16 3 15 4 14 5 13 6 12 7 11 8 9 9 10 10 8 11 2 12
REMARK SMILES IDX 3 13 1 14 4 15 91 16 5 17 90 18 6 19 89 20 7 21 19 22 20 23
REMARK SMILES IDX 21 24 22 25 23 26 24 27 25 28 26 29 27 30 88 31 28 32 87 33
REMARK SMILES IDX 29 34 30 35 31 36 81 37 32 38 86 39 80 40 82 41 33 42 85 43
REMARK SMILES IDX 79 44 78 45 34 47 66 48 46 49 65 50 47 51 50 52 64 53 83 54
REMARK SMILES IDX 48 55 49 56 63 58 84 59 51 60 35 61 36 62 44 63 37 64 38 65
REMARK SMILES IDX 42 66 45 67 39 68 40 69 43 70 41 71 67 72 68 73 76 74 69 75
REMARK SMILES IDX 70 76 74 77 77 78 71 79 72 80 75 81 73 82 52 83 53 84 61 85
REMARK SMILES IDX 54 86 55 87 59 88 62 89 56 90 57 91 60 92 58 93
REMARK H PARENT 82 46 50 57
REMARK Flexibility Score: inf
ROOT
ATOM      1  C   UNL A   1      43.793  18.964  25.341  1.00  0.00     0.188 C 
ENDROOT
BRANCH   1   2
ATOM      2  O   UNL A   1      42.428  19.279  25.114  1.00  0.00    -0.377 OA
BRANCH   2   3
ATOM      3  C   UNL A   1      41.596  19.639  26.215  1.00  0.00     0.188 C 
BRANCH   3   4
ATOM      4  C   UNL A   1      41.466  21.103  26.695  1.00  0.00     0.188 C 
BRANCH   4   5
ATOM      5  O   UNL A   1      40.526  21.893  25.977  1.00  0.00    -0.376 OA
BRANCH   5   6
ATOM      6  C   UNL A   1      39.219  21.354  25.849  1.00  0.00     0.202 C 
BRANCH   6   7
ATOM      7  C   UNL A   1      38.096  22.353  26.160  1.00  0.00     0.261 C 
BRANCH   7   8
ATOM      8  O   UNL A   1      36.802  21.917  25.707  1.00  0.00    -0.459 OA
BRANCH   8   9
ATOM      9  C   UNL A   1      36.362  22.516  24.574  1.00  0.00     0.356 C 
ATOM     10  O   UNL A   1      36.960  22.565  23.510  1.00  0.00    -0.244 OA
BRANCH   9  11
ATOM     11  C   UNL A   1      34.961  22.975  24.762  1.00  0.00     0.145 C 
ATOM     12  N   UNL A   1      29.812  24.890  26.361  1.00  0.00    -0.305 NA
ATOM     13  C   UNL A   1      30.722  24.307  25.657  1.00  0.00     0.032 C 
ATOM     14  H   UNL A   1      29.078  25.373  25.915  1.00  0.00     0.187 HD
ATOM     15  C   UNL A   1      30.714  24.323  24.169  1.00  0.00     0.025 C 
ATOM     16  C   UNL A   1      31.848  23.564  26.361  1.00  0.00     0.069 C 
ATOM     17  C   UNL A   1      31.813  23.994  23.479  1.00  0.00     0.026 C 
ATOM     18  C   UNL A   1      33.132  24.003  25.696  1.00  0.00     0.069 C 
ATOM     19  C   UNL A   1      33.054  23.696  24.215  1.00  0.00     0.049 C 
ATOM     20  C   UNL A   1      34.423  23.296  25.946  1.00  0.00     0.019 C 
ATOM     21  N   UNL A   1      34.120  23.184  23.689  1.00  0.00    -0.245 NA
ENDBRANCH   9  11
ENDBRANCH   8   9
ENDBRANCH   7   8
ENDBRANCH   6   7
ENDBRANCH   5   6
ENDBRANCH   4   5
ENDBRANCH   3   4
ENDBRANCH   2   3
ENDBRANCH   1   2
BRANCH   1  22
ATOM     22  C   UNL A   1      44.867  19.551  24.398  1.00  0.00     0.188 C 
BRANCH  22  23
ATOM     23  O   UNL A   1      44.486  20.746  23.719  1.00  0.00    -0.376 OA
BRANCH  23  24
ATOM     24  C   UNL A   1      45.120  21.954  24.121  1.00  0.00     0.202 C 
BRANCH  24  25
ATOM     25  C   UNL A   1      44.397  22.636  25.281  1.00  0.00     0.261 C 
BRANCH  25  26
ATOM     26  O   UNL A   1      43.304  23.430  24.838  1.00  0.00    -0.460 OA
BRANCH  26  27
ATOM     27  C   UNL A   1      43.351  24.722  25.216  1.00  0.00     0.338 C 
ATOM     28  O   UNL A   1      44.220  25.535  24.962  1.00  0.00    -0.246 OA
BRANCH  27  29
ATOM     29  C   UNL A   1      42.187  25.011  26.066  1.00  0.00     0.060 A 
ATOM     30  C   UNL A   1      41.281  25.936  25.544  1.00  0.00     0.016 A 
ATOM     31  C   UNL A   1      42.274  24.723  27.432  1.00  0.00     0.016 A 
ATOM     32  C   UNL A   1      40.751  26.855  26.414  1.00  0.00     0.010 A 
ATOM     33  C   UNL A   1      41.782  25.661  28.298  1.00  0.00     0.010 A 
ATOM     34  C   UNL A   1      41.161  26.784  27.746  1.00  0.00    -0.014 A 
BRANCH  34  35
ATOM     35  C   UNL A   1      41.250  28.041  28.463  1.00  0.00     0.031 A 
ATOM     36  C   UNL A   1      42.424  28.879  28.179  1.00  0.00     0.074 A 
ATOM     37  C   UNL A   1      40.205  28.438  29.221  1.00  0.00     0.049 A 
ATOM     38  N   UNL A   1      43.283  29.359  29.016  1.00  0.00    -0.248 NA
ATOM     39  C   UNL A   1      42.713  29.171  26.769  1.00  0.00     0.031 C 
ATOM     40  C   UNL A   1      38.862  27.841  29.285  1.00  0.00     0.029 A 
ATOM     41  N   UNL A   1      40.088  29.542  30.004  1.00  0.00    -0.354 N 
ATOM     42  C   UNL A   1      44.142  30.139  28.252  1.00  0.00     0.074 A 
ATOM     43  C   UNL A   1      43.835  29.878  26.872  1.00  0.00     0.031 C 
ATOM     44  C   UNL A   1      38.020  28.707  29.892  1.00  0.00     0.029 A 
ATOM     45  C   UNL A   1      38.783  29.857  30.345  1.00  0.00     0.049 A 
ATOM     46  H   UNL A   1      40.862  30.071  30.304  1.00  0.00     0.167 HD
ATOM     47  C   UNL A   1      44.911  31.113  28.801  1.00  0.00     0.037 A 
ATOM     48  C   UNL A   1      38.353  31.030  30.867  1.00  0.00     0.037 A 
ATOM     49  C   UNL A   1      45.087  30.938  30.214  1.00  0.00     0.049 A 
ATOM     50  C   UNL A   1      39.540  31.754  31.391  1.00  0.00     0.074 A 
ATOM     51  C   UNL A   1      45.654  29.952  30.999  1.00  0.00     0.029 A 
ATOM     52  N   UNL A   1      44.349  31.716  31.070  1.00  0.00    -0.354 N 
ATOM     53  N   UNL A   1      40.225  31.394  32.440  1.00  0.00    -0.248 NA
ATOM     54  C   UNL A   1      40.219  32.677  30.492  1.00  0.00     0.031 C 
ATOM     55  C   UNL A   1      44.879  29.926  32.194  1.00  0.00     0.029 A 
ATOM     56  C   UNL A   1      43.886  30.898  32.070  1.00  0.00     0.049 A 
ATOM     57  H   UNL A   1      44.184  32.683  30.984  1.00  0.00     0.167 HD
ATOM     58  C   UNL A   1      41.540  31.721  32.137  1.00  0.00     0.074 A 
ATOM     59  C   UNL A   1      41.459  32.602  30.980  1.00  0.00     0.031 C 
ATOM     60  C   UNL A   1      42.582  31.023  32.677  1.00  0.00     0.037 A 
BRANCH  47  61
ATOM     61  C   UNL A   1      45.263  32.375  28.070  1.00  0.00     0.064 A 
ATOM     62  C   UNL A   1      44.285  33.362  27.867  1.00  0.00     0.173 A 
ATOM     63  C   UNL A   1      46.469  32.545  27.353  1.00  0.00     0.173 A 
ATOM     64  F   UNL A   1      43.085  33.266  28.458  1.00  0.00    -0.203 F 
ATOM     65  C   UNL A   1      44.497  34.433  26.994  1.00  0.00     0.198 A 
ATOM     66  C   UNL A   1      46.702  33.646  26.536  1.00  0.00     0.198 A 
ATOM     67  F   UNL A   1      47.422  31.602  27.338  1.00  0.00    -0.203 F 
ATOM     68  F   UNL A   1      43.502  35.296  26.751  1.00  0.00    -0.200 F 
ATOM     69  C   UNL A   1      45.706  34.579  26.338  1.00  0.00     0.200 A 
ATOM     70  F   UNL A   1      47.872  33.756  25.892  1.00  0.00    -0.200 F 
ATOM     71  F   UNL A   1      45.896  35.586  25.477  1.00  0.00    -0.200 F 
ENDBRANCH  47  61
BRANCH  48  72
ATOM     72  C   UNL A   1      37.042  31.684  30.655  1.00  0.00     0.064 A 
ATOM     73  C   UNL A   1      36.108  31.795  31.695  1.00  0.00     0.173 A 
ATOM     74  C   UNL A   1      36.769  32.424  29.487  1.00  0.00     0.173 A 
ATOM     75  F   UNL A   1      36.321  31.168  32.861  1.00  0.00    -0.203 F 
ATOM     76  C   UNL A   1      34.971  32.600  31.575  1.00  0.00     0.198 A 
ATOM     77  C   UNL A   1      35.626  33.213  29.360  1.00  0.00     0.198 A 
ATOM     78  F   UNL A   1      37.648  32.469  28.475  1.00  0.00    -0.203 F 
ATOM     79  F   UNL A   1      34.127  32.725  32.609  1.00  0.00    -0.200 F 
ATOM     80  C   UNL A   1      34.731  33.309  30.408  1.00  0.00     0.200 A 
ATOM     81  F   UNL A   1      35.427  33.920  28.239  1.00  0.00    -0.200 F 
ATOM     82  F   UNL A   1      33.665  34.115  30.310  1.00  0.00    -0.200 F 
ENDBRANCH  48  72
BRANCH  60  83
ATOM     83  C   UNL A   1      42.273  30.093  33.814  1.00  0.00     0.064 A 
ATOM     84  C   UNL A   1      41.818  28.775  33.627  1.00  0.00     0.173 A 
ATOM     85  C   UNL A   1      42.575  30.494  35.122  1.00  0.00     0.173 A 
ATOM     86  F   UNL A   1      41.616  28.288  32.396  1.00  0.00    -0.203 F 
ATOM     87  C   UNL A   1      41.627  27.918  34.708  1.00  0.00     0.198 A 
ATOM     88  C   UNL A   1      42.416  29.622  36.196  1.00  0.00     0.198 A 
ATOM     89  F   UNL A   1      43.074  31.718  35.351  1.00  0.00    -0.203 F 
ATOM     90  F   UNL A   1      41.181  26.669  34.505  1.00  0.00    -0.200 F 
ATOM     91  C   UNL A   1      41.930  28.341  35.991  1.00  0.00     0.200 A 
ATOM     92  F   UNL A   1      42.760  30.017  37.431  1.00  0.00    -0.200 F 
ATOM     93  F   UNL A   1      41.784  27.503  37.028  1.00  0.00    -0.200 F 
ENDBRANCH  60  83
ENDBRANCH  34  35
ENDBRANCH  27  29
ENDBRANCH  26  27
ENDBRANCH  25  26
ENDBRANCH  24  25
ENDBRANCH  23  24
ENDBRANCH  22  23
ENDBRANCH   1  22
TORSDOF 20
ENDMDL
MODEL 3
REMARK VINA RESULT:     -10.7      5.380      9.783
REMARK SMILES [H]/N=C1\C=CC2=NC(C(=O)OCCOCCOCCOCCOC(=O)c3ccc(-c4c5nc(c(-c6c(F)c(F)c(F)c(F)c6F)c6ccc([nH]6)c(-c6c(F)c(F)c(F)c(F)c6F)c6nc(c(-c7c(F)c(F)c(F)c(F)c7F)c7ccc4[nH]7)C=C6)C=C5)cc3)=C[C@@H]2C1
REMARK SMILES IDX 18 1 17 2 16 3 15 4 14 5 13 6 12 7 11 8 9 9 10 10 8 11 2 12
REMARK SMILES IDX 3 13 1 14 4 15 91 16 5 17 90 18 6 19 89 20 7 21 19 22 20 23
REMARK SMILES IDX 21 24 22 25 23 26 24 27 25 28 26 29 27 30 88 31 28 32 87 33
REMARK SMILES IDX 29 34 30 35 31 36 81 37 32 38 86 39 80 40 82 41 33 42 85 43
REMARK SMILES IDX 79 44 78 45 34 47 66 48 46 49 65 50 47 51 50 52 64 53 83 54
REMARK SMILES IDX 48 55 49 56 63 58 84 59 51 60 35 61 36 62 44 63 37 64 38 65
REMARK SMILES IDX 42 66 45 67 39 68 40 69 43 70 41 71 67 72 68 73 76 74 69 75
REMARK SMILES IDX 70 76 74 77 77 78 71 79 72 80 75 81 73 82 52 83 53 84 61 85
REMARK SMILES IDX 54 86 55 87 59 88 62 89 56 90 57 91 60 92 58 93
REMARK H PARENT 82 46 50 57
REMARK Flexibility Score: inf
ROOT
ATOM      1  C   UNL A   1      34.464  32.725  28.124  1.00  0.00     0.188 C 
ENDROOT
BRANCH   1   2
ATOM      2  O   UNL A   1      33.522  31.772  27.656  1.00  0.00    -0.377 OA
BRANCH   2   3
ATOM      3  C   UNL A   1      33.982  30.546  27.092  1.00  0.00     0.188 C 
BRANCH   3   4
ATOM      4  C   UNL A   1      33.012  29.395  26.738  1.00  0.00     0.188 C 
BRANCH   4   5
ATOM      5  O   UNL A   1      33.617  28.258  26.137  1.00  0.00    -0.376 OA
BRANCH   5   6
ATOM      6  C   UNL A   1      33.639  28.232  24.717  1.00  0.00     0.202 C 
BRANCH   6   7
ATOM      7  C   UNL A   1      33.235  26.882  24.109  1.00  0.00     0.261 C 
BRANCH   7   8
ATOM      8  O   UNL A   1      32.134  26.979  23.188  1.00  0.00    -0.459 OA
BRANCH   8   9
ATOM      9  C   UNL A   1      30.912  27.070  23.767  1.00  0.00     0.356 C 
ATOM     10  O   UNL A   1      30.435  26.278  24.565  1.00  0.00    -0.244 OA
BRANCH   9  11
ATOM     11  C   UNL A   1      30.286  28.371  23.412  1.00  0.00     0.145 C 
ATOM     12  N   UNL A   1      28.342  33.714  22.769  1.00  0.00    -0.305 NA
ATOM     13  C   UNL A   1      28.427  32.433  22.644  1.00  0.00     0.032 C 
ATOM     14  H   UNL A   1      28.061  34.266  22.003  1.00  0.00     0.187 HD
ATOM     15  C   UNL A   1      28.106  31.731  21.370  1.00  0.00     0.025 C 
ATOM     16  C   UNL A   1      28.862  31.594  23.836  1.00  0.00     0.069 C 
ATOM     17  C   UNL A   1      28.500  30.467  21.173  1.00  0.00     0.026 C 
ATOM     18  C   UNL A   1      29.913  30.636  23.325  1.00  0.00     0.069 C 
ATOM     19  C   UNL A   1      29.325  29.809  22.201  1.00  0.00     0.049 C 
ATOM     20  C   UNL A   1      30.389  29.485  24.149  1.00  0.00     0.019 C 
ATOM     21  N   UNL A   1      29.606  28.545  22.224  1.00  0.00    -0.245 NA
ENDBRANCH   9  11
ENDBRANCH   8   9
ENDBRANCH   7   8
ENDBRANCH   6   7
ENDBRANCH   5   6
ENDBRANCH   4   5
ENDBRANCH   3   4
ENDBRANCH   2   3
ENDBRANCH   1   2
BRANCH   1  22
ATOM     22  C   UNL A   1      33.975  33.893  29.009  1.00  0.00     0.188 C 
BRANCH  22  23
ATOM     23  O   UNL A   1      34.160  33.708  30.411  1.00  0.00    -0.376 OA
BRANCH  23  24
ATOM     24  C   UNL A   1      34.719  32.473  30.837  1.00  0.00     0.202 C 
BRANCH  24  25
ATOM     25  C   UNL A   1      36.173  32.612  31.287  1.00  0.00     0.261 C 
BRANCH  25  26
ATOM     26  O   UNL A   1      36.981  31.538  30.823  1.00  0.00    -0.460 OA
BRANCH  26  27
ATOM     27  C   UNL A   1      37.068  30.490  31.664  1.00  0.00     0.338 C 
ATOM     28  O   UNL A   1      36.997  30.510  32.879  1.00  0.00    -0.246 OA
BRANCH  27  29
ATOM     29  C   UNL A   1      37.330  29.274  30.882  1.00  0.00     0.060 A 
ATOM     30  C   UNL A   1      37.848  28.198  31.605  1.00  0.00     0.016 A 
ATOM     31  C   UNL A   1      37.471  29.393  29.495  1.00  0.00     0.016 A 
ATOM     32  C   UNL A   1      38.841  27.461  31.009  1.00  0.00     0.010 A 
ATOM     33  C   UNL A   1      38.488  28.689  28.911  1.00  0.00     0.010 A 
ATOM     34  C   UNL A   1      39.245  27.849  29.731  1.00  0.00    -0.014 A 
BRANCH  34  35
ATOM     35  C   UNL A   1      40.642  27.645  29.405  1.00  0.00     0.031 A 
ATOM     36  C   UNL A   1      41.003  26.337  28.839  1.00  0.00     0.074 A 
ATOM     37  C   UNL A   1      41.495  28.689  29.494  1.00  0.00     0.049 A 
ATOM     38  N   UNL A   1      41.894  25.503  29.261  1.00  0.00    -0.248 NA
ATOM     39  C   UNL A   1      40.224  25.869  27.685  1.00  0.00     0.031 C 
ATOM     40  C   UNL A   1      41.164  30.106  29.710  1.00  0.00     0.029 A 
ATOM     41  N   UNL A   1      42.837  28.717  29.284  1.00  0.00    -0.354 N 
ATOM     42  C   UNL A   1      41.892  24.466  28.337  1.00  0.00     0.074 A 
ATOM     43  C   UNL A   1      40.759  24.671  27.474  1.00  0.00     0.031 C 
ATOM     44  C   UNL A   1      42.240  30.864  29.409  1.00  0.00     0.029 A 
ATOM     45  C   UNL A   1      43.352  29.988  29.086  1.00  0.00     0.049 A 
ATOM     46  H   UNL A   1      43.395  27.906  29.274  1.00  0.00     0.167 HD
ATOM     47  C   UNL A   1      42.943  23.618  28.202  1.00  0.00     0.037 A 
ATOM     48  C   UNL A   1      44.575  30.287  28.588  1.00  0.00     0.037 A 
ATOM     49  C   UNL A   1      43.790  23.611  29.360  1.00  0.00     0.049 A 
ATOM     50  C   UNL A   1      45.412  29.063  28.678  1.00  0.00     0.074 A 
ATOM     51  C   UNL A   1      43.602  23.278  30.688  1.00  0.00     0.029 A 
ATOM     52  N   UNL A   1      44.972  24.305  29.314  1.00  0.00    -0.354 N 
ATOM     53  N   UNL A   1      45.853  28.546  29.790  1.00  0.00    -0.248 NA
ATOM     54  C   UNL A   1      45.426  28.168  27.529  1.00  0.00     0.031 C 
ATOM     55  C   UNL A   1      44.443  24.163  31.424  1.00  0.00     0.029 A 
ATOM     56  C   UNL A   1      45.095  24.982  30.502  1.00  0.00     0.049 A 
ATOM     57  H   UNL A   1      45.615  24.315  28.568  1.00  0.00     0.167 HD
ATOM     58  C   UNL A   1      45.827  27.174  29.583  1.00  0.00     0.074 A 
ATOM     59  C   UNL A   1      45.662  27.008  28.145  1.00  0.00     0.031 C 
ATOM     60  C   UNL A   1      45.658  26.306  30.623  1.00  0.00     0.037 A 
BRANCH  47  61
ATOM     61  C   UNL A   1      43.330  23.012  26.886  1.00  0.00     0.064 A 
ATOM     62  C   UNL A   1      43.074  21.653  26.639  1.00  0.00     0.173 A 
ATOM     63  C   UNL A   1      44.163  23.662  25.947  1.00  0.00     0.173 A 
ATOM     64  F   UNL A   1      42.341  20.930  27.498  1.00  0.00    -0.203 F 
ATOM     65  C   UNL A   1      43.627  20.992  25.539  1.00  0.00     0.198 A 
ATOM     66  C   UNL A   1      44.658  23.019  24.817  1.00  0.00     0.198 A 
ATOM     67  F   UNL A   1      44.608  24.912  26.143  1.00  0.00    -0.203 F 
ATOM     68  F   UNL A   1      43.440  19.674  25.395  1.00  0.00    -0.200 F 
ATOM     69  C   UNL A   1      44.408  21.677  24.625  1.00  0.00     0.200 A 
ATOM     70  F   UNL A   1      45.432  23.696  23.957  1.00  0.00    -0.200 F 
ATOM     71  F   UNL A   1      44.965  21.036  23.590  1.00  0.00    -0.200 F 
ENDBRANCH  47  61
BRANCH  48  72
ATOM     72  C   UNL A   1      44.950  31.458  27.764  1.00  0.00     0.064 A 
ATOM     73  C   UNL A   1      44.239  31.787  26.601  1.00  0.00     0.173 A 
ATOM     74  C   UNL A   1      45.870  32.420  28.228  1.00  0.00     0.173 A 
ATOM     75  F   UNL A   1      43.305  30.951  26.124  1.00  0.00    -0.203 F 
ATOM     76  C   UNL A   1      44.435  33.005  25.943  1.00  0.00     0.198 A 
ATOM     77  C   UNL A   1      46.078  33.628  27.562  1.00  0.00     0.198 A 
ATOM     78  F   UNL A   1      46.524  32.249  29.386  1.00  0.00    -0.203 F 
ATOM     79  F   UNL A   1      43.699  33.309  24.864  1.00  0.00    -0.200 F 
ATOM     80  C   UNL A   1      45.353  33.925  26.424  1.00  0.00     0.200 A 
ATOM     81  F   UNL A   1      46.944  34.522  28.060  1.00  0.00    -0.200 F 
ATOM     82  F   UNL A   1      45.509  35.111  25.819  1.00  0.00    -0.200 F 
ENDBRANCH  48  72
BRANCH  60  83
ATOM     83  C   UNL A   1      45.789  26.862  32.011  1.00  0.00     0.064 A 
ATOM     84  C   UNL A   1      44.715  27.437  32.714  1.00  0.00     0.173 A 
ATOM     85  C   UNL A   1      46.994  26.683  32.704  1.00  0.00     0.173 A 
ATOM     86  F   UNL A   1      43.504  27.537  32.151  1.00  0.00    -0.203 F 
ATOM     87  C   UNL A   1      44.860  27.861  34.032  1.00  0.00     0.198 A 
ATOM     88  C   UNL A   1      47.124  27.076  34.034  1.00  0.00     0.198 A 
ATOM     89  F   UNL A   1      48.031  26.080  32.104  1.00  0.00    -0.203 F 
ATOM     90  F   UNL A   1      43.823  28.419  34.677  1.00  0.00    -0.200 F 
ATOM     91  C   UNL A   1      46.062  27.676  34.693  1.00  0.00     0.200 A 
ATOM     92  F   UNL A   1      48.272  26.848  34.687  1.00  0.00    -0.200 F 
ATOM     93  F   UNL A   1      46.190  28.048  35.975  1.00  0.00    -0.200 F 
ENDBRANCH  60  83
ENDBRANCH  34  35
ENDBRANCH  27  29
ENDBRANCH  26  27
ENDBRANCH  25  26
ENDBRANCH  24  25
ENDBRANCH  23  24
ENDBRANCH  22  23
ENDBRANCH   1  22
TORSDOF 20
ENDMDL
