MODEL 1
REMARK VINA RESULT:     -11.6      0.000      0.000
REMARK SMILES COC(=O)c1ccc(NC(=O)[C@@H]2CC=CC[C@@H]2C(=O)OCCOCCOCCOCCOC(=O)c2ccc(-c3c4nc(c(-c5c(F)c(F)c(F)c(F)c5F)c5ccc([nH]5)c(-c5c(F)c(F)c(F)c(F)c5F)c5nc(c(-c6c(F)c(F)c(F)c(F)c6F)c6ccc3[nH]6)C=C5)C=C4)cc2)c(C)c1
REMARK SMILES IDX 25 1 24 2 23 3 22 4 21 5 20 6 18 7 19 8 17 9 12 10 13 11
REMARK SMILES IDX 14 12 16 13 15 14 10 15 9 16 11 18 8 19 5 20 6 21 100 22
REMARK SMILES IDX 7 23 98 24 99 25 3 26 4 27 2 28 1 29 26 30 27 31 28 32 29 33
REMARK SMILES IDX 30 34 31 35 32 36 33 37 34 38 35 39 36 40 97 41 37 42 96 43
REMARK SMILES IDX 38 44 39 45 40 46 90 47 41 48 95 49 89 50 91 51 42 52 94 53
REMARK SMILES IDX 88 54 87 55 43 57 75 58 55 59 74 60 56 61 59 62 73 63 92 64
REMARK SMILES IDX 57 65 58 66 72 68 93 69 60 70 44 71 45 72 53 73 46 74 47 75
REMARK SMILES IDX 51 76 54 77 48 78 49 79 52 80 50 81 76 82 77 83 85 84 78 85
REMARK SMILES IDX 79 86 83 87 86 88 80 89 81 90 84 91 82 92 61 93 62 94 70 95
REMARK SMILES IDX 63 96 64 97 68 98 71 99 65 100 66 101 69 102 67 103
REMARK H PARENT 9 17 91 56 59 67
REMARK Flexibility Score: inf
ROOT
ATOM      1  C   UNL A   1      35.263  31.337  28.257  1.00  0.00     0.188 C 
ENDROOT
BRANCH   1   2
ATOM      2  C   UNL A   1      35.395  29.941  27.616  1.00  0.00     0.188 C 
BRANCH   2   3
ATOM      3  O   UNL A   1      34.373  28.966  27.580  1.00  0.00    -0.376 OA
BRANCH   3   4
ATOM      4  C   UNL A   1      33.213  29.235  26.826  1.00  0.00     0.202 C 
BRANCH   4   5
ATOM      5  C   UNL A   1      33.072  28.748  25.404  1.00  0.00     0.261 C 
BRANCH   5   6
ATOM      6  O   UNL A   1      32.106  27.723  25.326  1.00  0.00    -0.463 OA
BRANCH   6   7
ATOM      7  C   UNL A   1      32.668  26.610  24.886  1.00  0.00     0.310 C 
ATOM      8  O   UNL A   1      33.843  26.337  25.105  1.00  0.00    -0.252 OA
BRANCH   7   9
ATOM      9  C   UNL A   1      31.652  25.653  24.312  1.00  0.00     0.116 C 
ATOM     10  C   UNL A   1      31.806  25.729  22.793  1.00  0.00     0.097 C 
ATOM     11  C   UNL A   1      31.204  27.090  22.347  1.00  0.00     0.041 C 
ATOM     12  C   UNL A   1      29.818  27.321  22.907  1.00  0.00    -0.030 C 
ATOM     13  C   UNL A   1      30.189  25.718  24.761  1.00  0.00     0.043 C 
ATOM     14  C   UNL A   1      29.354  26.685  23.991  1.00  0.00    -0.030 C 
BRANCH  10  15
ATOM     15  C   UNL A   1      33.287  25.549  22.388  1.00  0.00     0.228 C 
ATOM     16  N   UNL A   1      34.009  24.429  22.771  1.00  0.00    -0.326 N 
ATOM     17  H   UNL A   1      34.983  24.566  22.735  1.00  0.00     0.169 HD
ATOM     18  O   UNL A   1      33.895  26.464  21.822  1.00  0.00    -0.274 OA
BRANCH  16  19
ATOM     19  C   UNL A   1      33.646  23.134  23.203  1.00  0.00     0.044 A 
ATOM     20  C   UNL A   1      32.902  20.534  24.020  1.00  0.00     0.060 A 
ATOM     21  C   UNL A   1      32.254  21.134  22.954  1.00  0.00     0.018 A 
ATOM     22  C   UNL A   1      33.891  21.245  24.713  1.00  0.00     0.021 A 
ATOM     23  C   UNL A   1      32.674  22.388  22.518  1.00  0.00     0.027 A 
ATOM     24  C   UNL A   1      34.262  22.553  24.336  1.00  0.00    -0.027 A 
ATOM     25  C   UNL A   1      35.213  23.275  25.263  1.00  0.00     0.046 C 
BRANCH  20  26
ATOM     26  C   UNL A   1      32.477  19.166  24.414  1.00  0.00     0.337 C 
ATOM     27  O   UNL A   1      32.355  18.778  25.548  1.00  0.00    -0.246 OA
BRANCH  26  28
ATOM     28  O   UNL A   1      32.300  18.434  23.285  1.00  0.00    -0.465 OA
ATOM     29  C   UNL A   1      33.176  17.316  23.205  1.00  0.00     0.282 C 
ENDBRANCH  26  28
ENDBRANCH  20  26
ENDBRANCH  16  19
ENDBRANCH  10  15
ENDBRANCH   7   9
ENDBRANCH   6   7
ENDBRANCH   5   6
ENDBRANCH   4   5
ENDBRANCH   3   4
ENDBRANCH   2   3
ENDBRANCH   1   2
BRANCH   1  30
ATOM     30  O   UNL A   1      34.929  32.436  27.438  1.00  0.00    -0.377 OA
BRANCH  30  31
ATOM     31  C   UNL A   1      34.884  33.726  28.049  1.00  0.00     0.188 C 
BRANCH  31  32
ATOM     32  C   UNL A   1      33.555  34.367  28.427  1.00  0.00     0.188 C 
BRANCH  32  33
ATOM     33  O   UNL A   1      33.787  35.746  28.687  1.00  0.00    -0.376 OA
BRANCH  33  34
ATOM     34  C   UNL A   1      32.797  36.397  29.474  1.00  0.00     0.202 C 
BRANCH  34  35
ATOM     35  C   UNL A   1      32.763  35.913  30.929  1.00  0.00     0.261 C 
BRANCH  35  36
ATOM     36  O   UNL A   1      33.813  36.565  31.673  1.00  0.00    -0.460 OA
BRANCH  36  37
ATOM     37  C   UNL A   1      34.215  35.926  32.808  1.00  0.00     0.338 C 
ATOM     38  O   UNL A   1      34.336  36.450  33.903  1.00  0.00    -0.246 OA
BRANCH  37  39
ATOM     39  C   UNL A   1      34.777  34.585  32.465  1.00  0.00     0.060 A 
ATOM     40  C   UNL A   1      34.626  33.496  33.339  1.00  0.00     0.016 A 
ATOM     41  C   UNL A   1      35.728  34.510  31.464  1.00  0.00     0.016 A 
ATOM     42  C   UNL A   1      35.559  32.436  33.336  1.00  0.00     0.010 A 
ATOM     43  C   UNL A   1      36.687  33.518  31.541  1.00  0.00     0.010 A 
ATOM     44  C   UNL A   1      36.674  32.494  32.505  1.00  0.00    -0.014 A 
BRANCH  44  45
ATOM     45  C   UNL A   1      37.931  31.694  32.666  1.00  0.00     0.031 A 
ATOM     46  C   UNL A   1      38.064  30.381  31.903  1.00  0.00     0.074 A 
ATOM     47  C   UNL A   1      39.036  32.343  33.148  1.00  0.00     0.049 A 
ATOM     48  N   UNL A   1      39.112  29.620  31.862  1.00  0.00    -0.248 NA
ATOM     49  C   UNL A   1      36.987  29.800  31.090  1.00  0.00     0.031 C 
ATOM     50  C   UNL A   1      40.415  32.231  32.674  1.00  0.00     0.029 A 
ATOM     51  N   UNL A   1      39.161  33.379  34.086  1.00  0.00    -0.354 N 
ATOM     52  C   UNL A   1      39.005  28.761  30.757  1.00  0.00     0.074 A 
ATOM     53  C   UNL A   1      37.611  28.829  30.410  1.00  0.00     0.031 C 
ATOM     54  C   UNL A   1      41.247  33.054  33.319  1.00  0.00     0.029 A 
ATOM     55  C   UNL A   1      40.526  33.504  34.456  1.00  0.00     0.049 A 
ATOM     56  H   UNL A   1      38.423  33.932  34.431  1.00  0.00     0.167 HD
ATOM     57  C   UNL A   1      40.142  28.253  30.160  1.00  0.00     0.037 A 
ATOM     58  C   UNL A   1      40.937  33.214  35.724  1.00  0.00     0.037 A 
ATOM     59  C   UNL A   1      41.365  28.635  30.917  1.00  0.00     0.049 A 
ATOM     60  C   UNL A   1      41.635  31.847  35.825  1.00  0.00     0.074 A 
ATOM     61  C   UNL A   1      42.624  29.117  30.590  1.00  0.00     0.029 A 
ATOM     62  N   UNL A   1      41.325  28.684  32.310  1.00  0.00    -0.354 N 
ATOM     63  N   UNL A   1      41.795  31.030  34.803  1.00  0.00    -0.248 NA
ATOM     64  C   UNL A   1      42.216  31.273  37.035  1.00  0.00     0.031 C 
ATOM     65  C   UNL A   1      43.335  29.395  31.795  1.00  0.00     0.029 A 
ATOM     66  C   UNL A   1      42.517  29.080  32.864  1.00  0.00     0.049 A 
ATOM     67  H   UNL A   1      40.526  28.458  32.840  1.00  0.00     0.167 HD
ATOM     68  C   UNL A   1      42.433  29.875  35.171  1.00  0.00     0.074 A 
ATOM     69  C   UNL A   1      42.632  30.064  36.602  1.00  0.00     0.031 C 
ATOM     70  C   UNL A   1      42.740  28.865  34.287  1.00  0.00     0.037 A 
BRANCH  57  71
ATOM     71  C   UNL A   1      40.263  27.571  28.757  1.00  0.00     0.064 A 
ATOM     72  C   UNL A   1      39.780  26.248  28.548  1.00  0.00     0.173 A 
ATOM     73  C   UNL A   1      40.906  28.099  27.612  1.00  0.00     0.173 A 
ATOM     74  F   UNL A   1      39.040  25.623  29.473  1.00  0.00    -0.203 F 
ATOM     75  C   UNL A   1      40.002  25.508  27.370  1.00  0.00     0.198 A 
ATOM     76  C   UNL A   1      41.069  27.381  26.408  1.00  0.00     0.198 A 
ATOM     77  F   UNL A   1      41.429  29.325  27.593  1.00  0.00    -0.203 F 
ATOM     78  F   UNL A   1      39.574  24.239  27.286  1.00  0.00    -0.200 F 
ATOM     79  C   UNL A   1      40.645  26.077  26.296  1.00  0.00     0.200 A 
ATOM     80  F   UNL A   1      41.657  27.973  25.356  1.00  0.00    -0.200 F 
ATOM     81  F   UNL A   1      40.834  25.387  25.161  1.00  0.00    -0.200 F 
ENDBRANCH  57  71
BRANCH  58  82
ATOM     82  C   UNL A   1      40.117  34.077  36.648  1.00  0.00     0.064 A 
ATOM     83  C   UNL A   1      39.295  33.292  37.511  1.00  0.00     0.173 A 
ATOM     84  C   UNL A   1      40.741  35.194  37.227  1.00  0.00     0.173 A 
ATOM     85  F   UNL A   1      38.660  32.214  37.017  1.00  0.00    -0.203 F 
ATOM     86  C   UNL A   1      39.406  33.396  38.900  1.00  0.00     0.198 A 
ATOM     87  C   UNL A   1      40.803  35.324  38.625  1.00  0.00     0.198 A 
ATOM     88  F   UNL A   1      41.526  35.981  36.477  1.00  0.00    -0.203 F 
ATOM     89  F   UNL A   1      38.888  32.439  39.688  1.00  0.00    -0.200 F 
ATOM     90  C   UNL A   1      40.206  34.380  39.453  1.00  0.00     0.200 A 
ATOM     91  F   UNL A   1      41.595  36.257  39.173  1.00  0.00    -0.200 F 
ATOM     92  F   UNL A   1      40.493  34.351  40.764  1.00  0.00    -0.200 F 
ENDBRANCH  58  82
BRANCH  70  93
ATOM     93  C   UNL A   1      43.249  27.481  34.653  1.00  0.00     0.064 A 
ATOM     94  C   UNL A   1      44.599  27.155  34.780  1.00  0.00     0.173 A 
ATOM     95  C   UNL A   1      42.347  26.398  34.871  1.00  0.00     0.173 A 
ATOM     96  F   UNL A   1      45.553  28.000  34.369  1.00  0.00    -0.203 F 
ATOM     97  C   UNL A   1      45.009  25.919  35.288  1.00  0.00     0.198 A 
ATOM     98  C   UNL A   1      42.762  25.147  35.312  1.00  0.00     0.198 A 
ATOM     99  F   UNL A   1      41.027  26.505  34.680  1.00  0.00    -0.203 F 
ATOM    100  F   UNL A   1      46.313  25.697  35.506  1.00  0.00    -0.200 F 
ATOM    101  C   UNL A   1      44.091  24.924  35.574  1.00  0.00     0.200 A 
ATOM    102  F   UNL A   1      41.858  24.174  35.501  1.00  0.00    -0.200 F 
ATOM    103  F   UNL A   1      44.488  23.752  36.083  1.00  0.00    -0.200 F 
ENDBRANCH  70  93
ENDBRANCH  44  45
ENDBRANCH  37  39
ENDBRANCH  36  37
ENDBRANCH  35  36
ENDBRANCH  34  35
ENDBRANCH  33  34
ENDBRANCH  32  33
ENDBRANCH  31  32
ENDBRANCH  30  31
ENDBRANCH   1  30
TORSDOF 24
ENDMDL
MODEL 2
REMARK VINA RESULT:     -10.1      1.474      2.513
REMARK SMILES COC(=O)c1ccc(NC(=O)[C@@H]2CC=CC[C@@H]2C(=O)OCCOCCOCCOCCOC(=O)c2ccc(-c3c4nc(c(-c5c(F)c(F)c(F)c(F)c5F)c5ccc([nH]5)c(-c5c(F)c(F)c(F)c(F)c5F)c5nc(c(-c6c(F)c(F)c(F)c(F)c6F)c6ccc3[nH]6)C=C5)C=C4)cc2)c(C)c1
REMARK SMILES IDX 25 1 24 2 23 3 22 4 21 5 20 6 18 7 19 8 17 9 12 10 13 11
REMARK SMILES IDX 14 12 16 13 15 14 10 15 9 16 11 18 8 19 5 20 6 21 100 22
REMARK SMILES IDX 7 23 98 24 99 25 3 26 4 27 2 28 1 29 26 30 27 31 28 32 29 33
REMARK SMILES IDX 30 34 31 35 32 36 33 37 34 38 35 39 36 40 97 41 37 42 96 43
REMARK SMILES IDX 38 44 39 45 40 46 90 47 41 48 95 49 89 50 91 51 42 52 94 53
REMARK SMILES IDX 88 54 87 55 43 57 75 58 55 59 74 60 56 61 59 62 73 63 92 64
REMARK SMILES IDX 57 65 58 66 72 68 93 69 60 70 44 71 45 72 53 73 46 74 47 75
REMARK SMILES IDX 51 76 54 77 48 78 49 79 52 80 50 81 76 82 77 83 85 84 78 85
REMARK SMILES IDX 79 86 83 87 86 88 80 89 81 90 84 91 82 92 61 93 62 94 70 95
REMARK SMILES IDX 63 96 64 97 68 98 71 99 65 100 66 101 69 102 67 103
REMARK H PARENT 9 17 91 56 59 67
REMARK Flexibility Score: inf
ROOT
ATOM      1  C   UNL A   1      34.647  31.539  27.750  1.00  0.00     0.188 C 
ENDROOT
BRANCH   1   2
ATOM      2  C   UNL A   1      33.253  31.003  27.370  1.00  0.00     0.188 C 
BRANCH   2   3
ATOM      3  O   UNL A   1      32.907  29.637  27.280  1.00  0.00    -0.376 OA
BRANCH   3   4
ATOM      4  C   UNL A   1      33.864  28.733  26.776  1.00  0.00     0.202 C 
BRANCH   4   5
ATOM      5  C   UNL A   1      33.762  28.183  25.374  1.00  0.00     0.261 C 
BRANCH   5   6
ATOM      6  O   UNL A   1      32.670  27.296  25.268  1.00  0.00    -0.463 OA
BRANCH   6   7
ATOM      7  C   UNL A   1      33.101  26.094  24.926  1.00  0.00     0.310 C 
ATOM      8  O   UNL A   1      34.274  25.758  25.047  1.00  0.00    -0.252 OA
BRANCH   7   9
ATOM      9  C   UNL A   1      31.963  25.156  24.606  1.00  0.00     0.116 C 
ATOM     10  C   UNL A   1      31.794  25.193  23.088  1.00  0.00     0.097 C 
ATOM     11  C   UNL A   1      31.145  26.562  22.740  1.00  0.00     0.041 C 
ATOM     12  C   UNL A   1      29.916  26.848  23.573  1.00  0.00    -0.030 C 
ATOM     13  C   UNL A   1      30.630  25.276  25.352  1.00  0.00     0.043 C 
ATOM     14  C   UNL A   1      29.676  26.250  24.748  1.00  0.00    -0.030 C 
BRANCH  10  15
ATOM     15  C   UNL A   1      33.150  24.959  22.384  1.00  0.00     0.228 C 
ATOM     16  N   UNL A   1      33.893  23.811  22.612  1.00  0.00    -0.326 N 
ATOM     17  H   UNL A   1      34.843  23.911  22.374  1.00  0.00     0.169 HD
ATOM     18  O   UNL A   1      33.662  25.853  21.701  1.00  0.00    -0.274 OA
BRANCH  16  19
ATOM     19  C   UNL A   1      33.578  22.528  23.115  1.00  0.00     0.044 A 
ATOM     20  C   UNL A   1      32.922  19.954  24.076  1.00  0.00     0.060 A 
ATOM     21  C   UNL A   1      32.110  20.568  23.139  1.00  0.00     0.018 A 
ATOM     22  C   UNL A   1      34.040  20.639  24.573  1.00  0.00     0.021 A 
ATOM     23  C   UNL A   1      32.478  21.808  22.623  1.00  0.00     0.027 A 
ATOM     24  C   UNL A   1      34.373  21.934  24.123  1.00  0.00    -0.027 A 
ATOM     25  C   UNL A   1      35.494  22.632  24.856  1.00  0.00     0.046 C 
BRANCH  20  26
ATOM     26  C   UNL A   1      32.538  18.600  24.553  1.00  0.00     0.337 C 
ATOM     27  O   UNL A   1      32.287  18.314  25.695  1.00  0.00    -0.246 OA
BRANCH  26  28
ATOM     28  O   UNL A   1      32.569  17.752  23.494  1.00  0.00    -0.465 OA
ATOM     29  C   UNL A   1      33.678  16.863  23.526  1.00  0.00     0.282 C 
ENDBRANCH  26  28
ENDBRANCH  20  26
ENDBRANCH  16  19
ENDBRANCH  10  15
ENDBRANCH   7   9
ENDBRANCH   6   7
ENDBRANCH   5   6
ENDBRANCH   4   5
ENDBRANCH   3   4
ENDBRANCH   2   3
ENDBRANCH   1   2
BRANCH   1  30
ATOM     30  O   UNL A   1      34.756  32.837  28.293  1.00  0.00    -0.377 OA
BRANCH  30  31
ATOM     31  C   UNL A   1      33.943  33.862  27.722  1.00  0.00     0.188 C 
BRANCH  31  32
ATOM     32  C   UNL A   1      34.161  35.326  28.082  1.00  0.00     0.188 C 
BRANCH  32  33
ATOM     33  O   UNL A   1      34.231  35.427  29.500  1.00  0.00    -0.376 OA
BRANCH  33  34
ATOM     34  C   UNL A   1      32.986  35.345  30.183  1.00  0.00     0.202 C 
BRANCH  34  35
ATOM     35  C   UNL A   1      33.109  35.556  31.697  1.00  0.00     0.261 C 
BRANCH  35  36
ATOM     36  O   UNL A   1      33.768  34.415  32.285  1.00  0.00    -0.460 OA
BRANCH  36  37
ATOM     37  C   UNL A   1      35.096  34.572  32.546  1.00  0.00     0.338 C 
ATOM     38  O   UNL A   1      35.614  35.596  32.960  1.00  0.00    -0.246 OA
BRANCH  37  39
ATOM     39  C   UNL A   1      35.867  33.429  31.971  1.00  0.00     0.060 A 
ATOM     40  C   UNL A   1      35.603  32.108  32.370  1.00  0.00     0.016 A 
ATOM     41  C   UNL A   1      37.055  33.703  31.318  1.00  0.00     0.016 A 
ATOM     42  C   UNL A   1      36.610  31.120  32.298  1.00  0.00     0.010 A 
ATOM     43  C   UNL A   1      38.057  32.752  31.347  1.00  0.00     0.010 A 
ATOM     44  C   UNL A   1      37.894  31.464  31.888  1.00  0.00    -0.014 A 
BRANCH  44  45
ATOM     45  C   UNL A   1      39.139  30.669  32.141  1.00  0.00     0.031 A 
ATOM     46  C   UNL A   1      39.382  29.410  31.315  1.00  0.00     0.074 A 
ATOM     47  C   UNL A   1      40.170  31.297  32.787  1.00  0.00     0.049 A 
ATOM     48  N   UNL A   1      40.441  28.665  31.346  1.00  0.00    -0.248 NA
ATOM     49  C   UNL A   1      38.415  28.873  30.349  1.00  0.00     0.031 C 
ATOM     50  C   UNL A   1      41.595  31.231  32.468  1.00  0.00     0.029 A 
ATOM     51  N   UNL A   1      40.168  32.271  33.798  1.00  0.00    -0.354 N 
ATOM     52  C   UNL A   1      40.476  27.880  30.184  1.00  0.00     0.074 A 
ATOM     53  C   UNL A   1      39.130  27.955  29.684  1.00  0.00     0.031 C 
ATOM     54  C   UNL A   1      42.334  32.019  33.256  1.00  0.00     0.029 A 
ATOM     55  C   UNL A   1      41.480  32.385  34.329  1.00  0.00     0.049 A 
ATOM     56  H   UNL A   1      39.385  32.791  34.091  1.00  0.00     0.167 HD
ATOM     57  C   UNL A   1      41.683  27.425  29.690  1.00  0.00     0.037 A 
ATOM     58  C   UNL A   1      41.749  32.017  35.615  1.00  0.00     0.037 A 
ATOM     59  C   UNL A   1      42.805  27.769  30.605  1.00  0.00     0.049 A 
ATOM     60  C   UNL A   1      42.455  30.654  35.708  1.00  0.00     0.074 A 
ATOM     61  C   UNL A   1      44.084  28.285  30.457  1.00  0.00     0.029 A 
ATOM     62  N   UNL A   1      42.605  27.726  31.984  1.00  0.00    -0.354 N 
ATOM     63  N   UNL A   1      42.745  29.908  34.660  1.00  0.00    -0.248 NA
ATOM     64  C   UNL A   1      42.904  30.008  36.937  1.00  0.00     0.031 C 
ATOM     65  C   UNL A   1      44.648  28.491  31.751  1.00  0.00     0.029 A 
ATOM     66  C   UNL A   1      43.720  28.097  32.696  1.00  0.00     0.049 A 
ATOM     67  H   UNL A   1      41.756  27.457  32.404  1.00  0.00     0.167 HD
ATOM     68  C   UNL A   1      43.358  28.738  35.025  1.00  0.00     0.074 A 
ATOM     69  C   UNL A   1      43.390  28.835  36.478  1.00  0.00     0.031 C 
ATOM     70  C   UNL A   1      43.783  27.791  34.119  1.00  0.00     0.037 A 
BRANCH  57  71
ATOM     71  C   UNL A   1      41.976  26.837  28.269  1.00  0.00     0.064 A 
ATOM     72  C   UNL A   1      42.087  27.693  27.138  1.00  0.00     0.173 A 
ATOM     73  C   UNL A   1      42.069  25.468  27.923  1.00  0.00     0.173 A 
ATOM     74  F   UNL A   1      42.141  29.025  27.275  1.00  0.00    -0.203 F 
ATOM     75  C   UNL A   1      42.180  27.232  25.810  1.00  0.00     0.198 A 
ATOM     76  C   UNL A   1      42.231  25.008  26.599  1.00  0.00     0.198 A 
ATOM     77  F   UNL A   1      41.992  24.498  28.834  1.00  0.00    -0.203 F 
ATOM     78  F   UNL A   1      42.208  28.111  24.796  1.00  0.00    -0.200 F 
ATOM     79  C   UNL A   1      42.257  25.886  25.540  1.00  0.00     0.200 A 
ATOM     80  F   UNL A   1      42.351  23.692  26.364  1.00  0.00    -0.200 F 
ATOM     81  F   UNL A   1      42.375  25.441  24.280  1.00  0.00    -0.200 F 
ENDBRANCH  57  71
BRANCH  58  82
ATOM     82  C   UNL A   1      40.813  32.809  36.491  1.00  0.00     0.064 A 
ATOM     83  C   UNL A   1      41.012  34.214  36.343  1.00  0.00     0.173 A 
ATOM     84  C   UNL A   1      39.479  32.374  36.586  1.00  0.00     0.173 A 
ATOM     85  F   UNL A   1      42.264  34.697  36.257  1.00  0.00    -0.203 F 
ATOM     86  C   UNL A   1      39.968  35.050  35.936  1.00  0.00     0.198 A 
ATOM     87  C   UNL A   1      38.429  33.236  36.228  1.00  0.00     0.198 A 
ATOM     88  F   UNL A   1      39.214  31.068  36.729  1.00  0.00    -0.203 F 
ATOM     89  F   UNL A   1      40.236  36.285  35.481  1.00  0.00    -0.200 F 
ATOM     90  C   UNL A   1      38.686  34.542  35.827  1.00  0.00     0.200 A 
ATOM     91  F   UNL A   1      37.186  32.751  36.094  1.00  0.00    -0.200 F 
ATOM     92  F   UNL A   1      37.727  35.269  35.231  1.00  0.00    -0.200 F 
ENDBRANCH  58  82
BRANCH  70  93
ATOM     93  C   UNL A   1      44.271  26.392  34.451  1.00  0.00     0.064 A 
ATOM     94  C   UNL A   1      43.433  25.341  34.821  1.00  0.00     0.173 A 
ATOM     95  C   UNL A   1      45.660  26.071  34.427  1.00  0.00     0.173 A 
ATOM     96  F   UNL A   1      42.146  25.559  35.120  1.00  0.00    -0.203 F 
ATOM     97  C   UNL A   1      43.909  24.033  34.946  1.00  0.00     0.198 A 
ATOM     98  C   UNL A   1      46.141  24.781  34.618  1.00  0.00     0.198 A 
ATOM     99  F   UNL A   1      46.612  26.986  34.205  1.00  0.00    -0.203 F 
ATOM    100  F   UNL A   1      43.044  23.037  35.183  1.00  0.00    -0.200 F 
ATOM    101  C   UNL A   1      45.258  23.749  34.823  1.00  0.00     0.200 A 
ATOM    102  F   UNL A   1      47.461  24.549  34.576  1.00  0.00    -0.200 F 
ATOM    103  F   UNL A   1      45.705  22.491  34.919  1.00  0.00    -0.200 F 
ENDBRANCH  70  93
ENDBRANCH  44  45
ENDBRANCH  37  39
ENDBRANCH  36  37
ENDBRANCH  35  36
ENDBRANCH  34  35
ENDBRANCH  33  34
ENDBRANCH  32  33
ENDBRANCH  31  32
ENDBRANCH  30  31
ENDBRANCH   1  30
TORSDOF 24
ENDMDL
MODEL 3
REMARK VINA RESULT:     -10.1      1.620      2.532
REMARK SMILES COC(=O)c1ccc(NC(=O)[C@@H]2CC=CC[C@@H]2C(=O)OCCOCCOCCOCCOC(=O)c2ccc(-c3c4nc(c(-c5c(F)c(F)c(F)c(F)c5F)c5ccc([nH]5)c(-c5c(F)c(F)c(F)c(F)c5F)c5nc(c(-c6c(F)c(F)c(F)c(F)c6F)c6ccc3[nH]6)C=C5)C=C4)cc2)c(C)c1
REMARK SMILES IDX 25 1 24 2 23 3 22 4 21 5 20 6 18 7 19 8 17 9 12 10 13 11
REMARK SMILES IDX 14 12 16 13 15 14 10 15 9 16 11 18 8 19 5 20 6 21 100 22
REMARK SMILES IDX 7 23 98 24 99 25 3 26 4 27 2 28 1 29 26 30 27 31 28 32 29 33
REMARK SMILES IDX 30 34 31 35 32 36 33 37 34 38 35 39 36 40 97 41 37 42 96 43
REMARK SMILES IDX 38 44 39 45 40 46 90 47 41 48 95 49 89 50 91 51 42 52 94 53
REMARK SMILES IDX 88 54 87 55 43 57 75 58 55 59 74 60 56 61 59 62 73 63 92 64
REMARK SMILES IDX 57 65 58 66 72 68 93 69 60 70 44 71 45 72 53 73 46 74 47 75
REMARK SMILES IDX 51 76 54 77 48 78 49 79 52 80 50 81 76 82 77 83 85 84 78 85
REMARK SMILES IDX 79 86 83 87 86 88 80 89 81 90 84 91 82 92 61 93 62 94 70 95
REMARK SMILES IDX 63 96 64 97 68 98 71 99 65 100 66 101 69 102 67 103
REMARK H PARENT 9 17 91 56 59 67
REMARK Flexibility Score: inf
ROOT
ATOM      1  C   UNL A   1      31.583  32.724  26.748  1.00  0.00     0.188 C 
ENDROOT
BRANCH   1   2
ATOM      2  C   UNL A   1      31.966  31.238  26.593  1.00  0.00     0.188 C 
BRANCH   2   3
ATOM      3  O   UNL A   1      32.867  30.542  27.429  1.00  0.00    -0.376 OA
BRANCH   3   4
ATOM      4  C   UNL A   1      33.783  29.651  26.833  1.00  0.00     0.202 C 
BRANCH   4   5
ATOM      5  C   UNL A   1      33.586  28.156  26.910  1.00  0.00     0.261 C 
BRANCH   5   6
ATOM      6  O   UNL A   1      33.230  27.638  25.648  1.00  0.00    -0.463 OA
BRANCH   6   7
ATOM      7  C   UNL A   1      31.913  27.603  25.534  1.00  0.00     0.310 C 
ATOM      8  O   UNL A   1      31.173  27.464  26.502  1.00  0.00    -0.252 OA
BRANCH   7   9
ATOM      9  C   UNL A   1      31.456  27.981  24.146  1.00  0.00     0.116 C 
ATOM     10  C   UNL A   1      31.116  26.670  23.438  1.00  0.00     0.097 C 
ATOM     11  C   UNL A   1      32.464  25.968  23.115  1.00  0.00     0.041 C 
ATOM     12  C   UNL A   1      33.443  26.888  22.421  1.00  0.00    -0.030 C 
ATOM     13  C   UNL A   1      32.306  28.917  23.280  1.00  0.00     0.043 C 
ATOM     14  C   UNL A   1      33.359  28.224  22.482  1.00  0.00    -0.030 C 
BRANCH  10  15
ATOM     15  C   UNL A   1      30.168  25.812  24.308  1.00  0.00     0.228 C 
ATOM     16  N   UNL A   1      30.567  24.584  24.813  1.00  0.00    -0.326 N 
ATOM     17  H   UNL A   1      29.811  24.007  25.068  1.00  0.00     0.169 HD
ATOM     18  O   UNL A   1      28.989  26.146  24.462  1.00  0.00    -0.274 OA
BRANCH  16  19
ATOM     19  C   UNL A   1      31.825  23.983  25.040  1.00  0.00     0.044 A 
ATOM     20  C   UNL A   1      34.340  22.797  25.543  1.00  0.00     0.060 A 
ATOM     21  C   UNL A   1      33.903  23.848  26.330  1.00  0.00     0.018 A 
ATOM     22  C   UNL A   1      33.546  22.363  24.472  1.00  0.00     0.021 A 
ATOM     23  C   UNL A   1      32.634  24.381  26.115  1.00  0.00     0.027 A 
ATOM     24  C   UNL A   1      32.297  22.956  24.189  1.00  0.00    -0.027 A 
ATOM     25  C   UNL A   1      31.619  22.518  22.912  1.00  0.00     0.046 C 
BRANCH  20  26
ATOM     26  C   UNL A   1      35.668  22.205  25.844  1.00  0.00     0.337 C 
ATOM     27  O   UNL A   1      35.960  21.046  25.695  1.00  0.00    -0.246 OA
BRANCH  26  28
ATOM     28  O   UNL A   1      36.463  23.180  26.352  1.00  0.00    -0.465 OA
ATOM     29  C   UNL A   1      37.461  23.617  25.438  1.00  0.00     0.282 C 
ENDBRANCH  26  28
ENDBRANCH  20  26
ENDBRANCH  16  19
ENDBRANCH  10  15
ENDBRANCH   7   9
ENDBRANCH   6   7
ENDBRANCH   5   6
ENDBRANCH   4   5
ENDBRANCH   3   4
ENDBRANCH   2   3
ENDBRANCH   1   2
BRANCH   1  30
ATOM     30  O   UNL A   1      32.118  33.458  27.828  1.00  0.00    -0.377 OA
BRANCH  30  31
ATOM     31  C   UNL A   1      33.477  33.886  27.726  1.00  0.00     0.188 C 
BRANCH  31  32
ATOM     32  C   UNL A   1      33.945  35.171  28.399  1.00  0.00     0.188 C 
BRANCH  32  33
ATOM     33  O   UNL A   1      32.911  35.615  29.270  1.00  0.00    -0.376 OA
BRANCH  33  34
ATOM     34  C   UNL A   1      33.141  36.867  29.905  1.00  0.00     0.202 C 
BRANCH  34  35
ATOM     35  C   UNL A   1      33.143  36.779  31.437  1.00  0.00     0.261 C 
BRANCH  35  36
ATOM     36  O   UNL A   1      34.227  35.928  31.863  1.00  0.00    -0.460 OA
BRANCH  36  37
ATOM     37  C   UNL A   1      33.895  34.627  32.098  1.00  0.00     0.338 C 
ATOM     38  O   UNL A   1      33.061  34.249  32.904  1.00  0.00    -0.246 OA
BRANCH  37  39
ATOM     39  C   UNL A   1      34.900  33.722  31.463  1.00  0.00     0.060 A 
ATOM     40  C   UNL A   1      34.707  32.331  31.443  1.00  0.00     0.016 A 
ATOM     41  C   UNL A   1      36.164  34.224  31.208  1.00  0.00     0.016 A 
ATOM     42  C   UNL A   1      35.811  31.452  31.375  1.00  0.00     0.010 A 
ATOM     43  C   UNL A   1      37.237  33.354  31.243  1.00  0.00     0.010 A 
ATOM     44  C   UNL A   1      37.106  31.961  31.389  1.00  0.00    -0.014 A 
BRANCH  44  45
ATOM     45  C   UNL A   1      38.347  31.193  31.731  1.00  0.00     0.031 A 
ATOM     46  C   UNL A   1      38.652  29.915  30.958  1.00  0.00     0.074 A 
ATOM     47  C   UNL A   1      39.333  31.856  32.412  1.00  0.00     0.049 A 
ATOM     48  N   UNL A   1      39.718  29.188  31.067  1.00  0.00    -0.248 NA
ATOM     49  C   UNL A   1      37.745  29.334  29.958  1.00  0.00     0.031 C 
ATOM     50  C   UNL A   1      40.774  31.803  32.170  1.00  0.00     0.029 A 
ATOM     51  N   UNL A   1      39.264  32.859  33.391  1.00  0.00    -0.354 N 
ATOM     52  C   UNL A   1      39.826  28.369  29.932  1.00  0.00     0.074 A 
ATOM     53  C   UNL A   1      38.507  28.408  29.360  1.00  0.00     0.031 C 
ATOM     54  C   UNL A   1      41.459  32.625  32.972  1.00  0.00     0.029 A 
ATOM     55  C   UNL A   1      40.544  33.009  33.987  1.00  0.00     0.049 A 
ATOM     56  H   UNL A   1      38.460  33.375  33.626  1.00  0.00     0.167 HD
ATOM     57  C   UNL A   1      41.064  27.918  29.516  1.00  0.00     0.037 A 
ATOM     58  C   UNL A   1      40.749  32.684  35.295  1.00  0.00     0.037 A 
ATOM     59  C   UNL A   1      42.130  28.308  30.479  1.00  0.00     0.049 A 
ATOM     60  C   UNL A   1      41.469  31.334  35.466  1.00  0.00     0.074 A 
ATOM     61  C   UNL A   1      43.408  28.838  30.382  1.00  0.00     0.029 A 
ATOM     62  N   UNL A   1      41.858  28.301  31.846  1.00  0.00    -0.354 N 
ATOM     63  N   UNL A   1      41.825  30.563  34.459  1.00  0.00    -0.248 NA
ATOM     64  C   UNL A   1      41.861  30.733  36.736  1.00  0.00     0.031 C 
ATOM     65  C   UNL A   1      43.899  29.091  31.698  1.00  0.00     0.029 A 
ATOM     66  C   UNL A   1      42.928  28.711  32.604  1.00  0.00     0.049 A 
ATOM     67  H   UNL A   1      40.991  28.032  32.228  1.00  0.00     0.167 HD
ATOM     68  C   UNL A   1      42.434  29.414  34.890  1.00  0.00     0.074 A 
ATOM     69  C   UNL A   1      42.387  29.554  36.339  1.00  0.00     0.031 C 
ATOM     70  C   UNL A   1      42.920  28.448  34.037  1.00  0.00     0.037 A 
BRANCH  57  71
ATOM     71  C   UNL A   1      41.439  27.294  28.132  1.00  0.00     0.064 A 
ATOM     72  C   UNL A   1      41.713  25.903  28.012  1.00  0.00     0.173 A 
ATOM     73  C   UNL A   1      41.637  27.991  26.916  1.00  0.00     0.173 A 
ATOM     74  F   UNL A   1      41.470  25.056  29.022  1.00  0.00    -0.203 F 
ATOM     75  C   UNL A   1      42.218  25.299  26.844  1.00  0.00     0.198 A 
ATOM     76  C   UNL A   1      42.080  27.373  25.726  1.00  0.00     0.198 A 
ATOM     77  F   UNL A   1      41.435  29.304  26.808  1.00  0.00    -0.203 F 
ATOM     78  F   UNL A   1      42.517  23.991  26.842  1.00  0.00    -0.200 F 
ATOM     79  C   UNL A   1      42.399  26.035  25.696  1.00  0.00     0.200 A 
ATOM     80  F   UNL A   1      42.202  28.102  24.606  1.00  0.00    -0.200 F 
ATOM     81  F   UNL A   1      42.853  25.461  24.572  1.00  0.00    -0.200 F 
ENDBRANCH  57  71
BRANCH  58  82
ATOM     82  C   UNL A   1      39.757  33.485  36.097  1.00  0.00     0.064 A 
ATOM     83  C   UNL A   1      38.755  32.653  36.681  1.00  0.00     0.173 A 
ATOM     84  C   UNL A   1      40.253  34.524  36.903  1.00  0.00     0.173 A 
ATOM     85  F   UNL A   1      38.231  31.646  35.960  1.00  0.00    -0.203 F 
ATOM     86  C   UNL A   1      38.560  32.626  38.065  1.00  0.00     0.198 A 
ATOM     87  C   UNL A   1      40.008  34.523  38.287  1.00  0.00     0.198 A 
ATOM     88  F   UNL A   1      41.194  35.349  36.422  1.00  0.00    -0.203 F 
ATOM     89  F   UNL A   1      37.870  31.619  38.626  1.00  0.00    -0.200 F 
ATOM     90  C   UNL A   1      39.231  33.528  38.871  1.00  0.00     0.200 A 
ATOM     91  F   UNL A   1      40.672  35.376  39.082  1.00  0.00    -0.200 F 
ATOM     92  F   UNL A   1      39.223  33.370  40.204  1.00  0.00    -0.200 F 
ENDBRANCH  58  82
BRANCH  70  93
ATOM     93  C   UNL A   1      43.409  27.067  34.437  1.00  0.00     0.064 A 
ATOM     94  C   UNL A   1      42.569  26.025  34.826  1.00  0.00     0.173 A 
ATOM     95  C   UNL A   1      44.801  26.756  34.460  1.00  0.00     0.173 A 
ATOM     96  F   UNL A   1      41.273  26.244  35.084  1.00  0.00    -0.203 F 
ATOM     97  C   UNL A   1      43.051  24.726  35.015  1.00  0.00     0.198 A 
ATOM     98  C   UNL A   1      45.286  25.479  34.714  1.00  0.00     0.198 A 
ATOM     99  F   UNL A   1      45.751  27.670  34.226  1.00  0.00    -0.203 F 
ATOM    100  F   UNL A   1      42.187  23.734  35.269  1.00  0.00    -0.200 F 
ATOM    101  C   UNL A   1      44.405  24.449  34.937  1.00  0.00     0.200 A 
ATOM    102  F   UNL A   1      46.608  25.256  34.715  1.00  0.00    -0.200 F 
ATOM    103  F   UNL A   1      44.858  23.200  35.095  1.00  0.00    -0.200 F 
ENDBRANCH  70  93
ENDBRANCH  44  45
ENDBRANCH  37  39
ENDBRANCH  36  37
ENDBRANCH  35  36
ENDBRANCH  34  35
ENDBRANCH  33  34
ENDBRANCH  32  33
ENDBRANCH  31  32
ENDBRANCH  30  31
ENDBRANCH   1  30
TORSDOF 24
ENDMDL
