MODEL 1
REMARK VINA RESULT:      -9.0      0.000      0.000
REMARK SMILES CC[C@@H](O)CC[C@H]([NH3+])C(=O)OCCOCCOCCOCCOC(=O)c1ccc(-c2c3nc(c(-c4c(F)c(F)c(F)c(F)c4F)c4ccc([nH]4)c(-c4c(F)c(F)c(F)c(F)c4F)c4nc(c(-c5c(F)c(F)c(F)c(F)c5F)c5ccc2[nH]5)C=C4)C=C3)cc1
REMARK SMILES IDX 16 1 15 2 14 3 13 4 12 5 11 6 9 7 10 8 7 9 6 10 5 11 3 12
REMARK SMILES IDX 2 13 1 14 4 15 8 17 17 21 18 22 19 23 20 24 21 25 22 26
REMARK SMILES IDX 23 27 24 28 25 29 26 30 27 31 88 32 28 33 87 34 29 35 30 36
REMARK SMILES IDX 31 37 81 38 32 39 86 40 80 41 82 42 33 43 85 44 79 45 78 46
REMARK SMILES IDX 34 48 66 49 46 50 65 51 47 52 50 53 64 54 83 55 48 56 49 57
REMARK SMILES IDX 63 59 84 60 51 61 35 62 36 63 44 64 37 65 38 66 42 67 45 68
REMARK SMILES IDX 39 69 40 70 43 71 41 72 67 73 68 74 76 75 69 76 70 77 74 78
REMARK SMILES IDX 77 79 71 80 72 81 75 82 73 83 52 84 53 85 61 86 54 87 55 88
REMARK SMILES IDX 59 89 62 90 56 91 57 92 60 93 58 94
REMARK H PARENT 4 16 8 18 8 19 8 20 82 47 50 58
REMARK Flexibility Score: inf
ROOT
ATOM      1  C   UNL A   1      33.601  37.724  32.699  1.00  0.00     0.188 C 
ENDROOT
BRANCH   1   2
ATOM      2  C   UNL A   1      33.868  36.440  33.496  1.00  0.00     0.188 C 
BRANCH   2   3
ATOM      3  O   UNL A   1      35.105  35.756  33.378  1.00  0.00    -0.376 OA
BRANCH   3   4
ATOM      4  C   UNL A   1      35.354  34.505  34.007  1.00  0.00     0.202 C 
BRANCH   4   5
ATOM      5  C   UNL A   1      36.756  33.926  34.241  1.00  0.00     0.261 C 
BRANCH   5   6
ATOM      6  O   UNL A   1      37.191  32.998  33.250  1.00  0.00    -0.459 OA
BRANCH   6   7
ATOM      7  C   UNL A   1      38.429  33.204  32.724  1.00  0.00     0.364 C 
ATOM      8  O   UNL A   1      39.481  32.925  33.284  1.00  0.00    -0.245 OA
BRANCH   7   9
ATOM      9  C   UNL A   1      38.345  33.738  31.279  1.00  0.00     0.291 C 
BRANCH   9  10
ATOM     10  C   UNL A   1      39.613  34.531  30.963  1.00  0.00     0.080 C 
BRANCH  10  11
ATOM     11  C   UNL A   1      39.860  34.832  29.481  1.00  0.00     0.038 C 
BRANCH  11  12
ATOM     12  C   UNL A   1      41.310  34.964  29.000  1.00  0.00     0.114 C 
BRANCH  12  13
ATOM     13  C   UNL A   1      41.540  36.066  27.956  1.00  0.00     0.028 C 
ATOM     14  C   UNL A   1      42.447  35.591  26.824  1.00  0.00     0.006 C 
ENDBRANCH  12  13
BRANCH  12  15
ATOM     15  O   UNL A   1      42.099  35.245  30.162  1.00  0.00    -0.393 OA
ATOM     16  H   UNL A   1      42.968  35.580  29.890  1.00  0.00     0.210 HD
ENDBRANCH  12  15
ENDBRANCH  11  12
ENDBRANCH  10  11
ENDBRANCH   9  10
BRANCH   9  17
ATOM     17  N   UNL A   1      37.151  34.585  31.063  1.00  0.00    -0.346 N 
ATOM     18  H   UNL A   1      36.595  34.200  30.299  1.00  0.00     0.345 HD
ATOM     19  H   UNL A   1      37.446  35.532  30.825  1.00  0.00     0.345 HD
ATOM     20  H   UNL A   1      36.591  34.607  31.915  1.00  0.00     0.345 HD
ENDBRANCH   9  17
ENDBRANCH   7   9
ENDBRANCH   6   7
ENDBRANCH   5   6
ENDBRANCH   4   5
ENDBRANCH   3   4
ENDBRANCH   2   3
ENDBRANCH   1   2
BRANCH   1  21
ATOM     21  O   UNL A   1      33.546  37.535  31.298  1.00  0.00    -0.377 OA
BRANCH  21  22
ATOM     22  C   UNL A   1      32.755  36.453  30.808  1.00  0.00     0.188 C 
BRANCH  22  23
ATOM     23  C   UNL A   1      33.383  35.390  29.877  1.00  0.00     0.188 C 
BRANCH  23  24
ATOM     24  O   UNL A   1      32.585  35.032  28.761  1.00  0.00    -0.376 OA
BRANCH  24  25
ATOM     25  C   UNL A   1      32.924  33.871  28.017  1.00  0.00     0.202 C 
BRANCH  25  26
ATOM     26  C   UNL A   1      34.352  33.324  28.164  1.00  0.00     0.261 C 
BRANCH  26  27
ATOM     27  O   UNL A   1      34.485  32.037  28.789  1.00  0.00    -0.460 OA
BRANCH  27  28
ATOM     28  C   UNL A   1      35.147  31.956  29.961  1.00  0.00     0.338 C 
ATOM     29  O   UNL A   1      34.825  32.438  31.033  1.00  0.00    -0.246 OA
BRANCH  28  30
ATOM     30  C   UNL A   1      36.262  31.009  29.768  1.00  0.00     0.060 A 
ATOM     31  C   UNL A   1      36.822  30.361  30.879  1.00  0.00     0.016 A 
ATOM     32  C   UNL A   1      36.753  30.769  28.484  1.00  0.00     0.016 A 
ATOM     33  C   UNL A   1      37.907  29.499  30.710  1.00  0.00     0.010 A 
ATOM     34  C   UNL A   1      37.851  29.926  28.320  1.00  0.00     0.010 A 
ATOM     35  C   UNL A   1      38.457  29.319  29.435  1.00  0.00    -0.014 A 
BRANCH  35  36
ATOM     36  C   UNL A   1      39.801  28.718  29.266  1.00  0.00     0.031 A 
ATOM     37  C   UNL A   1      40.989  29.630  29.399  1.00  0.00     0.074 A 
ATOM     38  C   UNL A   1      39.970  27.421  28.959  1.00  0.00     0.049 A 
ATOM     39  N   UNL A   1      42.244  29.417  29.099  1.00  0.00    -0.248 NA
ATOM     40  C   UNL A   1      40.716  30.975  29.931  1.00  0.00     0.031 C 
ATOM     41  C   UNL A   1      38.907  26.424  28.870  1.00  0.00     0.029 A 
ATOM     42  N   UNL A   1      41.112  26.729  28.635  1.00  0.00    -0.354 N 
ATOM     43  C   UNL A   1      42.903  30.605  29.389  1.00  0.00     0.074 A 
ATOM     44  C   UNL A   1      41.908  31.544  29.861  1.00  0.00     0.031 C 
ATOM     45  C   UNL A   1      39.444  25.251  28.488  1.00  0.00     0.029 A 
ATOM     46  C   UNL A   1      40.876  25.430  28.256  1.00  0.00     0.049 A 
ATOM     47  H   UNL A   1      42.012  27.127  28.671  1.00  0.00     0.167 HD
ATOM     48  C   UNL A   1      44.222  30.886  29.276  1.00  0.00     0.037 A 
ATOM     49  C   UNL A   1      41.720  24.513  27.741  1.00  0.00     0.037 A 
ATOM     50  C   UNL A   1      45.202  29.950  28.798  1.00  0.00     0.049 A 
ATOM     51  C   UNL A   1      43.168  24.885  27.518  1.00  0.00     0.074 A 
ATOM     52  C   UNL A   1      46.562  30.136  28.627  1.00  0.00     0.029 A 
ATOM     53  N   UNL A   1      44.922  28.649  28.408  1.00  0.00    -0.354 N 
ATOM     54  N   UNL A   1      43.789  26.009  27.784  1.00  0.00    -0.248 NA
ATOM     55  C   UNL A   1      44.034  23.857  26.918  1.00  0.00     0.031 C 
ATOM     56  C   UNL A   1      47.096  28.965  28.083  1.00  0.00     0.029 A 
ATOM     57  C   UNL A   1      46.082  28.025  27.984  1.00  0.00     0.049 A 
ATOM     58  H   UNL A   1      44.031  28.231  28.430  1.00  0.00     0.167 HD
ATOM     59  C   UNL A   1      45.119  25.806  27.437  1.00  0.00     0.074 A 
ATOM     60  C   UNL A   1      45.218  24.452  26.936  1.00  0.00     0.031 C 
ATOM     61  C   UNL A   1      46.168  26.660  27.531  1.00  0.00     0.037 A 
BRANCH  48  62
ATOM     62  C   UNL A   1      44.673  32.268  29.648  1.00  0.00     0.064 A 
ATOM     63  C   UNL A   1      44.971  32.614  30.975  1.00  0.00     0.173 A 
ATOM     64  C   UNL A   1      44.837  33.251  28.661  1.00  0.00     0.173 A 
ATOM     65  F   UNL A   1      44.813  31.716  31.959  1.00  0.00    -0.203 F 
ATOM     66  C   UNL A   1      45.393  33.900  31.302  1.00  0.00     0.198 A 
ATOM     67  C   UNL A   1      45.292  34.526  28.986  1.00  0.00     0.198 A 
ATOM     68  F   UNL A   1      44.565  32.974  27.377  1.00  0.00    -0.203 F 
ATOM     69  F   UNL A   1      45.622  34.222  32.582  1.00  0.00    -0.200 F 
ATOM     70  C   UNL A   1      45.562  34.852  30.307  1.00  0.00     0.200 A 
ATOM     71  F   UNL A   1      45.468  35.440  28.022  1.00  0.00    -0.200 F 
ATOM     72  F   UNL A   1      45.978  36.086  30.623  1.00  0.00    -0.200 F 
ENDBRANCH  48  62
BRANCH  49  73
ATOM     73  C   UNL A   1      41.229  23.157  27.372  1.00  0.00     0.064 A 
ATOM     74  C   UNL A   1      41.817  22.007  27.916  1.00  0.00     0.173 A 
ATOM     75  C   UNL A   1      40.203  22.979  26.432  1.00  0.00     0.173 A 
ATOM     76  F   UNL A   1      42.820  22.122  28.798  1.00  0.00    -0.203 F 
ATOM     77  C   UNL A   1      41.419  20.732  27.512  1.00  0.00     0.198 A 
ATOM     78  C   UNL A   1      39.783  21.704  26.054  1.00  0.00     0.198 A 
ATOM     79  F   UNL A   1      39.608  24.044  25.875  1.00  0.00    -0.203 F 
ATOM     80  F   UNL A   1      42.045  19.653  28.001  1.00  0.00    -0.200 F 
ATOM     81  C   UNL A   1      40.401  20.583  26.585  1.00  0.00     0.200 A 
ATOM     82  F   UNL A   1      38.790  21.564  25.165  1.00  0.00    -0.200 F 
ATOM     83  F   UNL A   1      40.024  19.358  26.192  1.00  0.00    -0.200 F 
ENDBRANCH  49  73
BRANCH  61  84
ATOM     84  C   UNL A   1      47.534  26.143  27.178  1.00  0.00     0.064 A 
ATOM     85  C   UNL A   1      48.125  26.383  25.930  1.00  0.00     0.173 A 
ATOM     86  C   UNL A   1      48.295  25.468  28.147  1.00  0.00     0.173 A 
ATOM     87  F   UNL A   1      47.436  27.014  24.967  1.00  0.00    -0.203 F 
ATOM     88  C   UNL A   1      49.422  25.953  25.660  1.00  0.00     0.198 A 
ATOM     89  C   UNL A   1      49.603  25.069  27.884  1.00  0.00     0.198 A 
ATOM     90  F   UNL A   1      47.780  25.222  29.361  1.00  0.00    -0.203 F 
ATOM     91  F   UNL A   1      49.955  26.161  24.448  1.00  0.00    -0.200 F 
ATOM     92  C   UNL A   1      50.163  25.308  26.639  1.00  0.00     0.200 A 
ATOM     93  F   UNL A   1      50.322  24.465  28.839  1.00  0.00    -0.200 F 
ATOM     94  F   UNL A   1      51.418  24.916  26.383  1.00  0.00    -0.200 F 
ENDBRANCH  61  84
ENDBRANCH  35  36
ENDBRANCH  28  30
ENDBRANCH  27  28
ENDBRANCH  26  27
ENDBRANCH  25  26
ENDBRANCH  24  25
ENDBRANCH  23  24
ENDBRANCH  22  23
ENDBRANCH  21  22
ENDBRANCH   1  21
TORSDOF 26
ENDMDL
MODEL 2
REMARK VINA RESULT:      -9.0      6.398     13.132
REMARK SMILES CC[C@@H](O)CC[C@H]([NH3+])C(=O)OCCOCCOCCOCCOC(=O)c1ccc(-c2c3nc(c(-c4c(F)c(F)c(F)c(F)c4F)c4ccc([nH]4)c(-c4c(F)c(F)c(F)c(F)c4F)c4nc(c(-c5c(F)c(F)c(F)c(F)c5F)c5ccc2[nH]5)C=C4)C=C3)cc1
REMARK SMILES IDX 16 1 15 2 14 3 13 4 12 5 11 6 9 7 10 8 7 9 6 10 5 11 3 12
REMARK SMILES IDX 2 13 1 14 4 15 8 17 17 21 18 22 19 23 20 24 21 25 22 26
REMARK SMILES IDX 23 27 24 28 25 29 26 30 27 31 88 32 28 33 87 34 29 35 30 36
REMARK SMILES IDX 31 37 81 38 32 39 86 40 80 41 82 42 33 43 85 44 79 45 78 46
REMARK SMILES IDX 34 48 66 49 46 50 65 51 47 52 50 53 64 54 83 55 48 56 49 57
REMARK SMILES IDX 63 59 84 60 51 61 35 62 36 63 44 64 37 65 38 66 42 67 45 68
REMARK SMILES IDX 39 69 40 70 43 71 41 72 67 73 68 74 76 75 69 76 70 77 74 78
REMARK SMILES IDX 77 79 71 80 72 81 75 82 73 83 52 84 53 85 61 86 54 87 55 88
REMARK SMILES IDX 59 89 62 90 56 91 57 92 60 93 58 94
REMARK H PARENT 4 16 8 18 8 19 8 20 82 47 50 58
REMARK Flexibility Score: inf
ROOT
ATOM      1  C   UNL A   1      40.640  21.849  27.455  1.00  0.00     0.188 C 
ENDROOT
BRANCH   1   2
ATOM      2  C   UNL A   1      39.790  22.245  26.240  1.00  0.00     0.188 C 
BRANCH   2   3
ATOM      3  O   UNL A   1      38.429  21.858  26.149  1.00  0.00    -0.376 OA
BRANCH   3   4
ATOM      4  C   UNL A   1      37.897  21.178  25.019  1.00  0.00     0.202 C 
BRANCH   4   5
ATOM      5  C   UNL A   1      36.521  20.495  24.997  1.00  0.00     0.261 C 
BRANCH   5   6
ATOM      6  O   UNL A   1      35.438  21.324  25.411  1.00  0.00    -0.459 OA
BRANCH   6   7
ATOM      7  C   UNL A   1      34.232  21.088  24.825  1.00  0.00     0.364 C 
ATOM      8  O   UNL A   1      33.659  21.864  24.070  1.00  0.00    -0.245 OA
BRANCH   7   9
ATOM      9  C   UNL A   1      33.717  19.670  25.145  1.00  0.00     0.291 C 
BRANCH   9  10
ATOM     10  C   UNL A   1      32.681  19.264  24.098  1.00  0.00     0.080 C 
BRANCH  10  11
ATOM     11  C   UNL A   1      32.857  17.868  23.491  1.00  0.00     0.038 C 
BRANCH  11  12
ATOM     12  C   UNL A   1      34.118  17.074  23.855  1.00  0.00     0.114 C 
BRANCH  12  13
ATOM     13  C   UNL A   1      34.001  16.241  25.139  1.00  0.00     0.028 C 
ATOM     14  C   UNL A   1      32.650  15.536  25.234  1.00  0.00     0.006 C 
ENDBRANCH  12  13
BRANCH  12  15
ATOM     15  O   UNL A   1      34.381  16.201  22.751  1.00  0.00    -0.393 OA
ATOM     16  H   UNL A   1      35.206  15.716  22.911  1.00  0.00     0.210 HD
ENDBRANCH  12  15
ENDBRANCH  11  12
ENDBRANCH  10  11
ENDBRANCH   9  10
BRANCH   9  17
ATOM     17  N   UNL A   1      33.129  19.580  26.500  1.00  0.00    -0.346 N 
ATOM     18  H   UNL A   1      32.547  18.744  26.562  1.00  0.00     0.345 HD
ATOM     19  H   UNL A   1      32.558  20.406  26.678  1.00  0.00     0.345 HD
ATOM     20  H   UNL A   1      33.876  19.527  27.192  1.00  0.00     0.345 HD
ENDBRANCH   9  17
ENDBRANCH   7   9
ENDBRANCH   6   7
ENDBRANCH   5   6
ENDBRANCH   4   5
ENDBRANCH   3   4
ENDBRANCH   2   3
ENDBRANCH   1   2
BRANCH   1  21
ATOM     21  O   UNL A   1      40.818  20.454  27.607  1.00  0.00    -0.377 OA
BRANCH  21  22
ATOM     22  C   UNL A   1      41.183  19.704  26.449  1.00  0.00     0.188 C 
BRANCH  22  23
ATOM     23  C   UNL A   1      42.669  19.580  26.040  1.00  0.00     0.188 C 
BRANCH  23  24
ATOM     24  O   UNL A   1      43.097  20.517  25.065  1.00  0.00    -0.376 OA
BRANCH  24  25
ATOM     25  C   UNL A   1      43.825  21.661  25.484  1.00  0.00     0.202 C 
BRANCH  25  26
ATOM     26  C   UNL A   1      44.151  22.724  24.424  1.00  0.00     0.261 C 
BRANCH  26  27
ATOM     27  O   UNL A   1      43.575  24.025  24.622  1.00  0.00    -0.460 OA
BRANCH  27  28
ATOM     28  C   UNL A   1      44.365  25.016  25.082  1.00  0.00     0.338 C 
ATOM     29  O   UNL A   1      45.459  25.352  24.661  1.00  0.00    -0.246 OA
BRANCH  28  30
ATOM     30  C   UNL A   1      43.588  25.764  26.087  1.00  0.00     0.060 A 
ATOM     31  C   UNL A   1      43.923  27.096  26.374  1.00  0.00     0.016 A 
ATOM     32  C   UNL A   1      42.528  25.141  26.748  1.00  0.00     0.016 A 
ATOM     33  C   UNL A   1      43.222  27.797  27.358  1.00  0.00     0.010 A 
ATOM     34  C   UNL A   1      41.844  25.834  27.746  1.00  0.00     0.010 A 
ATOM     35  C   UNL A   1      42.213  27.150  28.082  1.00  0.00    -0.014 A 
BRANCH  35  36
ATOM     36  C   UNL A   1      41.704  27.721  29.351  1.00  0.00     0.031 A 
ATOM     37  C   UNL A   1      40.441  28.535  29.286  1.00  0.00     0.074 A 
ATOM     38  C   UNL A   1      42.356  27.569  30.515  1.00  0.00     0.049 A 
ATOM     39  N   UNL A   1      39.898  29.309  30.189  1.00  0.00    -0.248 NA
ATOM     40  C   UNL A   1      39.698  28.477  28.017  1.00  0.00     0.031 C 
ATOM     41  C   UNL A   1      43.548  26.750  30.721  1.00  0.00     0.029 A 
ATOM     42  N   UNL A   1      42.114  28.130  31.746  1.00  0.00    -0.354 N 
ATOM     43  C   UNL A   1      38.763  29.841  29.591  1.00  0.00     0.074 A 
ATOM     44  C   UNL A   1      38.709  29.326  28.240  1.00  0.00     0.031 C 
ATOM     45  C   UNL A   1      43.950  26.883  31.998  1.00  0.00     0.029 A 
ATOM     46  C   UNL A   1      43.076  27.836  32.681  1.00  0.00     0.049 A 
ATOM     47  H   UNL A   1      41.327  28.689  31.938  1.00  0.00     0.167 HD
ATOM     48  C   UNL A   1      37.845  30.680  30.123  1.00  0.00     0.037 A 
ATOM     49  C   UNL A   1      43.246  28.318  33.929  1.00  0.00     0.037 A 
ATOM     50  C   UNL A   1      37.911  31.194  31.464  1.00  0.00     0.049 A 
ATOM     51  C   UNL A   1      42.270  29.341  34.464  1.00  0.00     0.074 A 
ATOM     52  C   UNL A   1      37.044  32.065  32.098  1.00  0.00     0.029 A 
ATOM     53  N   UNL A   1      38.910  30.885  32.375  1.00  0.00    -0.354 N 
ATOM     54  N   UNL A   1      41.203  29.850  33.896  1.00  0.00    -0.248 NA
ATOM     55  C   UNL A   1      42.527  29.861  35.816  1.00  0.00     0.031 C 
ATOM     56  C   UNL A   1      37.547  32.325  33.376  1.00  0.00     0.029 A 
ATOM     57  C   UNL A   1      38.687  31.559  33.563  1.00  0.00     0.049 A 
ATOM     58  H   UNL A   1      39.664  30.277  32.204  1.00  0.00     0.167 HD
ATOM     59  C   UNL A   1      40.635  30.702  34.836  1.00  0.00     0.074 A 
ATOM     60  C   UNL A   1      41.477  30.648  36.011  1.00  0.00     0.031 C 
ATOM     61  C   UNL A   1      39.513  31.457  34.739  1.00  0.00     0.037 A 
BRANCH  48  62
ATOM     62  C   UNL A   1      36.710  31.117  29.245  1.00  0.00     0.064 A 
ATOM     63  C   UNL A   1      35.681  30.236  28.878  1.00  0.00     0.173 A 
ATOM     64  C   UNL A   1      36.634  32.441  28.787  1.00  0.00     0.173 A 
ATOM     65  F   UNL A   1      35.716  28.955  29.273  1.00  0.00    -0.203 F 
ATOM     66  C   UNL A   1      34.632  30.659  28.065  1.00  0.00     0.198 A 
ATOM     67  C   UNL A   1      35.567  32.870  28.004  1.00  0.00     0.198 A 
ATOM     68  F   UNL A   1      37.592  33.324  29.108  1.00  0.00    -0.203 F 
ATOM     69  F   UNL A   1      33.688  29.787  27.685  1.00  0.00    -0.200 F 
ATOM     70  C   UNL A   1      34.571  31.977  27.636  1.00  0.00     0.200 A 
ATOM     71  F   UNL A   1      35.502  34.147  27.603  1.00  0.00    -0.200 F 
ATOM     72  F   UNL A   1      33.555  32.385  26.864  1.00  0.00    -0.200 F 
ENDBRANCH  48  62
BRANCH  49  73
ATOM     73  C   UNL A   1      44.394  27.869  34.763  1.00  0.00     0.064 A 
ATOM     74  C   UNL A   1      45.632  28.524  34.693  1.00  0.00     0.173 A 
ATOM     75  C   UNL A   1      44.297  26.751  35.604  1.00  0.00     0.173 A 
ATOM     76  F   UNL A   1      45.786  29.581  33.884  1.00  0.00    -0.203 F 
ATOM     77  C   UNL A   1      46.736  28.058  35.407  1.00  0.00     0.198 A 
ATOM     78  C   UNL A   1      45.392  26.307  36.344  1.00  0.00     0.198 A 
ATOM     79  F   UNL A   1      43.139  26.084  35.706  1.00  0.00    -0.203 F 
ATOM     80  F   UNL A   1      47.923  28.664  35.269  1.00  0.00    -0.200 F 
ATOM     81  C   UNL A   1      46.614  26.953  36.234  1.00  0.00     0.200 A 
ATOM     82  F   UNL A   1      45.267  25.244  37.151  1.00  0.00    -0.200 F 
ATOM     83  F   UNL A   1      47.676  26.502  36.915  1.00  0.00    -0.200 F 
ENDBRANCH  49  73
BRANCH  61  84
ATOM     84  C   UNL A   1      39.065  32.215  35.956  1.00  0.00     0.064 A 
ATOM     85  C   UNL A   1      38.259  31.634  36.944  1.00  0.00     0.173 A 
ATOM     86  C   UNL A   1      39.528  33.523  36.172  1.00  0.00     0.173 A 
ATOM     87  F   UNL A   1      37.781  30.391  36.781  1.00  0.00    -0.203 F 
ATOM     88  C   UNL A   1      37.921  32.339  38.097  1.00  0.00     0.198 A 
ATOM     89  C   UNL A   1      39.217  34.213  37.340  1.00  0.00     0.198 A 
ATOM     90  F   UNL A   1      40.311  34.122  35.262  1.00  0.00    -0.203 F 
ATOM     91  F   UNL A   1      37.119  31.778  39.012  1.00  0.00    -0.200 F 
ATOM     92  C   UNL A   1      38.409  33.622  38.299  1.00  0.00     0.200 A 
ATOM     93  F   UNL A   1      39.706  35.443  37.541  1.00  0.00    -0.200 F 
ATOM     94  F   UNL A   1      38.101  34.290  39.419  1.00  0.00    -0.200 F 
ENDBRANCH  61  84
ENDBRANCH  35  36
ENDBRANCH  28  30
ENDBRANCH  27  28
ENDBRANCH  26  27
ENDBRANCH  25  26
ENDBRANCH  24  25
ENDBRANCH  23  24
ENDBRANCH  22  23
ENDBRANCH  21  22
ENDBRANCH   1  21
TORSDOF 26
ENDMDL
MODEL 3
REMARK VINA RESULT:      -9.0      4.715      9.937
REMARK SMILES CC[C@@H](O)CC[C@H]([NH3+])C(=O)OCCOCCOCCOCCOC(=O)c1ccc(-c2c3nc(c(-c4c(F)c(F)c(F)c(F)c4F)c4ccc([nH]4)c(-c4c(F)c(F)c(F)c(F)c4F)c4nc(c(-c5c(F)c(F)c(F)c(F)c5F)c5ccc2[nH]5)C=C4)C=C3)cc1
REMARK SMILES IDX 16 1 15 2 14 3 13 4 12 5 11 6 9 7 10 8 7 9 6 10 5 11 3 12
REMARK SMILES IDX 2 13 1 14 4 15 8 17 17 21 18 22 19 23 20 24 21 25 22 26
REMARK SMILES IDX 23 27 24 28 25 29 26 30 27 31 88 32 28 33 87 34 29 35 30 36
REMARK SMILES IDX 31 37 81 38 32 39 86 40 80 41 82 42 33 43 85 44 79 45 78 46
REMARK SMILES IDX 34 48 66 49 46 50 65 51 47 52 50 53 64 54 83 55 48 56 49 57
REMARK SMILES IDX 63 59 84 60 51 61 35 62 36 63 44 64 37 65 38 66 42 67 45 68
REMARK SMILES IDX 39 69 40 70 43 71 41 72 67 73 68 74 76 75 69 76 70 77 74 78
REMARK SMILES IDX 77 79 71 80 72 81 75 82 73 83 52 84 53 85 61 86 54 87 55 88
REMARK SMILES IDX 59 89 62 90 56 91 57 92 60 93 58 94
REMARK H PARENT 4 16 8 18 8 19 8 20 82 47 50 58
REMARK Flexibility Score: inf
ROOT
ATOM      1  C   UNL A   1      32.054  22.177  25.831  1.00  0.00     0.188 C 
ENDROOT
BRANCH   1   2
ATOM      2  C   UNL A   1      32.086  23.052  27.091  1.00  0.00     0.188 C 
BRANCH   2   3
ATOM      3  O   UNL A   1      31.187  24.138  27.245  1.00  0.00    -0.376 OA
BRANCH   3   4
ATOM      4  C   UNL A   1      30.404  24.645  26.171  1.00  0.00     0.202 C 
BRANCH   4   5
ATOM      5  C   UNL A   1      30.880  25.735  25.201  1.00  0.00     0.261 C 
BRANCH   5   6
ATOM      6  O   UNL A   1      30.725  27.068  25.679  1.00  0.00    -0.459 OA
BRANCH   6   7
ATOM      7  C   UNL A   1      31.866  27.786  25.866  1.00  0.00     0.364 C 
ATOM      8  O   UNL A   1      32.848  27.388  26.479  1.00  0.00    -0.245 OA
BRANCH   7   9
ATOM      9  C   UNL A   1      31.814  29.133  25.116  1.00  0.00     0.291 C 
BRANCH   9  10
ATOM     10  C   UNL A   1      31.055  28.947  23.803  1.00  0.00     0.080 C 
BRANCH  10  11
ATOM     11  C   UNL A   1      29.876  29.900  23.574  1.00  0.00     0.038 C 
BRANCH  11  12
ATOM     12  C   UNL A   1      29.300  30.009  22.157  1.00  0.00     0.114 C 
BRANCH  12  13
ATOM     13  C   UNL A   1      28.312  31.168  21.956  1.00  0.00     0.028 C 
ATOM     14  C   UNL A   1      27.653  31.582  23.269  1.00  0.00     0.006 C 
ENDBRANCH  12  13
BRANCH  12  15
ATOM     15  O   UNL A   1      30.415  30.185  21.276  1.00  0.00    -0.393 OA
ATOM     16  H   UNL A   1      30.395  29.503  20.587  1.00  0.00     0.210 HD
ENDBRANCH  12  15
ENDBRANCH  11  12
ENDBRANCH  10  11
ENDBRANCH   9  10
BRANCH   9  17
ATOM     17  N   UNL A   1      33.164  29.677  24.846  1.00  0.00    -0.346 N 
ATOM     18  H   UNL A   1      33.348  30.457  25.477  1.00  0.00     0.345 HD
ATOM     19  H   UNL A   1      33.212  30.002  23.881  1.00  0.00     0.345 HD
ATOM     20  H   UNL A   1      33.861  28.947  24.995  1.00  0.00     0.345 HD
ENDBRANCH   9  17
ENDBRANCH   7   9
ENDBRANCH   6   7
ENDBRANCH   5   6
ENDBRANCH   4   5
ENDBRANCH   3   4
ENDBRANCH   2   3
ENDBRANCH   1   2
BRANCH   1  21
ATOM     21  O   UNL A   1      33.328  21.913  25.277  1.00  0.00    -0.377 OA
BRANCH  21  22
ATOM     22  C   UNL A   1      33.974  22.970  24.569  1.00  0.00     0.188 C 
BRANCH  22  23
ATOM     23  C   UNL A   1      35.170  23.717  25.206  1.00  0.00     0.188 C 
BRANCH  23  24
ATOM     24  O   UNL A   1      36.366  23.680  24.445  1.00  0.00    -0.376 OA
BRANCH  24  25
ATOM     25  C   UNL A   1      36.736  22.468  23.806  1.00  0.00     0.202 C 
BRANCH  25  26
ATOM     26  C   UNL A   1      37.361  21.367  24.677  1.00  0.00     0.261 C 
BRANCH  26  27
ATOM     27  O   UNL A   1      37.886  21.776  25.950  1.00  0.00    -0.460 OA
BRANCH  27  28
ATOM     28  C   UNL A   1      39.191  21.557  26.209  1.00  0.00     0.338 C 
ATOM     29  O   UNL A   1      39.865  20.597  25.878  1.00  0.00    -0.246 OA
BRANCH  28  30
ATOM     30  C   UNL A   1      39.728  22.788  26.820  1.00  0.00     0.060 A 
ATOM     31  C   UNL A   1      39.177  24.031  26.476  1.00  0.00     0.016 A 
ATOM     32  C   UNL A   1      40.782  22.707  27.731  1.00  0.00     0.016 A 
ATOM     33  C   UNL A   1      39.709  25.204  27.014  1.00  0.00     0.010 A 
ATOM     34  C   UNL A   1      41.328  23.880  28.250  1.00  0.00     0.010 A 
ATOM     35  C   UNL A   1      40.820  25.135  27.864  1.00  0.00    -0.014 A 
BRANCH  35  36
ATOM     36  C   UNL A   1      41.626  26.342  28.160  1.00  0.00     0.031 A 
ATOM     37  C   UNL A   1      40.948  27.465  28.894  1.00  0.00     0.074 A 
ATOM     38  C   UNL A   1      42.901  26.467  27.755  1.00  0.00     0.049 A 
ATOM     39  N   UNL A   1      41.346  28.693  29.096  1.00  0.00    -0.248 NA
ATOM     40  C   UNL A   1      39.627  27.158  29.468  1.00  0.00     0.031 C 
ATOM     41  C   UNL A   1      43.689  25.427  27.097  1.00  0.00     0.029 A 
ATOM     42  N   UNL A   1      43.748  27.546  27.816  1.00  0.00    -0.354 N 
ATOM     43  C   UNL A   1      40.320  29.307  29.801  1.00  0.00     0.074 A 
ATOM     44  C   UNL A   1      39.269  28.328  29.969  1.00  0.00     0.031 C 
ATOM     45  C   UNL A   1      44.898  25.929  26.791  1.00  0.00     0.029 A 
ATOM     46  C   UNL A   1      44.949  27.337  27.183  1.00  0.00     0.049 A 
ATOM     47  H   UNL A   1      43.517  28.388  28.270  1.00  0.00     0.167 HD
ATOM     48  C   UNL A   1      40.262  30.575  30.272  1.00  0.00     0.037 A 
ATOM     49  C   UNL A   1      45.950  28.201  26.919  1.00  0.00     0.037 A 
ATOM     50  C   UNL A   1      41.307  31.545  30.092  1.00  0.00     0.049 A 
ATOM     51  C   UNL A   1      45.815  29.642  27.356  1.00  0.00     0.074 A 
ATOM     52  C   UNL A   1      41.343  32.862  30.512  1.00  0.00     0.029 A 
ATOM     53  N   UNL A   1      42.501  31.300  29.431  1.00  0.00    -0.354 N 
ATOM     54  N   UNL A   1      44.842  30.225  28.015  1.00  0.00    -0.248 NA
ATOM     55  C   UNL A   1      46.920  30.549  27.006  1.00  0.00     0.031 C 
ATOM     56  C   UNL A   1      42.538  33.430  30.059  1.00  0.00     0.029 A 
ATOM     57  C   UNL A   1      43.276  32.446  29.420  1.00  0.00     0.049 A 
ATOM     58  H   UNL A   1      42.760  30.439  29.030  1.00  0.00     0.167 HD
ATOM     59  C   UNL A   1      45.240  31.543  28.204  1.00  0.00     0.074 A 
ATOM     60  C   UNL A   1      46.542  31.679  27.587  1.00  0.00     0.031 C 
ATOM     61  C   UNL A   1      44.591  32.550  28.840  1.00  0.00     0.037 A 
BRANCH  48  62
ATOM     62  C   UNL A   1      39.016  30.991  30.997  1.00  0.00     0.064 A 
ATOM     63  C   UNL A   1      37.918  31.544  30.320  1.00  0.00     0.173 A 
ATOM     64  C   UNL A   1      38.906  30.807  32.384  1.00  0.00     0.173 A 
ATOM     65  F   UNL A   1      37.979  31.758  28.997  1.00  0.00    -0.203 F 
ATOM     66  C   UNL A   1      36.768  31.921  31.008  1.00  0.00     0.198 A 
ATOM     67  C   UNL A   1      37.741  31.153  33.063  1.00  0.00     0.198 A 
ATOM     68  F   UNL A   1      39.925  30.283  33.080  1.00  0.00    -0.203 F 
ATOM     69  F   UNL A   1      35.753  32.495  30.348  1.00  0.00    -0.200 F 
ATOM     70  C   UNL A   1      36.677  31.717  32.377  1.00  0.00     0.200 A 
ATOM     71  F   UNL A   1      37.650  30.941  34.384  1.00  0.00    -0.200 F 
ATOM     72  F   UNL A   1      35.564  32.070  33.035  1.00  0.00    -0.200 F 
ENDBRANCH  48  62
BRANCH  49  73
ATOM     73  C   UNL A   1      47.163  27.751  26.183  1.00  0.00     0.064 A 
ATOM     74  C   UNL A   1      47.200  27.762  24.782  1.00  0.00     0.173 A 
ATOM     75  C   UNL A   1      48.287  27.253  26.859  1.00  0.00     0.173 A 
ATOM     76  F   UNL A   1      46.140  28.202  24.088  1.00  0.00    -0.203 F 
ATOM     77  C   UNL A   1      48.299  27.263  24.085  1.00  0.00     0.198 A 
ATOM     78  C   UNL A   1      49.401  26.787  26.161  1.00  0.00     0.198 A 
ATOM     79  F   UNL A   1      48.306  27.215  28.198  1.00  0.00    -0.203 F 
ATOM     80  F   UNL A   1      48.278  27.224  22.746  1.00  0.00    -0.200 F 
ATOM     81  C   UNL A   1      49.400  26.780  24.774  1.00  0.00     0.200 A 
ATOM     82  F   UNL A   1      50.467  26.330  26.832  1.00  0.00    -0.200 F 
ATOM     83  F   UNL A   1      50.454  26.294  24.104  1.00  0.00    -0.200 F 
ENDBRANCH  49  73
BRANCH  61  84
ATOM     84  C   UNL A   1      45.302  33.863  28.991  1.00  0.00     0.064 A 
ATOM     85  C   UNL A   1      45.157  34.904  28.064  1.00  0.00     0.173 A 
ATOM     86  C   UNL A   1      46.077  34.108  30.138  1.00  0.00     0.173 A 
ATOM     87  F   UNL A   1      44.438  34.718  26.947  1.00  0.00    -0.203 F 
ATOM     88  C   UNL A   1      45.772  36.137  28.271  1.00  0.00     0.198 A 
ATOM     89  C   UNL A   1      46.662  35.352  30.358  1.00  0.00     0.198 A 
ATOM     90  F   UNL A   1      46.240  33.149  31.061  1.00  0.00    -0.203 F 
ATOM     91  F   UNL A   1      45.650  37.106  27.354  1.00  0.00    -0.200 F 
ATOM     92  C   UNL A   1      46.514  36.363  29.421  1.00  0.00     0.200 A 
ATOM     93  F   UNL A   1      47.360  35.573  31.479  1.00  0.00    -0.200 F 
ATOM     94  F   UNL A   1      47.086  37.557  29.628  1.00  0.00    -0.200 F 
ENDBRANCH  61  84
ENDBRANCH  35  36
ENDBRANCH  28  30
ENDBRANCH  27  28
ENDBRANCH  26  27
ENDBRANCH  25  26
ENDBRANCH  24  25
ENDBRANCH  23  24
ENDBRANCH  22  23
ENDBRANCH  21  22
ENDBRANCH   1  21
TORSDOF 26
ENDMDL
