MODEL 1
REMARK VINA RESULT:     -10.0      0.000      0.000
REMARK SMILES C[C@]12C(=O)N(c3ccc(C(=O)OCCOCCOCCOCCOC(=O)c4ccc(-c5c6nc(c(-c7c(F)c(F)c(F)c(F)c7F)c7ccc([nH]7)c(-c7c(F)c(F)c(F)c(F)c7F)c7nc(c(-c8c(F)c(F)c(F)c(F)c8F)c8ccc5[nH]8)C=C7)C=C6)cc4)cc3)C(=O)[C@H]1[C@H]1c3ccccc3[C@@H]2c2ccccc21
REMARK SMILES IDX 19 1 18 2 17 3 16 4 15 5 14 6 13 7 12 8 10 9 11 10 9 11 6 12
REMARK SMILES IDX 7 13 91 14 8 15 90 16 5 17 1 18 2 19 3 20 94 21 102 22 4 23
REMARK SMILES IDX 92 24 95 25 101 26 103 27 93 28 96 29 108 30 100 31 104 32
REMARK SMILES IDX 97 33 107 34 99 35 105 36 98 37 106 38 20 39 21 40 22 41
REMARK SMILES IDX 23 42 24 43 25 44 26 45 27 46 28 47 89 48 29 49 88 50 30 51
REMARK SMILES IDX 31 52 32 53 82 54 33 55 87 56 81 57 83 58 34 59 86 60 80 61
REMARK SMILES IDX 79 62 35 64 67 65 47 66 66 67 48 68 51 69 65 70 84 71 49 72
REMARK SMILES IDX 50 73 64 75 85 76 52 77 36 78 37 79 45 80 38 81 39 82 43 83
REMARK SMILES IDX 46 84 40 85 41 86 44 87 42 88 68 89 69 90 77 91 70 92 71 93
REMARK SMILES IDX 75 94 78 95 72 96 73 97 76 98 74 99 53 100 54 101 62 102
REMARK SMILES IDX 55 103 56 104 60 105 63 106 57 107 58 108 61 109 59 110
REMARK H PARENT 83 63 51 74
REMARK Flexibility Score: inf
ROOT
ATOM      1  C   UNL A   1      32.870  35.842  30.804  1.00  0.00     0.188 C 
ENDROOT
BRANCH   1   2
ATOM      2  O   UNL A   1      32.539  34.970  29.728  1.00  0.00    -0.377 OA
BRANCH   2   3
ATOM      3  C   UNL A   1      33.458  34.808  28.661  1.00  0.00     0.188 C 
BRANCH   3   4
ATOM      4  C   UNL A   1      33.982  33.383  28.416  1.00  0.00     0.188 C 
BRANCH   4   5
ATOM      5  O   UNL A   1      35.224  33.368  27.727  1.00  0.00    -0.376 OA
BRANCH   5   6
ATOM      6  C   UNL A   1      36.313  32.718  28.360  1.00  0.00     0.202 C 
BRANCH   6   7
ATOM      7  C   UNL A   1      36.040  31.456  29.200  1.00  0.00     0.261 C 
BRANCH   7   8
ATOM      8  O   UNL A   1      37.148  30.570  29.407  1.00  0.00    -0.460 OA
BRANCH   8   9
ATOM      9  C   UNL A   1      37.276  29.538  28.548  1.00  0.00     0.338 C 
ATOM     10  O   UNL A   1      36.381  28.955  27.962  1.00  0.00    -0.246 OA
BRANCH   9  11
ATOM     11  C   UNL A   1      38.714  29.359  28.257  1.00  0.00     0.060 A 
ATOM     12  C   UNL A   1      41.409  28.858  27.597  1.00  0.00     0.052 A 
ATOM     13  C   UNL A   1      40.423  28.978  26.600  1.00  0.00     0.028 A 
ATOM     14  C   UNL A   1      41.033  29.124  28.921  1.00  0.00     0.028 A 
ATOM     15  C   UNL A   1      39.081  29.161  26.928  1.00  0.00     0.018 A 
ATOM     16  C   UNL A   1      39.695  29.404  29.248  1.00  0.00     0.018 A 
BRANCH  12  17
ATOM     17  N   UNL A   1      42.656  28.251  27.256  1.00  0.00    -0.250 N 
ATOM     18  C   UNL A   1      45.168  27.021  25.151  1.00  0.00     0.024 C 
ATOM     19  C   UNL A   1      43.886  26.752  25.951  1.00  0.00     0.071 C 
ATOM     20  C   UNL A   1      43.027  27.985  25.961  1.00  0.00     0.241 C 
ATOM     21  C   UNL A   1      44.224  26.498  27.447  1.00  0.00     0.107 C 
ATOM     22  C   UNL A   1      42.984  25.590  25.391  1.00  0.00     0.066 C 
ATOM     23  O   UNL A   1      42.712  28.586  24.941  1.00  0.00    -0.273 OA
ATOM     24  C   UNL A   1      43.500  27.634  28.158  1.00  0.00     0.238 C 
ATOM     25  C   UNL A   1      43.707  25.085  27.879  1.00  0.00     0.063 C 
ATOM     26  C   UNL A   1      41.796  25.383  26.353  1.00  0.00    -0.036 A 
ATOM     27  C   UNL A   1      43.830  24.335  25.517  1.00  0.00    -0.036 A 
ATOM     28  O   UNL A   1      43.668  27.880  29.345  1.00  0.00    -0.274 OA
ATOM     29  C   UNL A   1      42.190  25.111  27.690  1.00  0.00    -0.036 A 
ATOM     30  C   UNL A   1      44.244  24.068  26.852  1.00  0.00    -0.036 A 
ATOM     31  C   UNL A   1      40.452  25.482  26.028  1.00  0.00     0.005 A 
ATOM     32  C   UNL A   1      44.147  23.486  24.467  1.00  0.00     0.005 A 
ATOM     33  C   UNL A   1      41.249  24.969  28.701  1.00  0.00     0.004 A 
ATOM     34  C   UNL A   1      44.979  22.924  27.121  1.00  0.00     0.004 A 
ATOM     35  C   UNL A   1      39.505  25.349  27.050  1.00  0.00     0.000 A 
ATOM     36  C   UNL A   1      44.891  22.345  24.746  1.00  0.00     0.000 A 
ATOM     37  C   UNL A   1      39.900  25.098  28.373  1.00  0.00     0.000 A 
ATOM     38  C   UNL A   1      45.302  22.066  26.060  1.00  0.00     0.000 A 
ENDBRANCH  12  17
ENDBRANCH   9  11
ENDBRANCH   8   9
ENDBRANCH   7   8
ENDBRANCH   6   7
ENDBRANCH   5   6
ENDBRANCH   4   5
ENDBRANCH   3   4
ENDBRANCH   2   3
ENDBRANCH   1   2
BRANCH   1  39
ATOM     39  C   UNL A   1      33.644  35.374  32.061  1.00  0.00     0.188 C 
BRANCH  39  40
ATOM     40  O   UNL A   1      33.895  33.978  32.141  1.00  0.00    -0.376 OA
BRANCH  40  41
ATOM     41  C   UNL A   1      35.257  33.577  32.173  1.00  0.00     0.202 C 
BRANCH  41  42
ATOM     42  C   UNL A   1      35.884  33.596  33.571  1.00  0.00     0.261 C 
BRANCH  42  43
ATOM     43  O   UNL A   1      36.354  32.324  34.046  1.00  0.00    -0.460 OA
BRANCH  43  44
ATOM     44  C   UNL A   1      37.339  32.325  34.969  1.00  0.00     0.338 C 
ATOM     45  O   UNL A   1      37.232  32.497  36.170  1.00  0.00    -0.246 OA
BRANCH  44  46
ATOM     46  C   UNL A   1      38.576  31.892  34.288  1.00  0.00     0.060 A 
ATOM     47  C   UNL A   1      39.802  32.477  34.617  1.00  0.00     0.016 A 
ATOM     48  C   UNL A   1      38.498  30.932  33.271  1.00  0.00     0.016 A 
ATOM     49  C   UNL A   1      40.958  32.079  33.944  1.00  0.00     0.010 A 
ATOM     50  C   UNL A   1      39.655  30.540  32.593  1.00  0.00     0.010 A 
ATOM     51  C   UNL A   1      40.895  31.095  32.942  1.00  0.00    -0.014 A 
BRANCH  51  52
ATOM     52  C   UNL A   1      42.154  30.524  32.406  1.00  0.00     0.031 A 
ATOM     53  C   UNL A   1      42.828  29.344  33.033  1.00  0.00     0.074 A 
ATOM     54  C   UNL A   1      42.679  31.101  31.309  1.00  0.00     0.049 A 
ATOM     55  N   UNL A   1      43.880  28.685  32.613  1.00  0.00    -0.248 NA
ATOM     56  C   UNL A   1      42.263  28.841  34.291  1.00  0.00     0.031 C 
ATOM     57  C   UNL A   1      42.117  32.272  30.634  1.00  0.00     0.029 A 
ATOM     58  N   UNL A   1      43.785  30.783  30.565  1.00  0.00    -0.354 N 
ATOM     59  C   UNL A   1      44.089  27.673  33.537  1.00  0.00     0.074 A 
ATOM     60  C   UNL A   1      43.085  27.836  34.570  1.00  0.00     0.031 C 
ATOM     61  C   UNL A   1      42.866  32.557  29.560  1.00  0.00     0.029 A 
ATOM     62  C   UNL A   1      43.970  31.605  29.482  1.00  0.00     0.049 A 
ATOM     63  H   UNL A   1      44.389  30.036  30.787  1.00  0.00     0.167 HD
ATOM     64  C   UNL A   1      45.024  26.690  33.510  1.00  0.00     0.037 A 
ATOM     65  C   UNL A   1      44.917  31.591  28.527  1.00  0.00     0.037 A 
ATOM     66  C   UNL A   1      46.031  26.548  32.485  1.00  0.00     0.049 A 
ATOM     67  C   UNL A   1      45.968  30.518  28.549  1.00  0.00     0.074 A 
ATOM     68  C   UNL A   1      46.993  25.560  32.353  1.00  0.00     0.029 A 
ATOM     69  N   UNL A   1      46.217  27.426  31.426  1.00  0.00    -0.354 N 
ATOM     70  N   UNL A   1      46.108  29.517  29.383  1.00  0.00    -0.248 NA
ATOM     71  C   UNL A   1      46.988  30.568  27.494  1.00  0.00     0.031 C 
ATOM     72  C   UNL A   1      47.793  25.868  31.249  1.00  0.00     0.029 A 
ATOM     73  C   UNL A   1      47.298  27.018  30.657  1.00  0.00     0.049 A 
ATOM     74  H   UNL A   1      45.664  28.219  31.247  1.00  0.00     0.167 HD
ATOM     75  C   UNL A   1      47.216  28.808  28.944  1.00  0.00     0.074 A 
ATOM     76  C   UNL A   1      47.702  29.482  27.758  1.00  0.00     0.031 C 
ATOM     77  C   UNL A   1      47.780  27.698  29.480  1.00  0.00     0.037 A 
BRANCH  64  78
ATOM     78  C   UNL A   1      45.006  25.668  34.610  1.00  0.00     0.064 A 
ATOM     79  C   UNL A   1      44.420  24.408  34.421  1.00  0.00     0.173 A 
ATOM     80  C   UNL A   1      45.671  25.908  35.823  1.00  0.00     0.173 A 
ATOM     81  F   UNL A   1      43.772  24.129  33.280  1.00  0.00    -0.203 F 
ATOM     82  C   UNL A   1      44.489  23.430  35.410  1.00  0.00     0.198 A 
ATOM     83  C   UNL A   1      45.761  24.918  36.798  1.00  0.00     0.198 A 
ATOM     84  F   UNL A   1      46.261  27.091  36.050  1.00  0.00    -0.203 F 
ATOM     85  F   UNL A   1      43.902  22.241  35.216  1.00  0.00    -0.200 F 
ATOM     86  C   UNL A   1      45.167  23.681  36.592  1.00  0.00     0.200 A 
ATOM     87  F   UNL A   1      46.433  25.156  37.934  1.00  0.00    -0.200 F 
ATOM     88  F   UNL A   1      45.252  22.731  37.534  1.00  0.00    -0.200 F 
ENDBRANCH  64  78
BRANCH  65  89
ATOM     89  C   UNL A   1      44.875  32.606  27.446  1.00  0.00     0.064 A 
ATOM     90  C   UNL A   1      45.622  33.788  27.543  1.00  0.00     0.173 A 
ATOM     91  C   UNL A   1      44.124  32.400  26.281  1.00  0.00     0.173 A 
ATOM     92  F   UNL A   1      46.343  34.035  28.647  1.00  0.00    -0.203 F 
ATOM     93  C   UNL A   1      45.612  34.729  26.518  1.00  0.00     0.198 A 
ATOM     94  C   UNL A   1      44.136  33.330  25.243  1.00  0.00     0.198 A 
ATOM     95  F   UNL A   1      43.399  31.280  26.138  1.00  0.00    -0.203 F 
ATOM     96  F   UNL A   1      46.310  35.865  26.648  1.00  0.00    -0.200 F 
ATOM     97  C   UNL A   1      44.876  34.496  25.365  1.00  0.00     0.200 A 
ATOM     98  F   UNL A   1      43.438  33.092  24.125  1.00  0.00    -0.200 F 
ATOM     99  F   UNL A   1      44.878  35.396  24.373  1.00  0.00    -0.200 F 
ENDBRANCH  65  89
BRANCH  77 100
ATOM    100  C   UNL A   1      48.987  27.131  28.790  1.00  0.00     0.064 A 
ATOM    101  C   UNL A   1      48.869  26.360  27.624  1.00  0.00     0.173 A 
ATOM    102  C   UNL A   1      50.278  27.412  29.263  1.00  0.00     0.173 A 
ATOM    103  F   UNL A   1      47.657  26.049  27.141  1.00  0.00    -0.203 F 
ATOM    104  C   UNL A   1      49.997  25.878  26.967  1.00  0.00     0.198 A 
ATOM    105  C   UNL A   1      51.405  26.954  28.587  1.00  0.00     0.198 A 
ATOM    106  F   UNL A   1      50.447  28.150  30.371  1.00  0.00    -0.203 F 
ATOM    107  F   UNL A   1      49.859  25.111  25.877  1.00  0.00    -0.200 F 
ATOM    108  C   UNL A   1      51.265  26.184  27.443  1.00  0.00     0.200 A 
ATOM    109  F   UNL A   1      52.628  27.261  29.040  1.00  0.00    -0.200 F 
ATOM    110  F   UNL A   1      52.350  25.731  26.799  1.00  0.00    -0.200 F 
ENDBRANCH  77 100
ENDBRANCH  51  52
ENDBRANCH  44  46
ENDBRANCH  43  44
ENDBRANCH  42  43
ENDBRANCH  41  42
ENDBRANCH  40  41
ENDBRANCH  39  40
ENDBRANCH   1  39
TORSDOF 21
ENDMDL
MODEL 2
REMARK VINA RESULT:      -9.6      0.482      6.724
REMARK SMILES C[C@]12C(=O)N(c3ccc(C(=O)OCCOCCOCCOCCOC(=O)c4ccc(-c5c6nc(c(-c7c(F)c(F)c(F)c(F)c7F)c7ccc([nH]7)c(-c7c(F)c(F)c(F)c(F)c7F)c7nc(c(-c8c(F)c(F)c(F)c(F)c8F)c8ccc5[nH]8)C=C7)C=C6)cc4)cc3)C(=O)[C@H]1[C@H]1c3ccccc3[C@@H]2c2ccccc21
REMARK SMILES IDX 19 1 18 2 17 3 16 4 15 5 14 6 13 7 12 8 10 9 11 10 9 11 6 12
REMARK SMILES IDX 7 13 91 14 8 15 90 16 5 17 1 18 2 19 3 20 94 21 102 22 4 23
REMARK SMILES IDX 92 24 95 25 101 26 103 27 93 28 96 29 108 30 100 31 104 32
REMARK SMILES IDX 97 33 107 34 99 35 105 36 98 37 106 38 20 39 21 40 22 41
REMARK SMILES IDX 23 42 24 43 25 44 26 45 27 46 28 47 89 48 29 49 88 50 30 51
REMARK SMILES IDX 31 52 32 53 82 54 33 55 87 56 81 57 83 58 34 59 86 60 80 61
REMARK SMILES IDX 79 62 35 64 67 65 47 66 66 67 48 68 51 69 65 70 84 71 49 72
REMARK SMILES IDX 50 73 64 75 85 76 52 77 36 78 37 79 45 80 38 81 39 82 43 83
REMARK SMILES IDX 46 84 40 85 41 86 44 87 42 88 68 89 69 90 77 91 70 92 71 93
REMARK SMILES IDX 75 94 78 95 72 96 73 97 76 98 74 99 53 100 54 101 62 102
REMARK SMILES IDX 55 103 56 104 60 105 63 106 57 107 58 108 61 109 59 110
REMARK H PARENT 83 63 51 74
REMARK Flexibility Score: inf
ROOT
ATOM      1  C   UNL A   1      33.246  35.837  30.871  1.00  0.00     0.188 C 
ENDROOT
BRANCH   1   2
ATOM      2  O   UNL A   1      32.804  34.794  30.010  1.00  0.00    -0.377 OA
BRANCH   2   3
ATOM      3  C   UNL A   1      33.525  34.528  28.818  1.00  0.00     0.188 C 
BRANCH   3   4
ATOM      4  C   UNL A   1      34.057  33.095  28.643  1.00  0.00     0.188 C 
BRANCH   4   5
ATOM      5  O   UNL A   1      35.079  33.008  27.659  1.00  0.00    -0.376 OA
BRANCH   5   6
ATOM      6  C   UNL A   1      36.331  32.485  28.066  1.00  0.00     0.202 C 
BRANCH   6   7
ATOM      7  C   UNL A   1      36.360  31.308  29.060  1.00  0.00     0.261 C 
BRANCH   7   8
ATOM      8  O   UNL A   1      37.597  30.593  29.173  1.00  0.00    -0.460 OA
BRANCH   8   9
ATOM      9  C   UNL A   1      37.710  29.448  28.469  1.00  0.00     0.338 C 
ATOM     10  O   UNL A   1      36.811  28.818  27.941  1.00  0.00    -0.246 OA
BRANCH   9  11
ATOM     11  C   UNL A   1      39.148  29.185  28.250  1.00  0.00     0.060 A 
ATOM     12  C   UNL A   1      41.841  28.572  27.677  1.00  0.00     0.052 A 
ATOM     13  C   UNL A   1      40.994  29.131  26.700  1.00  0.00     0.028 A 
ATOM     14  C   UNL A   1      41.339  28.450  28.980  1.00  0.00     0.028 A 
ATOM     15  C   UNL A   1      39.648  29.374  26.963  1.00  0.00     0.018 A 
ATOM     16  C   UNL A   1      40.006  28.784  29.275  1.00  0.00     0.018 A 
BRANCH  12  17
ATOM     17  N   UNL A   1      43.053  27.948  27.255  1.00  0.00    -0.250 N 
ATOM     18  C   UNL A   1      45.442  26.761  24.988  1.00  0.00     0.024 C 
ATOM     19  C   UNL A   1      44.184  26.487  25.822  1.00  0.00     0.071 C 
ATOM     20  C   UNL A   1      43.367  27.744  25.933  1.00  0.00     0.241 C 
ATOM     21  C   UNL A   1      44.570  26.141  27.288  1.00  0.00     0.107 C 
ATOM     22  C   UNL A   1      43.225  25.386  25.236  1.00  0.00     0.066 C 
ATOM     23  O   UNL A   1      43.032  28.409  24.960  1.00  0.00    -0.273 OA
ATOM     24  C   UNL A   1      43.910  27.256  28.088  1.00  0.00     0.238 C 
ATOM     25  C   UNL A   1      44.024  24.722  27.663  1.00  0.00     0.063 C 
ATOM     26  C   UNL A   1      42.068  25.162  26.231  1.00  0.00    -0.036 A 
ATOM     27  C   UNL A   1      44.034  24.101  25.260  1.00  0.00    -0.036 A 
ATOM     28  O   UNL A   1      44.131  27.431  29.278  1.00  0.00    -0.274 OA
ATOM     29  C   UNL A   1      42.503  24.805  27.536  1.00  0.00    -0.036 A 
ATOM     30  C   UNL A   1      44.489  23.748  26.561  1.00  0.00    -0.036 A 
ATOM     31  C   UNL A   1      40.716  25.319  25.966  1.00  0.00     0.005 A 
ATOM     32  C   UNL A   1      44.283  23.302  24.154  1.00  0.00     0.005 A 
ATOM     33  C   UNL A   1      41.597  24.634  28.573  1.00  0.00     0.004 A 
ATOM     34  C   UNL A   1      45.197  22.569  26.739  1.00  0.00     0.004 A 
ATOM     35  C   UNL A   1      39.805  25.158  27.016  1.00  0.00     0.000 A 
ATOM     36  C   UNL A   1      45.000  22.126  24.341  1.00  0.00     0.000 A 
ATOM     37  C   UNL A   1      40.241  24.823  28.307  1.00  0.00     0.000 A 
ATOM     38  C   UNL A   1      45.452  21.763  25.621  1.00  0.00     0.000 A 
ENDBRANCH  12  17
ENDBRANCH   9  11
ENDBRANCH   8   9
ENDBRANCH   7   8
ENDBRANCH   6   7
ENDBRANCH   5   6
ENDBRANCH   4   5
ENDBRANCH   3   4
ENDBRANCH   2   3
ENDBRANCH   1   2
BRANCH   1  39
ATOM     39  C   UNL A   1      34.126  35.584  32.120  1.00  0.00     0.188 C 
BRANCH  39  40
ATOM     40  O   UNL A   1      34.230  34.228  32.532  1.00  0.00    -0.376 OA
BRANCH  40  41
ATOM     41  C   UNL A   1      35.516  33.633  32.443  1.00  0.00     0.202 C 
BRANCH  41  42
ATOM     42  C   UNL A   1      36.250  33.525  33.783  1.00  0.00     0.261 C 
BRANCH  42  43
ATOM     43  O   UNL A   1      36.499  32.185  34.236  1.00  0.00    -0.460 OA
BRANCH  43  44
ATOM     44  C   UNL A   1      37.500  31.998  35.123  1.00  0.00     0.338 C 
ATOM     45  O   UNL A   1      37.430  32.024  36.339  1.00  0.00    -0.246 OA
BRANCH  44  46
ATOM     46  C   UNL A   1      38.688  31.567  34.358  1.00  0.00     0.060 A 
ATOM     47  C   UNL A   1      39.918  32.203  34.551  1.00  0.00     0.016 A 
ATOM     48  C   UNL A   1      38.554  30.557  33.397  1.00  0.00     0.016 A 
ATOM     49  C   UNL A   1      41.023  31.805  33.799  1.00  0.00     0.010 A 
ATOM     50  C   UNL A   1      39.661  30.165  32.640  1.00  0.00     0.010 A 
ATOM     51  C   UNL A   1      40.908  30.772  32.853  1.00  0.00    -0.014 A 
BRANCH  51  52
ATOM     52  C   UNL A   1      42.133  30.211  32.237  1.00  0.00     0.031 A 
ATOM     53  C   UNL A   1      42.766  30.812  31.022  1.00  0.00     0.074 A 
ATOM     54  C   UNL A   1      42.679  29.127  32.819  1.00  0.00     0.049 A 
ATOM     55  N   UNL A   1      43.891  30.480  30.435  1.00  0.00    -0.248 NA
ATOM     56  C   UNL A   1      42.051  31.920  30.374  1.00  0.00     0.031 C 
ATOM     57  C   UNL A   1      42.129  28.444  33.991  1.00  0.00     0.029 A 
ATOM     58  N   UNL A   1      43.814  28.418  32.520  1.00  0.00    -0.354 N 
ATOM     59  C   UNL A   1      44.035  31.352  29.367  1.00  0.00     0.074 A 
ATOM     60  C   UNL A   1      42.856  32.196  29.354  1.00  0.00     0.031 C 
ATOM     61  C   UNL A   1      42.941  27.433  34.328  1.00  0.00     0.029 A 
ATOM     62  C   UNL A   1      44.055  27.381  33.386  1.00  0.00     0.049 A 
ATOM     63  H   UNL A   1      44.399  28.632  31.756  1.00  0.00     0.167 HD
ATOM     64  C   UNL A   1      45.067  31.445  28.492  1.00  0.00     0.037 A 
ATOM     65  C   UNL A   1      45.063  26.493  33.424  1.00  0.00     0.037 A 
ATOM     66  C   UNL A   1      46.228  30.588  28.504  1.00  0.00     0.049 A 
ATOM     67  C   UNL A   1      46.170  26.591  32.413  1.00  0.00     0.074 A 
ATOM     68  C   UNL A   1      47.344  30.635  27.683  1.00  0.00     0.029 A 
ATOM     69  N   UNL A   1      46.419  29.518  29.369  1.00  0.00    -0.354 N 
ATOM     70  N   UNL A   1      46.337  27.470  31.456  1.00  0.00    -0.248 NA
ATOM     71  C   UNL A   1      47.232  25.579  32.492  1.00  0.00     0.031 C 
ATOM     72  C   UNL A   1      48.180  29.565  28.014  1.00  0.00     0.029 A 
ATOM     73  C   UNL A   1      47.617  28.881  29.077  1.00  0.00     0.049 A 
ATOM     74  H   UNL A   1      45.796  29.252  30.082  1.00  0.00     0.167 HD
ATOM     75  C   UNL A   1      47.529  27.133  30.833  1.00  0.00     0.074 A 
ATOM     76  C   UNL A   1      48.054  25.977  31.531  1.00  0.00     0.031 C 
ATOM     77  C   UNL A   1      48.131  27.727  29.773  1.00  0.00     0.037 A 
BRANCH  64  78
ATOM     78  C   UNL A   1      45.013  32.523  27.448  1.00  0.00     0.064 A 
ATOM     79  C   UNL A   1      45.828  33.661  27.534  1.00  0.00     0.173 A 
ATOM     80  C   UNL A   1      44.220  32.370  26.300  1.00  0.00     0.173 A 
ATOM     81  F   UNL A   1      46.604  33.855  28.611  1.00  0.00    -0.203 F 
ATOM     82  C   UNL A   1      45.845  34.610  26.516  1.00  0.00     0.198 A 
ATOM     83  C   UNL A   1      44.259  33.308  25.272  1.00  0.00     0.198 A 
ATOM     84  F   UNL A   1      43.432  31.293  26.160  1.00  0.00    -0.203 F 
ATOM     85  F   UNL A   1      46.615  35.701  26.631  1.00  0.00    -0.200 F 
ATOM     86  C   UNL A   1      45.068  34.429  25.382  1.00  0.00     0.200 A 
ATOM     87  F   UNL A   1      43.521  33.122  24.168  1.00  0.00    -0.200 F 
ATOM     88  F   UNL A   1      45.101  35.333  24.394  1.00  0.00    -0.200 F 
ENDBRANCH  64  78
BRANCH  65  89
ATOM     89  C   UNL A   1      45.086  25.463  34.493  1.00  0.00     0.064 A 
ATOM     90  C   UNL A   1      44.489  24.211  34.296  1.00  0.00     0.173 A 
ATOM     91  C   UNL A   1      45.737  25.694  35.713  1.00  0.00     0.173 A 
ATOM     92  F   UNL A   1      43.841  23.952  33.150  1.00  0.00    -0.203 F 
ATOM     93  C   UNL A   1      44.535  23.231  35.283  1.00  0.00     0.198 A 
ATOM     94  C   UNL A   1      45.807  24.702  36.689  1.00  0.00     0.198 A 
ATOM     95  F   UNL A   1      46.331  26.874  35.946  1.00  0.00    -0.203 F 
ATOM     96  F   UNL A   1      43.930  22.052  35.081  1.00  0.00    -0.200 F 
ATOM     97  C   UNL A   1      45.201  23.474  36.475  1.00  0.00     0.200 A 
ATOM     98  F   UNL A   1      46.465  24.935  37.832  1.00  0.00    -0.200 F 
ATOM     99  F   UNL A   1      45.257  22.524  37.419  1.00  0.00    -0.200 F 
ENDBRANCH  65  89
BRANCH  77 100
ATOM    100  C   UNL A   1      49.432  27.146  29.300  1.00  0.00     0.064 A 
ATOM    101  C   UNL A   1      49.483  26.244  28.228  1.00  0.00     0.173 A 
ATOM    102  C   UNL A   1      50.645  27.543  29.884  1.00  0.00     0.173 A 
ATOM    103  F   UNL A   1      48.351  25.821  27.646  1.00  0.00    -0.203 F 
ATOM    104  C   UNL A   1      50.700  25.747  27.767  1.00  0.00     0.198 A 
ATOM    105  C   UNL A   1      51.862  27.067  29.402  1.00  0.00     0.198 A 
ATOM    106  F   UNL A   1      50.652  28.408  30.909  1.00  0.00    -0.203 F 
ATOM    107  F   UNL A   1      50.723  24.856  26.767  1.00  0.00    -0.200 F 
ATOM    108  C   UNL A   1      51.888  26.167  28.348  1.00  0.00     0.200 A 
ATOM    109  F   UNL A   1      53.009  27.484  29.954  1.00  0.00    -0.200 F 
ATOM    110  F   UNL A   1      53.059  25.699  27.893  1.00  0.00    -0.200 F 
ENDBRANCH  77 100
ENDBRANCH  51  52
ENDBRANCH  44  46
ENDBRANCH  43  44
ENDBRANCH  42  43
ENDBRANCH  41  42
ENDBRANCH  40  41
ENDBRANCH  39  40
ENDBRANCH   1  39
TORSDOF 21
ENDMDL
MODEL 3
REMARK VINA RESULT:      -9.0      2.201      3.592
REMARK SMILES C[C@]12C(=O)N(c3ccc(C(=O)OCCOCCOCCOCCOC(=O)c4ccc(-c5c6nc(c(-c7c(F)c(F)c(F)c(F)c7F)c7ccc([nH]7)c(-c7c(F)c(F)c(F)c(F)c7F)c7nc(c(-c8c(F)c(F)c(F)c(F)c8F)c8ccc5[nH]8)C=C7)C=C6)cc4)cc3)C(=O)[C@H]1[C@H]1c3ccccc3[C@@H]2c2ccccc21
REMARK SMILES IDX 19 1 18 2 17 3 16 4 15 5 14 6 13 7 12 8 10 9 11 10 9 11 6 12
REMARK SMILES IDX 7 13 91 14 8 15 90 16 5 17 1 18 2 19 3 20 94 21 102 22 4 23
REMARK SMILES IDX 92 24 95 25 101 26 103 27 93 28 96 29 108 30 100 31 104 32
REMARK SMILES IDX 97 33 107 34 99 35 105 36 98 37 106 38 20 39 21 40 22 41
REMARK SMILES IDX 23 42 24 43 25 44 26 45 27 46 28 47 89 48 29 49 88 50 30 51
REMARK SMILES IDX 31 52 32 53 82 54 33 55 87 56 81 57 83 58 34 59 86 60 80 61
REMARK SMILES IDX 79 62 35 64 67 65 47 66 66 67 48 68 51 69 65 70 84 71 49 72
REMARK SMILES IDX 50 73 64 75 85 76 52 77 36 78 37 79 45 80 38 81 39 82 43 83
REMARK SMILES IDX 46 84 40 85 41 86 44 87 42 88 68 89 69 90 77 91 70 92 71 93
REMARK SMILES IDX 75 94 78 95 72 96 73 97 76 98 74 99 53 100 54 101 62 102
REMARK SMILES IDX 55 103 56 104 60 105 63 106 57 107 58 108 61 109 59 110
REMARK H PARENT 83 63 51 74
REMARK Flexibility Score: inf
ROOT
ATOM      1  C   UNL A   1      33.590  35.134  29.425  1.00  0.00     0.188 C 
ENDROOT
BRANCH   1   2
ATOM      2  O   UNL A   1      32.946  34.234  28.531  1.00  0.00    -0.377 OA
BRANCH   2   3
ATOM      3  C   UNL A   1      33.735  33.367  27.732  1.00  0.00     0.188 C 
BRANCH   3   4
ATOM      4  C   UNL A   1      33.977  31.953  28.287  1.00  0.00     0.188 C 
BRANCH   4   5
ATOM      5  O   UNL A   1      35.314  31.760  28.726  1.00  0.00    -0.376 OA
BRANCH   5   6
ATOM      6  C   UNL A   1      36.147  30.932  27.932  1.00  0.00     0.202 C 
BRANCH   6   7
ATOM      7  C   UNL A   1      36.470  29.509  28.424  1.00  0.00     0.261 C 
BRANCH   7   8
ATOM      8  O   UNL A   1      37.483  29.392  29.431  1.00  0.00    -0.460 OA
BRANCH   8   9
ATOM      9  C   UNL A   1      38.695  29.909  29.146  1.00  0.00     0.338 C 
ATOM     10  O   UNL A   1      39.148  30.973  29.529  1.00  0.00    -0.246 OA
BRANCH   9  11
ATOM     11  C   UNL A   1      39.488  28.868  28.459  1.00  0.00     0.060 A 
ATOM     12  C   UNL A   1      41.107  26.862  27.315  1.00  0.00     0.052 A 
ATOM     13  C   UNL A   1      40.420  26.646  28.525  1.00  0.00     0.028 A 
ATOM     14  C   UNL A   1      40.858  28.060  26.631  1.00  0.00     0.028 A 
ATOM     15  C   UNL A   1      39.672  27.657  29.123  1.00  0.00     0.018 A 
ATOM     16  C   UNL A   1      40.027  29.049  27.184  1.00  0.00     0.018 A 
BRANCH  12  17
ATOM     17  N   UNL A   1      42.180  25.986  26.971  1.00  0.00    -0.250 N 
ATOM     18  C   UNL A   1      44.579  23.486  27.469  1.00  0.00     0.024 C 
ATOM     19  C   UNL A   1      44.219  24.977  27.508  1.00  0.00     0.071 C 
ATOM     20  C   UNL A   1      42.772  25.139  27.877  1.00  0.00     0.241 C 
ATOM     21  C   UNL A   1      44.333  25.599  26.087  1.00  0.00     0.107 C 
ATOM     22  C   UNL A   1      45.038  25.832  28.544  1.00  0.00     0.066 C 
ATOM     23  O   UNL A   1      42.272  24.609  28.861  1.00  0.00    -0.273 OA
ATOM     24  C   UNL A   1      42.911  26.062  25.802  1.00  0.00     0.238 C 
ATOM     25  C   UNL A   1      45.363  26.778  26.101  1.00  0.00     0.063 C 
ATOM     26  C   UNL A   1      44.630  27.312  28.392  1.00  0.00    -0.036 A 
ATOM     27  C   UNL A   1      46.479  25.759  28.069  1.00  0.00    -0.036 A 
ATOM     28  O   UNL A   1      42.555  26.452  24.698  1.00  0.00    -0.274 OA
ATOM     29  C   UNL A   1      44.807  27.817  27.076  1.00  0.00    -0.036 A 
ATOM     30  C   UNL A   1      46.659  26.245  26.744  1.00  0.00    -0.036 A 
ATOM     31  C   UNL A   1      44.094  28.121  29.382  1.00  0.00     0.005 A 
ATOM     32  C   UNL A   1      47.544  25.314  28.839  1.00  0.00     0.005 A 
ATOM     33  C   UNL A   1      44.423  29.109  26.745  1.00  0.00     0.004 A 
ATOM     34  C   UNL A   1      47.934  26.286  26.201  1.00  0.00     0.004 A 
ATOM     35  C   UNL A   1      43.698  29.420  29.044  1.00  0.00     0.000 A 
ATOM     36  C   UNL A   1      48.817  25.352  28.283  1.00  0.00     0.000 A 
ATOM     37  C   UNL A   1      43.857  29.907  27.738  1.00  0.00     0.000 A 
ATOM     38  C   UNL A   1      49.011  25.834  26.978  1.00  0.00     0.000 A 
ENDBRANCH  12  17
ENDBRANCH   9  11
ENDBRANCH   8   9
ENDBRANCH   7   8
ENDBRANCH   6   7
ENDBRANCH   5   6
ENDBRANCH   4   5
ENDBRANCH   3   4
ENDBRANCH   2   3
ENDBRANCH   1   2
BRANCH   1  39
ATOM     39  C   UNL A   1      32.815  36.088  30.366  1.00  0.00     0.188 C 
BRANCH  39  40
ATOM     40  O   UNL A   1      32.503  35.563  31.649  1.00  0.00    -0.376 OA
BRANCH  40  41
ATOM     41  C   UNL A   1      33.077  36.228  32.765  1.00  0.00     0.202 C 
BRANCH  41  42
ATOM     42  C   UNL A   1      34.511  35.795  33.083  1.00  0.00     0.261 C 
BRANCH  42  43
ATOM     43  O   UNL A   1      34.631  34.754  34.064  1.00  0.00    -0.460 OA
BRANCH  43  44
ATOM     44  C   UNL A   1      34.630  33.476  33.626  1.00  0.00     0.338 C 
ATOM     45  O   UNL A   1      33.671  32.811  33.276  1.00  0.00    -0.246 OA
BRANCH  44  46
ATOM     46  C   UNL A   1      36.041  33.069  33.466  1.00  0.00     0.060 A 
ATOM     47  C   UNL A   1      36.396  32.133  32.490  1.00  0.00     0.016 A 
ATOM     48  C   UNL A   1      37.007  33.586  34.338  1.00  0.00     0.016 A 
ATOM     49  C   UNL A   1      37.728  31.735  32.370  1.00  0.00     0.010 A 
ATOM     50  C   UNL A   1      38.339  33.182  34.221  1.00  0.00     0.010 A 
ATOM     51  C   UNL A   1      38.710  32.270  33.221  1.00  0.00    -0.014 A 
BRANCH  51  52
ATOM     52  C   UNL A   1      40.141  32.015  32.929  1.00  0.00     0.031 A 
ATOM     53  C   UNL A   1      40.903  30.900  33.573  1.00  0.00     0.074 A 
ATOM     54  C   UNL A   1      40.747  32.826  32.042  1.00  0.00     0.049 A 
ATOM     55  N   UNL A   1      42.131  30.505  33.338  1.00  0.00    -0.248 NA
ATOM     56  C   UNL A   1      40.210  30.131  34.615  1.00  0.00     0.031 C 
ATOM     57  C   UNL A   1      40.105  33.961  31.376  1.00  0.00     0.029 A 
ATOM     58  N   UNL A   1      42.022  32.819  31.539  1.00  0.00    -0.354 N 
ATOM     59  C   UNL A   1      42.352  29.427  34.181  1.00  0.00     0.074 A 
ATOM     60  C   UNL A   1      41.148  29.260  34.971  1.00  0.00     0.031 C 
ATOM     61  C   UNL A   1      40.980  34.524  30.532  1.00  0.00     0.029 A 
ATOM     62  C   UNL A   1      42.249  33.806  30.612  1.00  0.00     0.049 A 
ATOM     63  H   UNL A   1      42.709  32.169  31.817  1.00  0.00     0.167 HD
ATOM     64  C   UNL A   1      43.455  28.642  34.269  1.00  0.00     0.037 A 
ATOM     65  C   UNL A   1      43.352  34.096  29.899  1.00  0.00     0.037 A 
ATOM     66  C   UNL A   1      44.655  28.828  33.489  1.00  0.00     0.049 A 
ATOM     67  C   UNL A   1      44.574  33.237  30.052  1.00  0.00     0.074 A 
ATOM     68  C   UNL A   1      45.806  28.057  33.480  1.00  0.00     0.029 A 
ATOM     69  N   UNL A   1      44.867  29.865  32.590  1.00  0.00    -0.354 N 
ATOM     70  N   UNL A   1      44.746  32.170  30.793  1.00  0.00    -0.248 NA
ATOM     71  C   UNL A   1      45.754  33.618  29.264  1.00  0.00     0.031 C 
ATOM     72  C   UNL A   1      46.732  28.656  32.621  1.00  0.00     0.029 A 
ATOM     73  C   UNL A   1      46.141  29.771  32.050  1.00  0.00     0.049 A 
ATOM     74  H   UNL A   1      44.210  30.564  32.371  1.00  0.00     0.167 HD
ATOM     75  C   UNL A   1      46.041  31.740  30.547  1.00  0.00     0.074 A 
ATOM     76  C   UNL A   1      46.607  32.651  29.574  1.00  0.00     0.031 C 
ATOM     77  C   UNL A   1      46.701  30.685  31.085  1.00  0.00     0.037 A 
BRANCH  64  78
ATOM     78  C   UNL A   1      43.425  27.488  35.229  1.00  0.00     0.064 A 
ATOM     79  C   UNL A   1      43.151  26.184  34.792  1.00  0.00     0.173 A 
ATOM     80  C   UNL A   1      43.777  27.668  36.577  1.00  0.00     0.173 A 
ATOM     81  F   UNL A   1      42.809  25.959  33.514  1.00  0.00    -0.203 F 
ATOM     82  C   UNL A   1      43.219  25.104  35.668  1.00  0.00     0.198 A 
ATOM     83  C   UNL A   1      43.870  26.581  37.444  1.00  0.00     0.198 A 
ATOM     84  F   UNL A   1      44.063  28.892  37.045  1.00  0.00    -0.203 F 
ATOM     85  F   UNL A   1      42.931  23.871  35.232  1.00  0.00    -0.200 F 
ATOM     86  C   UNL A   1      43.587  25.302  36.990  1.00  0.00     0.200 A 
ATOM     87  F   UNL A   1      44.244  26.772  38.717  1.00  0.00    -0.200 F 
ATOM     88  F   UNL A   1      43.673  24.259  37.826  1.00  0.00    -0.200 F 
ENDBRANCH  64  78
BRANCH  65  89
ATOM     89  C   UNL A   1      43.322  35.230  28.942  1.00  0.00     0.064 A 
ATOM     90  C   UNL A   1      43.208  35.002  27.564  1.00  0.00     0.173 A 
ATOM     91  C   UNL A   1      43.365  36.559  29.385  1.00  0.00     0.173 A 
ATOM     92  F   UNL A   1      43.179  33.746  27.094  1.00  0.00    -0.203 F 
ATOM     93  C   UNL A   1      43.148  36.063  26.665  1.00  0.00     0.198 A 
ATOM     94  C   UNL A   1      43.277  37.620  28.486  1.00  0.00     0.198 A 
ATOM     95  F   UNL A   1      43.466  36.828  30.695  1.00  0.00    -0.203 F 
ATOM     96  F   UNL A   1      43.070  35.818  25.349  1.00  0.00    -0.200 F 
ATOM     97  C   UNL A   1      43.173  37.370  27.126  1.00  0.00     0.200 A 
ATOM     98  F   UNL A   1      43.285  38.881  28.938  1.00  0.00    -0.200 F 
ATOM     99  F   UNL A   1      43.101  38.390  26.260  1.00  0.00    -0.200 F 
ENDBRANCH  65  89
BRANCH  77 100
ATOM    100  C   UNL A   1      48.113  30.447  30.632  1.00  0.00     0.064 A 
ATOM    101  C   UNL A   1      48.402  29.596  29.555  1.00  0.00     0.173 A 
ATOM    102  C   UNL A   1      49.181  31.123  31.241  1.00  0.00     0.173 A 
ATOM    103  F   UNL A   1      47.419  28.914  28.950  1.00  0.00    -0.203 F 
ATOM    104  C   UNL A   1      49.711  29.418  29.115  1.00  0.00     0.198 A 
ATOM    105  C   UNL A   1      50.486  30.966  30.779  1.00  0.00     0.198 A 
ATOM    106  F   UNL A   1      48.958  31.952  32.272  1.00  0.00    -0.203 F 
ATOM    107  F   UNL A   1      49.969  28.571  28.109  1.00  0.00    -0.200 F 
ATOM    108  C   UNL A   1      50.750  30.111  29.721  1.00  0.00     0.200 A 
ATOM    109  F   UNL A   1      51.486  31.645  31.356  1.00  0.00    -0.200 F 
ATOM    110  F   UNL A   1      52.007  29.949  29.285  1.00  0.00    -0.200 F 
ENDBRANCH  77 100
ENDBRANCH  51  52
ENDBRANCH  44  46
ENDBRANCH  43  44
ENDBRANCH  42  43
ENDBRANCH  41  42
ENDBRANCH  40  41
ENDBRANCH  39  40
ENDBRANCH   1  39
TORSDOF 21
ENDMDL
