MODEL 1
REMARK VINA RESULT:     -10.4      0.000      0.000
REMARK SMILES CCCC[C@@H](C(=O)OCCOCCOCCOCCOC(=O)c1ccc(-c2c3nc(c(-c4c(F)c(F)c(F)c(F)c4F)c4ccc([nH]4)c(-c4c(F)c(F)c(F)c(F)c4F)c4nc(c(-c5c(F)c(F)c(F)c(F)c5F)c5ccc2[nH]5)C=C4)C=C3)cc1)C1(O)Cc2ccccc2C1
REMARK SMILES IDX 13 1 12 2 11 3 10 4 9 5 8 6 6 7 7 8 5 9 4 10 3 11 2 12 1 13
REMARK SMILES IDX 86 14 88 15 95 16 89 17 94 18 90 19 93 20 91 21 92 22 87 23
REMARK SMILES IDX 14 25 15 26 16 27 17 28 18 29 19 30 20 31 21 32 22 33 23 34
REMARK SMILES IDX 24 35 85 36 25 37 84 38 26 39 27 40 28 41 78 42 29 43 83 44
REMARK SMILES IDX 77 45 79 46 30 47 82 48 76 49 75 50 31 52 63 53 43 54 62 55
REMARK SMILES IDX 44 56 47 57 61 58 80 59 45 60 46 61 60 63 81 64 48 65 32 66
REMARK SMILES IDX 33 67 41 68 34 69 35 70 39 71 42 72 36 73 37 74 40 75 38 76
REMARK SMILES IDX 64 77 65 78 73 79 66 80 67 81 71 82 74 83 68 84 69 85 72 86
REMARK SMILES IDX 70 87 49 88 50 89 58 90 51 91 52 92 56 93 59 94 53 95 54 96
REMARK SMILES IDX 57 97 55 98
REMARK H PARENT 87 24 79 51 47 62
REMARK Flexibility Score: inf
ROOT
ATOM      1  C   UNL A   1      37.408  22.165  25.749  1.00  0.00     0.188 C 
ENDROOT
BRANCH   1   2
ATOM      2  C   UNL A   1      36.651  21.456  24.646  1.00  0.00     0.188 C 
BRANCH   2   3
ATOM      3  O   UNL A   1      35.851  20.341  25.001  1.00  0.00    -0.376 OA
BRANCH   3   4
ATOM      4  C   UNL A   1      34.539  20.652  25.488  1.00  0.00     0.202 C 
BRANCH   4   5
ATOM      5  C   UNL A   1      33.767  21.891  24.968  1.00  0.00     0.261 C 
BRANCH   5   6
ATOM      6  O   UNL A   1      33.714  23.005  25.884  1.00  0.00    -0.463 OA
BRANCH   6   7
ATOM      7  C   UNL A   1      33.557  24.242  25.375  1.00  0.00     0.311 C 
ATOM      8  O   UNL A   1      34.231  25.186  25.764  1.00  0.00    -0.252 OA
BRANCH   7   9
ATOM      9  C   UNL A   1      32.402  24.341  24.338  1.00  0.00     0.131 C 
BRANCH   9  10
ATOM     10  C   UNL A   1      32.608  25.015  22.929  1.00  0.00     0.018 C 
BRANCH  10  11
ATOM     11  C   UNL A   1      33.674  26.073  22.612  1.00  0.00     0.001 C 
BRANCH  11  12
ATOM     12  C   UNL A   1      33.200  27.462  22.230  1.00  0.00    -0.003 C 
ATOM     13  C   UNL A   1      34.291  28.504  22.395  1.00  0.00     0.004 C 
ENDBRANCH  11  12
ENDBRANCH  10  11
ENDBRANCH   9  10
BRANCH   9  14
ATOM     14  C   UNL A   1      31.009  24.842  24.956  1.00  0.00     0.086 C 
ATOM     15  C   UNL A   1      31.120  25.758  26.213  1.00  0.00     0.072 C 
ATOM     16  C   UNL A   1      30.048  25.680  24.034  1.00  0.00     0.072 C 
ATOM     17  C   UNL A   1      31.080  27.128  25.598  1.00  0.00    -0.042 A 
ATOM     18  C   UNL A   1      30.418  27.087  24.371  1.00  0.00    -0.042 A 
ATOM     19  C   UNL A   1      31.617  28.313  26.067  1.00  0.00     0.004 A 
ATOM     20  C   UNL A   1      30.214  28.233  23.618  1.00  0.00     0.004 A 
ATOM     21  C   UNL A   1      31.479  29.464  25.285  1.00  0.00     0.000 A 
ATOM     22  C   UNL A   1      30.769  29.427  24.074  1.00  0.00     0.000 A 
BRANCH  14  23
ATOM     23  O   UNL A   1      30.273  23.653  25.320  1.00  0.00    -0.388 OA
ATOM     24  H   UNL A   1      30.819  23.100  25.901  1.00  0.00     0.211 HD
ENDBRANCH  14  23
ENDBRANCH   9  14
ENDBRANCH   7   9
ENDBRANCH   6   7
ENDBRANCH   5   6
ENDBRANCH   4   5
ENDBRANCH   3   4
ENDBRANCH   2   3
ENDBRANCH   1   2
BRANCH   1  25
ATOM     25  O   UNL A   1      38.808  22.201  25.509  1.00  0.00    -0.377 OA
BRANCH  25  26
ATOM     26  C   UNL A   1      39.501  21.055  25.984  1.00  0.00     0.188 C 
BRANCH  26  27
ATOM     27  C   UNL A   1      40.899  21.297  26.583  1.00  0.00     0.188 C 
BRANCH  27  28
ATOM     28  O   UNL A   1      41.978  20.683  25.885  1.00  0.00    -0.376 OA
BRANCH  28  29
ATOM     29  C   UNL A   1      43.248  21.325  26.005  1.00  0.00     0.202 C 
BRANCH  29  30
ATOM     30  C   UNL A   1      43.671  22.242  24.842  1.00  0.00     0.261 C 
BRANCH  30  31
ATOM     31  O   UNL A   1      43.094  23.557  24.833  1.00  0.00    -0.460 OA
BRANCH  31  32
ATOM     32  C   UNL A   1      43.890  24.610  25.100  1.00  0.00     0.338 C 
ATOM     33  O   UNL A   1      44.909  24.933  24.516  1.00  0.00    -0.246 OA
BRANCH  32  34
ATOM     34  C   UNL A   1      43.180  25.464  26.080  1.00  0.00     0.060 A 
ATOM     35  C   UNL A   1      43.570  26.807  26.190  1.00  0.00     0.016 A 
ATOM     36  C   UNL A   1      42.080  24.986  26.800  1.00  0.00     0.016 A 
ATOM     37  C   UNL A   1      42.848  27.680  27.005  1.00  0.00     0.010 A 
ATOM     38  C   UNL A   1      41.392  25.847  27.660  1.00  0.00     0.010 A 
ATOM     39  C   UNL A   1      41.789  27.189  27.781  1.00  0.00    -0.014 A 
BRANCH  39  40
ATOM     40  C   UNL A   1      41.312  27.994  28.929  1.00  0.00     0.031 A 
ATOM     41  C   UNL A   1      42.087  27.864  30.211  1.00  0.00     0.074 A 
ATOM     42  C   UNL A   1      40.254  28.817  28.846  1.00  0.00     0.049 A 
ATOM     43  N   UNL A   1      41.885  28.431  31.371  1.00  0.00    -0.248 NA
ATOM     44  C   UNL A   1      43.255  26.966  30.172  1.00  0.00     0.031 C 
ATOM     45  C   UNL A   1      39.454  29.058  27.648  1.00  0.00     0.029 A 
ATOM     46  N   UNL A   1      39.667  29.604  29.808  1.00  0.00    -0.354 N 
ATOM     47  C   UNL A   1      42.906  27.967  32.191  1.00  0.00     0.074 A 
ATOM     48  C   UNL A   1      43.704  27.048  31.412  1.00  0.00     0.031 C 
ATOM     49  C   UNL A   1      38.471  29.927  27.950  1.00  0.00     0.029 A 
ATOM     50  C   UNL A   1      38.556  30.279  29.367  1.00  0.00     0.049 A 
ATOM     51  H   UNL A   1      40.012  29.676  30.728  1.00  0.00     0.167 HD
ATOM     52  C   UNL A   1      43.161  28.284  33.480  1.00  0.00     0.037 A 
ATOM     53  C   UNL A   1      37.702  31.071  30.046  1.00  0.00     0.037 A 
ATOM     54  C   UNL A   1      42.344  29.167  34.262  1.00  0.00     0.049 A 
ATOM     55  C   UNL A   1      37.945  31.325  31.516  1.00  0.00     0.074 A 
ATOM     56  C   UNL A   1      42.501  29.546  35.582  1.00  0.00     0.029 A 
ATOM     57  N   UNL A   1      41.197  29.793  33.795  1.00  0.00    -0.354 N 
ATOM     58  N   UNL A   1      38.927  30.910  32.279  1.00  0.00    -0.248 NA
ATOM     59  C   UNL A   1      36.957  32.158  32.218  1.00  0.00     0.031 C 
ATOM     60  C   UNL A   1      41.420  30.362  35.929  1.00  0.00     0.029 A 
ATOM     61  C   UNL A   1      40.621  30.539  34.809  1.00  0.00     0.049 A 
ATOM     62  H   UNL A   1      40.846  29.721  32.878  1.00  0.00     0.167 HD
ATOM     63  C   UNL A   1      38.696  31.456  33.537  1.00  0.00     0.074 A 
ATOM     64  C   UNL A   1      37.483  32.241  33.431  1.00  0.00     0.031 C 
ATOM     65  C   UNL A   1      39.420  31.323  34.676  1.00  0.00     0.037 A 
BRANCH  52  66
ATOM     66  C   UNL A   1      44.350  27.633  34.119  1.00  0.00     0.064 A 
ATOM     67  C   UNL A   1      45.615  28.243  34.112  1.00  0.00     0.173 A 
ATOM     68  C   UNL A   1      44.228  26.380  34.735  1.00  0.00     0.173 A 
ATOM     69  F   UNL A   1      45.790  29.429  33.512  1.00  0.00    -0.203 F 
ATOM     70  C   UNL A   1      46.718  27.606  34.674  1.00  0.00     0.198 A 
ATOM     71  C   UNL A   1      45.327  25.760  35.323  1.00  0.00     0.198 A 
ATOM     72  F   UNL A   1      43.042  25.752  34.762  1.00  0.00    -0.203 F 
ATOM     73  F   UNL A   1      47.928  28.181  34.604  1.00  0.00    -0.200 F 
ATOM     74  C   UNL A   1      46.573  26.369  35.284  1.00  0.00     0.200 A 
ATOM     75  F   UNL A   1      45.183  24.569  35.918  1.00  0.00    -0.200 F 
ATOM     76  F   UNL A   1      47.635  25.759  35.825  1.00  0.00    -0.200 F 
ENDBRANCH  52  66
BRANCH  53  77
ATOM     77  C   UNL A   1      36.529  31.678  29.360  1.00  0.00     0.064 A 
ATOM     78  C   UNL A   1      35.455  30.887  28.926  1.00  0.00     0.173 A 
ATOM     79  C   UNL A   1      36.471  33.053  29.090  1.00  0.00     0.173 A 
ATOM     80  F   UNL A   1      35.475  29.561  29.132  1.00  0.00    -0.203 F 
ATOM     81  C   UNL A   1      34.379  31.444  28.236  1.00  0.00     0.198 A 
ATOM     82  C   UNL A   1      35.382  33.614  28.425  1.00  0.00     0.198 A 
ATOM     83  F   UNL A   1      37.474  33.856  29.474  1.00  0.00    -0.203 F 
ATOM     84  F   UNL A   1      33.391  30.656  27.790  1.00  0.00    -0.200 F 
ATOM     85  C   UNL A   1      34.341  32.808  27.991  1.00  0.00     0.200 A 
ATOM     86  F   UNL A   1      35.346  34.934  28.197  1.00  0.00    -0.200 F 
ATOM     87  F   UNL A   1      33.307  33.344  27.327  1.00  0.00    -0.200 F 
ENDBRANCH  53  77
BRANCH  65  88
ATOM     88  C   UNL A   1      38.951  32.074  35.889  1.00  0.00     0.064 A 
ATOM     89  C   UNL A   1      38.182  31.460  36.887  1.00  0.00     0.173 A 
ATOM     90  C   UNL A   1      39.332  33.411  36.082  1.00  0.00     0.173 A 
ATOM     91  F   UNL A   1      37.782  30.187  36.744  1.00  0.00    -0.203 F 
ATOM     92  C   UNL A   1      37.793  32.163  38.024  1.00  0.00     0.198 A 
ATOM     93  C   UNL A   1      38.970  34.101  37.235  1.00  0.00     0.198 A 
ATOM     94  F   UNL A   1      40.078  34.042  35.162  1.00  0.00    -0.203 F 
ATOM     95  F   UNL A   1      37.021  31.569  38.945  1.00  0.00    -0.200 F 
ATOM     96  C   UNL A   1      38.194  33.479  38.201  1.00  0.00     0.200 A 
ATOM     97  F   UNL A   1      39.374  35.366  37.413  1.00  0.00    -0.200 F 
ATOM     98  F   UNL A   1      37.829  34.149  39.302  1.00  0.00    -0.200 F 
ENDBRANCH  65  88
ENDBRANCH  39  40
ENDBRANCH  32  34
ENDBRANCH  31  32
ENDBRANCH  30  31
ENDBRANCH  29  30
ENDBRANCH  28  29
ENDBRANCH  27  28
ENDBRANCH  26  27
ENDBRANCH  25  26
ENDBRANCH   1  25
TORSDOF 25
ENDMDL
MODEL 2
REMARK VINA RESULT:     -10.0      1.023      7.074
REMARK SMILES CCCC[C@@H](C(=O)OCCOCCOCCOCCOC(=O)c1ccc(-c2c3nc(c(-c4c(F)c(F)c(F)c(F)c4F)c4ccc([nH]4)c(-c4c(F)c(F)c(F)c(F)c4F)c4nc(c(-c5c(F)c(F)c(F)c(F)c5F)c5ccc2[nH]5)C=C4)C=C3)cc1)C1(O)Cc2ccccc2C1
REMARK SMILES IDX 13 1 12 2 11 3 10 4 9 5 8 6 6 7 7 8 5 9 4 10 3 11 2 12 1 13
REMARK SMILES IDX 86 14 88 15 95 16 89 17 94 18 90 19 93 20 91 21 92 22 87 23
REMARK SMILES IDX 14 25 15 26 16 27 17 28 18 29 19 30 20 31 21 32 22 33 23 34
REMARK SMILES IDX 24 35 85 36 25 37 84 38 26 39 27 40 28 41 78 42 29 43 83 44
REMARK SMILES IDX 77 45 79 46 30 47 82 48 76 49 75 50 31 52 63 53 43 54 62 55
REMARK SMILES IDX 44 56 47 57 61 58 80 59 45 60 46 61 60 63 81 64 48 65 32 66
REMARK SMILES IDX 33 67 41 68 34 69 35 70 39 71 42 72 36 73 37 74 40 75 38 76
REMARK SMILES IDX 64 77 65 78 73 79 66 80 67 81 71 82 74 83 68 84 69 85 72 86
REMARK SMILES IDX 70 87 49 88 50 89 58 90 51 91 52 92 56 93 59 94 53 95 54 96
REMARK SMILES IDX 57 97 55 98
REMARK H PARENT 87 24 79 51 47 62
REMARK Flexibility Score: inf
ROOT
ATOM      1  C   UNL A   1      38.820  21.809  25.978  1.00  0.00     0.188 C 
ENDROOT
BRANCH   1   2
ATOM      2  C   UNL A   1      38.284  20.574  25.285  1.00  0.00     0.188 C 
BRANCH   2   3
ATOM      3  O   UNL A   1      36.878  20.411  25.215  1.00  0.00    -0.376 OA
BRANCH   3   4
ATOM      4  C   UNL A   1      36.153  21.520  24.667  1.00  0.00     0.202 C 
BRANCH   4   5
ATOM      5  C   UNL A   1      34.943  22.132  25.418  1.00  0.00     0.261 C 
BRANCH   5   6
ATOM      6  O   UNL A   1      33.746  22.281  24.627  1.00  0.00    -0.463 OA
BRANCH   6   7
ATOM      7  C   UNL A   1      32.653  22.805  25.214  1.00  0.00     0.311 C 
ATOM      8  O   UNL A   1      31.903  22.122  25.898  1.00  0.00    -0.252 OA
BRANCH   7   9
ATOM      9  C   UNL A   1      32.421  24.302  24.863  1.00  0.00     0.131 C 
BRANCH   9  10
ATOM     10  C   UNL A   1      33.616  25.266  24.508  1.00  0.00     0.018 C 
BRANCH  10  11
ATOM     11  C   UNL A   1      33.782  25.999  23.170  1.00  0.00     0.001 C 
BRANCH  11  12
ATOM     12  C   UNL A   1      33.098  25.409  21.952  1.00  0.00    -0.003 C 
ATOM     13  C   UNL A   1      31.794  26.116  21.631  1.00  0.00     0.004 C 
ENDBRANCH  11  12
ENDBRANCH  10  11
ENDBRANCH   9  10
BRANCH   9  14
ATOM     14  C   UNL A   1      31.420  25.060  25.859  1.00  0.00     0.086 C 
ATOM     15  C   UNL A   1      31.733  26.567  26.112  1.00  0.00     0.072 C 
ATOM     16  C   UNL A   1      29.893  25.112  25.480  1.00  0.00     0.072 C 
ATOM     17  C   UNL A   1      30.861  27.237  25.089  1.00  0.00    -0.042 A 
ATOM     18  C   UNL A   1      29.778  26.419  24.768  1.00  0.00    -0.042 A 
ATOM     19  C   UNL A   1      31.029  28.459  24.463  1.00  0.00     0.004 A 
ATOM     20  C   UNL A   1      28.803  26.826  23.871  1.00  0.00     0.004 A 
ATOM     21  C   UNL A   1      30.089  28.853  23.505  1.00  0.00     0.000 A 
ATOM     22  C   UNL A   1      28.975  28.047  23.222  1.00  0.00     0.000 A 
BRANCH  14  23
ATOM     23  O   UNL A   1      31.491  24.361  27.122  1.00  0.00    -0.388 OA
ATOM     24  H   UNL A   1      32.418  24.156  27.326  1.00  0.00     0.211 HD
ENDBRANCH  14  23
ENDBRANCH   9  14
ENDBRANCH   7   9
ENDBRANCH   6   7
ENDBRANCH   5   6
ENDBRANCH   4   5
ENDBRANCH   3   4
ENDBRANCH   2   3
ENDBRANCH   1   2
BRANCH   1  25
ATOM     25  O   UNL A   1      40.241  21.841  26.006  1.00  0.00    -0.377 OA
BRANCH  25  26
ATOM     26  C   UNL A   1      40.825  20.769  26.731  1.00  0.00     0.188 C 
BRANCH  26  27
ATOM     27  C   UNL A   1      42.220  20.308  26.270  1.00  0.00     0.188 C 
BRANCH  27  28
ATOM     28  O   UNL A   1      43.231  21.312  26.279  1.00  0.00    -0.376 OA
BRANCH  28  29
ATOM     29  C   UNL A   1      44.115  21.322  25.157  1.00  0.00     0.202 C 
BRANCH  29  30
ATOM     30  C   UNL A   1      44.285  22.665  24.423  1.00  0.00     0.261 C 
BRANCH  30  31
ATOM     31  O   UNL A   1      43.626  23.795  25.013  1.00  0.00    -0.460 OA
BRANCH  31  32
ATOM     32  C   UNL A   1      44.350  24.903  25.264  1.00  0.00     0.338 C 
ATOM     33  O   UNL A   1      45.277  25.343  24.608  1.00  0.00    -0.246 OA
BRANCH  32  34
ATOM     34  C   UNL A   1      43.666  25.642  26.349  1.00  0.00     0.060 A 
ATOM     35  C   UNL A   1      44.029  26.980  26.567  1.00  0.00     0.016 A 
ATOM     36  C   UNL A   1      42.612  25.070  27.070  1.00  0.00     0.016 A 
ATOM     37  C   UNL A   1      43.326  27.754  27.492  1.00  0.00     0.010 A 
ATOM     38  C   UNL A   1      41.945  25.828  28.035  1.00  0.00     0.010 A 
ATOM     39  C   UNL A   1      42.315  27.165  28.263  1.00  0.00    -0.014 A 
BRANCH  39  40
ATOM     40  C   UNL A   1      41.873  27.846  29.502  1.00  0.00     0.031 A 
ATOM     41  C   UNL A   1      40.611  28.659  29.409  1.00  0.00     0.074 A 
ATOM     42  C   UNL A   1      42.542  27.744  30.662  1.00  0.00     0.049 A 
ATOM     43  N   UNL A   1      40.007  29.371  30.324  1.00  0.00    -0.248 NA
ATOM     44  C   UNL A   1      39.939  28.662  28.098  1.00  0.00     0.031 C 
ATOM     45  C   UNL A   1      43.748  26.953  30.883  1.00  0.00     0.029 A 
ATOM     46  N   UNL A   1      42.291  28.325  31.882  1.00  0.00    -0.354 N 
ATOM     47  C   UNL A   1      38.882  29.895  29.700  1.00  0.00     0.074 A 
ATOM     48  C   UNL A   1      38.902  29.451  28.325  1.00  0.00     0.031 C 
ATOM     49  C   UNL A   1      44.142  27.106  32.161  1.00  0.00     0.029 A 
ATOM     50  C   UNL A   1      43.231  28.030  32.837  1.00  0.00     0.049 A 
ATOM     51  H   UNL A   1      41.510  28.900  32.053  1.00  0.00     0.167 HD
ATOM     52  C   UNL A   1      37.912  30.674  30.228  1.00  0.00     0.037 A 
ATOM     53  C   UNL A   1      43.343  28.477  34.105  1.00  0.00     0.037 A 
ATOM     54  C   UNL A   1      37.915  31.145  31.583  1.00  0.00     0.049 A 
ATOM     55  C   UNL A   1      42.305  29.435  34.641  1.00  0.00     0.074 A 
ATOM     56  C   UNL A   1      36.990  31.952  32.219  1.00  0.00     0.029 A 
ATOM     57  N   UNL A   1      38.911  30.866  32.508  1.00  0.00    -0.354 N 
ATOM     58  N   UNL A   1      41.227  29.903  34.059  1.00  0.00    -0.248 NA
ATOM     59  C   UNL A   1      42.501  29.927  36.013  1.00  0.00     0.031 C 
ATOM     60  C   UNL A   1      37.453  32.204  33.514  1.00  0.00     0.029 A 
ATOM     61  C   UNL A   1      38.636  31.505  33.704  1.00  0.00     0.049 A 
ATOM     62  H   UNL A   1      39.696  30.295  32.340  1.00  0.00     0.167 HD
ATOM     63  C   UNL A   1      40.602  30.714  34.999  1.00  0.00     0.074 A 
ATOM     64  C   UNL A   1      41.417  30.667  36.195  1.00  0.00     0.031 C 
ATOM     65  C   UNL A   1      39.457  31.432  34.886  1.00  0.00     0.037 A 
BRANCH  52  66
ATOM     66  C   UNL A   1      36.797  31.088  29.314  1.00  0.00     0.064 A 
ATOM     67  C   UNL A   1      36.709  32.393  28.806  1.00  0.00     0.173 A 
ATOM     68  C   UNL A   1      35.798  30.172  28.954  1.00  0.00     0.173 A 
ATOM     69  F   UNL A   1      37.625  33.313  29.144  1.00  0.00    -0.203 F 
ATOM     70  C   UNL A   1      35.645  32.773  27.993  1.00  0.00     0.198 A 
ATOM     71  C   UNL A   1      34.753  30.548  28.115  1.00  0.00     0.198 A 
ATOM     72  F   UNL A   1      35.833  28.915  29.419  1.00  0.00    -0.203 F 
ATOM     73  F   UNL A   1      35.550  34.041  27.566  1.00  0.00    -0.200 F 
ATOM     74  C   UNL A   1      34.672  31.849  27.642  1.00  0.00     0.200 A 
ATOM     75  F   UNL A   1      33.817  29.652  27.773  1.00  0.00    -0.200 F 
ATOM     76  F   UNL A   1      33.649  32.216  26.859  1.00  0.00    -0.200 F 
ENDBRANCH  52  66
BRANCH  53  77
ATOM     77  C   UNL A   1      44.481  28.042  34.960  1.00  0.00     0.064 A 
ATOM     78  C   UNL A   1      44.390  26.892  35.758  1.00  0.00     0.173 A 
ATOM     79  C   UNL A   1      45.670  28.784  35.025  1.00  0.00     0.173 A 
ATOM     80  F   UNL A   1      43.262  26.164  35.756  1.00  0.00    -0.203 F 
ATOM     81  C   UNL A   1      45.434  26.512  36.600  1.00  0.00     0.198 A 
ATOM     82  C   UNL A   1      46.725  28.387  35.845  1.00  0.00     0.198 A 
ATOM     83  F   UNL A   1      45.809  29.896  34.291  1.00  0.00    -0.203 F 
ATOM     84  F   UNL A   1      45.299  25.436  37.388  1.00  0.00    -0.200 F 
ATOM     85  C   UNL A   1      46.603  27.256  36.639  1.00  0.00     0.200 A 
ATOM     86  F   UNL A   1      47.856  29.105  35.874  1.00  0.00    -0.200 F 
ATOM     87  F   UNL A   1      47.607  26.890  37.448  1.00  0.00    -0.200 F 
ENDBRANCH  53  77
BRANCH  65  88
ATOM     88  C   UNL A   1      38.989  32.189  36.096  1.00  0.00     0.064 A 
ATOM     89  C   UNL A   1      38.180  31.594  37.074  1.00  0.00     0.173 A 
ATOM     90  C   UNL A   1      39.410  33.512  36.306  1.00  0.00     0.173 A 
ATOM     91  F   UNL A   1      37.741  30.336  36.913  1.00  0.00    -0.203 F 
ATOM     92  C   UNL A   1      37.792  32.302  38.208  1.00  0.00     0.198 A 
ATOM     93  C   UNL A   1      39.047  34.205  37.457  1.00  0.00     0.198 A 
ATOM     94  F   UNL A   1      40.194  34.124  35.406  1.00  0.00    -0.203 F 
ATOM     95  F   UNL A   1      36.982  31.728  39.109  1.00  0.00    -0.200 F 
ATOM     96  C   UNL A   1      38.232  33.603  38.403  1.00  0.00     0.200 A 
ATOM     97  F   UNL A   1      39.488  35.456  37.652  1.00  0.00    -0.200 F 
ATOM     98  F   UNL A   1      37.867  34.278  39.501  1.00  0.00    -0.200 F 
ENDBRANCH  65  88
ENDBRANCH  39  40
ENDBRANCH  32  34
ENDBRANCH  31  32
ENDBRANCH  30  31
ENDBRANCH  29  30
ENDBRANCH  28  29
ENDBRANCH  27  28
ENDBRANCH  26  27
ENDBRANCH  25  26
ENDBRANCH   1  25
TORSDOF 25
ENDMDL
MODEL 3
REMARK VINA RESULT:      -9.9      0.815      2.012
REMARK SMILES CCCC[C@@H](C(=O)OCCOCCOCCOCCOC(=O)c1ccc(-c2c3nc(c(-c4c(F)c(F)c(F)c(F)c4F)c4ccc([nH]4)c(-c4c(F)c(F)c(F)c(F)c4F)c4nc(c(-c5c(F)c(F)c(F)c(F)c5F)c5ccc2[nH]5)C=C4)C=C3)cc1)C1(O)Cc2ccccc2C1
REMARK SMILES IDX 13 1 12 2 11 3 10 4 9 5 8 6 6 7 7 8 5 9 4 10 3 11 2 12 1 13
REMARK SMILES IDX 86 14 88 15 95 16 89 17 94 18 90 19 93 20 91 21 92 22 87 23
REMARK SMILES IDX 14 25 15 26 16 27 17 28 18 29 19 30 20 31 21 32 22 33 23 34
REMARK SMILES IDX 24 35 85 36 25 37 84 38 26 39 27 40 28 41 78 42 29 43 83 44
REMARK SMILES IDX 77 45 79 46 30 47 82 48 76 49 75 50 31 52 63 53 43 54 62 55
REMARK SMILES IDX 44 56 47 57 61 58 80 59 45 60 46 61 60 63 81 64 48 65 32 66
REMARK SMILES IDX 33 67 41 68 34 69 35 70 39 71 42 72 36 73 37 74 40 75 38 76
REMARK SMILES IDX 64 77 65 78 73 79 66 80 67 81 71 82 74 83 68 84 69 85 72 86
REMARK SMILES IDX 70 87 49 88 50 89 58 90 51 91 52 92 56 93 59 94 53 95 54 96
REMARK SMILES IDX 57 97 55 98
REMARK H PARENT 87 24 79 51 47 62
REMARK Flexibility Score: inf
ROOT
ATOM      1  C   UNL A   1      36.460  21.463  25.873  1.00  0.00     0.188 C 
ENDROOT
BRANCH   1   2
ATOM      2  C   UNL A   1      35.690  21.091  24.624  1.00  0.00     0.188 C 
BRANCH   2   3
ATOM      3  O   UNL A   1      34.899  19.916  24.658  1.00  0.00    -0.376 OA
BRANCH   3   4
ATOM      4  C   UNL A   1      33.489  20.114  24.484  1.00  0.00     0.202 C 
BRANCH   4   5
ATOM      5  C   UNL A   1      32.911  21.523  24.196  1.00  0.00     0.261 C 
BRANCH   5   6
ATOM      6  O   UNL A   1      33.722  22.351  23.336  1.00  0.00    -0.463 OA
BRANCH   6   7
ATOM      7  C   UNL A   1      33.463  23.671  23.293  1.00  0.00     0.311 C 
ATOM      8  O   UNL A   1      34.081  24.422  22.550  1.00  0.00    -0.252 OA
BRANCH   7   9
ATOM      9  C   UNL A   1      32.388  24.124  24.321  1.00  0.00     0.131 C 
BRANCH   9  10
ATOM     10  C   UNL A   1      31.106  24.928  23.882  1.00  0.00     0.018 C 
BRANCH  10  11
ATOM     11  C   UNL A   1      31.089  26.034  22.817  1.00  0.00     0.001 C 
BRANCH  11  12
ATOM     12  C   UNL A   1      30.062  27.140  22.964  1.00  0.00    -0.003 C 
ATOM     13  C   UNL A   1      28.930  26.748  23.896  1.00  0.00     0.004 C 
ENDBRANCH  11  12
ENDBRANCH  10  11
ENDBRANCH   9  10
BRANCH   9  14
ATOM     14  C   UNL A   1      32.992  24.793  25.648  1.00  0.00     0.086 C 
ATOM     15  C   UNL A   1      34.183  25.775  25.426  1.00  0.00     0.072 C 
ATOM     16  C   UNL A   1      32.031  25.656  26.547  1.00  0.00     0.072 C 
ATOM     17  C   UNL A   1      33.478  27.099  25.352  1.00  0.00    -0.042 A 
ATOM     18  C   UNL A   1      32.267  27.040  26.041  1.00  0.00    -0.042 A 
ATOM     19  C   UNL A   1      33.858  28.257  24.697  1.00  0.00     0.004 A 
ATOM     20  C   UNL A   1      31.442  28.149  26.153  1.00  0.00     0.004 A 
ATOM     21  C   UNL A   1      33.002  29.362  24.744  1.00  0.00     0.000 A 
ATOM     22  C   UNL A   1      31.809  29.313  25.480  1.00  0.00     0.000 A 
BRANCH  14  23
ATOM     23  O   UNL A   1      33.447  23.705  26.483  1.00  0.00    -0.388 OA
ATOM     24  H   UNL A   1      32.719  23.077  26.621  1.00  0.00     0.211 HD
ENDBRANCH  14  23
ENDBRANCH   9  14
ENDBRANCH   7   9
ENDBRANCH   6   7
ENDBRANCH   5   6
ENDBRANCH   4   5
ENDBRANCH   3   4
ENDBRANCH   2   3
ENDBRANCH   1   2
BRANCH   1  25
ATOM     25  O   UNL A   1      37.744  21.998  25.580  1.00  0.00    -0.377 OA
BRANCH  25  26
ATOM     26  C   UNL A   1      38.772  21.020  25.517  1.00  0.00     0.188 C 
BRANCH  26  27
ATOM     27  C   UNL A   1      40.028  21.287  26.366  1.00  0.00     0.188 C 
BRANCH  27  28
ATOM     28  O   UNL A   1      41.254  20.819  25.811  1.00  0.00    -0.376 OA
BRANCH  28  29
ATOM     29  C   UNL A   1      42.429  21.533  26.195  1.00  0.00     0.202 C 
BRANCH  29  30
ATOM     30  C   UNL A   1      43.278  22.129  25.056  1.00  0.00     0.261 C 
BRANCH  30  31
ATOM     31  O   UNL A   1      43.021  23.504  24.731  1.00  0.00    -0.460 OA
BRANCH  31  32
ATOM     32  C   UNL A   1      43.906  24.436  25.135  1.00  0.00     0.338 C 
ATOM     33  O   UNL A   1      45.005  24.665  24.662  1.00  0.00    -0.246 OA
BRANCH  32  34
ATOM     34  C   UNL A   1      43.212  25.312  26.106  1.00  0.00     0.060 A 
ATOM     35  C   UNL A   1      43.644  26.643  26.221  1.00  0.00     0.016 A 
ATOM     36  C   UNL A   1      42.089  24.871  26.814  1.00  0.00     0.016 A 
ATOM     37  C   UNL A   1      42.942  27.539  27.028  1.00  0.00     0.010 A 
ATOM     38  C   UNL A   1      41.420  25.753  27.665  1.00  0.00     0.010 A 
ATOM     39  C   UNL A   1      41.858  27.083  27.791  1.00  0.00    -0.014 A 
BRANCH  39  40
ATOM     40  C   UNL A   1      41.394  27.903  28.933  1.00  0.00     0.031 A 
ATOM     41  C   UNL A   1      42.164  27.765  30.217  1.00  0.00     0.074 A 
ATOM     42  C   UNL A   1      40.351  28.745  28.843  1.00  0.00     0.049 A 
ATOM     43  N   UNL A   1      41.970  28.344  31.373  1.00  0.00    -0.248 NA
ATOM     44  C   UNL A   1      43.315  26.847  30.186  1.00  0.00     0.031 C 
ATOM     45  C   UNL A   1      39.559  28.994  27.643  1.00  0.00     0.029 A 
ATOM     46  N   UNL A   1      39.777  29.548  29.799  1.00  0.00    -0.354 N 
ATOM     47  C   UNL A   1      42.981  27.866  32.198  1.00  0.00     0.074 A 
ATOM     48  C   UNL A   1      43.763  26.928  31.426  1.00  0.00     0.031 C 
ATOM     49  C   UNL A   1      38.591  29.883  27.937  1.00  0.00     0.029 A 
ATOM     50  C   UNL A   1      38.680  30.241  29.353  1.00  0.00     0.049 A 
ATOM     51  H   UNL A   1      40.122  29.619  30.719  1.00  0.00     0.167 HD
ATOM     52  C   UNL A   1      43.239  28.185  33.486  1.00  0.00     0.037 A 
ATOM     53  C   UNL A   1      37.840  31.053  30.025  1.00  0.00     0.037 A 
ATOM     54  C   UNL A   1      42.437  29.088  34.261  1.00  0.00     0.049 A 
ATOM     55  C   UNL A   1      38.084  31.311  31.494  1.00  0.00     0.074 A 
ATOM     56  C   UNL A   1      42.598  29.472  35.580  1.00  0.00     0.029 A 
ATOM     57  N   UNL A   1      41.303  29.733  33.789  1.00  0.00    -0.354 N 
ATOM     58  N   UNL A   1      39.058  30.882  32.261  1.00  0.00    -0.248 NA
ATOM     59  C   UNL A   1      37.111  32.166  32.189  1.00  0.00     0.031 C 
ATOM     60  C   UNL A   1      41.532  30.309  35.920  1.00  0.00     0.029 A 
ATOM     61  C   UNL A   1      40.739  30.494  34.797  1.00  0.00     0.049 A 
ATOM     62  H   UNL A   1      40.952  29.661  32.871  1.00  0.00     0.167 HD
ATOM     63  C   UNL A   1      38.834  31.440  33.516  1.00  0.00     0.074 A 
ATOM     64  C   UNL A   1      37.636  32.246  33.403  1.00  0.00     0.031 C 
ATOM     65  C   UNL A   1      39.553  31.300  34.657  1.00  0.00     0.037 A 
BRANCH  52  66
ATOM     66  C   UNL A   1      44.415  27.516  34.132  1.00  0.00     0.064 A 
ATOM     67  C   UNL A   1      45.698  28.084  34.092  1.00  0.00     0.173 A 
ATOM     68  C   UNL A   1      44.260  26.286  34.786  1.00  0.00     0.173 A 
ATOM     69  F   UNL A   1      45.903  29.246  33.454  1.00  0.00    -0.203 F 
ATOM     70  C   UNL A   1      46.788  27.430  34.660  1.00  0.00     0.198 A 
ATOM     71  C   UNL A   1      45.347  25.650  35.381  1.00  0.00     0.198 A 
ATOM     72  F   UNL A   1      43.056  25.697  34.845  1.00  0.00    -0.203 F 
ATOM     73  F   UNL A   1      48.014  27.963  34.560  1.00  0.00    -0.200 F 
ATOM     74  C   UNL A   1      46.610  26.217  35.310  1.00  0.00     0.200 A 
ATOM     75  F   UNL A   1      45.172  24.482  36.013  1.00  0.00    -0.200 F 
ATOM     76  F   UNL A   1      47.659  25.589  35.857  1.00  0.00    -0.200 F 
ENDBRANCH  52  66
BRANCH  53  77
ATOM     77  C   UNL A   1      36.679  31.677  29.333  1.00  0.00     0.064 A 
ATOM     78  C   UNL A   1      36.644  33.056  29.077  1.00  0.00     0.173 A 
ATOM     79  C   UNL A   1      35.566  30.917  28.944  1.00  0.00     0.173 A 
ATOM     80  F   UNL A   1      37.670  33.833  29.456  1.00  0.00    -0.203 F 
ATOM     81  C   UNL A   1      35.536  33.651  28.476  1.00  0.00     0.198 A 
ATOM     82  C   UNL A   1      34.470  31.508  28.318  1.00  0.00     0.198 A 
ATOM     83  F   UNL A   1      35.542  29.596  29.171  1.00  0.00    -0.203 F 
ATOM     84  F   UNL A   1      35.509  34.978  28.290  1.00  0.00    -0.200 F 
ATOM     85  C   UNL A   1      34.452  32.877  28.092  1.00  0.00     0.200 A 
ATOM     86  F   UNL A   1      33.429  30.755  27.941  1.00  0.00    -0.200 F 
ATOM     87  F   UNL A   1      33.387  33.450  27.515  1.00  0.00    -0.200 F 
ENDBRANCH  53  77
BRANCH  65  88
ATOM     88  C   UNL A   1      39.096  32.066  35.865  1.00  0.00     0.064 A 
ATOM     89  C   UNL A   1      39.459  33.404  36.072  1.00  0.00     0.173 A 
ATOM     90  C   UNL A   1      38.231  31.468  36.794  1.00  0.00     0.173 A 
ATOM     91  F   UNL A   1      40.293  34.018  35.219  1.00  0.00    -0.203 F 
ATOM     92  C   UNL A   1      38.991  34.108  37.178  1.00  0.00     0.198 A 
ATOM     93  C   UNL A   1      37.738  32.185  37.881  1.00  0.00     0.198 A 
ATOM     94  F   UNL A   1      37.844  30.193  36.635  1.00  0.00    -0.203 F 
ATOM     95  F   UNL A   1      39.385  35.373  37.381  1.00  0.00    -0.200 F 
ATOM     96  C   UNL A   1      38.125  33.502  38.076  1.00  0.00     0.200 A 
ATOM     97  F   UNL A   1      36.888  31.602  38.736  1.00  0.00    -0.200 F 
ATOM     98  F   UNL A   1      37.665  34.186  39.132  1.00  0.00    -0.200 F 
ENDBRANCH  65  88
ENDBRANCH  39  40
ENDBRANCH  32  34
ENDBRANCH  31  32
ENDBRANCH  30  31
ENDBRANCH  29  30
ENDBRANCH  28  29
ENDBRANCH  27  28
ENDBRANCH  26  27
ENDBRANCH  25  26
ENDBRANCH   1  25
TORSDOF 25
ENDMDL
