MODEL 1
REMARK VINA RESULT:     -11.7      0.000      0.000
REMARK SMILES CC(C)n1c2c(c3ccccc31)[C@@H](c1ccccc1)N(CC(=O)OCCOCCOCCOCCOC(=O)c1ccc(-c3c4nc(c(-c5c(F)c(F)c(F)c(F)c5F)c5ccc([nH]5)c(-c5c(F)c(F)c(F)c(F)c5F)c5nc(c(-c6c(F)c(F)c(F)c(F)c6F)c6ccc3[nH]6)C=C5)C=C4)cc1)C2=O
REMARK SMILES IDX 30 1 29 2 28 3 27 4 26 5 25 6 24 7 22 8 23 9 21 10 20 11
REMARK SMILES IDX 4 12 5 13 12 14 6 15 102 16 7 17 11 18 13 19 103 20 8 21
REMARK SMILES IDX 10 22 9 23 2 24 1 25 3 26 14 27 15 28 19 29 16 30 18 31
REMARK SMILES IDX 17 32 31 33 32 34 33 35 34 36 35 37 36 38 37 39 38 40 39 41
REMARK SMILES IDX 40 42 101 43 41 44 100 45 42 46 43 47 44 48 94 49 45 50
REMARK SMILES IDX 99 51 93 52 95 53 46 54 98 55 92 56 91 57 47 59 79 60 59 61
REMARK SMILES IDX 78 62 60 63 63 64 77 65 96 66 61 67 62 68 76 70 97 71 64 72
REMARK SMILES IDX 48 73 49 74 57 75 50 76 51 77 55 78 58 79 52 80 53 81 56 82
REMARK SMILES IDX 54 83 80 84 81 85 89 86 82 87 83 88 87 89 90 90 84 91 85 92
REMARK SMILES IDX 88 93 86 94 65 95 66 96 74 97 67 98 68 99 72 100 75 101
REMARK SMILES IDX 69 102 70 103 73 104 71 105
REMARK H PARENT 95 58 63 69
REMARK Flexibility Score: inf
ROOT
ATOM      1  O   UNL A   1      39.365  21.230  25.914  1.00  0.00    -0.377 OA
ENDROOT
BRANCH   1   2
ATOM      2  C   UNL A   1      39.548  22.459  26.561  1.00  0.00     0.188 C 
BRANCH   2   3
ATOM      3  C   UNL A   1      38.472  23.492  26.262  1.00  0.00     0.188 C 
BRANCH   3   4
ATOM      4  O   UNL A   1      37.203  23.047  25.826  1.00  0.00    -0.376 OA
BRANCH   4   5
ATOM      5  C   UNL A   1      36.772  23.291  24.487  1.00  0.00     0.202 C 
BRANCH   5   6
ATOM      6  C   UNL A   1      35.546  22.596  23.850  1.00  0.00     0.261 C 
BRANCH   6   7
ATOM      7  O   UNL A   1      35.021  23.192  22.630  1.00  0.00    -0.462 OA
BRANCH   7   8
ATOM      8  C   UNL A   1      33.674  23.273  22.520  1.00  0.00     0.325 C 
ATOM      9  O   UNL A   1      32.925  22.320  22.739  1.00  0.00    -0.250 OA
BRANCH   8  10
ATOM     10  C   UNL A   1      33.073  24.640  22.107  1.00  0.00     0.243 C 
BRANCH  10  11
ATOM     11  N   UNL A   1      32.586  25.726  22.962  1.00  0.00    -0.315 N 
ATOM     12  N   UNL A   1      30.774  28.720  23.803  1.00  0.00    -0.334 N 
ATOM     13  C   UNL A   1      31.484  27.583  23.544  1.00  0.00     0.114 A 
ATOM     14  C   UNL A   1      31.340  29.294  24.944  1.00  0.00     0.049 A 
ATOM     15  C   UNL A   1      32.206  27.229  24.647  1.00  0.00     0.018 A 
ATOM     16  C   UNL A   1      31.682  26.671  22.470  1.00  0.00     0.272 C 
ATOM     17  C   UNL A   1      32.129  28.297  25.561  1.00  0.00     0.006 A 
ATOM     18  C   UNL A   1      31.274  30.585  25.505  1.00  0.00     0.027 A 
ATOM     19  C   UNL A   1      32.967  25.967  24.398  1.00  0.00     0.150 C 
ATOM     20  O   UNL A   1      31.189  26.718  21.347  1.00  0.00    -0.267 OA
ATOM     21  C   UNL A   1      32.700  28.557  26.822  1.00  0.00     0.011 A 
ATOM     22  C   UNL A   1      31.961  30.848  26.696  1.00  0.00     0.002 A 
ATOM     23  C   UNL A   1      32.638  29.841  27.366  1.00  0.00     0.001 A 
BRANCH  12  24
ATOM     24  C   UNL A   1      29.620  29.140  23.000  1.00  0.00     0.082 C 
ATOM     25  C   UNL A   1      28.428  28.191  23.227  1.00  0.00     0.031 C 
ATOM     26  C   UNL A   1      29.116  30.569  23.223  1.00  0.00     0.031 C 
ENDBRANCH  12  24
BRANCH  19  27
ATOM     27  C   UNL A   1      32.615  24.895  25.432  1.00  0.00    -0.021 A 
ATOM     28  C   UNL A   1      31.270  24.487  25.563  1.00  0.00     0.006 A 
ATOM     29  C   UNL A   1      33.552  24.157  26.179  1.00  0.00     0.006 A 
ATOM     30  C   UNL A   1      30.883  23.404  26.363  1.00  0.00     0.000 A 
ATOM     31  C   UNL A   1      33.173  23.058  26.967  1.00  0.00     0.000 A 
ATOM     32  C   UNL A   1      31.839  22.679  27.055  1.00  0.00     0.000 A 
ENDBRANCH  19  27
ENDBRANCH  10  11
ENDBRANCH   8  10
ENDBRANCH   7   8
ENDBRANCH   6   7
ENDBRANCH   5   6
ENDBRANCH   4   5
ENDBRANCH   3   4
ENDBRANCH   2   3
ENDBRANCH   1   2
BRANCH   1  33
ATOM     33  C   UNL A   1      40.252  20.156  26.139  1.00  0.00     0.188 C 
BRANCH  33  34
ATOM     34  C   UNL A   1      41.207  20.230  27.334  1.00  0.00     0.188 C 
BRANCH  34  35
ATOM     35  O   UNL A   1      42.526  19.845  26.986  1.00  0.00    -0.376 OA
BRANCH  35  36
ATOM     36  C   UNL A   1      42.722  18.889  25.953  1.00  0.00     0.202 C 
BRANCH  36  37
ATOM     37  C   UNL A   1      43.937  18.982  25.015  1.00  0.00     0.261 C 
BRANCH  37  38
ATOM     38  O   UNL A   1      44.739  20.156  25.179  1.00  0.00    -0.460 OA
BRANCH  38  39
ATOM     39  C   UNL A   1      44.599  21.245  24.402  1.00  0.00     0.338 C 
ATOM     40  O   UNL A   1      44.595  21.301  23.190  1.00  0.00    -0.246 OA
BRANCH  39  41
ATOM     41  C   UNL A   1      44.057  22.264  25.340  1.00  0.00     0.060 A 
ATOM     42  C   UNL A   1      42.995  23.109  24.989  1.00  0.00     0.016 A 
ATOM     43  C   UNL A   1      44.879  22.573  26.432  1.00  0.00     0.016 A 
ATOM     44  C   UNL A   1      42.828  24.313  25.680  1.00  0.00     0.010 A 
ATOM     45  C   UNL A   1      44.739  23.796  27.083  1.00  0.00     0.010 A 
ATOM     46  C   UNL A   1      43.741  24.689  26.686  1.00  0.00    -0.014 A 
BRANCH  46  47
ATOM     47  C   UNL A   1      43.479  25.911  27.466  1.00  0.00     0.031 A 
ATOM     48  C   UNL A   1      44.475  26.984  27.182  1.00  0.00     0.074 A 
ATOM     49  C   UNL A   1      42.381  26.176  28.213  1.00  0.00     0.049 A 
ATOM     50  N   UNL A   1      45.221  27.635  28.013  1.00  0.00    -0.248 NA
ATOM     51  C   UNL A   1      44.741  27.291  25.763  1.00  0.00     0.031 C 
ATOM     52  C   UNL A   1      41.177  25.356  28.344  1.00  0.00     0.029 A 
ATOM     53  N   UNL A   1      42.063  27.292  28.952  1.00  0.00    -0.354 N 
ATOM     54  C   UNL A   1      45.936  28.545  27.238  1.00  0.00     0.074 A 
ATOM     55  C   UNL A   1      45.713  28.194  25.861  1.00  0.00     0.031 C 
ATOM     56  C   UNL A   1      40.202  26.071  28.951  1.00  0.00     0.029 A 
ATOM     57  C   UNL A   1      40.719  27.377  29.321  1.00  0.00     0.049 A 
ATOM     58  H   UNL A   1      42.728  27.975  29.200  1.00  0.00     0.167 HD
ATOM     59  C   UNL A   1      46.474  29.672  27.772  1.00  0.00     0.037 A 
ATOM     60  C   UNL A   1      40.049  28.453  29.821  1.00  0.00     0.037 A 
ATOM     61  C   UNL A   1      46.665  29.556  29.190  1.00  0.00     0.049 A 
ATOM     62  C   UNL A   1      41.051  29.411  30.341  1.00  0.00     0.074 A 
ATOM     63  C   UNL A   1      47.399  28.715  30.002  1.00  0.00     0.029 A 
ATOM     64  N   UNL A   1      45.774  30.187  30.019  1.00  0.00    -0.354 N 
ATOM     65  N   UNL A   1      41.773  29.218  31.405  1.00  0.00    -0.248 NA
ATOM     66  C   UNL A   1      41.539  30.428  29.424  1.00  0.00     0.031 C 
ATOM     67  C   UNL A   1      46.602  28.530  31.167  1.00  0.00     0.029 A 
ATOM     68  C   UNL A   1      45.454  29.307  31.021  1.00  0.00     0.049 A 
ATOM     69  H   UNL A   1      45.429  31.103  29.916  1.00  0.00     0.167 HD
ATOM     70  C   UNL A   1      43.014  29.736  31.073  1.00  0.00     0.074 A 
ATOM     71  C   UNL A   1      42.788  30.542  29.878  1.00  0.00     0.031 C 
ATOM     72  C   UNL A   1      44.150  29.235  31.634  1.00  0.00     0.037 A 
BRANCH  59  73
ATOM     73  C   UNL A   1      46.492  30.989  27.044  1.00  0.00     0.064 A 
ATOM     74  C   UNL A   1      47.690  31.719  26.952  1.00  0.00     0.173 A 
ATOM     75  C   UNL A   1      45.319  31.688  26.683  1.00  0.00     0.173 A 
ATOM     76  F   UNL A   1      48.856  31.165  27.318  1.00  0.00    -0.203 F 
ATOM     77  C   UNL A   1      47.704  33.062  26.564  1.00  0.00     0.198 A 
ATOM     78  C   UNL A   1      45.342  33.008  26.242  1.00  0.00     0.198 A 
ATOM     79  F   UNL A   1      44.098  31.161  26.852  1.00  0.00    -0.203 F 
ATOM     80  F   UNL A   1      48.851  33.752  26.600  1.00  0.00    -0.200 F 
ATOM     81  C   UNL A   1      46.530  33.704  26.208  1.00  0.00     0.200 A 
ATOM     82  F   UNL A   1      44.190  33.618  25.929  1.00  0.00    -0.200 F 
ATOM     83  F   UNL A   1      46.535  35.003  25.885  1.00  0.00    -0.200 F 
ENDBRANCH  59  73
BRANCH  60  84
ATOM     84  C   UNL A   1      38.631  28.869  29.613  1.00  0.00     0.064 A 
ATOM     85  C   UNL A   1      37.795  29.199  30.699  1.00  0.00     0.173 A 
ATOM     86  C   UNL A   1      38.157  29.239  28.340  1.00  0.00     0.173 A 
ATOM     87  F   UNL A   1      38.176  28.926  31.955  1.00  0.00    -0.203 F 
ATOM     88  C   UNL A   1      36.587  29.888  30.521  1.00  0.00     0.198 A 
ATOM     89  C   UNL A   1      36.949  29.916  28.164  1.00  0.00     0.198 A 
ATOM     90  F   UNL A   1      38.904  29.045  27.245  1.00  0.00    -0.203 F 
ATOM     91  F   UNL A   1      35.856  30.250  31.586  1.00  0.00    -0.200 F 
ATOM     92  C   UNL A   1      36.172  30.258  29.254  1.00  0.00     0.200 A 
ATOM     93  F   UNL A   1      36.577  30.298  26.933  1.00  0.00    -0.200 F 
ATOM     94  F   UNL A   1      35.054  30.978  29.085  1.00  0.00    -0.200 F 
ENDBRANCH  60  84
BRANCH  72  95
ATOM     95  C   UNL A   1      44.013  28.355  32.842  1.00  0.00     0.064 A 
ATOM     96  C   UNL A   1      43.799  26.965  32.795  1.00  0.00     0.173 A 
ATOM     97  C   UNL A   1      44.244  28.931  34.099  1.00  0.00     0.173 A 
ATOM     98  F   UNL A   1      43.660  26.323  31.627  1.00  0.00    -0.203 F 
ATOM     99  C   UNL A   1      43.782  26.201  33.962  1.00  0.00     0.198 A 
ATOM    100  C   UNL A   1      44.265  28.160  35.256  1.00  0.00     0.198 A 
ATOM    101  F   UNL A   1      44.499  30.245  34.198  1.00  0.00    -0.203 F 
ATOM    102  F   UNL A   1      43.566  24.879  33.895  1.00  0.00    -0.200 F 
ATOM    103  C   UNL A   1      44.024  26.797  35.190  1.00  0.00     0.200 A 
ATOM    104  F   UNL A   1      44.546  28.735  36.434  1.00  0.00    -0.200 F 
ATOM    105  F   UNL A   1      44.050  26.057  36.306  1.00  0.00    -0.200 F 
ENDBRANCH  72  95
ENDBRANCH  46  47
ENDBRANCH  39  41
ENDBRANCH  38  39
ENDBRANCH  37  38
ENDBRANCH  36  37
ENDBRANCH  35  36
ENDBRANCH  34  35
ENDBRANCH  33  34
ENDBRANCH   1  33
TORSDOF 23
ENDMDL
MODEL 2
REMARK VINA RESULT:     -10.8      3.113      4.435
REMARK SMILES CC(C)n1c2c(c3ccccc31)[C@@H](c1ccccc1)N(CC(=O)OCCOCCOCCOCCOC(=O)c1ccc(-c3c4nc(c(-c5c(F)c(F)c(F)c(F)c5F)c5ccc([nH]5)c(-c5c(F)c(F)c(F)c(F)c5F)c5nc(c(-c6c(F)c(F)c(F)c(F)c6F)c6ccc3[nH]6)C=C5)C=C4)cc1)C2=O
REMARK SMILES IDX 30 1 29 2 28 3 27 4 26 5 25 6 24 7 22 8 23 9 21 10 20 11
REMARK SMILES IDX 4 12 5 13 12 14 6 15 102 16 7 17 11 18 13 19 103 20 8 21
REMARK SMILES IDX 10 22 9 23 2 24 1 25 3 26 14 27 15 28 19 29 16 30 18 31
REMARK SMILES IDX 17 32 31 33 32 34 33 35 34 36 35 37 36 38 37 39 38 40 39 41
REMARK SMILES IDX 40 42 101 43 41 44 100 45 42 46 43 47 44 48 94 49 45 50
REMARK SMILES IDX 99 51 93 52 95 53 46 54 98 55 92 56 91 57 47 59 79 60 59 61
REMARK SMILES IDX 78 62 60 63 63 64 77 65 96 66 61 67 62 68 76 70 97 71 64 72
REMARK SMILES IDX 48 73 49 74 57 75 50 76 51 77 55 78 58 79 52 80 53 81 56 82
REMARK SMILES IDX 54 83 80 84 81 85 89 86 82 87 83 88 87 89 90 90 84 91 85 92
REMARK SMILES IDX 88 93 86 94 65 95 66 96 74 97 67 98 68 99 72 100 75 101
REMARK SMILES IDX 69 102 70 103 73 104 71 105
REMARK H PARENT 95 58 63 69
REMARK Flexibility Score: inf
ROOT
ATOM      1  O   UNL A   1      39.587  21.759  25.859  1.00  0.00    -0.377 OA
ENDROOT
BRANCH   1   2
ATOM      2  C   UNL A   1      38.217  22.052  25.814  1.00  0.00     0.188 C 
BRANCH   2   3
ATOM      3  C   UNL A   1      37.499  21.503  24.590  1.00  0.00     0.188 C 
BRANCH   3   4
ATOM      4  O   UNL A   1      36.196  20.976  24.744  1.00  0.00    -0.376 OA
BRANCH   4   5
ATOM      5  C   UNL A   1      35.053  21.768  24.420  1.00  0.00     0.202 C 
BRANCH   5   6
ATOM      6  C   UNL A   1      35.141  23.122  23.677  1.00  0.00     0.261 C 
BRANCH   6   7
ATOM      7  O   UNL A   1      34.640  23.148  22.311  1.00  0.00    -0.462 OA
BRANCH   7   8
ATOM      8  C   UNL A   1      33.303  23.290  22.153  1.00  0.00     0.325 C 
ATOM      9  O   UNL A   1      32.513  22.350  22.247  1.00  0.00    -0.250 OA
BRANCH   8  10
ATOM     10  C   UNL A   1      32.768  24.712  21.849  1.00  0.00     0.243 C 
BRANCH  10  11
ATOM     11  N   UNL A   1      32.370  25.765  22.788  1.00  0.00    -0.315 N 
ATOM     12  N   UNL A   1      30.786  28.809  23.872  1.00  0.00    -0.334 N 
ATOM     13  C   UNL A   1      31.410  27.647  23.520  1.00  0.00     0.114 A 
ATOM     14  C   UNL A   1      31.404  29.257  25.042  1.00  0.00     0.049 A 
ATOM     15  C   UNL A   1      32.117  27.163  24.583  1.00  0.00     0.018 A 
ATOM     16  C   UNL A   1      31.530  26.804  22.381  1.00  0.00     0.272 C 
ATOM     17  C   UNL A   1      32.126  28.164  25.574  1.00  0.00     0.006 A 
ATOM     18  C   UNL A   1      31.437  30.504  25.696  1.00  0.00     0.027 A 
ATOM     19  C   UNL A   1      32.782  25.872  24.232  1.00  0.00     0.150 C 
ATOM     20  O   UNL A   1      31.029  26.968  21.272  1.00  0.00    -0.267 OA
ATOM     21  C   UNL A   1      32.728  28.290  26.841  1.00  0.00     0.011 A 
ATOM     22  C   UNL A   1      32.154  30.631  26.892  1.00  0.00     0.002 A 
ATOM     23  C   UNL A   1      32.764  29.532  27.476  1.00  0.00     0.001 A 
BRANCH  12  24
ATOM     24  C   UNL A   1      29.656  29.367  23.121  1.00  0.00     0.082 C 
ATOM     25  C   UNL A   1      28.458  28.402  23.147  1.00  0.00     0.031 C 
ATOM     26  C   UNL A   1      29.148  30.740  23.570  1.00  0.00     0.031 C 
ENDBRANCH  12  24
BRANCH  19  27
ATOM     27  C   UNL A   1      32.366  24.755  25.191  1.00  0.00    -0.021 A 
ATOM     28  C   UNL A   1      33.243  24.387  26.235  1.00  0.00     0.006 A 
ATOM     29  C   UNL A   1      31.096  24.147  25.218  1.00  0.00     0.006 A 
ATOM     30  C   UNL A   1      32.877  23.495  27.250  1.00  0.00     0.000 A 
ATOM     31  C   UNL A   1      30.716  23.268  26.245  1.00  0.00     0.000 A 
ATOM     32  C   UNL A   1      31.606  22.944  27.262  1.00  0.00     0.000 A 
ENDBRANCH  19  27
ENDBRANCH  10  11
ENDBRANCH   8  10
ENDBRANCH   7   8
ENDBRANCH   6   7
ENDBRANCH   5   6
ENDBRANCH   4   5
ENDBRANCH   3   4
ENDBRANCH   2   3
ENDBRANCH   1   2
BRANCH   1  33
ATOM     33  C   UNL A   1      40.036  20.451  26.138  1.00  0.00     0.188 C 
BRANCH  33  34
ATOM     34  C   UNL A   1      41.521  20.232  26.438  1.00  0.00     0.188 C 
BRANCH  34  35
ATOM     35  O   UNL A   1      42.354  21.034  25.618  1.00  0.00    -0.376 OA
BRANCH  35  36
ATOM     36  C   UNL A   1      43.110  22.083  26.209  1.00  0.00     0.202 C 
BRANCH  36  37
ATOM     37  C   UNL A   1      42.764  23.555  25.931  1.00  0.00     0.261 C 
BRANCH  37  38
ATOM     38  O   UNL A   1      41.621  24.052  26.635  1.00  0.00    -0.460 OA
BRANCH  38  39
ATOM     39  C   UNL A   1      41.600  24.201  27.972  1.00  0.00     0.338 C 
ATOM     40  O   UNL A   1      41.824  23.363  28.820  1.00  0.00    -0.246 OA
BRANCH  39  41
ATOM     41  C   UNL A   1      41.643  25.677  28.149  1.00  0.00     0.060 A 
ATOM     42  C   UNL A   1      42.508  26.292  29.065  1.00  0.00     0.016 A 
ATOM     43  C   UNL A   1      40.547  26.377  27.627  1.00  0.00     0.016 A 
ATOM     44  C   UNL A   1      42.206  27.577  29.526  1.00  0.00     0.010 A 
ATOM     45  C   UNL A   1      40.224  27.636  28.128  1.00  0.00     0.010 A 
ATOM     46  C   UNL A   1      41.027  28.225  29.107  1.00  0.00    -0.014 A 
BRANCH  46  47
ATOM     47  C   UNL A   1      40.791  29.617  29.529  1.00  0.00     0.031 A 
ATOM     48  C   UNL A   1      41.935  30.510  29.188  1.00  0.00     0.074 A 
ATOM     49  C   UNL A   1      39.629  30.138  29.991  1.00  0.00     0.049 A 
ATOM     50  N   UNL A   1      42.615  31.286  29.966  1.00  0.00    -0.248 NA
ATOM     51  C   UNL A   1      42.449  30.440  27.806  1.00  0.00     0.031 C 
ATOM     52  C   UNL A   1      38.333  29.469  30.090  1.00  0.00     0.029 A 
ATOM     53  N   UNL A   1      39.332  31.422  30.387  1.00  0.00    -0.354 N 
ATOM     54  C   UNL A   1      43.540  31.922  29.143  1.00  0.00     0.074 A 
ATOM     55  C   UNL A   1      43.493  31.264  27.866  1.00  0.00     0.031 C 
ATOM     56  C   UNL A   1      37.365  30.382  30.337  1.00  0.00     0.029 A 
ATOM     57  C   UNL A   1      37.967  31.696  30.484  1.00  0.00     0.049 A 
ATOM     58  H   UNL A   1      40.026  32.093  30.585  1.00  0.00     0.167 HD
ATOM     59  C   UNL A   1      44.117  33.102  29.492  1.00  0.00     0.037 A 
ATOM     60  C   UNL A   1      37.356  32.909  30.599  1.00  0.00     0.037 A 
ATOM     61  C   UNL A   1      44.073  33.322  30.910  1.00  0.00     0.049 A 
ATOM     62  C   UNL A   1      38.370  33.887  31.055  1.00  0.00     0.074 A 
ATOM     63  C   UNL A   1      44.572  32.652  32.009  1.00  0.00     0.029 A 
ATOM     64  N   UNL A   1      43.145  34.202  31.403  1.00  0.00    -0.354 N 
ATOM     65  N   UNL A   1      38.894  33.905  32.245  1.00  0.00    -0.248 NA
ATOM     66  C   UNL A   1      39.108  34.608  30.031  1.00  0.00     0.031 C 
ATOM     67  C   UNL A   1      43.590  32.818  33.026  1.00  0.00     0.029 A 
ATOM     68  C   UNL A   1      42.575  33.621  32.506  1.00  0.00     0.049 A 
ATOM     69  H   UNL A   1      42.927  35.088  31.034  1.00  0.00     0.167 HD
ATOM     70  C   UNL A   1      40.222  34.231  32.028  1.00  0.00     0.074 A 
ATOM     71  C   UNL A   1      40.277  34.736  30.660  1.00  0.00     0.031 C 
ATOM     72  C   UNL A   1      41.194  33.799  32.879  1.00  0.00     0.037 A 
BRANCH  59  73
ATOM     73  C   UNL A   1      44.398  34.196  28.498  1.00  0.00     0.064 A 
ATOM     74  C   UNL A   1      45.719  34.630  28.292  1.00  0.00     0.173 A 
ATOM     75  C   UNL A   1      43.390  35.021  27.952  1.00  0.00     0.173 A 
ATOM     76  F   UNL A   1      46.750  33.946  28.812  1.00  0.00    -0.203 F 
ATOM     77  C   UNL A   1      46.005  35.824  27.625  1.00  0.00     0.198 A 
ATOM     78  C   UNL A   1      43.680  36.180  27.237  1.00  0.00     0.198 A 
ATOM     79  F   UNL A   1      42.089  34.803  28.187  1.00  0.00    -0.203 F 
ATOM     80  F   UNL A   1      47.270  36.258  27.552  1.00  0.00    -0.200 F 
ATOM     81  C   UNL A   1      44.985  36.596  27.096  1.00  0.00     0.200 A 
ATOM     82  F   UNL A   1      42.674  36.927  26.758  1.00  0.00    -0.200 F 
ATOM     83  F   UNL A   1      45.253  37.765  26.501  1.00  0.00    -0.200 F 
ENDBRANCH  59  73
BRANCH  60  84
ATOM     84  C   UNL A   1      36.044  33.367  30.054  1.00  0.00     0.064 A 
ATOM     85  C   UNL A   1      35.020  33.833  30.902  1.00  0.00     0.173 A 
ATOM     86  C   UNL A   1      35.877  33.639  28.683  1.00  0.00     0.173 A 
ATOM     87  F   UNL A   1      35.107  33.661  32.229  1.00  0.00    -0.203 F 
ATOM     88  C   UNL A   1      33.923  34.556  30.411  1.00  0.00     0.198 A 
ATOM     89  C   UNL A   1      34.779  34.350  28.194  1.00  0.00     0.198 A 
ATOM     90  F   UNL A   1      36.825  33.311  27.796  1.00  0.00    -0.203 F 
ATOM     91  F   UNL A   1      33.007  35.048  31.259  1.00  0.00    -0.200 F 
ATOM     92  C   UNL A   1      33.812  34.826  29.058  1.00  0.00     0.200 A 
ATOM     93  F   UNL A   1      34.703  34.633  26.885  1.00  0.00    -0.200 F 
ATOM     94  F   UNL A   1      32.803  35.577  28.593  1.00  0.00    -0.200 F 
ENDBRANCH  60  84
BRANCH  72  95
ATOM     95  C   UNL A   1      40.772  33.253  34.213  1.00  0.00     0.064 A 
ATOM     96  C   UNL A   1      40.615  34.028  35.377  1.00  0.00     0.173 A 
ATOM     97  C   UNL A   1      40.380  31.909  34.274  1.00  0.00     0.173 A 
ATOM     98  F   UNL A   1      40.881  35.342  35.378  1.00  0.00    -0.203 F 
ATOM     99  C   UNL A   1      40.123  33.465  36.554  1.00  0.00     0.198 A 
ATOM    100  C   UNL A   1      39.853  31.360  35.439  1.00  0.00     0.198 A 
ATOM    101  F   UNL A   1      40.464  31.135  33.181  1.00  0.00    -0.203 F 
ATOM    102  F   UNL A   1      39.992  34.220  37.655  1.00  0.00    -0.200 F 
ATOM    103  C   UNL A   1      39.734  32.134  36.581  1.00  0.00     0.200 A 
ATOM    104  F   UNL A   1      39.435  30.087  35.444  1.00  0.00    -0.200 F 
ATOM    105  F   UNL A   1      39.221  31.604  37.700  1.00  0.00    -0.200 F 
ENDBRANCH  72  95
ENDBRANCH  46  47
ENDBRANCH  39  41
ENDBRANCH  38  39
ENDBRANCH  37  38
ENDBRANCH  36  37
ENDBRANCH  35  36
ENDBRANCH  34  35
ENDBRANCH  33  34
ENDBRANCH   1  33
TORSDOF 23
ENDMDL
MODEL 3
REMARK VINA RESULT:     -10.8      2.159      3.067
REMARK SMILES CC(C)n1c2c(c3ccccc31)[C@@H](c1ccccc1)N(CC(=O)OCCOCCOCCOCCOC(=O)c1ccc(-c3c4nc(c(-c5c(F)c(F)c(F)c(F)c5F)c5ccc([nH]5)c(-c5c(F)c(F)c(F)c(F)c5F)c5nc(c(-c6c(F)c(F)c(F)c(F)c6F)c6ccc3[nH]6)C=C5)C=C4)cc1)C2=O
REMARK SMILES IDX 30 1 29 2 28 3 27 4 26 5 25 6 24 7 22 8 23 9 21 10 20 11
REMARK SMILES IDX 4 12 5 13 12 14 6 15 102 16 7 17 11 18 13 19 103 20 8 21
REMARK SMILES IDX 10 22 9 23 2 24 1 25 3 26 14 27 15 28 19 29 16 30 18 31
REMARK SMILES IDX 17 32 31 33 32 34 33 35 34 36 35 37 36 38 37 39 38 40 39 41
REMARK SMILES IDX 40 42 101 43 41 44 100 45 42 46 43 47 44 48 94 49 45 50
REMARK SMILES IDX 99 51 93 52 95 53 46 54 98 55 92 56 91 57 47 59 79 60 59 61
REMARK SMILES IDX 78 62 60 63 63 64 77 65 96 66 61 67 62 68 76 70 97 71 64 72
REMARK SMILES IDX 48 73 49 74 57 75 50 76 51 77 55 78 58 79 52 80 53 81 56 82
REMARK SMILES IDX 54 83 80 84 81 85 89 86 82 87 83 88 87 89 90 90 84 91 85 92
REMARK SMILES IDX 88 93 86 94 65 95 66 96 74 97 67 98 68 99 72 100 75 101
REMARK SMILES IDX 69 102 70 103 73 104 71 105
REMARK H PARENT 95 58 63 69
REMARK Flexibility Score: inf
ROOT
ATOM      1  O   UNL A   1      41.187  19.275  26.216  1.00  0.00    -0.377 OA
ENDROOT
BRANCH   1   2
ATOM      2  C   UNL A   1      40.693  20.448  26.804  1.00  0.00     0.188 C 
BRANCH   2   3
ATOM      3  C   UNL A   1      40.020  21.402  25.829  1.00  0.00     0.188 C 
BRANCH   3   4
ATOM      4  O   UNL A   1      38.798  22.008  26.202  1.00  0.00    -0.376 OA
BRANCH   4   5
ATOM      5  C   UNL A   1      37.554  21.431  25.807  1.00  0.00     0.202 C 
BRANCH   5   6
ATOM      6  C   UNL A   1      37.059  21.401  24.342  1.00  0.00     0.261 C 
BRANCH   6   7
ATOM      7  O   UNL A   1      35.762  22.006  24.081  1.00  0.00    -0.462 OA
BRANCH   7   8
ATOM      8  C   UNL A   1      35.713  22.954  23.116  1.00  0.00     0.325 C 
ATOM      9  O   UNL A   1      36.704  23.313  22.478  1.00  0.00    -0.250 OA
BRANCH   8  10
ATOM     10  C   UNL A   1      34.335  23.594  22.813  1.00  0.00     0.243 C 
BRANCH  10  11
ATOM     11  N   UNL A   1      33.683  24.727  23.477  1.00  0.00    -0.315 N 
ATOM     12  N   UNL A   1      31.537  27.601  23.776  1.00  0.00    -0.334 N 
ATOM     13  C   UNL A   1      32.369  26.519  23.723  1.00  0.00     0.114 A 
ATOM     14  C   UNL A   1      31.954  28.374  24.862  1.00  0.00     0.049 A 
ATOM     15  C   UNL A   1      33.030  26.388  24.910  1.00  0.00     0.018 A 
ATOM     16  C   UNL A   1      32.736  25.501  22.801  1.00  0.00     0.272 C 
ATOM     17  C   UNL A   1      32.780  27.552  25.663  1.00  0.00     0.006 A 
ATOM     18  C   UNL A   1      31.724  29.713  25.236  1.00  0.00     0.027 A 
ATOM     19  C   UNL A   1      33.923  25.189  24.889  1.00  0.00     0.150 C 
ATOM     20  O   UNL A   1      32.332  25.351  21.651  1.00  0.00    -0.267 OA
ATOM     21  C   UNL A   1      33.222  28.032  26.911  1.00  0.00     0.011 A 
ATOM     22  C   UNL A   1      32.285  30.198  26.423  1.00  0.00     0.002 A 
ATOM     23  C   UNL A   1      32.998  29.362  27.268  1.00  0.00     0.001 A 
BRANCH  12  24
ATOM     24  C   UNL A   1      30.417  27.792  22.848  1.00  0.00     0.082 C 
ATOM     25  C   UNL A   1      29.089  27.383  23.510  1.00  0.00     0.031 C 
ATOM     26  C   UNL A   1      30.231  29.202  22.282  1.00  0.00     0.031 C 
ENDBRANCH  12  24
BRANCH  19  27
ATOM     27  C   UNL A   1      33.591  24.231  26.034  1.00  0.00    -0.021 A 
ATOM     28  C   UNL A   1      32.236  23.946  26.317  1.00  0.00     0.006 A 
ATOM     29  C   UNL A   1      34.536  23.476  26.753  1.00  0.00     0.006 A 
ATOM     30  C   UNL A   1      31.847  22.961  27.233  1.00  0.00     0.000 A 
ATOM     31  C   UNL A   1      34.152  22.473  27.658  1.00  0.00     0.000 A 
ATOM     32  C   UNL A   1      32.807  22.214  27.895  1.00  0.00     0.000 A 
ENDBRANCH  19  27
ENDBRANCH  10  11
ENDBRANCH   8  10
ENDBRANCH   7   8
ENDBRANCH   6   7
ENDBRANCH   5   6
ENDBRANCH   4   5
ENDBRANCH   3   4
ENDBRANCH   2   3
ENDBRANCH   1   2
BRANCH   1  33
ATOM     33  C   UNL A   1      42.457  18.770  26.568  1.00  0.00     0.188 C 
BRANCH  33  34
ATOM     34  C   UNL A   1      43.620  18.962  25.592  1.00  0.00     0.188 C 
BRANCH  34  35
ATOM     35  O   UNL A   1      43.501  20.164  24.850  1.00  0.00    -0.376 OA
BRANCH  35  36
ATOM     36  C   UNL A   1      44.210  21.319  25.277  1.00  0.00     0.202 C 
BRANCH  36  37
ATOM     37  C   UNL A   1      43.532  22.376  26.162  1.00  0.00     0.261 C 
BRANCH  37  38
ATOM     38  O   UNL A   1      43.423  23.678  25.576  1.00  0.00    -0.460 OA
BRANCH  38  39
ATOM     39  C   UNL A   1      44.493  24.381  25.163  1.00  0.00     0.338 C 
ATOM     40  O   UNL A   1      45.250  24.121  24.251  1.00  0.00    -0.246 OA
BRANCH  39  41
ATOM     41  C   UNL A   1      44.290  25.710  25.799  1.00  0.00     0.060 A 
ATOM     42  C   UNL A   1      44.991  26.100  26.949  1.00  0.00     0.016 A 
ATOM     43  C   UNL A   1      43.129  26.391  25.409  1.00  0.00     0.016 A 
ATOM     44  C   UNL A   1      44.461  27.112  27.756  1.00  0.00     0.010 A 
ATOM     45  C   UNL A   1      42.581  27.363  26.243  1.00  0.00     0.010 A 
ATOM     46  C   UNL A   1      43.220  27.700  27.438  1.00  0.00    -0.014 A 
BRANCH  46  47
ATOM     47  C   UNL A   1      42.741  28.833  28.248  1.00  0.00     0.031 A 
ATOM     48  C   UNL A   1      43.595  30.044  28.083  1.00  0.00     0.074 A 
ATOM     49  C   UNL A   1      41.570  28.908  28.925  1.00  0.00     0.049 A 
ATOM     50  N   UNL A   1      44.188  30.746  28.992  1.00  0.00    -0.248 NA
ATOM     51  C   UNL A   1      43.909  30.457  26.701  1.00  0.00     0.031 C 
ATOM     52  C   UNL A   1      40.485  27.928  28.933  1.00  0.00     0.029 A 
ATOM     53  N   UNL A   1      41.053  29.932  29.686  1.00  0.00    -0.354 N 
ATOM     54  C   UNL A   1      44.820  31.783  28.310  1.00  0.00     0.074 A 
ATOM     55  C   UNL A   1      44.739  31.477  26.907  1.00  0.00     0.031 C 
ATOM     56  C   UNL A   1      39.382  28.472  29.499  1.00  0.00     0.029 A 
ATOM     57  C   UNL A   1      39.689  29.815  29.960  1.00  0.00     0.049 A 
ATOM     58  H   UNL A   1      41.599  30.684  30.009  1.00  0.00     0.167 HD
ATOM     59  C   UNL A   1      45.161  32.943  28.929  1.00  0.00     0.037 A 
ATOM     60  C   UNL A   1      38.845  30.764  30.456  1.00  0.00     0.037 A 
ATOM     61  C   UNL A   1      45.272  32.780  30.351  1.00  0.00     0.049 A 
ATOM     62  C   UNL A   1      39.668  31.820  31.087  1.00  0.00     0.074 A 
ATOM     63  C   UNL A   1      46.061  32.005  31.178  1.00  0.00     0.029 A 
ATOM     64  N   UNL A   1      44.250  33.241  31.140  1.00  0.00    -0.354 N 
ATOM     65  N   UNL A   1      40.339  31.671  32.191  1.00  0.00    -0.248 NA
ATOM     66  C   UNL A   1      40.071  32.940  30.251  1.00  0.00     0.031 C 
ATOM     67  C   UNL A   1      45.222  31.654  32.273  1.00  0.00     0.029 A 
ATOM     68  C   UNL A   1      43.990  32.276  32.078  1.00  0.00     0.049 A 
ATOM     69  H   UNL A   1      43.789  34.106  31.050  1.00  0.00     0.167 HD
ATOM     70  C   UNL A   1      41.516  32.368  31.971  1.00  0.00     0.074 A 
ATOM     71  C   UNL A   1      41.259  33.197  30.799  1.00  0.00     0.031 C 
ATOM     72  C   UNL A   1      42.671  31.997  32.591  1.00  0.00     0.037 A 
BRANCH  59  73
ATOM     73  C   UNL A   1      45.045  34.286  28.261  1.00  0.00     0.064 A 
ATOM     74  C   UNL A   1      46.173  35.119  28.167  1.00  0.00     0.173 A 
ATOM     75  C   UNL A   1      43.805  34.896  27.964  1.00  0.00     0.173 A 
ATOM     76  F   UNL A   1      47.392  34.652  28.476  1.00  0.00    -0.203 F 
ATOM     77  C   UNL A   1      46.061  36.474  27.840  1.00  0.00     0.198 A 
ATOM     78  C   UNL A   1      43.704  36.231  27.583  1.00  0.00     0.198 A 
ATOM     79  F   UNL A   1      42.640  34.261  28.143  1.00  0.00    -0.203 F 
ATOM     80  F   UNL A   1      47.147  37.257  27.875  1.00  0.00    -0.200 F 
ATOM     81  C   UNL A   1      44.827  37.027  27.547  1.00  0.00     0.200 A 
ATOM     82  F   UNL A   1      42.495  36.754  27.330  1.00  0.00    -0.200 F 
ATOM     83  F   UNL A   1      44.712  38.335  27.283  1.00  0.00    -0.200 F 
ENDBRANCH  59  73
BRANCH  60  84
ATOM     84  C   UNL A   1      37.400  30.995  30.163  1.00  0.00     0.064 A 
ATOM     85  C   UNL A   1      36.508  31.430  31.164  1.00  0.00     0.173 A 
ATOM     86  C   UNL A   1      36.927  31.083  28.840  1.00  0.00     0.173 A 
ATOM     87  F   UNL A   1      36.881  31.425  32.452  1.00  0.00    -0.203 F 
ATOM     88  C   UNL A   1      35.245  31.955  30.855  1.00  0.00     0.198 A 
ATOM     89  C   UNL A   1      35.665  31.596  28.534  1.00  0.00     0.198 A 
ATOM     90  F   UNL A   1      37.717  30.770  27.804  1.00  0.00    -0.203 F 
ATOM     91  F   UNL A   1      34.456  32.428  31.831  1.00  0.00    -0.200 F 
ATOM     92  C   UNL A   1      34.830  32.049  29.538  1.00  0.00     0.200 A 
ATOM     93  F   UNL A   1      35.291  31.713  27.251  1.00  0.00    -0.200 F 
ATOM     94  F   UNL A   1      33.654  32.615  29.232  1.00  0.00    -0.200 F 
ENDBRANCH  60  84
BRANCH  72  95
ATOM     95  C   UNL A   1      42.577  31.045  33.748  1.00  0.00     0.064 A 
ATOM     96  C   UNL A   1      42.427  31.436  35.091  1.00  0.00     0.173 A 
ATOM     97  C   UNL A   1      42.500  29.675  33.461  1.00  0.00     0.173 A 
ATOM     98  F   UNL A   1      42.398  32.730  35.439  1.00  0.00    -0.203 F 
ATOM     99  C   UNL A   1      42.247  30.489  36.099  1.00  0.00     0.198 A 
ATOM    100  C   UNL A   1      42.281  28.736  34.464  1.00  0.00     0.198 A 
ATOM    101  F   UNL A   1      42.591  29.249  32.191  1.00  0.00    -0.203 F 
ATOM    102  F   UNL A   1      42.116  30.884  37.374  1.00  0.00    -0.200 F 
ATOM    103  C   UNL A   1      42.165  29.141  35.784  1.00  0.00     0.200 A 
ATOM    104  F   UNL A   1      42.156  27.440  34.146  1.00  0.00    -0.200 F 
ATOM    105  F   UNL A   1      41.948  28.235  36.746  1.00  0.00    -0.200 F 
ENDBRANCH  72  95
ENDBRANCH  46  47
ENDBRANCH  39  41
ENDBRANCH  38  39
ENDBRANCH  37  38
ENDBRANCH  36  37
ENDBRANCH  35  36
ENDBRANCH  34  35
ENDBRANCH  33  34
ENDBRANCH   1  33
TORSDOF 23
ENDMDL
