MODEL 1
REMARK VINA RESULT:      -9.9      0.000      0.000
REMARK SMILES CC(C)[NH2+][C@@H](CSc1cccc(F)c1)C(=O)OCCOCCOCCOCCOC(=O)c1ccc(-c2c3nc(c(-c4c(F)c(F)c(F)c(F)c4F)c4ccc([nH]4)c(-c4c(F)c(F)c(F)c(F)c4F)c4nc(c(-c5c(F)c(F)c(F)c(F)c5F)c5ccc2[nH]5)C=C4)C=C3)cc1
REMARK SMILES IDX 22 1 21 2 20 3 19 4 18 5 17 6 15 7 16 8 5 9 4 10 2 13 1 14
REMARK SMILES IDX 3 15 6 16 7 17 8 18 9 19 14 20 10 21 12 22 11 23 13 24 23 25
REMARK SMILES IDX 24 26 25 27 26 28 27 29 28 30 29 31 30 32 31 33 32 34 33 35
REMARK SMILES IDX 94 36 34 37 93 38 35 39 36 40 37 41 87 42 38 43 92 44 86 45
REMARK SMILES IDX 88 46 39 47 91 48 85 49 84 50 40 52 72 53 52 54 71 55 53 56
REMARK SMILES IDX 56 57 70 58 89 59 54 60 55 61 69 63 90 64 57 65 41 66 42 67
REMARK SMILES IDX 50 68 43 69 44 70 48 71 51 72 45 73 46 74 49 75 47 76 73 77
REMARK SMILES IDX 74 78 82 79 75 80 76 81 80 82 83 83 77 84 78 85 81 86 79 87
REMARK SMILES IDX 58 88 59 89 67 90 60 91 61 92 65 93 68 94 62 95 63 96 66 97
REMARK SMILES IDX 64 98
REMARK H PARENT 4 11 4 12 88 51 56 62
REMARK Flexibility Score: inf
ROOT
ATOM      1  C   UNL A   1      34.187  23.996  25.554  1.00  0.00     0.188 C 
ENDROOT
BRANCH   1   2
ATOM      2  C   UNL A   1      33.011  24.197  26.520  1.00  0.00     0.188 C 
BRANCH   2   3
ATOM      3  O   UNL A   1      31.766  23.608  26.201  1.00  0.00    -0.376 OA
BRANCH   3   4
ATOM      4  C   UNL A   1      30.650  24.382  25.797  1.00  0.00     0.202 C 
BRANCH   4   5
ATOM      5  C   UNL A   1      30.529  25.196  24.496  1.00  0.00     0.261 C 
BRANCH   5   6
ATOM      6  O   UNL A   1      30.211  26.584  24.585  1.00  0.00    -0.459 OA
BRANCH   6   7
ATOM      7  C   UNL A   1      29.158  27.014  23.840  1.00  0.00     0.365 C 
ATOM      8  O   UNL A   1      28.012  26.589  23.955  1.00  0.00    -0.245 OA
BRANCH   7   9
ATOM      9  C   UNL A   1      29.574  28.024  22.754  1.00  0.00     0.304 C 
BRANCH   9  10
ATOM     10  N   UNL A   1      29.265  29.411  23.136  1.00  0.00    -0.332 N 
ATOM     11  H   UNL A   1      29.233  29.438  24.156  1.00  0.00     0.347 HD
ATOM     12  H   UNL A   1      29.998  29.954  22.679  1.00  0.00     0.347 HD
BRANCH  10  13
ATOM     13  C   UNL A   1      28.033  30.036  22.659  1.00  0.00     0.176 C 
ATOM     14  C   UNL A   1      27.655  31.183  23.607  1.00  0.00     0.075 C 
ATOM     15  C   UNL A   1      28.069  30.563  21.228  1.00  0.00     0.075 C 
ENDBRANCH  10  13
ENDBRANCH   9  10
BRANCH   9  16
ATOM     16  C   UNL A   1      31.041  27.707  22.389  1.00  0.00     0.152 C 
BRANCH  16  17
ATOM     17  S   UNL A   1      32.337  28.994  22.675  1.00  0.00    -0.119 SA
BRANCH  17  18
ATOM     18  C   UNL A   1      32.696  28.832  24.411  1.00  0.00     0.010 A 
ATOM     19  C   UNL A   1      33.636  27.879  24.830  1.00  0.00     0.015 A 
ATOM     20  C   UNL A   1      32.105  29.668  25.360  1.00  0.00     0.054 A 
ATOM     21  C   UNL A   1      33.942  27.723  26.185  1.00  0.00     0.004 A 
ATOM     22  C   UNL A   1      32.430  29.516  26.705  1.00  0.00     0.124 A 
ATOM     23  C   UNL A   1      33.336  28.549  27.128  1.00  0.00     0.039 A 
ATOM     24  F   UNL A   1      31.849  30.310  27.616  1.00  0.00    -0.207 F 
ENDBRANCH  17  18
ENDBRANCH  16  17
ENDBRANCH   9  16
ENDBRANCH   7   9
ENDBRANCH   6   7
ENDBRANCH   5   6
ENDBRANCH   4   5
ENDBRANCH   3   4
ENDBRANCH   2   3
ENDBRANCH   1   2
BRANCH   1  25
ATOM     25  O   UNL A   1      33.854  24.086  24.182  1.00  0.00    -0.377 OA
BRANCH  25  26
ATOM     26  C   UNL A   1      34.801  23.613  23.232  1.00  0.00     0.188 C 
BRANCH  26  27
ATOM     27  C   UNL A   1      36.000  22.736  23.658  1.00  0.00     0.188 C 
BRANCH  27  28
ATOM     28  O   UNL A   1      35.664  21.479  24.223  1.00  0.00    -0.376 OA
BRANCH  28  29
ATOM     29  C   UNL A   1      36.349  21.045  25.389  1.00  0.00     0.202 C 
BRANCH  29  30
ATOM     30  C   UNL A   1      37.635  20.225  25.187  1.00  0.00     0.261 C 
BRANCH  30  31
ATOM     31  O   UNL A   1      38.859  20.974  25.173  1.00  0.00    -0.460 OA
BRANCH  31  32
ATOM     32  C   UNL A   1      39.720  20.760  26.187  1.00  0.00     0.338 C 
ATOM     33  O   UNL A   1      40.259  19.706  26.490  1.00  0.00    -0.246 OA
BRANCH  32  34
ATOM     34  C   UNL A   1      40.064  22.065  26.785  1.00  0.00     0.060 A 
ATOM     35  C   UNL A   1      39.377  23.204  26.347  1.00  0.00     0.016 A 
ATOM     36  C   UNL A   1      41.066  22.169  27.752  1.00  0.00     0.016 A 
ATOM     37  C   UNL A   1      39.729  24.460  26.837  1.00  0.00     0.010 A 
ATOM     38  C   UNL A   1      41.434  23.432  28.227  1.00  0.00     0.010 A 
ATOM     39  C   UNL A   1      40.795  24.586  27.738  1.00  0.00    -0.014 A 
BRANCH  39  40
ATOM     40  C   UNL A   1      41.368  25.931  27.999  1.00  0.00     0.031 A 
ATOM     41  C   UNL A   1      42.749  26.231  27.481  1.00  0.00     0.074 A 
ATOM     42  C   UNL A   1      40.655  26.887  28.620  1.00  0.00     0.049 A 
ATOM     43  N   UNL A   1      43.458  27.326  27.590  1.00  0.00    -0.248 NA
ATOM     44  C   UNL A   1      43.422  25.155  26.735  1.00  0.00     0.031 C 
ATOM     45  C   UNL A   1      39.288  26.736  29.111  1.00  0.00     0.029 A 
ATOM     46  N   UNL A   1      40.987  28.182  28.935  1.00  0.00    -0.354 N 
ATOM     47  C   UNL A   1      44.651  27.071  26.926  1.00  0.00     0.074 A 
ATOM     48  C   UNL A   1      44.591  25.708  26.450  1.00  0.00     0.031 C 
ATOM     49  C   UNL A   1      38.893  27.897  29.663  1.00  0.00     0.029 A 
ATOM     50  C   UNL A   1      39.991  28.861  29.595  1.00  0.00     0.049 A 
ATOM     51  H   UNL A   1      41.856  28.586  28.709  1.00  0.00     0.167 HD
ATOM     52  C   UNL A   1      45.694  27.906  26.716  1.00  0.00     0.037 A 
ATOM     53  C   UNL A   1      39.978  30.112  30.098  1.00  0.00     0.037 A 
ATOM     54  C   UNL A   1      45.750  29.265  27.183  1.00  0.00     0.049 A 
ATOM     55  C   UNL A   1      41.195  30.989  29.933  1.00  0.00     0.074 A 
ATOM     56  C   UNL A   1      46.768  30.188  27.022  1.00  0.00     0.029 A 
ATOM     57  N   UNL A   1      44.746  29.897  27.901  1.00  0.00    -0.354 N 
ATOM     58  N   UNL A   1      42.317  30.742  29.300  1.00  0.00    -0.248 NA
ATOM     59  C   UNL A   1      41.143  32.323  30.551  1.00  0.00     0.031 C 
ATOM     60  C   UNL A   1      46.406  31.359  27.690  1.00  0.00     0.029 A 
ATOM     61  C   UNL A   1      45.133  31.190  28.211  1.00  0.00     0.049 A 
ATOM     62  H   UNL A   1      43.887  29.487  28.155  1.00  0.00     0.167 HD
ATOM     63  C   UNL A   1      43.085  31.894  29.413  1.00  0.00     0.074 A 
ATOM     64  C   UNL A   1      42.296  32.848  30.163  1.00  0.00     0.031 C 
ATOM     65  C   UNL A   1      44.331  32.140  28.941  1.00  0.00     0.037 A 
BRANCH  52  66
ATOM     66  C   UNL A   1      46.873  27.386  25.948  1.00  0.00     0.064 A 
ATOM     67  C   UNL A   1      47.927  26.743  26.614  1.00  0.00     0.173 A 
ATOM     68  C   UNL A   1      47.010  27.618  24.572  1.00  0.00     0.173 A 
ATOM     69  F   UNL A   1      47.845  26.498  27.930  1.00  0.00    -0.203 F 
ATOM     70  C   UNL A   1      49.087  26.379  25.937  1.00  0.00     0.198 A 
ATOM     71  C   UNL A   1      48.160  27.228  23.891  1.00  0.00     0.198 A 
ATOM     72  F   UNL A   1      46.023  28.216  23.886  1.00  0.00    -0.203 F 
ATOM     73  F   UNL A   1      50.099  25.809  26.604  1.00  0.00    -0.200 F 
ATOM     74  C   UNL A   1      49.203  26.621  24.576  1.00  0.00     0.200 A 
ATOM     75  F   UNL A   1      48.262  27.442  22.572  1.00  0.00    -0.200 F 
ATOM     76  F   UNL A   1      50.322  26.274  23.925  1.00  0.00    -0.200 F 
ENDBRANCH  52  66
BRANCH  53  77
ATOM     77  C   UNL A   1      38.770  30.620  30.804  1.00  0.00     0.064 A 
ATOM     78  C   UNL A   1      38.648  30.534  32.198  1.00  0.00     0.173 A 
ATOM     79  C   UNL A   1      37.721  31.226  30.097  1.00  0.00     0.173 A 
ATOM     80  F   UNL A   1      39.626  29.972  32.925  1.00  0.00    -0.203 F 
ATOM     81  C   UNL A   1      37.518  31.017  32.856  1.00  0.00     0.198 A 
ATOM     82  C   UNL A   1      36.606  31.738  30.758  1.00  0.00     0.198 A 
ATOM     83  F   UNL A   1      37.801  31.360  28.765  1.00  0.00    -0.203 F 
ATOM     84  F   UNL A   1      37.418  30.897  34.187  1.00  0.00    -0.200 F 
ATOM     85  C   UNL A   1      36.503  31.627  32.136  1.00  0.00     0.200 A 
ATOM     86  F   UNL A   1      35.644  32.358  30.062  1.00  0.00    -0.200 F 
ATOM     87  F   UNL A   1      35.428  32.115  32.771  1.00  0.00    -0.200 F 
ENDBRANCH  53  77
BRANCH  65  88
ATOM     88  C   UNL A   1      44.920  33.502  29.176  1.00  0.00     0.064 A 
ATOM     89  C   UNL A   1      44.666  34.549  28.275  1.00  0.00     0.173 A 
ATOM     90  C   UNL A   1      45.797  33.753  30.241  1.00  0.00     0.173 A 
ATOM     91  F   UNL A   1      43.845  34.360  27.231  1.00  0.00    -0.203 F 
ATOM     92  C   UNL A   1      45.280  35.790  28.423  1.00  0.00     0.198 A 
ATOM     93  C   UNL A   1      46.382  35.006  30.406  1.00  0.00     0.198 A 
ATOM     94  F   UNL A   1      46.068  32.790  31.134  1.00  0.00    -0.203 F 
ATOM     95  F   UNL A   1      45.055  36.760  27.526  1.00  0.00    -0.200 F 
ATOM     96  C   UNL A   1      46.132  36.019  29.492  1.00  0.00     0.200 A 
ATOM     97  F   UNL A   1      47.185  35.235  31.454  1.00  0.00    -0.200 F 
ATOM     98  F   UNL A   1      46.712  37.218  29.643  1.00  0.00    -0.200 F 
ENDBRANCH  65  88
ENDBRANCH  39  40
ENDBRANCH  32  34
ENDBRANCH  31  32
ENDBRANCH  30  31
ENDBRANCH  29  30
ENDBRANCH  28  29
ENDBRANCH  27  28
ENDBRANCH  26  27
ENDBRANCH  25  26
ENDBRANCH   1  25
TORSDOF 25
ENDMDL
MODEL 2
REMARK VINA RESULT:      -9.7      1.856      3.456
REMARK SMILES CC(C)[NH2+][C@@H](CSc1cccc(F)c1)C(=O)OCCOCCOCCOCCOC(=O)c1ccc(-c2c3nc(c(-c4c(F)c(F)c(F)c(F)c4F)c4ccc([nH]4)c(-c4c(F)c(F)c(F)c(F)c4F)c4nc(c(-c5c(F)c(F)c(F)c(F)c5F)c5ccc2[nH]5)C=C4)C=C3)cc1
REMARK SMILES IDX 22 1 21 2 20 3 19 4 18 5 17 6 15 7 16 8 5 9 4 10 2 13 1 14
REMARK SMILES IDX 3 15 6 16 7 17 8 18 9 19 14 20 10 21 12 22 11 23 13 24 23 25
REMARK SMILES IDX 24 26 25 27 26 28 27 29 28 30 29 31 30 32 31 33 32 34 33 35
REMARK SMILES IDX 94 36 34 37 93 38 35 39 36 40 37 41 87 42 38 43 92 44 86 45
REMARK SMILES IDX 88 46 39 47 91 48 85 49 84 50 40 52 72 53 52 54 71 55 53 56
REMARK SMILES IDX 56 57 70 58 89 59 54 60 55 61 69 63 90 64 57 65 41 66 42 67
REMARK SMILES IDX 50 68 43 69 44 70 48 71 51 72 45 73 46 74 49 75 47 76 73 77
REMARK SMILES IDX 74 78 82 79 75 80 76 81 80 82 83 83 77 84 78 85 81 86 79 87
REMARK SMILES IDX 58 88 59 89 67 90 60 91 61 92 65 93 68 94 62 95 63 96 66 97
REMARK SMILES IDX 64 98
REMARK H PARENT 4 11 4 12 88 51 56 62
REMARK Flexibility Score: inf
ROOT
ATOM      1  C   UNL A   1      34.414  23.388  25.913  1.00  0.00     0.188 C 
ENDROOT
BRANCH   1   2
ATOM      2  C   UNL A   1      33.165  23.425  26.804  1.00  0.00     0.188 C 
BRANCH   2   3
ATOM      3  O   UNL A   1      32.074  22.589  26.473  1.00  0.00    -0.376 OA
BRANCH   3   4
ATOM      4  C   UNL A   1      31.098  22.971  25.519  1.00  0.00     0.202 C 
BRANCH   4   5
ATOM      5  C   UNL A   1      31.093  24.269  24.691  1.00  0.00     0.261 C 
BRANCH   5   6
ATOM      6  O   UNL A   1      30.274  25.354  25.124  1.00  0.00    -0.459 OA
BRANCH   6   7
ATOM      7  C   UNL A   1      30.891  26.332  25.839  1.00  0.00     0.365 C 
ATOM      8  O   UNL A   1      31.232  26.218  27.013  1.00  0.00    -0.245 OA
BRANCH   7   9
ATOM      9  C   UNL A   1      31.026  27.648  25.049  1.00  0.00     0.304 C 
BRANCH   9  10
ATOM     10  N   UNL A   1      32.419  27.924  24.663  1.00  0.00    -0.332 N 
ATOM     11  H   UNL A   1      32.944  27.061  24.807  1.00  0.00     0.347 HD
ATOM     12  H   UNL A   1      32.338  28.266  23.705  1.00  0.00     0.347 HD
BRANCH  10  13
ATOM     13  C   UNL A   1      33.160  28.986  25.340  1.00  0.00     0.176 C 
ATOM     14  C   UNL A   1      32.169  30.048  25.838  1.00  0.00     0.075 C 
ATOM     15  C   UNL A   1      34.041  28.542  26.504  1.00  0.00     0.075 C 
ENDBRANCH  10  13
ENDBRANCH   9  10
BRANCH   9  16
ATOM     16  C   UNL A   1      29.981  27.595  23.913  1.00  0.00     0.152 C 
BRANCH  16  17
ATOM     17  S   UNL A   1      30.364  28.413  22.300  1.00  0.00    -0.119 SA
BRANCH  17  18
ATOM     18  C   UNL A   1      29.448  29.936  22.388  1.00  0.00     0.010 A 
ATOM     19  C   UNL A   1      29.290  30.569  23.630  1.00  0.00     0.015 A 
ATOM     20  C   UNL A   1      28.931  30.545  21.243  1.00  0.00     0.054 A 
ATOM     21  C   UNL A   1      28.576  31.766  23.737  1.00  0.00     0.004 A 
ATOM     22  C   UNL A   1      28.237  31.746  21.359  1.00  0.00     0.124 A 
ATOM     23  C   UNL A   1      28.048  32.358  22.593  1.00  0.00     0.039 A 
ATOM     24  F   UNL A   1      27.728  32.320  20.260  1.00  0.00    -0.207 F 
ENDBRANCH  17  18
ENDBRANCH  16  17
ENDBRANCH   9  16
ENDBRANCH   7   9
ENDBRANCH   6   7
ENDBRANCH   5   6
ENDBRANCH   4   5
ENDBRANCH   3   4
ENDBRANCH   2   3
ENDBRANCH   1   2
BRANCH   1  25
ATOM     25  O   UNL A   1      34.544  22.227  25.115  1.00  0.00    -0.377 OA
BRANCH  25  26
ATOM     26  C   UNL A   1      35.622  22.169  24.188  1.00  0.00     0.188 C 
BRANCH  26  27
ATOM     27  C   UNL A   1      37.084  22.378  24.640  1.00  0.00     0.188 C 
BRANCH  27  28
ATOM     28  O   UNL A   1      37.604  21.379  25.503  1.00  0.00    -0.376 OA
BRANCH  28  29
ATOM     29  C   UNL A   1      39.004  21.333  25.736  1.00  0.00     0.202 C 
BRANCH  29  30
ATOM     30  C   UNL A   1      39.606  19.979  26.147  1.00  0.00     0.261 C 
BRANCH  30  31
ATOM     31  O   UNL A   1      40.762  19.558  25.407  1.00  0.00    -0.460 OA
BRANCH  31  32
ATOM     32  C   UNL A   1      41.894  19.347  26.108  1.00  0.00     0.338 C 
ATOM     33  O   UNL A   1      42.426  18.274  26.349  1.00  0.00    -0.246 OA
BRANCH  32  34
ATOM     34  C   UNL A   1      42.510  20.657  26.398  1.00  0.00     0.060 A 
ATOM     35  C   UNL A   1      42.611  21.069  27.733  1.00  0.00     0.016 A 
ATOM     36  C   UNL A   1      42.964  21.480  25.365  1.00  0.00     0.016 A 
ATOM     37  C   UNL A   1      43.118  22.332  28.035  1.00  0.00     0.010 A 
ATOM     38  C   UNL A   1      43.453  22.755  25.668  1.00  0.00     0.010 A 
ATOM     39  C   UNL A   1      43.490  23.202  27.001  1.00  0.00    -0.014 A 
BRANCH  39  40
ATOM     40  C   UNL A   1      43.716  24.636  27.308  1.00  0.00     0.031 A 
ATOM     41  C   UNL A   1      45.074  25.222  27.030  1.00  0.00     0.074 A 
ATOM     42  C   UNL A   1      42.721  25.420  27.760  1.00  0.00     0.049 A 
ATOM     43  N   UNL A   1      45.510  26.441  27.220  1.00  0.00    -0.248 NA
ATOM     44  C   UNL A   1      46.078  24.312  26.452  1.00  0.00     0.031 C 
ATOM     45  C   UNL A   1      41.349  24.984  28.010  1.00  0.00     0.029 A 
ATOM     46  N   UNL A   1      42.715  26.756  28.080  1.00  0.00    -0.354 N 
ATOM     47  C   UNL A   1      46.829  26.443  26.785  1.00  0.00     0.074 A 
ATOM     48  C   UNL A   1      47.139  25.099  26.355  1.00  0.00     0.031 C 
ATOM     49  C   UNL A   1      40.631  26.036  28.442  1.00  0.00     0.029 A 
ATOM     50  C   UNL A   1      41.500  27.209  28.531  1.00  0.00     0.049 A 
ATOM     51  H   UNL A   1      43.508  27.334  27.996  1.00  0.00     0.167 HD
ATOM     52  C   UNL A   1      47.696  27.479  26.730  1.00  0.00     0.037 A 
ATOM     53  C   UNL A   1      41.138  28.429  28.978  1.00  0.00     0.037 A 
ATOM     54  C   UNL A   1      47.385  28.819  27.150  1.00  0.00     0.049 A 
ATOM     55  C   UNL A   1      42.156  29.543  28.996  1.00  0.00     0.074 A 
ATOM     56  C   UNL A   1      48.202  29.936  27.136  1.00  0.00     0.029 A 
ATOM     57  N   UNL A   1      46.160  29.225  27.658  1.00  0.00    -0.354 N 
ATOM     58  N   UNL A   1      43.399  29.538  28.579  1.00  0.00    -0.248 NA
ATOM     59  C   UNL A   1      41.719  30.835  29.547  1.00  0.00     0.031 C 
ATOM     60  C   UNL A   1      47.492  31.004  27.687  1.00  0.00     0.029 A 
ATOM     61  C   UNL A   1      46.209  30.570  27.983  1.00  0.00     0.049 A 
ATOM     62  H   UNL A   1      45.374  28.643  27.772  1.00  0.00     0.167 HD
ATOM     63  C   UNL A   1      43.879  30.826  28.782  1.00  0.00     0.074 A 
ATOM     64  C   UNL A   1      42.789  31.592  29.348  1.00  0.00     0.031 C 
ATOM     65  C   UNL A   1      45.111  31.329  28.526  1.00  0.00     0.037 A 
BRANCH  52  66
ATOM     66  C   UNL A   1      49.075  27.220  26.199  1.00  0.00     0.064 A 
ATOM     67  C   UNL A   1      49.327  27.277  24.820  1.00  0.00     0.173 A 
ATOM     68  C   UNL A   1      50.120  26.814  27.041  1.00  0.00     0.173 A 
ATOM     69  F   UNL A   1      48.360  27.659  23.971  1.00  0.00    -0.203 F 
ATOM     70  C   UNL A   1      50.564  26.906  24.301  1.00  0.00     0.198 A 
ATOM     71  C   UNL A   1      51.366  26.470  26.522  1.00  0.00     0.198 A 
ATOM     72  F   UNL A   1      49.935  26.759  28.369  1.00  0.00    -0.203 F 
ATOM     73  F   UNL A   1      50.765  26.922  22.976  1.00  0.00    -0.200 F 
ATOM     74  C   UNL A   1      51.582  26.503  25.152  1.00  0.00     0.200 A 
ATOM     75  F   UNL A   1      52.356  26.103  27.347  1.00  0.00    -0.200 F 
ATOM     76  F   UNL A   1      52.772  26.143  24.651  1.00  0.00    -0.200 F 
ENDBRANCH  52  66
BRANCH  53  77
ATOM     77  C   UNL A   1      39.744  28.671  29.443  1.00  0.00     0.064 A 
ATOM     78  C   UNL A   1      39.361  28.417  30.768  1.00  0.00     0.173 A 
ATOM     79  C   UNL A   1      38.771  29.185  28.574  1.00  0.00     0.173 A 
ATOM     80  F   UNL A   1      40.254  27.933  31.645  1.00  0.00    -0.203 F 
ATOM     81  C   UNL A   1      38.058  28.651  31.201  1.00  0.00     0.198 A 
ATOM     82  C   UNL A   1      37.476  29.450  29.016  1.00  0.00     0.198 A 
ATOM     83  F   UNL A   1      39.093  29.473  27.304  1.00  0.00    -0.203 F 
ATOM     84  F   UNL A   1      37.714  28.374  32.467  1.00  0.00    -0.200 F 
ATOM     85  C   UNL A   1      37.119  29.176  30.327  1.00  0.00     0.200 A 
ATOM     86  F   UNL A   1      36.582  29.990  28.176  1.00  0.00    -0.200 F 
ATOM     87  F   UNL A   1      35.872  29.426  30.750  1.00  0.00    -0.200 F 
ENDBRANCH  53  77
BRANCH  65  88
ATOM     88  C   UNL A   1      45.353  32.785  28.810  1.00  0.00     0.064 A 
ATOM     89  C   UNL A   1      45.865  33.189  30.053  1.00  0.00     0.173 A 
ATOM     90  C   UNL A   1      45.003  33.783  27.890  1.00  0.00     0.173 A 
ATOM     91  F   UNL A   1      46.204  32.276  30.976  1.00  0.00    -0.203 F 
ATOM     92  C   UNL A   1      46.005  34.538  30.369  1.00  0.00     0.198 A 
ATOM     93  C   UNL A   1      45.177  35.131  28.195  1.00  0.00     0.198 A 
ATOM     94  F   UNL A   1      44.516  33.451  26.685  1.00  0.00    -0.203 F 
ATOM     95  F   UNL A   1      46.456  34.900  31.578  1.00  0.00    -0.200 F 
ATOM     96  C   UNL A   1      45.666  35.507  29.438  1.00  0.00     0.200 A 
ATOM     97  F   UNL A   1      44.874  36.066  27.285  1.00  0.00    -0.200 F 
ATOM     98  F   UNL A   1      45.813  36.805  29.736  1.00  0.00    -0.200 F 
ENDBRANCH  65  88
ENDBRANCH  39  40
ENDBRANCH  32  34
ENDBRANCH  31  32
ENDBRANCH  30  31
ENDBRANCH  29  30
ENDBRANCH  28  29
ENDBRANCH  27  28
ENDBRANCH  26  27
ENDBRANCH  25  26
ENDBRANCH   1  25
TORSDOF 25
ENDMDL
MODEL 3
REMARK VINA RESULT:      -9.4      2.141      3.489
REMARK SMILES CC(C)[NH2+][C@@H](CSc1cccc(F)c1)C(=O)OCCOCCOCCOCCOC(=O)c1ccc(-c2c3nc(c(-c4c(F)c(F)c(F)c(F)c4F)c4ccc([nH]4)c(-c4c(F)c(F)c(F)c(F)c4F)c4nc(c(-c5c(F)c(F)c(F)c(F)c5F)c5ccc2[nH]5)C=C4)C=C3)cc1
REMARK SMILES IDX 22 1 21 2 20 3 19 4 18 5 17 6 15 7 16 8 5 9 4 10 2 13 1 14
REMARK SMILES IDX 3 15 6 16 7 17 8 18 9 19 14 20 10 21 12 22 11 23 13 24 23 25
REMARK SMILES IDX 24 26 25 27 26 28 27 29 28 30 29 31 30 32 31 33 32 34 33 35
REMARK SMILES IDX 94 36 34 37 93 38 35 39 36 40 37 41 87 42 38 43 92 44 86 45
REMARK SMILES IDX 88 46 39 47 91 48 85 49 84 50 40 52 72 53 52 54 71 55 53 56
REMARK SMILES IDX 56 57 70 58 89 59 54 60 55 61 69 63 90 64 57 65 41 66 42 67
REMARK SMILES IDX 50 68 43 69 44 70 48 71 51 72 45 73 46 74 49 75 47 76 73 77
REMARK SMILES IDX 74 78 82 79 75 80 76 81 80 82 83 83 77 84 78 85 81 86 79 87
REMARK SMILES IDX 58 88 59 89 67 90 60 91 61 92 65 93 68 94 62 95 63 96 66 97
REMARK SMILES IDX 64 98
REMARK H PARENT 4 11 4 12 88 51 56 62
REMARK Flexibility Score: inf
ROOT
ATOM      1  C   UNL A   1      33.518  19.795  25.276  1.00  0.00     0.188 C 
ENDROOT
BRANCH   1   2
ATOM      2  C   UNL A   1      32.573  20.041  24.092  1.00  0.00     0.188 C 
BRANCH   2   3
ATOM      3  O   UNL A   1      32.195  21.370  23.794  1.00  0.00    -0.376 OA
BRANCH   3   4
ATOM      4  C   UNL A   1      32.667  22.045  22.640  1.00  0.00     0.202 C 
BRANCH   4   5
ATOM      5  C   UNL A   1      33.184  23.494  22.581  1.00  0.00     0.261 C 
BRANCH   5   6
ATOM      6  O   UNL A   1      32.260  24.537  22.274  1.00  0.00    -0.459 OA
BRANCH   6   7
ATOM      7  C   UNL A   1      31.144  24.606  23.047  1.00  0.00     0.365 C 
ATOM      8  O   UNL A   1      30.232  23.785  23.018  1.00  0.00    -0.245 OA
BRANCH   7   9
ATOM      9  C   UNL A   1      31.091  25.890  23.897  1.00  0.00     0.304 C 
BRANCH   9  10
ATOM     10  N   UNL A   1      31.586  25.670  25.266  1.00  0.00    -0.332 N 
ATOM     11  H   UNL A   1      32.377  26.301  25.401  1.00  0.00     0.347 HD
ATOM     12  H   UNL A   1      30.762  25.827  25.846  1.00  0.00     0.347 HD
BRANCH  10  13
ATOM     13  C   UNL A   1      32.036  24.339  25.669  1.00  0.00     0.176 C 
ATOM     14  C   UNL A   1      33.486  24.430  26.164  1.00  0.00     0.075 C 
ATOM     15  C   UNL A   1      31.188  23.647  26.732  1.00  0.00     0.075 C 
ENDBRANCH  10  13
ENDBRANCH   9  10
BRANCH   9  16
ATOM     16  C   UNL A   1      31.777  27.000  23.073  1.00  0.00     0.152 C 
BRANCH  16  17
ATOM     17  S   UNL A   1      33.470  27.564  23.556  1.00  0.00    -0.119 SA
BRANCH  17  18
ATOM     18  C   UNL A   1      33.168  28.580  24.986  1.00  0.00     0.010 A 
ATOM     19  C   UNL A   1      33.898  28.344  26.160  1.00  0.00     0.015 A 
ATOM     20  C   UNL A   1      32.262  29.641  24.949  1.00  0.00     0.054 A 
ATOM     21  C   UNL A   1      33.687  29.121  27.303  1.00  0.00     0.004 A 
ATOM     22  C   UNL A   1      32.072  30.420  26.088  1.00  0.00     0.124 A 
ATOM     23  C   UNL A   1      32.769  30.167  27.264  1.00  0.00     0.039 A 
ATOM     24  F   UNL A   1      31.190  31.428  26.054  1.00  0.00    -0.207 F 
ENDBRANCH  17  18
ENDBRANCH  16  17
ENDBRANCH   9  16
ENDBRANCH   7   9
ENDBRANCH   6   7
ENDBRANCH   5   6
ENDBRANCH   4   5
ENDBRANCH   3   4
ENDBRANCH   2   3
ENDBRANCH   1   2
BRANCH   1  25
ATOM     25  O   UNL A   1      34.244  20.930  25.706  1.00  0.00    -0.377 OA
BRANCH  25  26
ATOM     26  C   UNL A   1      35.591  21.067  25.271  1.00  0.00     0.188 C 
BRANCH  26  27
ATOM     27  C   UNL A   1      36.389  22.367  25.519  1.00  0.00     0.188 C 
BRANCH  27  28
ATOM     28  O   UNL A   1      37.793  22.264  25.343  1.00  0.00    -0.376 OA
BRANCH  28  29
ATOM     29  C   UNL A   1      38.393  20.977  25.350  1.00  0.00     0.202 C 
BRANCH  29  30
ATOM     30  C   UNL A   1      39.794  20.856  25.974  1.00  0.00     0.261 C 
BRANCH  30  31
ATOM     31  O   UNL A   1      40.272  19.519  26.184  1.00  0.00    -0.460 OA
BRANCH  31  32
ATOM     32  C   UNL A   1      41.606  19.330  26.139  1.00  0.00     0.338 C 
ATOM     33  O   UNL A   1      42.200  18.350  25.715  1.00  0.00    -0.246 OA
BRANCH  32  34
ATOM     34  C   UNL A   1      42.265  20.593  26.523  1.00  0.00     0.060 A 
ATOM     35  C   UNL A   1      42.211  20.995  27.864  1.00  0.00     0.016 A 
ATOM     36  C   UNL A   1      42.911  21.384  25.571  1.00  0.00     0.016 A 
ATOM     37  C   UNL A   1      42.758  22.219  28.245  1.00  0.00     0.010 A 
ATOM     38  C   UNL A   1      43.441  22.621  25.951  1.00  0.00     0.010 A 
ATOM     39  C   UNL A   1      43.327  23.062  27.281  1.00  0.00    -0.014 A 
BRANCH  39  40
ATOM     40  C   UNL A   1      43.607  24.477  27.632  1.00  0.00     0.031 A 
ATOM     41  C   UNL A   1      45.036  24.950  27.609  1.00  0.00     0.074 A 
ATOM     42  C   UNL A   1      42.613  25.343  27.898  1.00  0.00     0.049 A 
ATOM     43  N   UNL A   1      45.526  26.132  27.882  1.00  0.00    -0.248 NA
ATOM     44  C   UNL A   1      46.052  23.957  27.220  1.00  0.00     0.031 C 
ATOM     45  C   UNL A   1      41.188  25.020  27.891  1.00  0.00     0.029 A 
ATOM     46  N   UNL A   1      42.656  26.677  28.219  1.00  0.00    -0.354 N 
ATOM     47  C   UNL A   1      46.898  26.025  27.695  1.00  0.00     0.074 A 
ATOM     48  C   UNL A   1      47.172  24.656  27.323  1.00  0.00     0.031 C 
ATOM     49  C   UNL A   1      40.489  26.130  28.190  1.00  0.00     0.029 A 
ATOM     50  C   UNL A   1      41.418  27.231  28.442  1.00  0.00     0.049 A 
ATOM     51  H   UNL A   1      43.495  27.189  28.283  1.00  0.00     0.167 HD
ATOM     52  C   UNL A   1      47.841  26.988  27.805  1.00  0.00     0.037 A 
ATOM     53  C   UNL A   1      41.080  28.480  28.822  1.00  0.00     0.037 A 
ATOM     54  C   UNL A   1      47.567  28.352  28.168  1.00  0.00     0.049 A 
ATOM     55  C   UNL A   1      42.164  29.509  29.031  1.00  0.00     0.074 A 
ATOM     56  C   UNL A   1      48.460  29.400  28.308  1.00  0.00     0.029 A 
ATOM     57  N   UNL A   1      46.306  28.859  28.445  1.00  0.00    -0.354 N 
ATOM     58  N   UNL A   1      43.458  29.401  28.848  1.00  0.00    -0.248 NA
ATOM     59  C   UNL A   1      41.739  30.837  29.500  1.00  0.00     0.031 C 
ATOM     60  C   UNL A   1      47.749  30.527  28.726  1.00  0.00     0.029 A 
ATOM     61  C   UNL A   1      46.403  30.200  28.780  1.00  0.00     0.049 A 
ATOM     62  H   UNL A   1      45.468  28.344  28.411  1.00  0.00     0.167 HD
ATOM     63  C   UNL A   1      43.994  30.649  29.142  1.00  0.00     0.074 A 
ATOM     64  C   UNL A   1      42.884  31.504  29.503  1.00  0.00     0.031 C 
ATOM     65  C   UNL A   1      45.289  31.049  29.118  1.00  0.00     0.037 A 
BRANCH  52  66
ATOM     66  C   UNL A   1      49.268  26.615  27.533  1.00  0.00     0.064 A 
ATOM     67  C   UNL A   1      50.130  26.284  28.591  1.00  0.00     0.173 A 
ATOM     68  C   UNL A   1      49.811  26.686  26.243  1.00  0.00     0.173 A 
ATOM     69  F   UNL A   1      49.660  26.204  29.845  1.00  0.00    -0.203 F 
ATOM     70  C   UNL A   1      51.487  26.071  28.370  1.00  0.00     0.198 A 
ATOM     71  C   UNL A   1      51.164  26.444  26.021  1.00  0.00     0.198 A 
ATOM     72  F   UNL A   1      49.026  26.982  25.195  1.00  0.00    -0.203 F 
ATOM     73  F   UNL A   1      52.298  25.804  29.403  1.00  0.00    -0.200 F 
ATOM     74  C   UNL A   1      52.003  26.150  27.086  1.00  0.00     0.200 A 
ATOM     75  F   UNL A   1      51.658  26.499  24.776  1.00  0.00    -0.200 F 
ATOM     76  F   UNL A   1      53.311  25.948  26.874  1.00  0.00    -0.200 F 
ENDBRANCH  52  66
BRANCH  53  77
ATOM     77  C   UNL A   1      39.649  28.837  29.026  1.00  0.00     0.064 A 
ATOM     78  C   UNL A   1      38.865  29.341  27.978  1.00  0.00     0.173 A 
ATOM     79  C   UNL A   1      39.031  28.658  30.272  1.00  0.00     0.173 A 
ATOM     80  F   UNL A   1      39.403  29.524  26.763  1.00  0.00    -0.203 F 
ATOM     81  C   UNL A   1      37.524  29.667  28.172  1.00  0.00     0.198 A 
ATOM     82  C   UNL A   1      37.681  28.954  30.457  1.00  0.00     0.198 A 
ATOM     83  F   UNL A   1      39.728  28.152  31.300  1.00  0.00    -0.203 F 
ATOM     84  F   UNL A   1      36.806  30.172  27.159  1.00  0.00    -0.200 F 
ATOM     85  C   UNL A   1      36.931  29.465  29.409  1.00  0.00     0.200 A 
ATOM     86  F   UNL A   1      37.104  28.724  31.644  1.00  0.00    -0.200 F 
ATOM     87  F   UNL A   1      35.635  29.754  29.588  1.00  0.00    -0.200 F 
ENDBRANCH  53  77
BRANCH  65  88
ATOM     88  C   UNL A   1      45.590  32.483  29.449  1.00  0.00     0.064 A 
ATOM     89  C   UNL A   1      45.814  32.873  30.779  1.00  0.00     0.173 A 
ATOM     90  C   UNL A   1      45.578  33.484  28.467  1.00  0.00     0.173 A 
ATOM     91  F   UNL A   1      45.823  31.958  31.760  1.00  0.00    -0.203 F 
ATOM     92  C   UNL A   1      45.999  34.211  31.115  1.00  0.00     0.198 A 
ATOM     93  C   UNL A   1      45.799  34.818  28.802  1.00  0.00     0.198 A 
ATOM     94  F   UNL A   1      45.377  33.166  27.180  1.00  0.00    -0.203 F 
ATOM     95  F   UNL A   1      46.167  34.562  32.398  1.00  0.00    -0.200 F 
ATOM     96  C   UNL A   1      45.997  35.182  30.126  1.00  0.00     0.200 A 
ATOM     97  F   UNL A   1      45.823  35.753  27.841  1.00  0.00    -0.200 F 
ATOM     98  F   UNL A   1      46.189  36.468  30.447  1.00  0.00    -0.200 F 
ENDBRANCH  65  88
ENDBRANCH  39  40
ENDBRANCH  32  34
ENDBRANCH  31  32
ENDBRANCH  30  31
ENDBRANCH  29  30
ENDBRANCH  28  29
ENDBRANCH  27  28
ENDBRANCH  26  27
ENDBRANCH  25  26
ENDBRANCH   1  25
TORSDOF 25
ENDMDL
