MODEL 1
REMARK VINA RESULT:      -9.1      0.000      0.000
REMARK SMILES CC[NH+]1CCC([N@@H+]2CCO[C@H](CC(=O)OCCOCCOCCOCCOC(=O)c3ccc(-c4c5nc(c(-c6c(F)c(F)c(F)c(F)c6F)c6ccc([nH]6)c(-c6c(F)c(F)c(F)c(F)c6F)c6nc(c(-c7c(F)c(F)c(F)c(F)c7F)c7ccc4[nH]7)C=C6)C=C5)cc3)C2)CC1
REMARK SMILES IDX 20 1 19 2 18 3 17 4 16 5 15 6 13 7 14 8 12 9 11 10 7 11 8 12
REMARK SMILES IDX 93 13 9 15 10 16 6 17 3 18 4 19 95 20 5 22 94 23 2 24 1 25
REMARK SMILES IDX 21 26 22 27 23 28 24 29 25 30 26 31 27 32 28 33 29 34 30 35
REMARK SMILES IDX 31 36 92 37 32 38 91 39 33 40 34 41 35 42 85 43 36 44 90 45
REMARK SMILES IDX 84 46 86 47 37 48 89 49 83 50 82 51 38 53 70 54 50 55 69 56
REMARK SMILES IDX 51 57 54 58 68 59 87 60 52 61 53 62 67 64 88 65 55 66 39 67
REMARK SMILES IDX 40 68 48 69 41 70 42 71 46 72 49 73 43 74 44 75 47 76 45 77
REMARK SMILES IDX 71 78 72 79 80 80 73 81 74 82 78 83 81 84 75 85 76 86 79 87
REMARK SMILES IDX 77 88 56 89 57 90 65 91 58 92 59 93 63 94 66 95 60 96 61 97
REMARK SMILES IDX 64 98 62 99
REMARK H PARENT 7 14 3 21 86 52 54 63
REMARK Flexibility Score: inf
ROOT
ATOM      1  C   UNL A   1      31.943  29.772  25.492  1.00  0.00     0.188 C 
ENDROOT
BRANCH   1   2
ATOM      2  C   UNL A   1      31.748  29.058  24.132  1.00  0.00     0.188 C 
BRANCH   2   3
ATOM      3  O   UNL A   1      30.959  27.892  24.170  1.00  0.00    -0.376 OA
BRANCH   3   4
ATOM      4  C   UNL A   1      30.750  27.181  25.370  1.00  0.00     0.202 C 
BRANCH   4   5
ATOM      5  C   UNL A   1      29.888  25.913  25.424  1.00  0.00     0.261 C 
BRANCH   5   6
ATOM      6  O   UNL A   1      29.923  25.173  26.645  1.00  0.00    -0.463 OA
BRANCH   6   7
ATOM      7  C   UNL A   1      30.456  23.934  26.572  1.00  0.00     0.308 C 
ATOM      8  O   UNL A   1      30.300  23.082  27.444  1.00  0.00    -0.252 OA
BRANCH   7   9
ATOM      9  C   UNL A   1      31.191  23.630  25.283  1.00  0.00     0.160 C 
BRANCH   9  10
ATOM     10  C   UNL A   1      32.633  24.087  24.964  1.00  0.00     0.184 C 
ATOM     11  N   UNL A   1      33.934  22.019  24.231  1.00  0.00    -0.328 N 
ATOM     12  C   UNL A   1      34.886  22.320  25.318  1.00  0.00     0.291 C 
ATOM     13  C   UNL A   1      33.324  23.298  23.832  1.00  0.00     0.295 C 
ATOM     14  H   UNL A   1      34.424  21.638  23.422  1.00  0.00     0.348 HD
ATOM     15  C   UNL A   1      34.361  23.231  26.450  1.00  0.00     0.222 C 
ATOM     16  O   UNL A   1      33.542  24.324  26.038  1.00  0.00    -0.366 OA
BRANCH  11  17
ATOM     17  C   UNL A   1      33.040  20.846  24.444  1.00  0.00     0.195 C 
ATOM     18  N   UNL A   1      33.092  17.956  24.301  1.00  0.00    -0.335 N 
ATOM     19  C   UNL A   1      32.203  18.629  23.353  1.00  0.00     0.268 C 
ATOM     20  C   UNL A   1      32.884  18.545  25.623  1.00  0.00     0.268 C 
ATOM     21  H   UNL A   1      34.071  18.100  24.056  1.00  0.00     0.348 HD
ATOM     22  C   UNL A   1      32.624  20.081  23.171  1.00  0.00     0.126 C 
ATOM     23  C   UNL A   1      33.479  19.950  25.629  1.00  0.00     0.126 C 
BRANCH  18  24
ATOM     24  C   UNL A   1      32.909  16.501  24.247  1.00  0.00     0.258 C 
ATOM     25  C   UNL A   1      32.812  15.844  25.623  1.00  0.00     0.071 C 
ENDBRANCH  18  24
ENDBRANCH  11  17
ENDBRANCH   9  10
ENDBRANCH   7   9
ENDBRANCH   6   7
ENDBRANCH   5   6
ENDBRANCH   4   5
ENDBRANCH   3   4
ENDBRANCH   2   3
ENDBRANCH   1   2
BRANCH   1  26
ATOM     26  O   UNL A   1      33.192  30.235  25.990  1.00  0.00    -0.377 OA
BRANCH  26  27
ATOM     27  C   UNL A   1      33.528  30.041  27.352  1.00  0.00     0.188 C 
BRANCH  27  28
ATOM     28  C   UNL A   1      35.027  29.870  27.639  1.00  0.00     0.188 C 
BRANCH  28  29
ATOM     29  O   UNL A   1      35.508  30.729  28.658  1.00  0.00    -0.376 OA
BRANCH  29  30
ATOM     30  C   UNL A   1      34.816  31.944  28.913  1.00  0.00     0.202 C 
BRANCH  30  31
ATOM     31  C   UNL A   1      34.712  32.575  30.318  1.00  0.00     0.261 C 
BRANCH  31  32
ATOM     32  O   UNL A   1      35.926  32.937  30.993  1.00  0.00    -0.460 OA
BRANCH  32  33
ATOM     33  C   UNL A   1      36.452  32.071  31.875  1.00  0.00     0.338 C 
ATOM     34  O   UNL A   1      35.865  31.449  32.749  1.00  0.00    -0.246 OA
BRANCH  33  35
ATOM     35  C   UNL A   1      37.859  31.842  31.483  1.00  0.00     0.060 A 
ATOM     36  C   UNL A   1      38.310  32.335  30.251  1.00  0.00     0.016 A 
ATOM     37  C   UNL A   1      38.726  31.140  32.324  1.00  0.00     0.016 A 
ATOM     38  C   UNL A   1      39.616  32.087  29.836  1.00  0.00     0.010 A 
ATOM     39  C   UNL A   1      40.026  30.863  31.892  1.00  0.00     0.010 A 
ATOM     40  C   UNL A   1      40.460  31.301  30.628  1.00  0.00    -0.014 A 
BRANCH  40  41
ATOM     41  C   UNL A   1      41.693  30.743  30.026  1.00  0.00     0.031 A 
ATOM     42  C   UNL A   1      41.615  29.374  29.406  1.00  0.00     0.074 A 
ATOM     43  C   UNL A   1      42.834  31.452  29.978  1.00  0.00     0.049 A 
ATOM     44  N   UNL A   1      42.553  28.658  28.844  1.00  0.00    -0.248 NA
ATOM     45  C   UNL A   1      40.292  28.727  29.418  1.00  0.00     0.031 C 
ATOM     46  C   UNL A   1      43.006  32.811  30.482  1.00  0.00     0.029 A 
ATOM     47  N   UNL A   1      44.066  31.118  29.475  1.00  0.00    -0.354 N 
ATOM     48  C   UNL A   1      41.939  27.474  28.455  1.00  0.00     0.074 A 
ATOM     49  C   UNL A   1      40.555  27.556  28.858  1.00  0.00     0.031 C 
ATOM     50  C   UNL A   1      44.277  33.196  30.271  1.00  0.00     0.029 A 
ATOM     51  C   UNL A   1      45.016  32.095  29.654  1.00  0.00     0.049 A 
ATOM     52  H   UNL A   1      44.254  30.260  29.030  1.00  0.00     0.167 HD
ATOM     53  C   UNL A   1      42.486  26.414  27.814  1.00  0.00     0.037 A 
ATOM     54  C   UNL A   1      46.333  32.081  29.372  1.00  0.00     0.037 A 
ATOM     55  C   UNL A   1      43.864  26.347  27.406  1.00  0.00     0.049 A 
ATOM     56  C   UNL A   1      46.933  30.850  28.737  1.00  0.00     0.074 A 
ATOM     57  C   UNL A   1      44.513  25.330  26.728  1.00  0.00     0.029 A 
ATOM     58  N   UNL A   1      44.807  27.334  27.650  1.00  0.00    -0.354 N 
ATOM     59  N   UNL A   1      46.345  29.743  28.349  1.00  0.00    -0.248 NA
ATOM     60  C   UNL A   1      48.384  30.867  28.501  1.00  0.00     0.031 C 
ATOM     61  C   UNL A   1      45.864  25.671  26.625  1.00  0.00     0.029 A 
ATOM     62  C   UNL A   1      46.043  26.933  27.169  1.00  0.00     0.049 A 
ATOM     63  H   UNL A   1      44.626  28.192  28.098  1.00  0.00     0.167 HD
ATOM     64  C   UNL A   1      47.343  28.954  27.789  1.00  0.00     0.074 A 
ATOM     65  C   UNL A   1      48.572  29.714  27.876  1.00  0.00     0.031 C 
ATOM     66  C   UNL A   1      47.251  27.713  27.249  1.00  0.00     0.037 A 
BRANCH  53  67
ATOM     67  C   UNL A   1      41.610  25.223  27.554  1.00  0.00     0.064 A 
ATOM     68  C   UNL A   1      41.762  24.018  28.256  1.00  0.00     0.173 A 
ATOM     69  C   UNL A   1      40.568  25.310  26.618  1.00  0.00     0.173 A 
ATOM     70  F   UNL A   1      42.751  23.876  29.150  1.00  0.00    -0.203 F 
ATOM     71  C   UNL A   1      40.915  22.938  28.014  1.00  0.00     0.198 A 
ATOM     72  C   UNL A   1      39.704  24.241  26.403  1.00  0.00     0.198 A 
ATOM     73  F   UNL A   1      40.379  26.440  25.919  1.00  0.00    -0.203 F 
ATOM     74  F   UNL A   1      41.104  21.782  28.665  1.00  0.00    -0.200 F 
ATOM     75  C   UNL A   1      39.881  23.054  27.097  1.00  0.00     0.200 A 
ATOM     76  F   UNL A   1      38.697  24.361  25.526  1.00  0.00    -0.200 F 
ATOM     77  F   UNL A   1      39.057  22.019  26.878  1.00  0.00    -0.200 F 
ENDBRANCH  53  67
BRANCH  54  78
ATOM     78  C   UNL A   1      47.188  33.254  29.702  1.00  0.00     0.064 A 
ATOM     79  C   UNL A   1      47.770  33.391  30.970  1.00  0.00     0.173 A 
ATOM     80  C   UNL A   1      47.400  34.287  28.776  1.00  0.00     0.173 A 
ATOM     81  F   UNL A   1      47.579  32.445  31.901  1.00  0.00    -0.203 F 
ATOM     82  C   UNL A   1      48.504  34.527  31.309  1.00  0.00     0.198 A 
ATOM     83  C   UNL A   1      48.162  35.406  29.104  1.00  0.00     0.198 A 
ATOM     84  F   UNL A   1      46.863  34.210  27.549  1.00  0.00    -0.203 F 
ATOM     85  F   UNL A   1      48.995  34.660  32.549  1.00  0.00    -0.200 F 
ATOM     86  C   UNL A   1      48.703  35.532  30.374  1.00  0.00     0.200 A 
ATOM     87  F   UNL A   1      48.363  36.366  28.192  1.00  0.00    -0.200 F 
ATOM     88  F   UNL A   1      49.404  36.625  30.701  1.00  0.00    -0.200 F 
ENDBRANCH  54  78
BRANCH  66  89
ATOM     89  C   UNL A   1      48.500  27.120  26.659  1.00  0.00     0.064 A 
ATOM     90  C   UNL A   1      49.419  26.397  27.434  1.00  0.00     0.173 A 
ATOM     91  C   UNL A   1      48.757  27.242  25.284  1.00  0.00     0.173 A 
ATOM     92  F   UNL A   1      49.227  26.261  28.756  1.00  0.00    -0.203 F 
ATOM     93  C   UNL A   1      50.563  25.846  26.862  1.00  0.00     0.198 A 
ATOM     94  C   UNL A   1      49.882  26.658  24.708  1.00  0.00     0.198 A 
ATOM     95  F   UNL A   1      47.907  27.914  24.493  1.00  0.00    -0.203 F 
ATOM     96  F   UNL A   1      51.454  25.210  27.633  1.00  0.00    -0.200 F 
ATOM     97  C   UNL A   1      50.788  25.969  25.499  1.00  0.00     0.200 A 
ATOM     98  F   UNL A   1      50.086  26.760  23.387  1.00  0.00    -0.200 F 
ATOM     99  F   UNL A   1      51.885  25.430  24.948  1.00  0.00    -0.200 F 
ENDBRANCH  66  89
ENDBRANCH  40  41
ENDBRANCH  33  35
ENDBRANCH  32  33
ENDBRANCH  31  32
ENDBRANCH  30  31
ENDBRANCH  29  30
ENDBRANCH  28  29
ENDBRANCH  27  28
ENDBRANCH  26  27
ENDBRANCH   1  26
TORSDOF 23
ENDMDL
MODEL 2
REMARK VINA RESULT:      -9.1      2.057      3.541
REMARK SMILES CC[NH+]1CCC([N@@H+]2CCO[C@H](CC(=O)OCCOCCOCCOCCOC(=O)c3ccc(-c4c5nc(c(-c6c(F)c(F)c(F)c(F)c6F)c6ccc([nH]6)c(-c6c(F)c(F)c(F)c(F)c6F)c6nc(c(-c7c(F)c(F)c(F)c(F)c7F)c7ccc4[nH]7)C=C6)C=C5)cc3)C2)CC1
REMARK SMILES IDX 20 1 19 2 18 3 17 4 16 5 15 6 13 7 14 8 12 9 11 10 7 11 8 12
REMARK SMILES IDX 93 13 9 15 10 16 6 17 3 18 4 19 95 20 5 22 94 23 2 24 1 25
REMARK SMILES IDX 21 26 22 27 23 28 24 29 25 30 26 31 27 32 28 33 29 34 30 35
REMARK SMILES IDX 31 36 92 37 32 38 91 39 33 40 34 41 35 42 85 43 36 44 90 45
REMARK SMILES IDX 84 46 86 47 37 48 89 49 83 50 82 51 38 53 70 54 50 55 69 56
REMARK SMILES IDX 51 57 54 58 68 59 87 60 52 61 53 62 67 64 88 65 55 66 39 67
REMARK SMILES IDX 40 68 48 69 41 70 42 71 46 72 49 73 43 74 44 75 47 76 45 77
REMARK SMILES IDX 71 78 72 79 80 80 73 81 74 82 78 83 81 84 75 85 76 86 79 87
REMARK SMILES IDX 77 88 56 89 57 90 65 91 58 92 59 93 63 94 66 95 60 96 61 97
REMARK SMILES IDX 64 98 62 99
REMARK H PARENT 7 14 3 21 86 52 54 63
REMARK Flexibility Score: inf
ROOT
ATOM      1  C   UNL A   1      34.418  33.873  29.438  1.00  0.00     0.188 C 
ENDROOT
BRANCH   1   2
ATOM      2  C   UNL A   1      34.246  33.012  28.162  1.00  0.00     0.188 C 
BRANCH   2   3
ATOM      3  O   UNL A   1      34.010  31.642  28.386  1.00  0.00    -0.376 OA
BRANCH   3   4
ATOM      4  C   UNL A   1      34.328  30.670  27.414  1.00  0.00     0.202 C 
BRANCH   4   5
ATOM      5  C   UNL A   1      33.484  29.403  27.226  1.00  0.00     0.261 C 
BRANCH   5   6
ATOM      6  O   UNL A   1      34.191  28.220  26.851  1.00  0.00    -0.463 OA
BRANCH   6   7
ATOM      7  C   UNL A   1      33.631  27.480  25.869  1.00  0.00     0.308 C 
ATOM      8  O   UNL A   1      34.105  27.395  24.737  1.00  0.00    -0.252 OA
BRANCH   7   9
ATOM      9  C   UNL A   1      32.418  26.676  26.288  1.00  0.00     0.160 C 
BRANCH   9  10
ATOM     10  C   UNL A   1      30.968  26.979  25.845  1.00  0.00     0.184 C 
ATOM     11  N   UNL A   1      30.050  24.855  24.770  1.00  0.00    -0.328 N 
ATOM     12  C   UNL A   1      29.784  25.666  23.565  1.00  0.00     0.291 C 
ATOM     13  C   UNL A   1      30.006  25.774  25.919  1.00  0.00     0.295 C 
ATOM     14  H   UNL A   1      29.319  24.155  24.898  1.00  0.00     0.348 HD
ATOM     15  C   UNL A   1      30.580  26.984  23.442  1.00  0.00     0.222 C 
ATOM     16  O   UNL A   1      30.745  27.725  24.650  1.00  0.00    -0.366 OA
BRANCH  11  17
ATOM     17  C   UNL A   1      31.182  23.891  24.679  1.00  0.00     0.195 C 
ATOM     18  N   UNL A   1      33.913  23.576  25.584  1.00  0.00    -0.335 N 
ATOM     19  C   UNL A   1      33.727  23.698  24.137  1.00  0.00     0.268 C 
ATOM     20  C   UNL A   1      32.937  22.614  26.094  1.00  0.00     0.268 C 
ATOM     21  H   UNL A   1      33.738  24.463  26.054  1.00  0.00     0.348 HD
ATOM     22  C   UNL A   1      32.384  24.348  23.829  1.00  0.00     0.126 C 
ATOM     23  C   UNL A   1      31.551  23.253  26.041  1.00  0.00     0.126 C 
BRANCH  18  24
ATOM     24  C   UNL A   1      35.308  23.256  25.907  1.00  0.00     0.258 C 
ATOM     25  C   UNL A   1      35.601  21.757  25.942  1.00  0.00     0.071 C 
ENDBRANCH  18  24
ENDBRANCH  11  17
ENDBRANCH   9  10
ENDBRANCH   7   9
ENDBRANCH   6   7
ENDBRANCH   5   6
ENDBRANCH   4   5
ENDBRANCH   3   4
ENDBRANCH   2   3
ENDBRANCH   1   2
BRANCH   1  26
ATOM     26  O   UNL A   1      33.993  33.486  30.738  1.00  0.00    -0.377 OA
BRANCH  26  27
ATOM     27  C   UNL A   1      33.726  34.471  31.719  1.00  0.00     0.188 C 
BRANCH  27  28
ATOM     28  C   UNL A   1      33.816  33.987  33.175  1.00  0.00     0.188 C 
BRANCH  28  29
ATOM     29  O   UNL A   1      34.508  34.884  34.025  1.00  0.00    -0.376 OA
BRANCH  29  30
ATOM     30  C   UNL A   1      35.732  35.448  33.575  1.00  0.00     0.202 C 
BRANCH  30  31
ATOM     31  C   UNL A   1      37.028  34.625  33.409  1.00  0.00     0.261 C 
BRANCH  31  32
ATOM     32  O   UNL A   1      36.983  33.439  32.601  1.00  0.00    -0.460 OA
BRANCH  32  33
ATOM     33  C   UNL A   1      37.247  32.257  33.183  1.00  0.00     0.338 C 
ATOM     34  O   UNL A   1      36.696  31.767  34.159  1.00  0.00    -0.246 OA
BRANCH  33  35
ATOM     35  C   UNL A   1      38.205  31.542  32.314  1.00  0.00     0.060 A 
ATOM     36  C   UNL A   1      39.366  31.003  32.883  1.00  0.00     0.016 A 
ATOM     37  C   UNL A   1      37.961  31.410  30.944  1.00  0.00     0.016 A 
ATOM     38  C   UNL A   1      40.310  30.370  32.077  1.00  0.00     0.010 A 
ATOM     39  C   UNL A   1      38.924  30.804  30.131  1.00  0.00     0.010 A 
ATOM     40  C   UNL A   1      40.120  30.320  30.692  1.00  0.00    -0.014 A 
BRANCH  40  41
ATOM     41  C   UNL A   1      41.272  29.986  29.822  1.00  0.00     0.031 A 
ATOM     42  C   UNL A   1      41.317  28.610  29.215  1.00  0.00     0.074 A 
ATOM     43  C   UNL A   1      42.219  30.894  29.532  1.00  0.00     0.049 A 
ATOM     44  N   UNL A   1      42.226  28.067  28.447  1.00  0.00    -0.248 NA
ATOM     45  C   UNL A   1      40.177  27.728  29.511  1.00  0.00     0.031 C 
ATOM     46  C   UNL A   1      42.240  32.275  30.006  1.00  0.00     0.029 A 
ATOM     47  N   UNL A   1      43.350  30.783  28.763  1.00  0.00    -0.354 N 
ATOM     48  C   UNL A   1      41.776  26.779  28.187  1.00  0.00     0.074 A 
ATOM     49  C   UNL A   1      40.525  26.612  28.889  1.00  0.00     0.031 C 
ATOM     50  C   UNL A   1      43.336  32.885  29.523  1.00  0.00     0.029 A 
ATOM     51  C   UNL A   1      44.114  31.925  28.742  1.00  0.00     0.049 A 
ATOM     52  H   UNL A   1      43.593  29.963  28.275  1.00  0.00     0.167 HD
ATOM     53  C   UNL A   1      42.357  25.823  27.425  1.00  0.00     0.037 A 
ATOM     54  C   UNL A   1      45.314  32.150  28.173  1.00  0.00     0.037 A 
ATOM     55  C   UNL A   1      43.598  26.003  26.720  1.00  0.00     0.049 A 
ATOM     56  C   UNL A   1      45.981  31.036  27.402  1.00  0.00     0.074 A 
ATOM     57  C   UNL A   1      44.260  25.108  25.899  1.00  0.00     0.029 A 
ATOM     58  N   UNL A   1      44.368  27.155  26.762  1.00  0.00    -0.354 N 
ATOM     59  N   UNL A   1      45.541  29.828  27.139  1.00  0.00    -0.248 NA
ATOM     60  C   UNL A   1      47.313  31.317  26.850  1.00  0.00     0.031 C 
ATOM     61  C   UNL A   1      45.466  25.692  25.503  1.00  0.00     0.029 A 
ATOM     62  C   UNL A   1      45.520  26.980  26.013  1.00  0.00     0.049 A 
ATOM     63  H   UNL A   1      44.132  27.976  27.253  1.00  0.00     0.167 HD
ATOM     64  C   UNL A   1      46.520  29.225  26.359  1.00  0.00     0.074 A 
ATOM     65  C   UNL A   1      47.572  30.203  26.181  1.00  0.00     0.031 C 
ATOM     66  C   UNL A   1      46.547  27.974  25.834  1.00  0.00     0.037 A 
BRANCH  53  67
ATOM     67  C   UNL A   1      41.685  24.482  27.348  1.00  0.00     0.064 A 
ATOM     68  C   UNL A   1      40.509  24.279  26.612  1.00  0.00     0.173 A 
ATOM     69  C   UNL A   1      42.260  23.373  27.987  1.00  0.00     0.173 A 
ATOM     70  F   UNL A   1      39.910  25.308  25.996  1.00  0.00    -0.203 F 
ATOM     71  C   UNL A   1      39.923  23.016  26.535  1.00  0.00     0.198 A 
ATOM     72  C   UNL A   1      41.690  22.108  27.881  1.00  0.00     0.198 A 
ATOM     73  F   UNL A   1      43.385  23.513  28.705  1.00  0.00    -0.203 F 
ATOM     74  F   UNL A   1      38.777  22.852  25.861  1.00  0.00    -0.200 F 
ATOM     75  C   UNL A   1      40.520  21.931  27.160  1.00  0.00     0.200 A 
ATOM     76  F   UNL A   1      42.278  21.059  28.474  1.00  0.00    -0.200 F 
ATOM     77  F   UNL A   1      39.964  20.715  27.071  1.00  0.00    -0.200 F 
ENDBRANCH  53  67
BRANCH  54  78
ATOM     78  C   UNL A   1      45.985  33.471  28.322  1.00  0.00     0.064 A 
ATOM     79  C   UNL A   1      46.838  33.731  29.405  1.00  0.00     0.173 A 
ATOM     80  C   UNL A   1      45.748  34.516  27.417  1.00  0.00     0.173 A 
ATOM     81  F   UNL A   1      47.078  32.775  30.314  1.00  0.00    -0.203 F 
ATOM     82  C   UNL A   1      47.403  34.992  29.592  1.00  0.00     0.198 A 
ATOM     83  C   UNL A   1      46.340  35.766  27.585  1.00  0.00     0.198 A 
ATOM     84  F   UNL A   1      44.938  34.324  26.365  1.00  0.00    -0.203 F 
ATOM     85  F   UNL A   1      48.162  35.231  30.669  1.00  0.00    -0.200 F 
ATOM     86  C   UNL A   1      47.156  36.007  28.679  1.00  0.00     0.200 A 
ATOM     87  F   UNL A   1      46.111  36.738  26.693  1.00  0.00    -0.200 F 
ATOM     88  F   UNL A   1      47.695  37.220  28.861  1.00  0.00    -0.200 F 
ENDBRANCH  54  78
BRANCH  66  89
ATOM     89  C   UNL A   1      47.723  27.609  24.972  1.00  0.00     0.064 A 
ATOM     90  C   UNL A   1      48.887  27.036  25.505  1.00  0.00     0.173 A 
ATOM     91  C   UNL A   1      47.663  27.796  23.581  1.00  0.00     0.173 A 
ATOM     92  F   UNL A   1      49.001  26.847  26.829  1.00  0.00    -0.203 F 
ATOM     93  C   UNL A   1      49.959  26.695  24.684  1.00  0.00     0.198 A 
ATOM     94  C   UNL A   1      48.721  27.419  22.759  1.00  0.00     0.198 A 
ATOM     95  F   UNL A   1      46.570  28.330  23.016  1.00  0.00    -0.203 F 
ATOM     96  F   UNL A   1      51.082  26.204  25.224  1.00  0.00    -0.200 F 
ATOM     97  C   UNL A   1      49.872  26.878  23.312  1.00  0.00     0.200 A 
ATOM     98  F   UNL A   1      48.626  27.577  21.432  1.00  0.00    -0.200 F 
ATOM     99  F   UNL A   1      50.901  26.540  22.523  1.00  0.00    -0.200 F 
ENDBRANCH  66  89
ENDBRANCH  40  41
ENDBRANCH  33  35
ENDBRANCH  32  33
ENDBRANCH  31  32
ENDBRANCH  30  31
ENDBRANCH  29  30
ENDBRANCH  28  29
ENDBRANCH  27  28
ENDBRANCH  26  27
ENDBRANCH   1  26
TORSDOF 23
ENDMDL
MODEL 3
REMARK VINA RESULT:      -9.1      3.716      7.566
REMARK SMILES CC[NH+]1CCC([N@@H+]2CCO[C@H](CC(=O)OCCOCCOCCOCCOC(=O)c3ccc(-c4c5nc(c(-c6c(F)c(F)c(F)c(F)c6F)c6ccc([nH]6)c(-c6c(F)c(F)c(F)c(F)c6F)c6nc(c(-c7c(F)c(F)c(F)c(F)c7F)c7ccc4[nH]7)C=C6)C=C5)cc3)C2)CC1
REMARK SMILES IDX 20 1 19 2 18 3 17 4 16 5 15 6 13 7 14 8 12 9 11 10 7 11 8 12
REMARK SMILES IDX 93 13 9 15 10 16 6 17 3 18 4 19 95 20 5 22 94 23 2 24 1 25
REMARK SMILES IDX 21 26 22 27 23 28 24 29 25 30 26 31 27 32 28 33 29 34 30 35
REMARK SMILES IDX 31 36 92 37 32 38 91 39 33 40 34 41 35 42 85 43 36 44 90 45
REMARK SMILES IDX 84 46 86 47 37 48 89 49 83 50 82 51 38 53 70 54 50 55 69 56
REMARK SMILES IDX 51 57 54 58 68 59 87 60 52 61 53 62 67 64 88 65 55 66 39 67
REMARK SMILES IDX 40 68 48 69 41 70 42 71 46 72 49 73 43 74 44 75 47 76 45 77
REMARK SMILES IDX 71 78 72 79 80 80 73 81 74 82 78 83 81 84 75 85 76 86 79 87
REMARK SMILES IDX 77 88 56 89 57 90 65 91 58 92 59 93 63 94 66 95 60 96 61 97
REMARK SMILES IDX 64 98 62 99
REMARK H PARENT 7 14 3 21 86 52 54 63
REMARK Flexibility Score: inf
ROOT
ATOM      1  C   UNL A   1      32.217  29.289  24.638  1.00  0.00     0.188 C 
ENDROOT
BRANCH   1   2
ATOM      2  C   UNL A   1      32.320  28.756  23.188  1.00  0.00     0.188 C 
BRANCH   2   3
ATOM      3  O   UNL A   1      31.151  28.159  22.678  1.00  0.00    -0.376 OA
BRANCH   3   4
ATOM      4  C   UNL A   1      29.988  28.027  23.465  1.00  0.00     0.202 C 
BRANCH   4   5
ATOM      5  C   UNL A   1      29.537  26.671  24.027  1.00  0.00     0.261 C 
BRANCH   5   6
ATOM      6  O   UNL A   1      30.319  26.136  25.096  1.00  0.00    -0.463 OA
BRANCH   6   7
ATOM      7  C   UNL A   1      30.838  24.905  24.894  1.00  0.00     0.308 C 
ATOM      8  O   UNL A   1      30.618  23.952  25.637  1.00  0.00    -0.252 OA
BRANCH   7   9
ATOM      9  C   UNL A   1      31.643  24.754  23.620  1.00  0.00     0.160 C 
BRANCH   9  10
ATOM     10  C   UNL A   1      33.124  25.170  23.463  1.00  0.00     0.184 C 
ATOM     11  N   UNL A   1      34.532  23.061  23.743  1.00  0.00    -0.328 N 
ATOM     12  C   UNL A   1      35.237  23.763  24.833  1.00  0.00     0.291 C 
ATOM     13  C   UNL A   1      34.031  24.097  22.824  1.00  0.00     0.295 C 
ATOM     14  H   UNL A   1      35.178  22.466  23.224  1.00  0.00     0.348 HD
ATOM     15  C   UNL A   1      34.495  24.962  25.464  1.00  0.00     0.222 C 
ATOM     16  O   UNL A   1      33.790  25.804  24.553  1.00  0.00    -0.366 OA
BRANCH  11  17
ATOM     17  C   UNL A   1      33.604  21.971  24.153  1.00  0.00     0.195 C 
ATOM     18  N   UNL A   1      33.239  19.119  23.822  1.00  0.00    -0.335 N 
ATOM     19  C   UNL A   1      32.197  19.970  23.246  1.00  0.00     0.268 C 
ATOM     20  C   UNL A   1      33.522  19.592  25.177  1.00  0.00     0.268 C 
ATOM     21  H   UNL A   1      34.106  19.186  23.291  1.00  0.00     0.348 HD
ATOM     22  C   UNL A   1      32.725  21.382  23.032  1.00  0.00     0.126 C 
ATOM     23  C   UNL A   1      34.266  20.922  25.082  1.00  0.00     0.126 C 
BRANCH  18  24
ATOM     24  C   UNL A   1      32.863  17.703  23.739  1.00  0.00     0.258 C 
ATOM     25  C   UNL A   1      34.016  16.785  23.337  1.00  0.00     0.071 C 
ENDBRANCH  18  24
ENDBRANCH  11  17
ENDBRANCH   9  10
ENDBRANCH   7   9
ENDBRANCH   6   7
ENDBRANCH   5   6
ENDBRANCH   4   5
ENDBRANCH   3   4
ENDBRANCH   2   3
ENDBRANCH   1   2
BRANCH   1  26
ATOM     26  O   UNL A   1      32.741  28.626  25.782  1.00  0.00    -0.377 OA
BRANCH  26  27
ATOM     27  C   UNL A   1      34.063  28.892  26.212  1.00  0.00     0.188 C 
BRANCH  27  28
ATOM     28  C   UNL A   1      34.179  29.763  27.472  1.00  0.00     0.188 C 
BRANCH  28  29
ATOM     29  O   UNL A   1      33.108  30.678  27.625  1.00  0.00    -0.376 OA
BRANCH  29  30
ATOM     30  C   UNL A   1      33.403  32.062  27.758  1.00  0.00     0.202 C 
BRANCH  30  31
ATOM     31  C   UNL A   1      34.842  32.611  27.853  1.00  0.00     0.261 C 
BRANCH  31  32
ATOM     32  O   UNL A   1      35.247  33.255  29.071  1.00  0.00    -0.460 OA
BRANCH  32  33
ATOM     33  C   UNL A   1      35.253  32.534  30.205  1.00  0.00     0.338 C 
ATOM     34  O   UNL A   1      34.368  32.462  31.047  1.00  0.00    -0.246 OA
BRANCH  33  35
ATOM     35  C   UNL A   1      36.453  31.674  30.174  1.00  0.00     0.060 A 
ATOM     36  C   UNL A   1      36.456  30.484  30.915  1.00  0.00     0.016 A 
ATOM     37  C   UNL A   1      37.574  32.042  29.424  1.00  0.00     0.016 A 
ATOM     38  C   UNL A   1      37.594  29.682  30.945  1.00  0.00     0.010 A 
ATOM     39  C   UNL A   1      38.727  31.253  29.481  1.00  0.00     0.010 A 
ATOM     40  C   UNL A   1      38.752  30.093  30.275  1.00  0.00    -0.014 A 
BRANCH  40  41
ATOM     41  C   UNL A   1      40.041  29.441  30.607  1.00  0.00     0.031 A 
ATOM     42  C   UNL A   1      40.788  29.937  31.815  1.00  0.00     0.074 A 
ATOM     43  C   UNL A   1      40.506  28.402  29.893  1.00  0.00     0.049 A 
ATOM     44  N   UNL A   1      41.943  29.556  32.296  1.00  0.00    -0.248 NA
ATOM     45  C   UNL A   1      40.140  31.010  32.589  1.00  0.00     0.031 C 
ATOM     46  C   UNL A   1      39.833  27.794  28.749  1.00  0.00     0.029 A 
ATOM     47  N   UNL A   1      41.661  27.676  30.033  1.00  0.00    -0.354 N 
ATOM     48  C   UNL A   1      42.164  30.352  33.414  1.00  0.00     0.074 A 
ATOM     49  C   UNL A   1      41.038  31.249  33.531  1.00  0.00     0.031 C 
ATOM     50  C   UNL A   1      40.593  26.787  28.282  1.00  0.00     0.029 A 
ATOM     51  C   UNL A   1      41.822  26.709  29.070  1.00  0.00     0.049 A 
ATOM     52  H   UNL A   1      42.314  27.832  30.752  1.00  0.00     0.167 HD
ATOM     53  C   UNL A   1      43.216  30.330  34.265  1.00  0.00     0.037 A 
ATOM     54  C   UNL A   1      42.858  25.877  28.845  1.00  0.00     0.037 A 
ATOM     55  C   UNL A   1      44.327  29.425  34.146  1.00  0.00     0.049 A 
ATOM     56  C   UNL A   1      44.057  25.937  29.760  1.00  0.00     0.074 A 
ATOM     57  C   UNL A   1      45.431  29.302  34.970  1.00  0.00     0.029 A 
ATOM     58  N   UNL A   1      44.479  28.494  33.129  1.00  0.00    -0.354 N 
ATOM     59  N   UNL A   1      44.252  26.673  30.829  1.00  0.00    -0.248 NA
ATOM     60  C   UNL A   1      45.182  25.048  29.436  1.00  0.00     0.031 C 
ATOM     61  C   UNL A   1      46.285  28.347  34.413  1.00  0.00     0.029 A 
ATOM     62  C   UNL A   1      45.680  27.819  33.284  1.00  0.00     0.049 A 
ATOM     63  H   UNL A   1      43.831  28.336  32.405  1.00  0.00     0.167 HD
ATOM     64  C   UNL A   1      45.498  26.307  31.325  1.00  0.00     0.074 A 
ATOM     65  C   UNL A   1      46.007  25.274  30.448  1.00  0.00     0.031 C 
ATOM     66  C   UNL A   1      46.160  26.781  32.409  1.00  0.00     0.037 A 
BRANCH  53  67
ATOM     67  C   UNL A   1      43.240  31.341  35.375  1.00  0.00     0.064 A 
ATOM     68  C   UNL A   1      42.573  31.131  36.591  1.00  0.00     0.173 A 
ATOM     69  C   UNL A   1      43.987  32.521  35.232  1.00  0.00     0.173 A 
ATOM     70  F   UNL A   1      41.832  30.028  36.774  1.00  0.00    -0.203 F 
ATOM     71  C   UNL A   1      42.638  32.075  37.614  1.00  0.00     0.198 A 
ATOM     72  C   UNL A   1      44.075  33.445  36.268  1.00  0.00     0.198 A 
ATOM     73  F   UNL A   1      44.644  32.771  34.089  1.00  0.00    -0.203 F 
ATOM     74  F   UNL A   1      41.958  31.874  38.752  1.00  0.00    -0.200 F 
ATOM     75  C   UNL A   1      43.396  33.224  37.456  1.00  0.00     0.200 A 
ATOM     76  F   UNL A   1      44.821  34.549  36.117  1.00  0.00    -0.200 F 
ATOM     77  F   UNL A   1      43.470  34.123  38.448  1.00  0.00    -0.200 F 
ENDBRANCH  53  67
BRANCH  54  78
ATOM     78  C   UNL A   1      42.831  24.931  27.696  1.00  0.00     0.064 A 
ATOM     79  C   UNL A   1      42.158  23.703  27.786  1.00  0.00     0.173 A 
ATOM     80  C   UNL A   1      43.518  25.208  26.505  1.00  0.00     0.173 A 
ATOM     81  F   UNL A   1      41.506  23.376  28.911  1.00  0.00    -0.203 F 
ATOM     82  C   UNL A   1      42.199  22.780  26.742  1.00  0.00     0.198 A 
ATOM     83  C   UNL A   1      43.530  24.300  25.449  1.00  0.00     0.198 A 
ATOM     84  F   UNL A   1      44.182  26.366  26.366  1.00  0.00    -0.203 F 
ATOM     85  F   UNL A   1      41.601  21.589  26.880  1.00  0.00    -0.200 F 
ATOM     86  C   UNL A   1      42.882  23.081  25.573  1.00  0.00     0.200 A 
ATOM     87  F   UNL A   1      44.178  24.602  24.317  1.00  0.00    -0.200 F 
ATOM     88  F   UNL A   1      42.925  22.192  24.571  1.00  0.00    -0.200 F 
ENDBRANCH  54  78
BRANCH  66  89
ATOM     89  C   UNL A   1      47.483  26.150  32.743  1.00  0.00     0.064 A 
ATOM     90  C   UNL A   1      48.698  26.685  32.292  1.00  0.00     0.173 A 
ATOM     91  C   UNL A   1      47.535  25.014  33.568  1.00  0.00     0.173 A 
ATOM     92  F   UNL A   1      48.705  27.763  31.491  1.00  0.00    -0.203 F 
ATOM     93  C   UNL A   1      49.912  26.090  32.625  1.00  0.00     0.198 A 
ATOM     94  C   UNL A   1      48.752  24.444  33.931  1.00  0.00     0.198 A 
ATOM     95  F   UNL A   1      46.404  24.466  34.038  1.00  0.00    -0.203 F 
ATOM     96  F   UNL A   1      51.055  26.586  32.134  1.00  0.00    -0.200 F 
ATOM     97  C   UNL A   1      49.938  24.976  33.451  1.00  0.00     0.200 A 
ATOM     98  F   UNL A   1      48.775  23.380  34.746  1.00  0.00    -0.200 F 
ATOM     99  F   UNL A   1      51.108  24.410  33.779  1.00  0.00    -0.200 F 
ENDBRANCH  66  89
ENDBRANCH  40  41
ENDBRANCH  33  35
ENDBRANCH  32  33
ENDBRANCH  31  32
ENDBRANCH  30  31
ENDBRANCH  29  30
ENDBRANCH  28  29
ENDBRANCH  27  28
ENDBRANCH  26  27
ENDBRANCH   1  26
TORSDOF 23
ENDMDL
