MODEL 1
REMARK VINA RESULT:      -9.3      0.000      0.000
REMARK SMILES [NH3+]C[C@H]1CC[C@@H](C(=O)N[C@H](C(=O)OCCOCCOCCOCCOC(=O)c2ccc(-c3c4nc(c(-c5c(F)c(F)c(F)c(F)c5F)c5ccc([nH]5)c(-c5c(F)c(F)c(F)c(F)c5F)c5nc(c(-c6c(F)c(F)c(F)c(F)c6F)c6ccc3[nH]6)C=C5)C=C4)cc2)C2CCCCC2)O1
REMARK SMILES IDX 18 1 17 2 16 3 15 4 14 5 13 6 11 7 12 8 10 9 9 10 7 11 8 12
REMARK SMILES IDX 6 14 3 15 4 16 97 17 5 18 2 19 1 20 91 24 92 25 96 26 93 27
REMARK SMILES IDX 95 28 94 29 19 30 20 31 21 32 22 33 23 34 24 35 25 36 26 37
REMARK SMILES IDX 27 38 28 39 29 40 90 41 30 42 89 43 31 44 32 45 33 46 83 47
REMARK SMILES IDX 34 48 88 49 82 50 84 51 35 52 87 53 81 54 80 55 36 57 68 58
REMARK SMILES IDX 48 59 67 60 49 61 52 62 66 63 85 64 50 65 51 66 65 68 86 69
REMARK SMILES IDX 53 70 37 71 38 72 46 73 39 74 40 75 44 76 47 77 41 78 42 79
REMARK SMILES IDX 45 80 43 81 69 82 70 83 78 84 71 85 72 86 76 87 79 88 73 89
REMARK SMILES IDX 74 90 77 91 75 92 54 93 55 94 63 95 56 96 57 97 61 98 64 99
REMARK SMILES IDX 58 100 59 101 62 102 60 103
REMARK H PARENT 9 13 1 21 1 22 1 23 84 56 52 67
REMARK Flexibility Score: inf
ROOT
ATOM      1  C   UNL A   1      34.061  33.717  28.412  1.00  0.00     0.188 C 
ENDROOT
BRANCH   1   2
ATOM      2  C   UNL A   1      34.330  32.188  28.335  1.00  0.00     0.188 C 
BRANCH   2   3
ATOM      3  O   UNL A   1      33.223  31.404  27.949  1.00  0.00    -0.376 OA
BRANCH   3   4
ATOM      4  C   UNL A   1      33.343  30.494  26.887  1.00  0.00     0.202 C 
BRANCH   4   5
ATOM      5  C   UNL A   1      32.153  29.617  26.535  1.00  0.00     0.261 C 
BRANCH   5   6
ATOM      6  O   UNL A   1      32.432  28.376  25.879  1.00  0.00    -0.462 OA
BRANCH   6   7
ATOM      7  C   UNL A   1      31.444  27.433  25.870  1.00  0.00     0.329 C 
ATOM      8  O   UNL A   1      30.934  26.952  26.873  1.00  0.00    -0.250 OA
BRANCH   7   9
ATOM      9  C   UNL A   1      31.124  27.036  24.403  1.00  0.00     0.195 C 
BRANCH   9  10
ATOM     10  N   UNL A   1      30.661  25.633  24.278  1.00  0.00    -0.340 N 
ATOM     11  C   UNL A   1      31.268  24.565  23.646  1.00  0.00     0.249 C 
ATOM     12  O   UNL A   1      30.550  23.673  23.190  1.00  0.00    -0.272 OA
ATOM     13  H   UNL A   1      29.797  25.434  24.705  1.00  0.00     0.164 HD
BRANCH  11  14
ATOM     14  C   UNL A   1      32.800  24.506  23.546  1.00  0.00     0.207 C 
ATOM     15  C   UNL A   1      34.481  23.474  24.844  1.00  0.00     0.174 C 
ATOM     16  C   UNL A   1      34.772  23.221  23.380  1.00  0.00     0.041 C 
ATOM     17  O   UNL A   1      33.336  24.337  24.867  1.00  0.00    -0.359 OA
ATOM     18  C   UNL A   1      33.415  23.386  22.726  1.00  0.00     0.045 C 
BRANCH  15  19
ATOM     19  C   UNL A   1      34.173  22.220  25.677  1.00  0.00     0.291 C 
BRANCH  19  20
ATOM     20  N   UNL A   1      35.225  21.969  26.672  1.00  0.00    -0.355 N 
ATOM     21  H   UNL A   1      36.126  22.259  26.295  1.00  0.00     0.344 HD
ATOM     22  H   UNL A   1      35.253  20.973  26.894  1.00  0.00     0.344 HD
ATOM     23  H   UNL A   1      35.025  22.501  27.519  1.00  0.00     0.344 HD
ENDBRANCH  19  20
ENDBRANCH  15  19
ENDBRANCH  11  14
ENDBRANCH   9  10
BRANCH   9  24
ATOM     24  C   UNL A   1      30.061  28.081  23.896  1.00  0.00     0.023 C 
ATOM     25  C   UNL A   1      30.612  28.937  22.732  1.00  0.00     0.006 C 
ATOM     26  C   UNL A   1      28.705  27.513  23.439  1.00  0.00     0.006 C 
ATOM     27  C   UNL A   1      29.680  30.075  22.331  1.00  0.00     0.000 C 
ATOM     28  C   UNL A   1      27.740  28.656  23.084  1.00  0.00     0.000 C 
ATOM     29  C   UNL A   1      28.288  29.569  21.992  1.00  0.00     0.000 C 
ENDBRANCH   9  24
ENDBRANCH   7   9
ENDBRANCH   6   7
ENDBRANCH   5   6
ENDBRANCH   4   5
ENDBRANCH   3   4
ENDBRANCH   2   3
ENDBRANCH   1   2
BRANCH   1  30
ATOM     30  O   UNL A   1      33.349  34.360  29.466  1.00  0.00    -0.377 OA
BRANCH  30  31
ATOM     31  C   UNL A   1      32.955  35.715  29.325  1.00  0.00     0.188 C 
BRANCH  31  32
ATOM     32  C   UNL A   1      33.063  36.573  30.601  1.00  0.00     0.188 C 
BRANCH  32  33
ATOM     33  O   UNL A   1      33.240  35.832  31.790  1.00  0.00    -0.376 OA
BRANCH  33  34
ATOM     34  C   UNL A   1      34.472  35.843  32.483  1.00  0.00     0.202 C 
BRANCH  34  35
ATOM     35  C   UNL A   1      34.657  35.426  33.954  1.00  0.00     0.261 C 
BRANCH  35  36
ATOM     36  O   UNL A   1      34.905  34.051  34.253  1.00  0.00    -0.460 OA
BRANCH  36  37
ATOM     37  C   UNL A   1      34.653  33.140  33.295  1.00  0.00     0.338 C 
ATOM     38  O   UNL A   1      33.578  32.867  32.788  1.00  0.00    -0.246 OA
BRANCH  37  39
ATOM     39  C   UNL A   1      35.966  32.659  32.820  1.00  0.00     0.060 A 
ATOM     40  C   UNL A   1      36.816  31.972  33.701  1.00  0.00     0.016 A 
ATOM     41  C   UNL A   1      36.339  32.867  31.491  1.00  0.00     0.016 A 
ATOM     42  C   UNL A   1      38.055  31.514  33.259  1.00  0.00     0.010 A 
ATOM     43  C   UNL A   1      37.595  32.441  31.060  1.00  0.00     0.010 A 
ATOM     44  C   UNL A   1      38.469  31.796  31.953  1.00  0.00    -0.014 A 
BRANCH  44  45
ATOM     45  C   UNL A   1      39.894  31.644  31.590  1.00  0.00     0.031 A 
ATOM     46  C   UNL A   1      40.830  32.760  31.961  1.00  0.00     0.074 A 
ATOM     47  C   UNL A   1      40.347  30.551  30.957  1.00  0.00     0.049 A 
ATOM     48  N   UNL A   1      42.095  32.917  31.675  1.00  0.00    -0.248 NA
ATOM     49  C   UNL A   1      40.252  33.852  32.764  1.00  0.00     0.031 C 
ATOM     50  C   UNL A   1      39.543  29.386  30.598  1.00  0.00     0.029 A 
ATOM     51  N   UNL A   1      41.602  30.255  30.488  1.00  0.00    -0.354 N 
ATOM     52  C   UNL A   1      42.459  34.129  32.249  1.00  0.00     0.074 A 
ATOM     53  C   UNL A   1      41.278  34.679  32.875  1.00  0.00     0.031 C 
ATOM     54  C   UNL A   1      40.322  28.507  29.943  1.00  0.00     0.029 A 
ATOM     55  C   UNL A   1      41.666  29.068  29.803  1.00  0.00     0.049 A 
ATOM     56  H   UNL A   1      42.382  30.840  30.628  1.00  0.00     0.167 HD
ATOM     57  C   UNL A   1      43.673  34.724  32.255  1.00  0.00     0.037 A 
ATOM     58  C   UNL A   1      42.688  28.520  29.116  1.00  0.00     0.037 A 
ATOM     59  C   UNL A   1      44.840  34.171  31.623  1.00  0.00     0.049 A 
ATOM     60  C   UNL A   1      44.008  29.247  29.060  1.00  0.00     0.074 A 
ATOM     61  C   UNL A   1      46.123  34.685  31.578  1.00  0.00     0.029 A 
ATOM     62  N   UNL A   1      44.860  32.979  30.911  1.00  0.00    -0.354 N 
ATOM     63  N   UNL A   1      44.357  30.382  29.619  1.00  0.00    -0.248 NA
ATOM     64  C   UNL A   1      45.079  28.617  28.275  1.00  0.00     0.031 C 
ATOM     65  C   UNL A   1      46.905  33.838  30.787  1.00  0.00     0.029 A 
ATOM     66  C   UNL A   1      46.127  32.758  30.398  1.00  0.00     0.049 A 
ATOM     67  H   UNL A   1      44.088  32.381  30.791  1.00  0.00     0.167 HD
ATOM     68  C   UNL A   1      45.691  30.582  29.284  1.00  0.00     0.074 A 
ATOM     69  C   UNL A   1      46.093  29.446  28.482  1.00  0.00     0.031 C 
ATOM     70  C   UNL A   1      46.510  31.613  29.611  1.00  0.00     0.037 A 
BRANCH  57  71
ATOM     71  C   UNL A   1      43.789  36.058  32.934  1.00  0.00     0.064 A 
ATOM     72  C   UNL A   1      43.689  37.263  32.225  1.00  0.00     0.173 A 
ATOM     73  C   UNL A   1      43.982  36.128  34.323  1.00  0.00     0.173 A 
ATOM     74  F   UNL A   1      43.523  37.252  30.893  1.00  0.00    -0.203 F 
ATOM     75  C   UNL A   1      43.805  38.490  32.875  1.00  0.00     0.198 A 
ATOM     76  C   UNL A   1      44.062  37.355  34.974  1.00  0.00     0.198 A 
ATOM     77  F   UNL A   1      44.085  35.005  35.049  1.00  0.00    -0.203 F 
ATOM     78  F   UNL A   1      43.759  39.628  32.170  1.00  0.00    -0.200 F 
ATOM     79  C   UNL A   1      43.982  38.534  34.250  1.00  0.00     0.200 A 
ATOM     80  F   UNL A   1      44.222  37.396  36.304  1.00  0.00    -0.200 F 
ATOM     81  F   UNL A   1      44.084  39.715  34.876  1.00  0.00    -0.200 F 
ENDBRANCH  57  71
BRANCH  58  82
ATOM     82  C   UNL A   1      42.503  27.226  28.406  1.00  0.00     0.064 A 
ATOM     83  C   UNL A   1      41.942  27.179  27.123  1.00  0.00     0.173 A 
ATOM     84  C   UNL A   1      42.858  26.008  29.006  1.00  0.00     0.173 A 
ATOM     85  F   UNL A   1      41.564  28.314  26.516  1.00  0.00    -0.203 F 
ATOM     86  C   UNL A   1      41.723  25.965  26.476  1.00  0.00     0.198 A 
ATOM     87  C   UNL A   1      42.668  24.796  28.345  1.00  0.00     0.198 A 
ATOM     88  F   UNL A   1      43.398  25.995  30.234  1.00  0.00    -0.203 F 
ATOM     89  F   UNL A   1      41.136  25.947  25.271  1.00  0.00    -0.200 F 
ATOM     90  C   UNL A   1      42.091  24.775  27.084  1.00  0.00     0.200 A 
ATOM     91  F   UNL A   1      43.040  23.651  28.931  1.00  0.00    -0.200 F 
ATOM     92  F   UNL A   1      41.883  23.607  26.460  1.00  0.00    -0.200 F 
ENDBRANCH  58  82
BRANCH  70  93
ATOM     93  C   UNL A   1      47.938  31.539  29.147  1.00  0.00     0.064 A 
ATOM     94  C   UNL A   1      48.934  30.911  29.908  1.00  0.00     0.173 A 
ATOM     95  C   UNL A   1      48.301  32.057  27.893  1.00  0.00     0.173 A 
ATOM     96  F   UNL A   1      48.644  30.410  31.118  1.00  0.00    -0.203 F 
ATOM     97  C   UNL A   1      50.244  30.829  29.444  1.00  0.00     0.198 A 
ATOM     98  C   UNL A   1      49.603  31.941  27.417  1.00  0.00     0.198 A 
ATOM     99  F   UNL A   1      47.385  32.659  27.118  1.00  0.00    -0.203 F 
ATOM    100  F   UNL A   1      51.190  30.269  30.212  1.00  0.00    -0.200 F 
ATOM    101  C   UNL A   1      50.576  31.334  28.197  1.00  0.00     0.200 A 
ATOM    102  F   UNL A   1      49.916  32.413  26.203  1.00  0.00    -0.200 F 
ATOM    103  F   UNL A   1      51.835  31.242  27.746  1.00  0.00    -0.200 F 
ENDBRANCH  70  93
ENDBRANCH  44  45
ENDBRANCH  37  39
ENDBRANCH  36  37
ENDBRANCH  35  36
ENDBRANCH  34  35
ENDBRANCH  33  34
ENDBRANCH  32  33
ENDBRANCH  31  32
ENDBRANCH  30  31
ENDBRANCH   1  30
TORSDOF 25
ENDMDL
MODEL 2
REMARK VINA RESULT:      -9.1      6.126     10.242
REMARK SMILES [NH3+]C[C@H]1CC[C@@H](C(=O)N[C@H](C(=O)OCCOCCOCCOCCOC(=O)c2ccc(-c3c4nc(c(-c5c(F)c(F)c(F)c(F)c5F)c5ccc([nH]5)c(-c5c(F)c(F)c(F)c(F)c5F)c5nc(c(-c6c(F)c(F)c(F)c(F)c6F)c6ccc3[nH]6)C=C5)C=C4)cc2)C2CCCCC2)O1
REMARK SMILES IDX 18 1 17 2 16 3 15 4 14 5 13 6 11 7 12 8 10 9 9 10 7 11 8 12
REMARK SMILES IDX 6 14 3 15 4 16 97 17 5 18 2 19 1 20 91 24 92 25 96 26 93 27
REMARK SMILES IDX 95 28 94 29 19 30 20 31 21 32 22 33 23 34 24 35 25 36 26 37
REMARK SMILES IDX 27 38 28 39 29 40 90 41 30 42 89 43 31 44 32 45 33 46 83 47
REMARK SMILES IDX 34 48 88 49 82 50 84 51 35 52 87 53 81 54 80 55 36 57 68 58
REMARK SMILES IDX 48 59 67 60 49 61 52 62 66 63 85 64 50 65 51 66 65 68 86 69
REMARK SMILES IDX 53 70 37 71 38 72 46 73 39 74 40 75 44 76 47 77 41 78 42 79
REMARK SMILES IDX 45 80 43 81 69 82 70 83 78 84 71 85 72 86 76 87 79 88 73 89
REMARK SMILES IDX 74 90 77 91 75 92 54 93 55 94 63 95 56 96 57 97 61 98 64 99
REMARK SMILES IDX 58 100 59 101 62 102 60 103
REMARK H PARENT 9 13 1 21 1 22 1 23 84 56 52 67
REMARK Flexibility Score: inf
ROOT
ATOM      1  C   UNL A   1      47.879  35.642  25.664  1.00  0.00     0.188 C 
ENDROOT
BRANCH   1   2
ATOM      2  C   UNL A   1      47.646  34.174  26.121  1.00  0.00     0.188 C 
BRANCH   2   3
ATOM      3  O   UNL A   1      46.402  33.622  25.750  1.00  0.00    -0.376 OA
BRANCH   3   4
ATOM      4  C   UNL A   1      45.910  32.489  26.417  1.00  0.00     0.202 C 
BRANCH   4   5
ATOM      5  C   UNL A   1      44.407  32.268  26.473  1.00  0.00     0.261 C 
BRANCH   5   6
ATOM      6  O   UNL A   1      43.952  30.913  26.518  1.00  0.00    -0.462 OA
BRANCH   6   7
ATOM      7  C   UNL A   1      43.745  30.359  27.750  1.00  0.00     0.329 C 
ATOM      8  O   UNL A   1      43.999  30.913  28.811  1.00  0.00    -0.250 OA
BRANCH   7   9
ATOM      9  C   UNL A   1      43.204  28.913  27.581  1.00  0.00     0.195 C 
BRANCH   9  10
ATOM     10  N   UNL A   1      43.987  27.915  28.348  1.00  0.00    -0.340 N 
ATOM     11  C   UNL A   1      44.207  26.579  28.074  1.00  0.00     0.249 C 
ATOM     12  O   UNL A   1      44.400  25.815  29.021  1.00  0.00    -0.272 OA
ATOM     13  H   UNL A   1      44.410  28.252  29.170  1.00  0.00     0.164 HD
BRANCH  11  14
ATOM     14  C   UNL A   1      44.225  26.090  26.618  1.00  0.00     0.207 C 
ATOM     15  C   UNL A   1      44.796  24.039  25.594  1.00  0.00     0.174 C 
ATOM     16  C   UNL A   1      43.500  24.541  24.991  1.00  0.00     0.041 C 
ATOM     17  O   UNL A   1      45.228  25.069  26.495  1.00  0.00    -0.359 OA
ATOM     18  C   UNL A   1      42.958  25.465  26.063  1.00  0.00     0.045 C 
BRANCH  15  19
ATOM     19  C   UNL A   1      44.690  22.717  26.368  1.00  0.00     0.291 C 
BRANCH  19  20
ATOM     20  N   UNL A   1      44.948  22.916  27.801  1.00  0.00    -0.355 N 
ATOM     21  H   UNL A   1      44.069  23.100  28.283  1.00  0.00     0.344 HD
ATOM     22  H   UNL A   1      45.578  23.709  27.927  1.00  0.00     0.344 HD
ATOM     23  H   UNL A   1      45.378  22.076  28.188  1.00  0.00     0.344 HD
ENDBRANCH  19  20
ENDBRANCH  15  19
ENDBRANCH  11  14
ENDBRANCH   9  10
BRANCH   9  24
ATOM     24  C   UNL A   1      41.690  28.968  28.011  1.00  0.00     0.023 C 
ATOM     25  C   UNL A   1      40.746  28.747  26.806  1.00  0.00     0.006 C 
ATOM     26  C   UNL A   1      41.255  27.987  29.114  1.00  0.00     0.006 C 
ATOM     27  C   UNL A   1      39.276  28.966  27.147  1.00  0.00     0.000 C 
ATOM     28  C   UNL A   1      39.789  28.237  29.503  1.00  0.00     0.000 C 
ATOM     29  C   UNL A   1      38.836  28.105  28.320  1.00  0.00     0.000 C 
ENDBRANCH   9  24
ENDBRANCH   7   9
ENDBRANCH   6   7
ENDBRANCH   5   6
ENDBRANCH   4   5
ENDBRANCH   3   4
ENDBRANCH   2   3
ENDBRANCH   1   2
BRANCH   1  30
ATOM     30  O   UNL A   1      46.886  36.663  25.691  1.00  0.00    -0.377 OA
BRANCH  30  31
ATOM     31  C   UNL A   1      46.446  37.186  26.933  1.00  0.00     0.188 C 
BRANCH  31  32
ATOM     32  C   UNL A   1      46.285  38.718  26.989  1.00  0.00     0.188 C 
BRANCH  32  33
ATOM     33  O   UNL A   1      46.002  39.320  25.743  1.00  0.00    -0.376 OA
BRANCH  33  34
ATOM     34  C   UNL A   1      45.413  40.603  25.667  1.00  0.00     0.202 C 
BRANCH  34  35
ATOM     35  C   UNL A   1      44.042  40.977  26.260  1.00  0.00     0.261 C 
BRANCH  35  36
ATOM     36  O   UNL A   1      42.954  40.063  26.106  1.00  0.00    -0.460 OA
BRANCH  36  37
ATOM     37  C   UNL A   1      42.164  39.836  27.172  1.00  0.00     0.338 C 
ATOM     38  O   UNL A   1      41.177  40.463  27.518  1.00  0.00    -0.246 OA
BRANCH  37  39
ATOM     39  C   UNL A   1      42.602  38.548  27.749  1.00  0.00     0.060 A 
ATOM     40  C   UNL A   1      42.515  37.377  26.982  1.00  0.00     0.016 A 
ATOM     41  C   UNL A   1      43.124  38.513  29.043  1.00  0.00     0.016 A 
ATOM     42  C   UNL A   1      42.927  36.160  27.519  1.00  0.00     0.010 A 
ATOM     43  C   UNL A   1      43.502  37.288  29.593  1.00  0.00     0.010 A 
ATOM     44  C   UNL A   1      43.371  36.105  28.845  1.00  0.00    -0.014 A 
BRANCH  44  45
ATOM     45  C   UNL A   1      43.461  34.799  29.532  1.00  0.00     0.031 A 
ATOM     46  C   UNL A   1      42.176  34.148  29.960  1.00  0.00     0.074 A 
ATOM     47  C   UNL A   1      44.642  34.205  29.764  1.00  0.00     0.049 A 
ATOM     48  N   UNL A   1      41.985  33.061  30.660  1.00  0.00    -0.248 NA
ATOM     49  C   UNL A   1      40.934  34.824  29.543  1.00  0.00     0.031 C 
ATOM     50  C   UNL A   1      45.944  34.717  29.344  1.00  0.00     0.029 A 
ATOM     51  N   UNL A   1      44.932  33.042  30.430  1.00  0.00    -0.354 N 
ATOM     52  C   UNL A   1      40.607  32.931  30.778  1.00  0.00     0.074 A 
ATOM     53  C   UNL A   1      40.010  34.063  30.105  1.00  0.00     0.031 C 
ATOM     54  C   UNL A   1      46.900  33.880  29.784  1.00  0.00     0.029 A 
ATOM     55  C   UNL A   1      46.278  32.798  30.548  1.00  0.00     0.049 A 
ATOM     56  H   UNL A   1      44.241  32.439  30.790  1.00  0.00     0.167 HD
ATOM     57  C   UNL A   1      39.905  31.951  31.391  1.00  0.00     0.037 A 
ATOM     58  C   UNL A   1      46.924  31.830  31.226  1.00  0.00     0.037 A 
ATOM     59  C   UNL A   1      40.509  30.834  32.064  1.00  0.00     0.049 A 
ATOM     60  C   UNL A   1      46.121  30.799  31.979  1.00  0.00     0.074 A 
ATOM     61  C   UNL A   1      39.892  29.778  32.709  1.00  0.00     0.029 A 
ATOM     62  N   UNL A   1      41.877  30.636  32.190  1.00  0.00    -0.354 N 
ATOM     63  N   UNL A   1      44.819  30.666  32.074  1.00  0.00    -0.248 NA
ATOM     64  C   UNL A   1      46.879  29.782  32.723  1.00  0.00     0.031 C 
ATOM     65  C   UNL A   1      40.884  28.975  33.278  1.00  0.00     0.029 A 
ATOM     66  C   UNL A   1      42.122  29.491  32.929  1.00  0.00     0.049 A 
ATOM     67  H   UNL A   1      42.570  31.223  31.810  1.00  0.00     0.167 HD
ATOM     68  C   UNL A   1      44.604  29.536  32.854  1.00  0.00     0.074 A 
ATOM     69  C   UNL A   1      45.909  29.013  33.197  1.00  0.00     0.031 C 
ATOM     70  C   UNL A   1      43.431  28.980  33.250  1.00  0.00     0.037 A 
BRANCH  57  71
ATOM     71  C   UNL A   1      38.408  32.067  31.393  1.00  0.00     0.064 A 
ATOM     72  C   UNL A   1      37.632  31.660  30.298  1.00  0.00     0.173 A 
ATOM     73  C   UNL A   1      37.740  32.576  32.518  1.00  0.00     0.173 A 
ATOM     74  F   UNL A   1      38.221  31.185  29.191  1.00  0.00    -0.203 F 
ATOM     75  C   UNL A   1      36.244  31.782  30.319  1.00  0.00     0.198 A 
ATOM     76  C   UNL A   1      36.352  32.664  32.548  1.00  0.00     0.198 A 
ATOM     77  F   UNL A   1      38.435  32.981  33.591  1.00  0.00    -0.203 F 
ATOM     78  F   UNL A   1      35.527  31.436  29.242  1.00  0.00    -0.200 F 
ATOM     79  C   UNL A   1      35.606  32.276  31.446  1.00  0.00     0.200 A 
ATOM     80  F   UNL A   1      35.737  33.130  33.643  1.00  0.00    -0.200 F 
ATOM     81  F   UNL A   1      34.270  32.384  31.468  1.00  0.00    -0.200 F 
ENDBRANCH  57  71
BRANCH  58  82
ATOM     82  C   UNL A   1      48.411  31.797  31.245  1.00  0.00     0.064 A 
ATOM     83  C   UNL A   1      49.129  31.036  30.313  1.00  0.00     0.173 A 
ATOM     84  C   UNL A   1      49.144  32.504  32.211  1.00  0.00     0.173 A 
ATOM     85  F   UNL A   1      48.475  30.323  29.385  1.00  0.00    -0.203 F 
ATOM     86  C   UNL A   1      50.520  30.964  30.360  1.00  0.00     0.198 A 
ATOM     87  C   UNL A   1      50.536  32.457  32.237  1.00  0.00     0.198 A 
ATOM     88  F   UNL A   1      48.507  33.247  33.127  1.00  0.00    -0.203 F 
ATOM     89  F   UNL A   1      51.178  30.186  29.489  1.00  0.00    -0.200 F 
ATOM     90  C   UNL A   1      51.223  31.679  31.316  1.00  0.00     0.200 A 
ATOM     91  F   UNL A   1      51.211  33.162  33.154  1.00  0.00    -0.200 F 
ATOM     92  F   UNL A   1      52.561  31.612  31.359  1.00  0.00    -0.200 F 
ENDBRANCH  58  82
BRANCH  70  93
ATOM     93  C   UNL A   1      43.501  27.713  34.057  1.00  0.00     0.064 A 
ATOM     94  C   UNL A   1      43.659  26.458  33.453  1.00  0.00     0.173 A 
ATOM     95  C   UNL A   1      43.464  27.766  35.459  1.00  0.00     0.173 A 
ATOM     96  F   UNL A   1      43.688  26.349  32.116  1.00  0.00    -0.203 F 
ATOM     97  C   UNL A   1      43.751  25.300  34.223  1.00  0.00     0.198 A 
ATOM     98  C   UNL A   1      43.592  26.612  36.226  1.00  0.00     0.198 A 
ATOM     99  F   UNL A   1      43.325  28.944  36.089  1.00  0.00    -0.203 F 
ATOM    100  F   UNL A   1      43.851  24.106  33.623  1.00  0.00    -0.200 F 
ATOM    101  C   UNL A   1      43.727  25.379  35.607  1.00  0.00     0.200 A 
ATOM    102  F   UNL A   1      43.590  26.694  37.563  1.00  0.00    -0.200 F 
ATOM    103  F   UNL A   1      43.829  24.265  36.345  1.00  0.00    -0.200 F 
ENDBRANCH  70  93
ENDBRANCH  44  45
ENDBRANCH  37  39
ENDBRANCH  36  37
ENDBRANCH  35  36
ENDBRANCH  34  35
ENDBRANCH  33  34
ENDBRANCH  32  33
ENDBRANCH  31  32
ENDBRANCH  30  31
ENDBRANCH   1  30
TORSDOF 25
ENDMDL
MODEL 3
REMARK VINA RESULT:      -9.0      0.783      7.116
REMARK SMILES [NH3+]C[C@H]1CC[C@@H](C(=O)N[C@H](C(=O)OCCOCCOCCOCCOC(=O)c2ccc(-c3c4nc(c(-c5c(F)c(F)c(F)c(F)c5F)c5ccc([nH]5)c(-c5c(F)c(F)c(F)c(F)c5F)c5nc(c(-c6c(F)c(F)c(F)c(F)c6F)c6ccc3[nH]6)C=C5)C=C4)cc2)C2CCCCC2)O1
REMARK SMILES IDX 18 1 17 2 16 3 15 4 14 5 13 6 11 7 12 8 10 9 9 10 7 11 8 12
REMARK SMILES IDX 6 14 3 15 4 16 97 17 5 18 2 19 1 20 91 24 92 25 96 26 93 27
REMARK SMILES IDX 95 28 94 29 19 30 20 31 21 32 22 33 23 34 24 35 25 36 26 37
REMARK SMILES IDX 27 38 28 39 29 40 90 41 30 42 89 43 31 44 32 45 33 46 83 47
REMARK SMILES IDX 34 48 88 49 82 50 84 51 35 52 87 53 81 54 80 55 36 57 68 58
REMARK SMILES IDX 48 59 67 60 49 61 52 62 66 63 85 64 50 65 51 66 65 68 86 69
REMARK SMILES IDX 53 70 37 71 38 72 46 73 39 74 40 75 44 76 47 77 41 78 42 79
REMARK SMILES IDX 45 80 43 81 69 82 70 83 78 84 71 85 72 86 76 87 79 88 73 89
REMARK SMILES IDX 74 90 77 91 75 92 54 93 55 94 63 95 56 96 57 97 61 98 64 99
REMARK SMILES IDX 58 100 59 101 62 102 60 103
REMARK H PARENT 9 13 1 21 1 22 1 23 84 56 52 67
REMARK Flexibility Score: inf
ROOT
ATOM      1  C   UNL A   1      34.063  33.751  28.334  1.00  0.00     0.188 C 
ENDROOT
BRANCH   1   2
ATOM      2  C   UNL A   1      34.369  32.235  28.171  1.00  0.00     0.188 C 
BRANCH   2   3
ATOM      3  O   UNL A   1      33.259  31.433  27.838  1.00  0.00    -0.376 OA
BRANCH   3   4
ATOM      4  C   UNL A   1      33.326  30.561  26.740  1.00  0.00     0.202 C 
BRANCH   4   5
ATOM      5  C   UNL A   1      32.162  29.619  26.480  1.00  0.00     0.261 C 
BRANCH   5   6
ATOM      6  O   UNL A   1      32.480  28.317  25.979  1.00  0.00    -0.462 OA
BRANCH   6   7
ATOM      7  C   UNL A   1      31.468  27.401  25.920  1.00  0.00     0.329 C 
ATOM      8  O   UNL A   1      30.907  26.924  26.897  1.00  0.00    -0.250 OA
BRANCH   7   9
ATOM      9  C   UNL A   1      31.198  27.026  24.437  1.00  0.00     0.195 C 
BRANCH   9  10
ATOM     10  N   UNL A   1      30.756  25.620  24.273  1.00  0.00    -0.340 N 
ATOM     11  C   UNL A   1      31.370  24.585  23.595  1.00  0.00     0.249 C 
ATOM     12  O   UNL A   1      30.659  23.696  23.122  1.00  0.00    -0.272 OA
ATOM     13  H   UNL A   1      29.904  25.392  24.709  1.00  0.00     0.164 HD
BRANCH  11  14
ATOM     14  C   UNL A   1      32.900  24.557  23.465  1.00  0.00     0.207 C 
ATOM     15  C   UNL A   1      34.637  23.697  24.816  1.00  0.00     0.174 C 
ATOM     16  C   UNL A   1      34.905  23.313  23.375  1.00  0.00     0.041 C 
ATOM     17  O   UNL A   1      33.468  24.527  24.784  1.00  0.00    -0.359 OA
ATOM     18  C   UNL A   1      33.530  23.381  22.740  1.00  0.00     0.045 C 
BRANCH  15  19
ATOM     19  C   UNL A   1      34.381  22.520  25.770  1.00  0.00     0.291 C 
BRANCH  19  20
ATOM     20  N   UNL A   1      35.192  22.637  26.990  1.00  0.00    -0.355 N 
ATOM     21  H   UNL A   1      34.658  23.127  27.707  1.00  0.00     0.344 HD
ATOM     22  H   UNL A   1      36.044  23.160  26.784  1.00  0.00     0.344 HD
ATOM     23  H   UNL A   1      35.437  21.706  27.326  1.00  0.00     0.344 HD
ENDBRANCH  19  20
ENDBRANCH  15  19
ENDBRANCH  11  14
ENDBRANCH   9  10
BRANCH   9  24
ATOM     24  C   UNL A   1      30.137  28.067  23.918  1.00  0.00     0.023 C 
ATOM     25  C   UNL A   1      30.693  28.915  22.750  1.00  0.00     0.006 C 
ATOM     26  C   UNL A   1      28.784  27.496  23.459  1.00  0.00     0.006 C 
ATOM     27  C   UNL A   1      29.763  30.049  22.335  1.00  0.00     0.000 C 
ATOM     28  C   UNL A   1      27.820  28.636  23.091  1.00  0.00     0.000 C 
ATOM     29  C   UNL A   1      28.372  29.541  21.994  1.00  0.00     0.000 C 
ENDBRANCH   9  24
ENDBRANCH   7   9
ENDBRANCH   6   7
ENDBRANCH   5   6
ENDBRANCH   4   5
ENDBRANCH   3   4
ENDBRANCH   2   3
ENDBRANCH   1   2
BRANCH   1  30
ATOM     30  O   UNL A   1      33.334  34.315  29.420  1.00  0.00    -0.377 OA
BRANCH  30  31
ATOM     31  C   UNL A   1      32.999  35.693  29.404  1.00  0.00     0.188 C 
BRANCH  31  32
ATOM     32  C   UNL A   1      33.139  36.426  30.753  1.00  0.00     0.188 C 
BRANCH  32  33
ATOM     33  O   UNL A   1      33.403  35.580  31.852  1.00  0.00    -0.376 OA
BRANCH  33  34
ATOM     34  C   UNL A   1      34.677  35.552  32.464  1.00  0.00     0.202 C 
BRANCH  34  35
ATOM     35  C   UNL A   1      34.969  34.973  33.861  1.00  0.00     0.261 C 
BRANCH  35  36
ATOM     36  O   UNL A   1      35.222  33.572  33.986  1.00  0.00    -0.460 OA
BRANCH  36  37
ATOM     37  C   UNL A   1      35.000  32.791  32.912  1.00  0.00     0.338 C 
ATOM     38  O   UNL A   1      33.931  32.532  32.385  1.00  0.00    -0.246 OA
BRANCH  37  39
ATOM     39  C   UNL A   1      36.328  32.456  32.359  1.00  0.00     0.060 A 
ATOM     40  C   UNL A   1      37.319  31.926  33.198  1.00  0.00     0.016 A 
ATOM     41  C   UNL A   1      36.577  32.645  30.998  1.00  0.00     0.016 A 
ATOM     42  C   UNL A   1      38.572  31.606  32.682  1.00  0.00     0.010 A 
ATOM     43  C   UNL A   1      37.843  32.359  30.490  1.00  0.00     0.010 A 
ATOM     44  C   UNL A   1      38.854  31.874  31.338  1.00  0.00    -0.014 A 
BRANCH  44  45
ATOM     45  C   UNL A   1      40.257  31.885  30.874  1.00  0.00     0.031 A 
ATOM     46  C   UNL A   1      40.762  30.668  30.152  1.00  0.00     0.074 A 
ATOM     47  C   UNL A   1      41.059  32.941  31.080  1.00  0.00     0.049 A 
ATOM     48  N   UNL A   1      41.967  30.386  29.733  1.00  0.00    -0.248 NA
ATOM     49  C   UNL A   1      39.764  29.620  29.869  1.00  0.00     0.031 C 
ATOM     50  C   UNL A   1      40.662  34.194  31.717  1.00  0.00     0.029 A 
ATOM     51  N   UNL A   1      42.387  33.116  30.785  1.00  0.00    -0.354 N 
ATOM     52  C   UNL A   1      41.875  29.128  29.151  1.00  0.00     0.074 A 
ATOM     53  C   UNL A   1      40.506  28.687  29.296  1.00  0.00     0.031 C 
ATOM     54  C   UNL A   1      41.733  35.004  31.786  1.00  0.00     0.029 A 
ATOM     55  C   UNL A   1      42.896  34.309  31.233  1.00  0.00     0.049 A 
ATOM     56  H   UNL A   1      42.924  32.450  30.297  1.00  0.00     0.167 HD
ATOM     57  C   UNL A   1      42.848  28.408  28.548  1.00  0.00     0.037 A 
ATOM     58  C   UNL A   1      44.164  34.764  31.226  1.00  0.00     0.037 A 
ATOM     59  C   UNL A   1      44.209  28.852  28.417  1.00  0.00     0.049 A 
ATOM     60  C   UNL A   1      45.251  33.905  30.628  1.00  0.00     0.074 A 
ATOM     61  C   UNL A   1      45.273  28.208  27.813  1.00  0.00     0.029 A 
ATOM     62  N   UNL A   1      44.696  30.054  28.911  1.00  0.00    -0.354 N 
ATOM     63  N   UNL A   1      45.159  32.725  30.062  1.00  0.00    -0.248 NA
ATOM     64  C   UNL A   1      46.619  34.440  30.671  1.00  0.00     0.031 C 
ATOM     65  C   UNL A   1      46.417  28.990  27.997  1.00  0.00     0.029 A 
ATOM     66  C   UNL A   1      46.053  30.156  28.653  1.00  0.00     0.049 A 
ATOM     67  H   UNL A   1      44.157  30.734  29.376  1.00  0.00     0.167 HD
ATOM     68  C   UNL A   1      46.445  32.395  29.651  1.00  0.00     0.074 A 
ATOM     69  C   UNL A   1      47.297  33.504  30.023  1.00  0.00     0.031 C 
ATOM     70  C   UNL A   1      46.882  31.275  29.021  1.00  0.00     0.037 A 
BRANCH  57  71
ATOM     71  C   UNL A   1      42.481  27.051  28.020  1.00  0.00     0.064 A 
ATOM     72  C   UNL A   1      42.615  25.892  28.797  1.00  0.00     0.173 A 
ATOM     73  C   UNL A   1      41.968  26.915  26.720  1.00  0.00     0.173 A 
ATOM     74  F   UNL A   1      43.118  25.964  30.038  1.00  0.00    -0.203 F 
ATOM     75  C   UNL A   1      42.274  24.642  28.283  1.00  0.00     0.198 A 
ATOM     76  C   UNL A   1      41.596  25.670  26.224  1.00  0.00     0.198 A 
ATOM     77  F   UNL A   1      41.821  27.992  25.934  1.00  0.00    -0.203 F 
ATOM     78  F   UNL A   1      42.460  23.542  29.025  1.00  0.00    -0.200 F 
ATOM     79  C   UNL A   1      41.757  24.534  27.002  1.00  0.00     0.200 A 
ATOM     80  F   UNL A   1      41.085  25.569  24.989  1.00  0.00    -0.200 F 
ATOM     81  F   UNL A   1      41.420  23.332  26.512  1.00  0.00    -0.200 F 
ENDBRANCH  57  71
BRANCH  58  82
ATOM     82  C   UNL A   1      44.486  36.090  31.820  1.00  0.00     0.064 A 
ATOM     83  C   UNL A   1      44.383  37.265  31.064  1.00  0.00     0.173 A 
ATOM     84  C   UNL A   1      44.927  36.206  33.147  1.00  0.00     0.173 A 
ATOM     85  F   UNL A   1      43.989  37.205  29.783  1.00  0.00    -0.203 F 
ATOM     86  C   UNL A   1      44.731  38.502  31.603  1.00  0.00     0.198 A 
ATOM     87  C   UNL A   1      45.243  37.448  33.696  1.00  0.00     0.198 A 
ATOM     88  F   UNL A   1      45.044  35.114  33.915  1.00  0.00    -0.203 F 
ATOM     89  F   UNL A   1      44.674  39.603  30.841  1.00  0.00    -0.200 F 
ATOM     90  C   UNL A   1      45.154  38.594  32.920  1.00  0.00     0.200 A 
ATOM     91  F   UNL A   1      45.637  37.532  34.973  1.00  0.00    -0.200 F 
ATOM     92  F   UNL A   1      45.485  39.784  33.439  1.00  0.00    -0.200 F 
ENDBRANCH  58  82
BRANCH  70  93
ATOM     93  C   UNL A   1      48.337  31.211  28.648  1.00  0.00     0.064 A 
ATOM     94  C   UNL A   1      48.816  31.740  27.441  1.00  0.00     0.173 A 
ATOM     95  C   UNL A   1      49.272  30.662  29.539  1.00  0.00     0.173 A 
ATOM     96  F   UNL A   1      47.964  32.266  26.548  1.00  0.00    -0.203 F 
ATOM     97  C   UNL A   1      50.173  31.696  27.129  1.00  0.00     0.198 A 
ATOM     98  C   UNL A   1      50.631  30.652  29.240  1.00  0.00     0.198 A 
ATOM     99  F   UNL A   1      48.868  30.151  30.713  1.00  0.00    -0.203 F 
ATOM    100  F   UNL A   1      50.602  32.162  25.947  1.00  0.00    -0.200 F 
ATOM    101  C   UNL A   1      51.080  31.161  28.031  1.00  0.00     0.200 A 
ATOM    102  F   UNL A   1      51.506  30.153  30.123  1.00  0.00    -0.200 F 
ATOM    103  F   UNL A   1      52.386  31.133  27.735  1.00  0.00    -0.200 F 
ENDBRANCH  70  93
ENDBRANCH  44  45
ENDBRANCH  37  39
ENDBRANCH  36  37
ENDBRANCH  35  36
ENDBRANCH  34  35
ENDBRANCH  33  34
ENDBRANCH  32  33
ENDBRANCH  31  32
ENDBRANCH  30  31
ENDBRANCH   1  30
TORSDOF 25
ENDMDL
