MODEL 1
REMARK VINA RESULT:      -9.1      0.000      0.000
REMARK SMILES CCC[NH2+][C@@](C)(C[N@H+]1CCC(C)(C)C1)C(=O)OCCOCCOCCOCCOC(=O)c1ccc(-c2c3nc(c(-c4c(F)c(F)c(F)c(F)c4F)c4ccc([nH]4)c(-c4c(F)c(F)c(F)c(F)c4F)c4nc(c(-c5c(F)c(F)c(F)c(F)c5F)c5ccc2[nH]5)C=C4)C=C3)cc1
REMARK SMILES IDX 22 1 21 2 20 3 19 4 18 5 17 6 15 7 16 8 5 9 6 10 4 11 3 14
REMARK SMILES IDX 2 15 1 16 7 17 8 18 9 19 14 20 10 22 11 23 12 24 13 25 23 26
REMARK SMILES IDX 24 27 25 28 26 29 27 30 28 31 29 32 30 33 31 34 32 35 33 36
REMARK SMILES IDX 94 37 34 38 93 39 35 40 36 41 37 42 87 43 38 44 92 45 86 46
REMARK SMILES IDX 88 47 39 48 91 49 85 50 84 51 40 53 72 54 52 55 71 56 53 57
REMARK SMILES IDX 56 58 70 59 89 60 54 61 55 62 69 64 90 65 57 66 41 67 42 68
REMARK SMILES IDX 50 69 43 70 44 71 48 72 51 73 45 74 46 75 49 76 47 77 73 78
REMARK SMILES IDX 74 79 82 80 75 81 76 82 80 83 83 84 77 85 78 86 81 87 79 88
REMARK SMILES IDX 58 89 59 90 67 91 60 92 61 93 65 94 68 95 62 96 63 97 66 98
REMARK SMILES IDX 64 99
REMARK H PARENT 4 12 4 13 8 21 88 52 56 63
REMARK Flexibility Score: inf
ROOT
ATOM      1  C   UNL A   1      38.296  20.991  24.865  1.00  0.00     0.188 C 
ENDROOT
BRANCH   1   2
ATOM      2  C   UNL A   1      36.860  20.499  25.095  1.00  0.00     0.188 C 
BRANCH   2   3
ATOM      3  O   UNL A   1      35.771  21.361  24.805  1.00  0.00    -0.376 OA
BRANCH   3   4
ATOM      4  C   UNL A   1      36.034  22.560  24.089  1.00  0.00     0.202 C 
BRANCH   4   5
ATOM      5  C   UNL A   1      34.884  23.250  23.337  1.00  0.00     0.261 C 
BRANCH   5   6
ATOM      6  O   UNL A   1      33.826  23.811  24.147  1.00  0.00    -0.458 OA
BRANCH   6   7
ATOM      7  C   UNL A   1      32.962  24.634  23.484  1.00  0.00     0.373 C 
ATOM      8  O   UNL A   1      32.671  24.474  22.298  1.00  0.00    -0.244 OA
BRANCH   7   9
ATOM      9  C   UNL A   1      32.399  25.831  24.322  1.00  0.00     0.240 C 
ATOM     10  C   UNL A   1      31.421  25.169  25.321  1.00  0.00     0.099 C 
BRANCH   9  11
ATOM     11  N   UNL A   1      33.454  26.513  25.114  1.00  0.00    -0.328 N 
ATOM     12  H   UNL A   1      34.211  25.839  25.221  1.00  0.00     0.347 HD
ATOM     13  H   UNL A   1      33.616  27.360  24.569  1.00  0.00     0.347 HD
BRANCH  11  14
ATOM     14  C   UNL A   1      33.200  27.047  26.432  1.00  0.00     0.261 C 
BRANCH  14  15
ATOM     15  C   UNL A   1      34.201  28.176  26.727  1.00  0.00     0.058 C 
ATOM     16  C   UNL A   1      34.110  29.354  25.765  1.00  0.00     0.010 C 
ENDBRANCH  14  15
ENDBRANCH  11  14
ENDBRANCH   9  11
BRANCH   9  17
ATOM     17  C   UNL A   1      31.605  26.953  23.492  1.00  0.00     0.343 C 
BRANCH  17  18
ATOM     18  N   UNL A   1      30.426  27.608  24.148  1.00  0.00    -0.329 N 
ATOM     19  C   UNL A   1      30.744  28.841  24.880  1.00  0.00     0.263 C 
ATOM     20  C   UNL A   1      29.298  27.959  23.259  1.00  0.00     0.269 C 
ATOM     21  H   UNL A   1      30.146  26.859  24.780  1.00  0.00     0.348 HD
ATOM     22  C   UNL A   1      30.225  30.025  24.091  1.00  0.00     0.073 C 
ATOM     23  C   UNL A   1      29.423  29.453  22.922  1.00  0.00     0.019 C 
ATOM     24  C   UNL A   1      28.101  30.227  22.837  1.00  0.00     0.017 C 
ATOM     25  C   UNL A   1      30.118  29.597  21.569  1.00  0.00     0.017 C 
ENDBRANCH  17  18
ENDBRANCH   9  17
ENDBRANCH   7   9
ENDBRANCH   6   7
ENDBRANCH   5   6
ENDBRANCH   4   5
ENDBRANCH   3   4
ENDBRANCH   2   3
ENDBRANCH   1   2
BRANCH   1  26
ATOM     26  O   UNL A   1      39.079  21.128  26.031  1.00  0.00    -0.377 OA
BRANCH  26  27
ATOM     27  C   UNL A   1      40.156  20.215  26.173  1.00  0.00     0.188 C 
BRANCH  27  28
ATOM     28  C   UNL A   1      41.528  20.888  26.314  1.00  0.00     0.188 C 
BRANCH  28  29
ATOM     29  O   UNL A   1      42.627  20.500  25.495  1.00  0.00    -0.376 OA
BRANCH  29  30
ATOM     30  C   UNL A   1      43.810  21.275  25.369  1.00  0.00     0.202 C 
BRANCH  30  31
ATOM     31  C   UNL A   1      43.757  22.714  24.846  1.00  0.00     0.261 C 
BRANCH  31  32
ATOM     32  O   UNL A   1      43.829  23.683  25.899  1.00  0.00    -0.460 OA
BRANCH  32  33
ATOM     33  C   UNL A   1      44.024  24.945  25.466  1.00  0.00     0.338 C 
ATOM     34  O   UNL A   1      44.785  25.323  24.595  1.00  0.00    -0.246 OA
BRANCH  33  35
ATOM     35  C   UNL A   1      43.020  25.836  26.063  1.00  0.00     0.060 A 
ATOM     36  C   UNL A   1      43.461  27.123  26.384  1.00  0.00     0.016 A 
ATOM     37  C   UNL A   1      41.746  25.391  26.432  1.00  0.00     0.016 A 
ATOM     38  C   UNL A   1      42.677  27.937  27.177  1.00  0.00     0.010 A 
ATOM     39  C   UNL A   1      40.962  26.206  27.253  1.00  0.00     0.010 A 
ATOM     40  C   UNL A   1      41.473  27.442  27.691  1.00  0.00    -0.014 A 
BRANCH  40  41
ATOM     41  C   UNL A   1      40.978  28.104  28.917  1.00  0.00     0.031 A 
ATOM     42  C   UNL A   1      41.824  27.997  30.158  1.00  0.00     0.074 A 
ATOM     43  C   UNL A   1      39.936  28.947  28.854  1.00  0.00     0.049 A 
ATOM     44  N   UNL A   1      41.707  28.617  31.303  1.00  0.00    -0.248 NA
ATOM     45  C   UNL A   1      42.975  27.080  30.093  1.00  0.00     0.031 C 
ATOM     46  C   UNL A   1      39.117  29.185  27.667  1.00  0.00     0.029 A 
ATOM     47  N   UNL A   1      39.420  29.791  29.801  1.00  0.00    -0.354 N 
ATOM     48  C   UNL A   1      42.766  28.171  32.083  1.00  0.00     0.074 A 
ATOM     49  C   UNL A   1      43.494  27.198  31.304  1.00  0.00     0.031 C 
ATOM     50  C   UNL A   1      38.206  30.131  27.953  1.00  0.00     0.029 A 
ATOM     51  C   UNL A   1      38.365  30.540  29.347  1.00  0.00     0.049 A 
ATOM     52  H   UNL A   1      39.773  29.854  30.718  1.00  0.00     0.167 HD
ATOM     53  C   UNL A   1      43.111  28.552  33.335  1.00  0.00     0.037 A 
ATOM     54  C   UNL A   1      37.614  31.448  29.997  1.00  0.00     0.037 A 
ATOM     55  C   UNL A   1      42.379  29.526  34.099  1.00  0.00     0.049 A 
ATOM     56  C   UNL A   1      37.965  31.789  31.421  1.00  0.00     0.074 A 
ATOM     57  C   UNL A   1      42.617  29.976  35.384  1.00  0.00     0.029 A 
ATOM     58  N   UNL A   1      41.254  30.197  33.639  1.00  0.00    -0.354 N 
ATOM     59  N   UNL A   1      38.962  31.356  32.159  1.00  0.00    -0.248 NA
ATOM     60  C   UNL A   1      37.093  32.755  32.101  1.00  0.00     0.031 C 
ATOM     61  C   UNL A   1      41.602  30.876  35.723  1.00  0.00     0.029 A 
ATOM     62  C   UNL A   1      40.770  31.039  34.626  1.00  0.00     0.049 A 
ATOM     63  H   UNL A   1      40.859  30.092  32.744  1.00  0.00     0.167 HD
ATOM     64  C   UNL A   1      38.853  32.014  33.376  1.00  0.00     0.074 A 
ATOM     65  C   UNL A   1      37.707  32.895  33.267  1.00  0.00     0.031 C 
ATOM     66  C   UNL A   1      39.624  31.903  34.488  1.00  0.00     0.037 A 
BRANCH  53  67
ATOM     67  C   UNL A   1      44.298  27.880  33.965  1.00  0.00     0.064 A 
ATOM     68  C   UNL A   1      45.591  28.421  33.885  1.00  0.00     0.173 A 
ATOM     69  C   UNL A   1      44.136  26.672  34.661  1.00  0.00     0.173 A 
ATOM     70  F   UNL A   1      45.806  29.561  33.211  1.00  0.00    -0.203 F 
ATOM     71  C   UNL A   1      46.679  27.765  34.457  1.00  0.00     0.198 A 
ATOM     72  C   UNL A   1      45.221  26.036  35.259  1.00  0.00     0.198 A 
ATOM     73  F   UNL A   1      42.924  26.108  34.763  1.00  0.00    -0.203 F 
ATOM     74  F   UNL A   1      47.912  28.271  34.321  1.00  0.00    -0.200 F 
ATOM     75  C   UNL A   1      46.492  26.578  35.149  1.00  0.00     0.200 A 
ATOM     76  F   UNL A   1      45.036  24.894  35.936  1.00  0.00    -0.200 F 
ATOM     77  F   UNL A   1      47.539  25.950  35.702  1.00  0.00    -0.200 F 
ENDBRANCH  53  67
BRANCH  54  78
ATOM     78  C   UNL A   1      36.453  32.080  29.315  1.00  0.00     0.064 A 
ATOM     79  C   UNL A   1      36.446  33.441  28.987  1.00  0.00     0.173 A 
ATOM     80  C   UNL A   1      35.310  31.329  29.000  1.00  0.00     0.173 A 
ATOM     81  F   UNL A   1      37.505  34.208  29.284  1.00  0.00    -0.203 F 
ATOM     82  C   UNL A   1      35.332  34.034  28.393  1.00  0.00     0.198 A 
ATOM     83  C   UNL A   1      34.210  31.914  28.376  1.00  0.00     0.198 A 
ATOM     84  F   UNL A   1      35.262  30.020  29.293  1.00  0.00    -0.203 F 
ATOM     85  F   UNL A   1      35.332  35.350  28.139  1.00  0.00    -0.200 F 
ATOM     86  C   UNL A   1      34.218  33.268  28.082  1.00  0.00     0.200 A 
ATOM     87  F   UNL A   1      33.143  31.165  28.066  1.00  0.00    -0.200 F 
ATOM     88  F   UNL A   1      33.148  33.837  27.510  1.00  0.00    -0.200 F 
ENDBRANCH  54  78
BRANCH  66  89
ATOM     89  C   UNL A   1      39.267  32.780  35.654  1.00  0.00     0.064 A 
ATOM     90  C   UNL A   1      39.728  34.101  35.754  1.00  0.00     0.173 A 
ATOM     91  C   UNL A   1      38.440  32.295  36.679  1.00  0.00     0.173 A 
ATOM     92  F   UNL A   1      40.530  34.609  34.805  1.00  0.00    -0.203 F 
ATOM     93  C   UNL A   1      39.415  34.887  36.859  1.00  0.00     0.198 A 
ATOM     94  C   UNL A   1      38.096  33.097  37.763  1.00  0.00     0.198 A 
ATOM     95  F   UNL A   1      37.960  31.043  36.626  1.00  0.00    -0.203 F 
ATOM     96  F   UNL A   1      39.926  36.120  36.967  1.00  0.00    -0.200 F 
ATOM     97  C   UNL A   1      38.595  34.386  37.859  1.00  0.00     0.200 A 
ATOM     98  F   UNL A   1      37.288  32.618  38.718  1.00  0.00    -0.200 F 
ATOM     99  F   UNL A   1      38.296  35.144  38.923  1.00  0.00    -0.200 F 
ENDBRANCH  66  89
ENDBRANCH  40  41
ENDBRANCH  33  35
ENDBRANCH  32  33
ENDBRANCH  31  32
ENDBRANCH  30  31
ENDBRANCH  29  30
ENDBRANCH  28  29
ENDBRANCH  27  28
ENDBRANCH  26  27
ENDBRANCH   1  26
TORSDOF 25
ENDMDL
MODEL 2
REMARK VINA RESULT:      -9.0      0.658      2.070
REMARK SMILES CCC[NH2+][C@@](C)(C[N@H+]1CCC(C)(C)C1)C(=O)OCCOCCOCCOCCOC(=O)c1ccc(-c2c3nc(c(-c4c(F)c(F)c(F)c(F)c4F)c4ccc([nH]4)c(-c4c(F)c(F)c(F)c(F)c4F)c4nc(c(-c5c(F)c(F)c(F)c(F)c5F)c5ccc2[nH]5)C=C4)C=C3)cc1
REMARK SMILES IDX 22 1 21 2 20 3 19 4 18 5 17 6 15 7 16 8 5 9 6 10 4 11 3 14
REMARK SMILES IDX 2 15 1 16 7 17 8 18 9 19 14 20 10 22 11 23 12 24 13 25 23 26
REMARK SMILES IDX 24 27 25 28 26 29 27 30 28 31 29 32 30 33 31 34 32 35 33 36
REMARK SMILES IDX 94 37 34 38 93 39 35 40 36 41 37 42 87 43 38 44 92 45 86 46
REMARK SMILES IDX 88 47 39 48 91 49 85 50 84 51 40 53 72 54 52 55 71 56 53 57
REMARK SMILES IDX 56 58 70 59 89 60 54 61 55 62 69 64 90 65 57 66 41 67 42 68
REMARK SMILES IDX 50 69 43 70 44 71 48 72 51 73 45 74 46 75 49 76 47 77 73 78
REMARK SMILES IDX 74 79 82 80 75 81 76 82 80 83 83 84 77 85 78 86 81 87 79 88
REMARK SMILES IDX 58 89 59 90 67 91 60 92 61 93 65 94 68 95 62 96 63 97 66 98
REMARK SMILES IDX 64 99
REMARK H PARENT 4 12 4 13 8 21 88 52 56 63
REMARK Flexibility Score: inf
ROOT
ATOM      1  C   UNL A   1      38.366  20.779  24.858  1.00  0.00     0.188 C 
ENDROOT
BRANCH   1   2
ATOM      2  C   UNL A   1      37.016  20.146  25.226  1.00  0.00     0.188 C 
BRANCH   2   3
ATOM      3  O   UNL A   1      35.824  20.897  25.062  1.00  0.00    -0.376 OA
BRANCH   3   4
ATOM      4  C   UNL A   1      35.882  22.092  24.296  1.00  0.00     0.202 C 
BRANCH   4   5
ATOM      5  C   UNL A   1      34.601  22.612  23.622  1.00  0.00     0.261 C 
BRANCH   5   6
ATOM      6  O   UNL A   1      33.782  23.515  24.399  1.00  0.00    -0.458 OA
BRANCH   6   7
ATOM      7  C   UNL A   1      32.693  24.018  23.748  1.00  0.00     0.373 C 
ATOM      8  O   UNL A   1      31.989  23.332  23.005  1.00  0.00    -0.244 OA
BRANCH   7   9
ATOM      9  C   UNL A   1      32.425  25.544  23.968  1.00  0.00     0.240 C 
ATOM     10  C   UNL A   1      32.407  25.709  25.506  1.00  0.00     0.099 C 
BRANCH   9  11
ATOM     11  N   UNL A   1      33.522  26.394  23.439  1.00  0.00    -0.328 N 
ATOM     12  H   UNL A   1      33.638  27.157  24.105  1.00  0.00     0.347 HD
ATOM     13  H   UNL A   1      34.276  25.719  23.319  1.00  0.00     0.347 HD
BRANCH  11  14
ATOM     14  C   UNL A   1      33.455  27.008  22.132  1.00  0.00     0.261 C 
BRANCH  14  15
ATOM     15  C   UNL A   1      34.160  28.373  22.173  1.00  0.00     0.058 C 
ATOM     16  C   UNL A   1      34.276  28.971  23.570  1.00  0.00     0.010 C 
ENDBRANCH  14  15
ENDBRANCH  11  14
ENDBRANCH   9  11
BRANCH   9  17
ATOM     17  C   UNL A   1      31.041  26.104  23.376  1.00  0.00     0.343 C 
BRANCH  17  18
ATOM     18  N   UNL A   1      30.234  27.032  24.234  1.00  0.00    -0.329 N 
ATOM     19  C   UNL A   1      31.031  28.001  24.998  1.00  0.00     0.263 C 
ATOM     20  C   UNL A   1      29.204  27.832  23.539  1.00  0.00     0.269 C 
ATOM     21  H   UNL A   1      29.786  26.350  24.846  1.00  0.00     0.348 HD
ATOM     22  C   UNL A   1      30.863  29.370  24.373  1.00  0.00     0.073 C 
ATOM     23  C   UNL A   1      29.792  29.228  23.292  1.00  0.00     0.019 C 
ATOM     24  C   UNL A   1      28.812  30.399  23.446  1.00  0.00     0.017 C 
ATOM     25  C   UNL A   1      30.343  29.287  21.868  1.00  0.00     0.017 C 
ENDBRANCH  17  18
ENDBRANCH   9  17
ENDBRANCH   7   9
ENDBRANCH   6   7
ENDBRANCH   5   6
ENDBRANCH   4   5
ENDBRANCH   3   4
ENDBRANCH   2   3
ENDBRANCH   1   2
BRANCH   1  26
ATOM     26  O   UNL A   1      39.221  21.049  25.948  1.00  0.00    -0.377 OA
BRANCH  26  27
ATOM     27  C   UNL A   1      40.309  20.155  26.125  1.00  0.00     0.188 C 
BRANCH  27  28
ATOM     28  C   UNL A   1      41.672  20.850  26.253  1.00  0.00     0.188 C 
BRANCH  28  29
ATOM     29  O   UNL A   1      42.775  20.464  25.439  1.00  0.00    -0.376 OA
BRANCH  29  30
ATOM     30  C   UNL A   1      43.954  21.246  25.314  1.00  0.00     0.202 C 
BRANCH  30  31
ATOM     31  C   UNL A   1      43.888  22.700  24.838  1.00  0.00     0.261 C 
BRANCH  31  32
ATOM     32  O   UNL A   1      43.996  23.636  25.918  1.00  0.00    -0.460 OA
BRANCH  32  33
ATOM     33  C   UNL A   1      44.188  24.910  25.518  1.00  0.00     0.338 C 
ATOM     34  O   UNL A   1      44.956  25.313  24.665  1.00  0.00    -0.246 OA
BRANCH  33  35
ATOM     35  C   UNL A   1      43.172  25.779  26.126  1.00  0.00     0.060 A 
ATOM     36  C   UNL A   1      43.607  27.053  26.502  1.00  0.00     0.016 A 
ATOM     37  C   UNL A   1      41.891  25.323  26.453  1.00  0.00     0.016 A 
ATOM     38  C   UNL A   1      42.807  27.840  27.308  1.00  0.00     0.010 A 
ATOM     39  C   UNL A   1      41.090  26.109  27.287  1.00  0.00     0.010 A 
ATOM     40  C   UNL A   1      41.592  27.327  27.778  1.00  0.00    -0.014 A 
BRANCH  40  41
ATOM     41  C   UNL A   1      41.072  27.945  29.017  1.00  0.00     0.031 A 
ATOM     42  C   UNL A   1      41.897  27.802  30.269  1.00  0.00     0.074 A 
ATOM     43  C   UNL A   1      40.027  28.784  28.964  1.00  0.00     0.049 A 
ATOM     44  N   UNL A   1      41.757  28.383  31.432  1.00  0.00    -0.248 NA
ATOM     45  C   UNL A   1      43.055  26.893  30.193  1.00  0.00     0.031 C 
ATOM     46  C   UNL A   1      39.227  29.058  27.772  1.00  0.00     0.029 A 
ATOM     47  N   UNL A   1      39.489  29.594  29.929  1.00  0.00    -0.354 N 
ATOM     48  C   UNL A   1      42.805  27.916  32.215  1.00  0.00     0.074 A 
ATOM     49  C   UNL A   1      43.552  26.973  31.416  1.00  0.00     0.031 C 
ATOM     50  C   UNL A   1      38.305  29.989  28.073  1.00  0.00     0.029 A 
ATOM     51  C   UNL A   1      38.438  30.352  29.482  1.00  0.00     0.049 A 
ATOM     52  H   UNL A   1      39.826  29.628  30.854  1.00  0.00     0.167 HD
ATOM     53  C   UNL A   1      43.126  28.257  33.485  1.00  0.00     0.037 A 
ATOM     54  C   UNL A   1      37.670  31.234  30.149  1.00  0.00     0.037 A 
ATOM     55  C   UNL A   1      42.375  29.201  34.267  1.00  0.00     0.049 A 
ATOM     56  C   UNL A   1      37.995  31.529  31.590  1.00  0.00     0.074 A 
ATOM     57  C   UNL A   1      42.588  29.609  35.571  1.00  0.00     0.029 A 
ATOM     58  N   UNL A   1      41.254  29.881  33.811  1.00  0.00    -0.354 N 
ATOM     59  N   UNL A   1      38.982  31.077  32.329  1.00  0.00    -0.248 NA
ATOM     60  C   UNL A   1      37.106  32.467  32.286  1.00  0.00     0.031 C 
ATOM     61  C   UNL A   1      41.562  30.492  35.922  1.00  0.00     0.029 A 
ATOM     62  C   UNL A   1      40.748  30.687  34.816  1.00  0.00     0.049 A 
ATOM     63  H   UNL A   1      40.875  29.804  32.905  1.00  0.00     0.167 HD
ATOM     64  C   UNL A   1      38.847  31.693  33.566  1.00  0.00     0.074 A 
ATOM     65  C   UNL A   1      37.698  32.572  33.466  1.00  0.00     0.031 C 
ATOM     66  C   UNL A   1      39.600  31.549  34.687  1.00  0.00     0.037 A 
BRANCH  53  67
ATOM     67  C   UNL A   1      44.305  27.570  34.112  1.00  0.00     0.064 A 
ATOM     68  C   UNL A   1      44.186  26.338  34.774  1.00  0.00     0.173 A 
ATOM     69  C   UNL A   1      45.579  28.157  34.048  1.00  0.00     0.173 A 
ATOM     70  F   UNL A   1      42.988  25.744  34.886  1.00  0.00    -0.203 F 
ATOM     71  C   UNL A   1      45.292  25.733  35.369  1.00  0.00     0.198 A 
ATOM     72  C   UNL A   1      46.687  27.534  34.614  1.00  0.00     0.198 A 
ATOM     73  F   UNL A   1      45.749  29.337  33.433  1.00  0.00    -0.203 F 
ATOM     74  F   UNL A   1      45.144  24.584  36.043  1.00  0.00    -0.200 F 
ATOM     75  C   UNL A   1      46.542  26.328  35.282  1.00  0.00     0.200 A 
ATOM     76  F   UNL A   1      47.895  28.106  34.521  1.00  0.00    -0.200 F 
ATOM     77  F   UNL A   1      47.605  25.743  35.851  1.00  0.00    -0.200 F 
ENDBRANCH  53  67
BRANCH  54  78
ATOM     78  C   UNL A   1      36.517  31.882  29.468  1.00  0.00     0.064 A 
ATOM     79  C   UNL A   1      35.402  31.144  29.052  1.00  0.00     0.173 A 
ATOM     80  C   UNL A   1      36.524  33.259  29.200  1.00  0.00     0.173 A 
ATOM     81  F   UNL A   1      35.356  29.821  29.265  1.00  0.00    -0.203 F 
ATOM     82  C   UNL A   1      34.349  31.753  28.370  1.00  0.00     0.198 A 
ATOM     83  C   UNL A   1      35.456  33.874  28.549  1.00  0.00     0.198 A 
ATOM     84  F   UNL A   1      37.567  34.014  29.577  1.00  0.00    -0.203 F 
ATOM     85  F   UNL A   1      33.319  31.014  27.934  1.00  0.00    -0.200 F 
ATOM     86  C   UNL A   1      34.374  33.119  28.125  1.00  0.00     0.200 A 
ATOM     87  F   UNL A   1      35.480  35.195  28.330  1.00  0.00    -0.200 F 
ATOM     88  F   UNL A   1      33.362  33.704  27.472  1.00  0.00    -0.200 F 
ENDBRANCH  54  78
BRANCH  66  89
ATOM     89  C   UNL A   1      39.217  32.385  35.876  1.00  0.00     0.064 A 
ATOM     90  C   UNL A   1      38.340  31.908  36.862  1.00  0.00     0.173 A 
ATOM     91  C   UNL A   1      39.746  33.674  36.036  1.00  0.00     0.173 A 
ATOM     92  F   UNL A   1      37.800  30.685  36.750  1.00  0.00    -0.203 F 
ATOM     93  C   UNL A   1      37.970  32.710  37.937  1.00  0.00     0.198 A 
ATOM     94  C   UNL A   1      39.405  34.458  37.134  1.00  0.00     0.198 A 
ATOM     95  F   UNL A   1      40.600  34.173  35.129  1.00  0.00    -0.203 F 
ATOM     96  F   UNL A   1      37.076  32.260  38.828  1.00  0.00    -0.200 F 
ATOM     97  C   UNL A   1      38.507  33.981  38.075  1.00  0.00     0.200 A 
ATOM     98  F   UNL A   1      39.940  35.679  37.275  1.00  0.00    -0.200 F 
ATOM     99  F   UNL A   1      38.148  34.752  39.111  1.00  0.00    -0.200 F 
ENDBRANCH  66  89
ENDBRANCH  40  41
ENDBRANCH  33  35
ENDBRANCH  32  33
ENDBRANCH  31  32
ENDBRANCH  30  31
ENDBRANCH  29  30
ENDBRANCH  28  29
ENDBRANCH  27  28
ENDBRANCH  26  27
ENDBRANCH   1  26
TORSDOF 25
ENDMDL
MODEL 3
REMARK VINA RESULT:      -8.6      5.351     12.130
REMARK SMILES CCC[NH2+][C@@](C)(C[N@H+]1CCC(C)(C)C1)C(=O)OCCOCCOCCOCCOC(=O)c1ccc(-c2c3nc(c(-c4c(F)c(F)c(F)c(F)c4F)c4ccc([nH]4)c(-c4c(F)c(F)c(F)c(F)c4F)c4nc(c(-c5c(F)c(F)c(F)c(F)c5F)c5ccc2[nH]5)C=C4)C=C3)cc1
REMARK SMILES IDX 22 1 21 2 20 3 19 4 18 5 17 6 15 7 16 8 5 9 6 10 4 11 3 14
REMARK SMILES IDX 2 15 1 16 7 17 8 18 9 19 14 20 10 22 11 23 12 24 13 25 23 26
REMARK SMILES IDX 24 27 25 28 26 29 27 30 28 31 29 32 30 33 31 34 32 35 33 36
REMARK SMILES IDX 94 37 34 38 93 39 35 40 36 41 37 42 87 43 38 44 92 45 86 46
REMARK SMILES IDX 88 47 39 48 91 49 85 50 84 51 40 53 72 54 52 55 71 56 53 57
REMARK SMILES IDX 56 58 70 59 89 60 54 61 55 62 69 64 90 65 57 66 41 67 42 68
REMARK SMILES IDX 50 69 43 70 44 71 48 72 51 73 45 74 46 75 49 76 47 77 73 78
REMARK SMILES IDX 74 79 82 80 75 81 76 82 80 83 83 84 77 85 78 86 81 87 79 88
REMARK SMILES IDX 58 89 59 90 67 91 60 92 61 93 65 94 68 95 62 96 63 97 66 98
REMARK SMILES IDX 64 99
REMARK H PARENT 4 12 4 13 8 21 88 52 56 63
REMARK Flexibility Score: inf
ROOT
ATOM      1  C   UNL A   1      32.926  35.827  29.521  1.00  0.00     0.188 C 
ENDROOT
BRANCH   1   2
ATOM      2  C   UNL A   1      33.013  34.746  28.436  1.00  0.00     0.188 C 
BRANCH   2   3
ATOM      3  O   UNL A   1      34.071  33.801  28.473  1.00  0.00    -0.376 OA
BRANCH   3   4
ATOM      4  C   UNL A   1      35.407  34.287  28.477  1.00  0.00     0.202 C 
BRANCH   4   5
ATOM      5  C   UNL A   1      36.511  33.434  29.123  1.00  0.00     0.261 C 
BRANCH   5   6
ATOM      6  O   UNL A   1      36.361  31.999  29.025  1.00  0.00    -0.458 OA
BRANCH   6   7
ATOM      7  C   UNL A   1      37.527  31.300  28.906  1.00  0.00     0.373 C 
ATOM      8  O   UNL A   1      38.619  31.774  29.221  1.00  0.00    -0.244 OA
BRANCH   7   9
ATOM      9  C   UNL A   1      37.389  29.866  28.293  1.00  0.00     0.240 C 
ATOM     10  C   UNL A   1      37.020  28.971  29.498  1.00  0.00     0.099 C 
BRANCH   9  11
ATOM     11  N   UNL A   1      36.280  29.775  27.310  1.00  0.00    -0.328 N 
ATOM     12  H   UNL A   1      36.166  30.711  26.921  1.00  0.00     0.347 HD
ATOM     13  H   UNL A   1      36.595  29.020  26.701  1.00  0.00     0.347 HD
BRANCH  11  14
ATOM     14  C   UNL A   1      34.957  29.330  27.684  1.00  0.00     0.261 C 
BRANCH  14  15
ATOM     15  C   UNL A   1      34.014  29.464  26.477  1.00  0.00     0.058 C 
ATOM     16  C   UNL A   1      32.662  28.788  26.667  1.00  0.00     0.010 C 
ENDBRANCH  14  15
ENDBRANCH  11  14
ENDBRANCH   9  11
BRANCH   9  17
ATOM     17  C   UNL A   1      38.711  29.273  27.599  1.00  0.00     0.343 C 
BRANCH  17  18
ATOM     18  N   UNL A   1      39.974  29.242  28.406  1.00  0.00    -0.329 N 
ATOM     19  C   UNL A   1      40.117  28.061  29.267  1.00  0.00     0.263 C 
ATOM     20  C   UNL A   1      41.237  29.327  27.643  1.00  0.00     0.269 C 
ATOM     21  H   UNL A   1      39.845  30.092  28.954  1.00  0.00     0.348 HD
ATOM     22  C   UNL A   1      41.165  27.146  28.670  1.00  0.00     0.073 C 
ATOM     23  C   UNL A   1      41.782  27.899  27.491  1.00  0.00     0.019 C 
ATOM     24  C   UNL A   1      43.306  27.757  27.589  1.00  0.00     0.017 C 
ATOM     25  C   UNL A   1      41.364  27.354  26.126  1.00  0.00     0.017 C 
ENDBRANCH  17  18
ENDBRANCH   9  17
ENDBRANCH   7   9
ENDBRANCH   6   7
ENDBRANCH   5   6
ENDBRANCH   4   5
ENDBRANCH   3   4
ENDBRANCH   2   3
ENDBRANCH   1   2
BRANCH   1  26
ATOM     26  O   UNL A   1      32.953  35.351  30.850  1.00  0.00    -0.377 OA
BRANCH  26  27
ATOM     27  C   UNL A   1      33.779  36.067  31.754  1.00  0.00     0.188 C 
BRANCH  27  28
ATOM     28  C   UNL A   1      33.815  35.473  33.169  1.00  0.00     0.188 C 
BRANCH  28  29
ATOM     29  O   UNL A   1      34.992  35.544  33.968  1.00  0.00    -0.376 OA
BRANCH  29  30
ATOM     30  C   UNL A   1      35.462  34.456  34.750  1.00  0.00     0.202 C 
BRANCH  30  31
ATOM     31  C   UNL A   1      36.901  33.949  34.610  1.00  0.00     0.261 C 
BRANCH  31  32
ATOM     32  O   UNL A   1      36.997  32.526  34.749  1.00  0.00    -0.460 OA
BRANCH  32  33
ATOM     33  C   UNL A   1      37.033  31.864  33.574  1.00  0.00     0.338 C 
ATOM     34  O   UNL A   1      36.412  32.119  32.559  1.00  0.00    -0.246 OA
BRANCH  33  35
ATOM     35  C   UNL A   1      38.108  30.865  33.600  1.00  0.00     0.060 A 
ATOM     36  C   UNL A   1      39.321  31.288  34.151  1.00  0.00     0.016 A 
ATOM     37  C   UNL A   1      37.989  29.617  32.980  1.00  0.00     0.016 A 
ATOM     38  C   UNL A   1      40.455  30.518  33.986  1.00  0.00     0.010 A 
ATOM     39  C   UNL A   1      39.140  28.846  32.793  1.00  0.00     0.010 A 
ATOM     40  C   UNL A   1      40.383  29.346  33.224  1.00  0.00    -0.014 A 
BRANCH  40  41
ATOM     41  C   UNL A   1      41.658  28.884  32.636  1.00  0.00     0.031 A 
ATOM     42  C   UNL A   1      42.292  29.746  31.575  1.00  0.00     0.074 A 
ATOM     43  C   UNL A   1      42.325  27.860  33.190  1.00  0.00     0.049 A 
ATOM     44  N   UNL A   1      43.475  29.659  31.027  1.00  0.00    -0.248 NA
ATOM     45  C   UNL A   1      41.486  30.876  31.079  1.00  0.00     0.031 C 
ATOM     46  C   UNL A   1      41.830  27.028  34.285  1.00  0.00     0.029 A 
ATOM     47  N   UNL A   1      43.580  27.376  32.935  1.00  0.00    -0.354 N 
ATOM     48  C   UNL A   1      43.554  30.720  30.133  1.00  0.00     0.074 A 
ATOM     49  C   UNL A   1      42.290  31.415  30.177  1.00  0.00     0.031 C 
ATOM     50  C   UNL A   1      42.783  26.142  34.622  1.00  0.00     0.029 A 
ATOM     51  C   UNL A   1      43.939  26.331  33.747  1.00  0.00     0.049 A 
ATOM     52  H   UNL A   1      44.169  27.744  32.237  1.00  0.00     0.167 HD
ATOM     53  C   UNL A   1      44.598  31.092  29.356  1.00  0.00     0.037 A 
ATOM     54  C   UNL A   1      45.074  25.610  33.769  1.00  0.00     0.037 A 
ATOM     55  C   UNL A   1      45.854  30.393  29.325  1.00  0.00     0.049 A 
ATOM     56  C   UNL A   1      46.189  25.990  32.829  1.00  0.00     0.074 A 
ATOM     57  C   UNL A   1      46.976  30.660  28.563  1.00  0.00     0.029 A 
ATOM     58  N   UNL A   1      46.148  29.276  30.096  1.00  0.00    -0.354 N 
ATOM     59  N   UNL A   1      46.255  26.988  31.978  1.00  0.00    -0.248 NA
ATOM     60  C   UNL A   1      47.392  25.149  32.861  1.00  0.00     0.031 C 
ATOM     61  C   UNL A   1      47.927  29.670  28.829  1.00  0.00     0.029 A 
ATOM     62  C   UNL A   1      47.425  28.825  29.807  1.00  0.00     0.049 A 
ATOM     63  H   UNL A   1      45.540  28.865  30.752  1.00  0.00     0.167 HD
ATOM     64  C   UNL A   1      47.512  26.911  31.394  1.00  0.00     0.074 A 
ATOM     65  C   UNL A   1      48.184  25.783  32.009  1.00  0.00     0.031 C 
ATOM     66  C   UNL A   1      48.066  27.697  30.435  1.00  0.00     0.037 A 
BRANCH  53  67
ATOM     67  C   UNL A   1      44.403  32.273  28.449  1.00  0.00     0.064 A 
ATOM     68  C   UNL A   1      44.119  32.125  27.081  1.00  0.00     0.173 A 
ATOM     69  C   UNL A   1      44.501  33.577  28.958  1.00  0.00     0.173 A 
ATOM     70  F   UNL A   1      44.039  30.901  26.536  1.00  0.00    -0.203 F 
ATOM     71  C   UNL A   1      43.967  33.237  26.256  1.00  0.00     0.198 A 
ATOM     72  C   UNL A   1      44.315  34.685  28.137  1.00  0.00     0.198 A 
ATOM     73  F   UNL A   1      44.776  33.777  30.255  1.00  0.00    -0.203 F 
ATOM     74  F   UNL A   1      43.752  33.071  24.944  1.00  0.00    -0.200 F 
ATOM     75  C   UNL A   1      44.057  34.515  26.786  1.00  0.00     0.200 A 
ATOM     76  F   UNL A   1      44.394  35.920  28.653  1.00  0.00    -0.200 F 
ATOM     77  F   UNL A   1      43.907  35.584  25.991  1.00  0.00    -0.200 F 
ENDBRANCH  53  67
BRANCH  54  78
ATOM     78  C   UNL A   1      45.205  24.453  34.694  1.00  0.00     0.064 A 
ATOM     79  C   UNL A   1      45.750  24.596  35.976  1.00  0.00     0.173 A 
ATOM     80  C   UNL A   1      44.804  23.167  34.297  1.00  0.00     0.173 A 
ATOM     81  F   UNL A   1      46.167  25.799  36.397  1.00  0.00    -0.203 F 
ATOM     82  C   UNL A   1      45.914  23.496  36.817  1.00  0.00     0.198 A 
ATOM     83  C   UNL A   1      44.937  22.074  35.149  1.00  0.00     0.198 A 
ATOM     84  F   UNL A   1      44.277  22.973  33.079  1.00  0.00    -0.203 F 
ATOM     85  F   UNL A   1      46.488  23.652  38.017  1.00  0.00    -0.200 F 
ATOM     86  C   UNL A   1      45.501  22.236  36.405  1.00  0.00     0.200 A 
ATOM     87  F   UNL A   1      44.523  20.864  34.751  1.00  0.00    -0.200 F 
ATOM     88  F   UNL A   1      45.657  21.179  37.213  1.00  0.00    -0.200 F 
ENDBRANCH  54  78
BRANCH  66  89
ATOM     89  C   UNL A   1      49.475  27.376  30.023  1.00  0.00     0.064 A 
ATOM     90  C   UNL A   1      49.753  26.494  28.967  1.00  0.00     0.173 A 
ATOM     91  C   UNL A   1      50.560  27.969  30.685  1.00  0.00     0.173 A 
ATOM     92  F   UNL A   1      48.751  25.893  28.308  1.00  0.00    -0.203 F 
ATOM     93  C   UNL A   1      51.065  26.182  28.623  1.00  0.00     0.198 A 
ATOM     94  C   UNL A   1      51.870  27.686  30.312  1.00  0.00     0.198 A 
ATOM     95  F   UNL A   1      50.349  28.831  31.693  1.00  0.00    -0.203 F 
ATOM     96  F   UNL A   1      51.306  25.283  27.660  1.00  0.00    -0.200 F 
ATOM     97  C   UNL A   1      52.121  26.783  29.291  1.00  0.00     0.200 A 
ATOM     98  F   UNL A   1      52.889  28.282  30.946  1.00  0.00    -0.200 F 
ATOM     99  F   UNL A   1      53.384  26.480  28.959  1.00  0.00    -0.200 F 
ENDBRANCH  66  89
ENDBRANCH  40  41
ENDBRANCH  33  35
ENDBRANCH  32  33
ENDBRANCH  31  32
ENDBRANCH  30  31
ENDBRANCH  29  30
ENDBRANCH  28  29
ENDBRANCH  27  28
ENDBRANCH  26  27
ENDBRANCH   1  26
TORSDOF 25
ENDMDL
