MODEL 1
REMARK VINA RESULT:     -10.5      0.000      0.000
REMARK SMILES COc1ccc(/C=C/c2cc(OC)cc(OC)c2/C=C/C(=O)OCCOCCOCCOCCOC(=O)c2ccc(-c3c4nc(c(-c5c(F)c(F)c(F)c(F)c5F)c5ccc([nH]5)c(-c5c(F)c(F)c(F)c(F)c5F)c5nc(c(-c6c(F)c(F)c(F)c(F)c6F)c6ccc3[nH]6)C=C5)C=C4)cc2)cc1
REMARK SMILES IDX 28 1 27 2 26 3 25 4 24 5 23 6 21 7 22 8 20 9 19 10 18 11
REMARK SMILES IDX 9 12 10 13 11 14 15 15 14 16 8 17 7 18 6 19 3 20 4 21 102 22
REMARK SMILES IDX 5 23 101 24 2 25 1 26 12 27 13 28 16 29 17 30 29 31 30 32
REMARK SMILES IDX 31 33 32 34 33 35 34 36 35 37 36 38 37 39 38 40 39 41 100 42
REMARK SMILES IDX 40 43 99 44 41 45 42 46 43 47 93 48 44 49 98 50 92 51 94 52
REMARK SMILES IDX 45 53 97 54 91 55 90 56 46 58 78 59 58 60 77 61 59 62 62 63
REMARK SMILES IDX 76 64 95 65 60 66 61 67 75 69 96 70 63 71 47 72 48 73 56 74
REMARK SMILES IDX 49 75 50 76 54 77 57 78 51 79 52 80 55 81 53 82 79 83 80 84
REMARK SMILES IDX 88 85 81 86 82 87 86 88 89 89 83 90 84 91 87 92 85 93 64 94
REMARK SMILES IDX 65 95 73 96 66 97 67 98 71 99 74 100 68 101 69 102 72 103
REMARK SMILES IDX 70 104
REMARK H PARENT 94 57 62 68
REMARK Flexibility Score: inf
ROOT
ATOM      1  C   UNL A   1      35.529  33.120  28.005  1.00  0.00     0.188 C 
ENDROOT
BRANCH   1   2
ATOM      2  C   UNL A   1      35.006  31.678  27.918  1.00  0.00     0.188 C 
BRANCH   2   3
ATOM      3  O   UNL A   1      33.608  31.578  28.105  1.00  0.00    -0.376 OA
BRANCH   3   4
ATOM      4  C   UNL A   1      32.759  31.243  27.019  1.00  0.00     0.202 C 
BRANCH   4   5
ATOM      5  C   UNL A   1      32.126  29.849  26.831  1.00  0.00     0.261 C 
BRANCH   5   6
ATOM      6  O   UNL A   1      32.800  28.743  27.442  1.00  0.00    -0.460 OA
BRANCH   6   7
ATOM      7  C   UNL A   1      33.904  28.269  26.830  1.00  0.00     0.330 C 
ATOM      8  O   UNL A   1      35.044  28.670  26.999  1.00  0.00    -0.247 OA
BRANCH   7   9
ATOM      9  C   UNL A   1      33.595  27.106  25.962  1.00  0.00     0.094 C 
ATOM     10  C   UNL A   1      32.967  25.988  26.360  1.00  0.00     0.020 C 
BRANCH  10  11
ATOM     11  C   UNL A   1      32.686  24.836  25.474  1.00  0.00     0.024 A 
ATOM     12  C   UNL A   1      31.725  25.002  24.439  1.00  0.00    -0.011 A 
ATOM     13  C   UNL A   1      31.489  23.976  23.511  1.00  0.00     0.055 A 
ATOM     14  C   UNL A   1      32.146  22.756  23.613  1.00  0.00     0.123 A 
ATOM     15  C   UNL A   1      33.317  23.579  25.590  1.00  0.00     0.130 A 
ATOM     16  C   UNL A   1      33.045  22.560  24.657  1.00  0.00     0.093 A 
BRANCH  12  17
ATOM     17  C   UNL A   1      30.857  26.185  24.318  1.00  0.00     0.009 C 
ATOM     18  C   UNL A   1      30.181  26.495  23.203  1.00  0.00     0.009 C 
BRANCH  18  19
ATOM     19  C   UNL A   1      29.488  27.770  23.005  1.00  0.00    -0.025 A 
ATOM     20  C   UNL A   1      28.258  30.200  22.473  1.00  0.00     0.118 A 
ATOM     21  C   UNL A   1      27.507  29.164  23.015  1.00  0.00     0.047 A 
ATOM     22  C   UNL A   1      29.627  30.075  22.264  1.00  0.00     0.047 A 
ATOM     23  C   UNL A   1      28.121  27.941  23.263  1.00  0.00     0.012 A 
ATOM     24  C   UNL A   1      30.239  28.853  22.523  1.00  0.00     0.012 A 
BRANCH  20  25
ATOM     25  O   UNL A   1      27.604  31.326  22.061  1.00  0.00    -0.497 OA
ATOM     26  C   UNL A   1      28.150  31.708  20.794  1.00  0.00     0.278 C 
ENDBRANCH  20  25
ENDBRANCH  18  19
ENDBRANCH  12  17
BRANCH  14  27
ATOM     27  O   UNL A   1      31.826  21.852  22.640  1.00  0.00    -0.497 OA
ATOM     28  C   UNL A   1      32.215  20.504  22.868  1.00  0.00     0.278 C 
ENDBRANCH  14  27
BRANCH  15  29
ATOM     29  O   UNL A   1      34.277  23.207  26.498  1.00  0.00    -0.496 OA
ATOM     30  C   UNL A   1      33.864  22.478  27.646  1.00  0.00     0.278 C 
ENDBRANCH  15  29
ENDBRANCH  10  11
ENDBRANCH   7   9
ENDBRANCH   6   7
ENDBRANCH   5   6
ENDBRANCH   4   5
ENDBRANCH   3   4
ENDBRANCH   2   3
ENDBRANCH   1   2
BRANCH   1  31
ATOM     31  O   UNL A   1      34.543  34.129  27.886  1.00  0.00    -0.377 OA
BRANCH  31  32
ATOM     32  C   UNL A   1      34.339  35.028  28.975  1.00  0.00     0.188 C 
BRANCH  32  33
ATOM     33  C   UNL A   1      33.959  34.559  30.403  1.00  0.00     0.188 C 
BRANCH  33  34
ATOM     34  O   UNL A   1      34.601  35.250  31.461  1.00  0.00    -0.376 OA
BRANCH  34  35
ATOM     35  C   UNL A   1      35.093  34.493  32.553  1.00  0.00     0.202 C 
BRANCH  35  36
ATOM     36  C   UNL A   1      34.492  33.095  32.751  1.00  0.00     0.261 C 
BRANCH  36  37
ATOM     37  O   UNL A   1      35.375  31.989  32.507  1.00  0.00    -0.460 OA
BRANCH  37  38
ATOM     38  C   UNL A   1      36.530  31.946  33.203  1.00  0.00     0.338 C 
ATOM     39  O   UNL A   1      36.684  32.185  34.392  1.00  0.00    -0.246 OA
BRANCH  38  40
ATOM     40  C   UNL A   1      37.568  31.377  32.320  1.00  0.00     0.060 A 
ATOM     41  C   UNL A   1      38.638  30.671  32.888  1.00  0.00     0.016 A 
ATOM     42  C   UNL A   1      37.475  31.518  30.934  1.00  0.00     0.016 A 
ATOM     43  C   UNL A   1      39.632  30.126  32.069  1.00  0.00     0.010 A 
ATOM     44  C   UNL A   1      38.482  30.992  30.118  1.00  0.00     0.010 A 
ATOM     45  C   UNL A   1      39.580  30.317  30.682  1.00  0.00    -0.014 A 
BRANCH  45  46
ATOM     46  C   UNL A   1      40.763  29.994  29.842  1.00  0.00     0.031 A 
ATOM     47  C   UNL A   1      40.843  28.623  29.220  1.00  0.00     0.074 A 
ATOM     48  C   UNL A   1      41.736  30.896  29.608  1.00  0.00     0.049 A 
ATOM     49  N   UNL A   1      41.794  28.081  28.502  1.00  0.00    -0.248 NA
ATOM     50  C   UNL A   1      39.687  27.739  29.447  1.00  0.00     0.031 C 
ATOM     51  C   UNL A   1      41.769  32.271  30.105  1.00  0.00     0.029 A 
ATOM     52  N   UNL A   1      42.895  30.775  28.881  1.00  0.00    -0.354 N 
ATOM     53  C   UNL A   1      41.360  26.794  28.207  1.00  0.00     0.074 A 
ATOM     54  C   UNL A   1      40.073  26.625  28.845  1.00  0.00     0.031 C 
ATOM     55  C   UNL A   1      42.887  32.873  29.653  1.00  0.00     0.029 A 
ATOM     56  C   UNL A   1      43.660  31.917  28.864  1.00  0.00     0.049 A 
ATOM     57  H   UNL A   1      43.154  29.947  28.415  1.00  0.00     0.167 HD
ATOM     58  C   UNL A   1      41.976  25.840  27.468  1.00  0.00     0.037 A 
ATOM     59  C   UNL A   1      44.854  32.145  28.287  1.00  0.00     0.037 A 
ATOM     60  C   UNL A   1      43.259  26.008  26.835  1.00  0.00     0.049 A 
ATOM     61  C   UNL A   1      45.571  31.023  27.585  1.00  0.00     0.074 A 
ATOM     62  C   UNL A   1      43.955  25.113  26.042  1.00  0.00     0.029 A 
ATOM     63  N   UNL A   1      44.045  27.147  26.936  1.00  0.00    -0.354 N 
ATOM     64  N   UNL A   1      45.166  29.807  27.324  1.00  0.00    -0.248 NA
ATOM     65  C   UNL A   1      46.935  31.317  27.120  1.00  0.00     0.031 C 
ATOM     66  C   UNL A   1      45.192  25.681  25.722  1.00  0.00     0.029 A 
ATOM     67  C   UNL A   1      45.236  26.959  26.252  1.00  0.00     0.049 A 
ATOM     68  H   UNL A   1      43.794  27.966  27.420  1.00  0.00     0.167 HD
ATOM     69  C   UNL A   1      46.212  29.199  26.642  1.00  0.00     0.074 A 
ATOM     70  C   UNL A   1      47.267  30.182  26.525  1.00  0.00     0.031 C 
ATOM     71  C   UNL A   1      46.286  27.938  26.150  1.00  0.00     0.037 A 
BRANCH  58  72
ATOM     72  C   UNL A   1      41.291  24.510  27.334  1.00  0.00     0.064 A 
ATOM     73  C   UNL A   1      40.148  24.339  26.538  1.00  0.00     0.173 A 
ATOM     74  C   UNL A   1      41.812  23.378  27.982  1.00  0.00     0.173 A 
ATOM     75  F   UNL A   1      39.601  25.388  25.906  1.00  0.00    -0.203 F 
ATOM     76  C   UNL A   1      39.534  23.094  26.423  1.00  0.00     0.198 A 
ATOM     77  C   UNL A   1      41.216  22.128  27.835  1.00  0.00     0.198 A 
ATOM     78  F   UNL A   1      42.906  23.481  28.749  1.00  0.00    -0.203 F 
ATOM     79  F   UNL A   1      38.412  22.965  25.701  1.00  0.00    -0.200 F 
ATOM     80  C   UNL A   1      40.073  21.989  27.064  1.00  0.00     0.200 A 
ATOM     81  F   UNL A   1      41.749  21.058  28.441  1.00  0.00    -0.200 F 
ATOM     82  F   UNL A   1      39.487  20.789  26.943  1.00  0.00    -0.200 F 
ENDBRANCH  58  72
BRANCH  59  83
ATOM     83  C   UNL A   1      45.508  33.474  28.353  1.00  0.00     0.064 A 
ATOM     84  C   UNL A   1      46.270  33.845  29.468  1.00  0.00     0.173 A 
ATOM     85  C   UNL A   1      45.249  34.447  27.383  1.00  0.00     0.173 A 
ATOM     86  F   UNL A   1      46.466  32.970  30.465  1.00  0.00    -0.203 F 
ATOM     87  C   UNL A   1      46.766  35.141  29.602  1.00  0.00     0.198 A 
ATOM     88  C   UNL A   1      45.747  35.742  27.517  1.00  0.00     0.198 A 
ATOM     89  F   UNL A   1      44.454  34.156  26.344  1.00  0.00    -0.203 F 
ATOM     90  F   UNL A   1      47.447  35.489  30.701  1.00  0.00    -0.200 F 
ATOM     91  C   UNL A   1      46.511  36.086  28.620  1.00  0.00     0.200 A 
ATOM     92  F   UNL A   1      45.458  36.674  26.599  1.00  0.00    -0.200 F 
ATOM     93  F   UNL A   1      46.970  37.338  28.752  1.00  0.00    -0.200 F 
ENDBRANCH  59  83
BRANCH  71  94
ATOM     94  C   UNL A   1      47.531  27.569  25.399  1.00  0.00     0.064 A 
ATOM     95  C   UNL A   1      48.665  27.057  26.047  1.00  0.00     0.173 A 
ATOM     96  C   UNL A   1      47.585  27.724  24.005  1.00  0.00     0.173 A 
ATOM     97  F   UNL A   1      48.674  26.912  27.381  1.00  0.00    -0.203 F 
ATOM     98  C   UNL A   1      49.817  26.742  25.330  1.00  0.00     0.198 A 
ATOM     99  C   UNL A   1      48.726  27.374  23.287  1.00  0.00     0.198 A 
ATOM    100  F   UNL A   1      46.530  28.210  23.337  1.00  0.00    -0.203 F 
ATOM    101  F   UNL A   1      50.909  26.312  25.977  1.00  0.00    -0.200 F 
ATOM    102  C   UNL A   1      49.843  26.893  23.952  1.00  0.00     0.200 A 
ATOM    103  F   UNL A   1      48.744  27.509  21.955  1.00  0.00    -0.200 F 
ATOM    104  F   UNL A   1      50.952  26.586  23.264  1.00  0.00    -0.200 F 
ENDBRANCH  71  94
ENDBRANCH  45  46
ENDBRANCH  38  40
ENDBRANCH  37  38
ENDBRANCH  36  37
ENDBRANCH  35  36
ENDBRANCH  34  35
ENDBRANCH  33  34
ENDBRANCH  32  33
ENDBRANCH  31  32
ENDBRANCH   1  31
TORSDOF 26
ENDMDL
MODEL 2
REMARK VINA RESULT:      -9.9      0.974      2.150
REMARK SMILES COc1ccc(/C=C/c2cc(OC)cc(OC)c2/C=C/C(=O)OCCOCCOCCOCCOC(=O)c2ccc(-c3c4nc(c(-c5c(F)c(F)c(F)c(F)c5F)c5ccc([nH]5)c(-c5c(F)c(F)c(F)c(F)c5F)c5nc(c(-c6c(F)c(F)c(F)c(F)c6F)c6ccc3[nH]6)C=C5)C=C4)cc2)cc1
REMARK SMILES IDX 28 1 27 2 26 3 25 4 24 5 23 6 21 7 22 8 20 9 19 10 18 11
REMARK SMILES IDX 9 12 10 13 11 14 15 15 14 16 8 17 7 18 6 19 3 20 4 21 102 22
REMARK SMILES IDX 5 23 101 24 2 25 1 26 12 27 13 28 16 29 17 30 29 31 30 32
REMARK SMILES IDX 31 33 32 34 33 35 34 36 35 37 36 38 37 39 38 40 39 41 100 42
REMARK SMILES IDX 40 43 99 44 41 45 42 46 43 47 93 48 44 49 98 50 92 51 94 52
REMARK SMILES IDX 45 53 97 54 91 55 90 56 46 58 78 59 58 60 77 61 59 62 62 63
REMARK SMILES IDX 76 64 95 65 60 66 61 67 75 69 96 70 63 71 47 72 48 73 56 74
REMARK SMILES IDX 49 75 50 76 54 77 57 78 51 79 52 80 55 81 53 82 79 83 80 84
REMARK SMILES IDX 88 85 81 86 82 87 86 88 89 89 83 90 84 91 87 92 85 93 64 94
REMARK SMILES IDX 65 95 73 96 66 97 67 98 71 99 74 100 68 101 69 102 72 103
REMARK SMILES IDX 70 104
REMARK H PARENT 94 57 62 68
REMARK Flexibility Score: inf
ROOT
ATOM      1  C   UNL A   1      35.353  33.093  28.007  1.00  0.00     0.188 C 
ENDROOT
BRANCH   1   2
ATOM      2  C   UNL A   1      34.715  31.696  28.031  1.00  0.00     0.188 C 
BRANCH   2   3
ATOM      3  O   UNL A   1      33.306  31.723  27.911  1.00  0.00    -0.376 OA
BRANCH   3   4
ATOM      4  C   UNL A   1      32.661  31.041  26.847  1.00  0.00     0.202 C 
BRANCH   4   5
ATOM      5  C   UNL A   1      32.005  29.654  26.997  1.00  0.00     0.261 C 
BRANCH   5   6
ATOM      6  O   UNL A   1      32.850  28.580  27.427  1.00  0.00    -0.460 OA
BRANCH   6   7
ATOM      7  C   UNL A   1      33.873  28.229  26.621  1.00  0.00     0.330 C 
ATOM      8  O   UNL A   1      34.979  28.746  26.603  1.00  0.00    -0.247 OA
BRANCH   7   9
ATOM      9  C   UNL A   1      33.537  27.049  25.788  1.00  0.00     0.094 C 
ATOM     10  C   UNL A   1      32.736  26.039  26.163  1.00  0.00     0.020 C 
BRANCH  10  11
ATOM     11  C   UNL A   1      32.432  24.865  25.314  1.00  0.00     0.024 A 
ATOM     12  C   UNL A   1      31.360  24.967  24.384  1.00  0.00    -0.011 A 
ATOM     13  C   UNL A   1      31.089  23.921  23.489  1.00  0.00     0.055 A 
ATOM     14  C   UNL A   1      31.823  22.742  23.526  1.00  0.00     0.123 A 
ATOM     15  C   UNL A   1      33.143  23.648  25.367  1.00  0.00     0.130 A 
ATOM     16  C   UNL A   1      32.836  22.607  24.471  1.00  0.00     0.093 A 
BRANCH  12  17
ATOM     17  C   UNL A   1      30.417  26.097  24.351  1.00  0.00     0.009 C 
ATOM     18  C   UNL A   1      30.247  26.886  23.283  1.00  0.00     0.009 C 
BRANCH  18  19
ATOM     19  C   UNL A   1      29.473  28.130  23.310  1.00  0.00    -0.025 A 
ATOM     20  C   UNL A   1      28.132  30.558  23.257  1.00  0.00     0.118 A 
ATOM     21  C   UNL A   1      27.407  29.381  23.121  1.00  0.00     0.047 A 
ATOM     22  C   UNL A   1      29.501  30.547  23.498  1.00  0.00     0.047 A 
ATOM     23  C   UNL A   1      28.084  28.165  23.127  1.00  0.00     0.012 A 
ATOM     24  C   UNL A   1      30.172  29.329  23.515  1.00  0.00     0.012 A 
BRANCH  20  25
ATOM     25  O   UNL A   1      27.482  31.744  23.059  1.00  0.00    -0.497 OA
ATOM     26  C   UNL A   1      28.207  32.478  22.067  1.00  0.00     0.278 C 
ENDBRANCH  20  25
ENDBRANCH  18  19
ENDBRANCH  12  17
BRANCH  14  27
ATOM     27  O   UNL A   1      31.456  21.812  22.594  1.00  0.00    -0.497 OA
ATOM     28  C   UNL A   1      32.201  20.601  22.572  1.00  0.00     0.278 C 
ENDBRANCH  14  27
BRANCH  15  29
ATOM     29  O   UNL A   1      34.213  23.340  26.171  1.00  0.00    -0.496 OA
ATOM     30  C   UNL A   1      33.958  22.642  27.382  1.00  0.00     0.278 C 
ENDBRANCH  15  29
ENDBRANCH  10  11
ENDBRANCH   7   9
ENDBRANCH   6   7
ENDBRANCH   5   6
ENDBRANCH   4   5
ENDBRANCH   3   4
ENDBRANCH   2   3
ENDBRANCH   1   2
BRANCH   1  31
ATOM     31  O   UNL A   1      34.442  34.176  28.048  1.00  0.00    -0.377 OA
BRANCH  31  32
ATOM     32  C   UNL A   1      34.434  35.030  29.191  1.00  0.00     0.188 C 
BRANCH  32  33
ATOM     33  C   UNL A   1      33.970  34.565  30.595  1.00  0.00     0.188 C 
BRANCH  33  34
ATOM     34  O   UNL A   1      34.079  35.534  31.623  1.00  0.00    -0.376 OA
BRANCH  34  35
ATOM     35  C   UNL A   1      34.881  35.226  32.751  1.00  0.00     0.202 C 
BRANCH  35  36
ATOM     36  C   UNL A   1      35.127  33.738  33.037  1.00  0.00     0.261 C 
BRANCH  36  37
ATOM     37  O   UNL A   1      36.397  33.217  32.617  1.00  0.00    -0.460 OA
BRANCH  37  38
ATOM     38  C   UNL A   1      36.447  31.924  32.234  1.00  0.00     0.338 C 
ATOM     39  O   UNL A   1      35.530  31.117  32.242  1.00  0.00    -0.246 OA
BRANCH  38  40
ATOM     40  C   UNL A   1      37.770  31.686  31.622  1.00  0.00     0.060 A 
ATOM     41  C   UNL A   1      37.972  32.019  30.275  1.00  0.00     0.016 A 
ATOM     42  C   UNL A   1      38.816  31.157  32.380  1.00  0.00     0.016 A 
ATOM     43  C   UNL A   1      39.216  31.799  29.678  1.00  0.00     0.010 A 
ATOM     44  C   UNL A   1      40.054  30.917  31.776  1.00  0.00     0.010 A 
ATOM     45  C   UNL A   1      40.254  31.210  30.414  1.00  0.00    -0.014 A 
BRANCH  45  46
ATOM     46  C   UNL A   1      41.471  30.716  29.719  1.00  0.00     0.031 A 
ATOM     47  C   UNL A   1      41.446  29.323  29.143  1.00  0.00     0.074 A 
ATOM     48  C   UNL A   1      42.567  31.484  29.573  1.00  0.00     0.049 A 
ATOM     49  N   UNL A   1      42.394  28.644  28.549  1.00  0.00    -0.248 NA
ATOM     50  C   UNL A   1      40.172  28.594  29.261  1.00  0.00     0.031 C 
ATOM     51  C   UNL A   1      42.718  32.863  30.038  1.00  0.00     0.029 A 
ATOM     52  N   UNL A   1      43.774  31.197  28.983  1.00  0.00    -0.354 N 
ATOM     53  C   UNL A   1      41.837  27.408  28.238  1.00  0.00     0.074 A 
ATOM     54  C   UNL A   1      40.478  27.420  28.733  1.00  0.00     0.031 C 
ATOM     55  C   UNL A   1      43.944  33.308  29.699  1.00  0.00     0.029 A 
ATOM     56  C   UNL A   1      44.672  32.236  29.024  1.00  0.00     0.049 A 
ATOM     57  H   UNL A   1      43.977  30.327  28.569  1.00  0.00     0.167 HD
ATOM     58  C   UNL A   1      42.406  26.360  27.595  1.00  0.00     0.037 A 
ATOM     59  C   UNL A   1      45.941  32.296  28.578  1.00  0.00     0.037 A 
ATOM     60  C   UNL A   1      43.761  26.348  27.106  1.00  0.00     0.049 A 
ATOM     61  C   UNL A   1      46.584  31.071  27.988  1.00  0.00     0.074 A 
ATOM     62  C   UNL A   1      44.421  25.345  26.417  1.00  0.00     0.029 A 
ATOM     63  N   UNL A   1      44.666  27.386  27.266  1.00  0.00    -0.354 N 
ATOM     64  N   UNL A   1      46.061  29.903  27.712  1.00  0.00    -0.248 NA
ATOM     65  C   UNL A   1      48.016  31.180  27.670  1.00  0.00     0.031 C 
ATOM     66  C   UNL A   1      45.746  25.748  26.222  1.00  0.00     0.029 A 
ATOM     67  C   UNL A   1      45.892  27.030  26.723  1.00  0.00     0.049 A 
ATOM     68  H   UNL A   1      44.469  28.247  27.699  1.00  0.00     0.167 HD
ATOM     69  C   UNL A   1      47.091  29.148  27.166  1.00  0.00     0.074 A 
ATOM     70  C   UNL A   1      48.267  29.992  27.143  1.00  0.00     0.031 C 
ATOM     71  C   UNL A   1      47.060  27.871  26.716  1.00  0.00     0.037 A 
BRANCH  58  72
ATOM     72  C   UNL A   1      41.580  25.118  27.418  1.00  0.00     0.064 A 
ATOM     73  C   UNL A   1      41.797  23.964  28.188  1.00  0.00     0.173 A 
ATOM     74  C   UNL A   1      40.526  25.095  26.491  1.00  0.00     0.173 A 
ATOM     75  F   UNL A   1      42.797  23.926  29.081  1.00  0.00    -0.203 F 
ATOM     76  C   UNL A   1      41.012  22.827  28.012  1.00  0.00     0.198 A 
ATOM     77  C   UNL A   1      39.722  23.969  26.343  1.00  0.00     0.198 A 
ATOM     78  F   UNL A   1      40.269  26.172  25.734  1.00  0.00    -0.203 F 
ATOM     79  F   UNL A   1      41.272  21.719  28.720  1.00  0.00    -0.200 F 
ATOM     80  C   UNL A   1      39.971  22.833  27.097  1.00  0.00     0.200 A 
ATOM     81  F   UNL A   1      38.704  23.984  25.470  1.00  0.00    -0.200 F 
ATOM     82  F   UNL A   1      39.210  21.741  26.936  1.00  0.00    -0.200 F 
ENDBRANCH  58  72
BRANCH  59  83
ATOM     83  C   UNL A   1      46.743  33.538  28.684  1.00  0.00     0.064 A 
ATOM     84  C   UNL A   1      46.794  34.452  27.623  1.00  0.00     0.173 A 
ATOM     85  C   UNL A   1      47.592  33.751  29.774  1.00  0.00     0.173 A 
ATOM     86  F   UNL A   1      46.064  34.237  26.519  1.00  0.00    -0.203 F 
ATOM     87  C   UNL A   1      47.658  35.547  27.658  1.00  0.00     0.198 A 
ATOM     88  C   UNL A   1      48.453  34.848  29.808  1.00  0.00     0.198 A 
ATOM     89  F   UNL A   1      47.634  32.855  30.770  1.00  0.00    -0.203 F 
ATOM     90  F   UNL A   1      47.729  36.378  26.610  1.00  0.00    -0.200 F 
ATOM     91  C   UNL A   1      48.480  35.748  28.755  1.00  0.00     0.200 A 
ATOM     92  F   UNL A   1      49.289  35.017  30.841  1.00  0.00    -0.200 F 
ATOM     93  F   UNL A   1      49.323  36.789  28.786  1.00  0.00    -0.200 F 
ENDBRANCH  59  83
BRANCH  71  94
ATOM     94  C   UNL A   1      48.323  27.326  26.117  1.00  0.00     0.064 A 
ATOM     95  C   UNL A   1      48.578  27.386  24.738  1.00  0.00     0.173 A 
ATOM     96  C   UNL A   1      49.299  26.742  26.939  1.00  0.00     0.173 A 
ATOM     97  F   UNL A   1      47.667  27.914  23.906  1.00  0.00    -0.203 F 
ATOM     98  C   UNL A   1      49.748  26.854  24.203  1.00  0.00     0.198 A 
ATOM     99  C   UNL A   1      50.484  26.244  26.405  1.00  0.00     0.198 A 
ATOM    100  F   UNL A   1      49.106  26.658  28.263  1.00  0.00    -0.203 F 
ATOM    101  F   UNL A   1      49.942  26.867  22.877  1.00  0.00    -0.200 F 
ATOM    102  C   UNL A   1      50.702  26.292  25.036  1.00  0.00     0.200 A 
ATOM    103  F   UNL A   1      51.410  25.712  27.214  1.00  0.00    -0.200 F 
ATOM    104  F   UNL A   1      51.829  25.783  24.519  1.00  0.00    -0.200 F 
ENDBRANCH  71  94
ENDBRANCH  45  46
ENDBRANCH  38  40
ENDBRANCH  37  38
ENDBRANCH  36  37
ENDBRANCH  35  36
ENDBRANCH  34  35
ENDBRANCH  33  34
ENDBRANCH  32  33
ENDBRANCH  31  32
ENDBRANCH   1  31
TORSDOF 26
ENDMDL
MODEL 3
REMARK VINA RESULT:      -9.2      3.473      8.710
REMARK SMILES COc1ccc(/C=C/c2cc(OC)cc(OC)c2/C=C/C(=O)OCCOCCOCCOCCOC(=O)c2ccc(-c3c4nc(c(-c5c(F)c(F)c(F)c(F)c5F)c5ccc([nH]5)c(-c5c(F)c(F)c(F)c(F)c5F)c5nc(c(-c6c(F)c(F)c(F)c(F)c6F)c6ccc3[nH]6)C=C5)C=C4)cc2)cc1
REMARK SMILES IDX 28 1 27 2 26 3 25 4 24 5 23 6 21 7 22 8 20 9 19 10 18 11
REMARK SMILES IDX 9 12 10 13 11 14 15 15 14 16 8 17 7 18 6 19 3 20 4 21 102 22
REMARK SMILES IDX 5 23 101 24 2 25 1 26 12 27 13 28 16 29 17 30 29 31 30 32
REMARK SMILES IDX 31 33 32 34 33 35 34 36 35 37 36 38 37 39 38 40 39 41 100 42
REMARK SMILES IDX 40 43 99 44 41 45 42 46 43 47 93 48 44 49 98 50 92 51 94 52
REMARK SMILES IDX 45 53 97 54 91 55 90 56 46 58 78 59 58 60 77 61 59 62 62 63
REMARK SMILES IDX 76 64 95 65 60 66 61 67 75 69 96 70 63 71 47 72 48 73 56 74
REMARK SMILES IDX 49 75 50 76 54 77 57 78 51 79 52 80 55 81 53 82 79 83 80 84
REMARK SMILES IDX 88 85 81 86 82 87 86 88 89 89 83 90 84 91 87 92 85 93 64 94
REMARK SMILES IDX 65 95 73 96 66 97 67 98 71 99 74 100 68 101 69 102 72 103
REMARK SMILES IDX 70 104
REMARK H PARENT 94 57 62 68
REMARK Flexibility Score: inf
ROOT
ATOM      1  C   UNL A   1      35.555  32.884  28.190  1.00  0.00     0.188 C 
ENDROOT
BRANCH   1   2
ATOM      2  C   UNL A   1      34.750  31.615  28.509  1.00  0.00     0.188 C 
BRANCH   2   3
ATOM      3  O   UNL A   1      34.316  30.923  27.354  1.00  0.00    -0.376 OA
BRANCH   3   4
ATOM      4  C   UNL A   1      33.036  30.314  27.317  1.00  0.00     0.202 C 
BRANCH   4   5
ATOM      5  C   UNL A   1      32.819  28.790  27.233  1.00  0.00     0.261 C 
BRANCH   5   6
ATOM      6  O   UNL A   1      33.852  28.022  26.605  1.00  0.00    -0.460 OA
BRANCH   6   7
ATOM      7  C   UNL A   1      33.858  27.967  25.257  1.00  0.00     0.330 C 
ATOM      8  O   UNL A   1      34.162  28.880  24.506  1.00  0.00    -0.247 OA
BRANCH   7   9
ATOM      9  C   UNL A   1      33.530  26.609  24.760  1.00  0.00     0.094 C 
ATOM     10  C   UNL A   1      33.287  25.539  25.534  1.00  0.00     0.020 C 
BRANCH  10  11
ATOM     11  C   UNL A   1      32.978  24.190  25.007  1.00  0.00     0.024 A 
ATOM     12  C   UNL A   1      34.005  23.206  25.034  1.00  0.00    -0.011 A 
ATOM     13  C   UNL A   1      33.741  21.887  24.637  1.00  0.00     0.055 A 
ATOM     14  C   UNL A   1      32.490  21.523  24.156  1.00  0.00     0.123 A 
ATOM     15  C   UNL A   1      31.724  23.817  24.480  1.00  0.00     0.130 A 
ATOM     16  C   UNL A   1      31.494  22.490  24.069  1.00  0.00     0.093 A 
BRANCH  12  17
ATOM     17  C   UNL A   1      35.407  23.503  25.376  1.00  0.00     0.009 C 
ATOM     18  C   UNL A   1      36.380  22.583  25.364  1.00  0.00     0.009 C 
BRANCH  18  19
ATOM     19  C   UNL A   1      37.723  22.819  25.900  1.00  0.00    -0.025 A 
ATOM     20  C   UNL A   1      40.190  23.340  27.058  1.00  0.00     0.118 A 
ATOM     21  C   UNL A   1      39.975  22.112  26.445  1.00  0.00     0.047 A 
ATOM     22  C   UNL A   1      39.227  24.343  27.037  1.00  0.00     0.047 A 
ATOM     23  C   UNL A   1      38.731  21.845  25.882  1.00  0.00     0.012 A 
ATOM     24  C   UNL A   1      37.988  24.076  26.464  1.00  0.00     0.012 A 
BRANCH  20  25
ATOM     25  O   UNL A   1      41.344  23.515  27.768  1.00  0.00    -0.497 OA
ATOM     26  C   UNL A   1      41.965  22.233  27.913  1.00  0.00     0.278 C 
ENDBRANCH  20  25
ENDBRANCH  18  19
ENDBRANCH  12  17
BRANCH  14  27
ATOM     27  O   UNL A   1      32.371  20.205  23.812  1.00  0.00    -0.497 OA
ATOM     28  C   UNL A   1      32.651  19.252  24.829  1.00  0.00     0.278 C 
ENDBRANCH  14  27
BRANCH  15  29
ATOM     29  O   UNL A   1      30.598  24.596  24.373  1.00  0.00    -0.496 OA
ATOM     30  C   UNL A   1      30.508  25.492  23.274  1.00  0.00     0.278 C 
ENDBRANCH  15  29
ENDBRANCH  10  11
ENDBRANCH   7   9
ENDBRANCH   6   7
ENDBRANCH   5   6
ENDBRANCH   4   5
ENDBRANCH   3   4
ENDBRANCH   2   3
ENDBRANCH   1   2
BRANCH   1  31
ATOM     31  O   UNL A   1      34.829  33.917  27.551  1.00  0.00    -0.377 OA
BRANCH  31  32
ATOM     32  C   UNL A   1      34.338  35.003  28.335  1.00  0.00     0.188 C 
BRANCH  32  33
ATOM     33  C   UNL A   1      32.986  34.961  29.093  1.00  0.00     0.188 C 
BRANCH  33  34
ATOM     34  O   UNL A   1      32.516  36.211  29.568  1.00  0.00    -0.376 OA
BRANCH  34  35
ATOM     35  C   UNL A   1      32.970  36.658  30.834  1.00  0.00     0.202 C 
BRANCH  35  36
ATOM     36  C   UNL A   1      33.059  35.605  31.947  1.00  0.00     0.261 C 
BRANCH  36  37
ATOM     37  O   UNL A   1      34.383  35.192  32.320  1.00  0.00    -0.460 OA
BRANCH  37  38
ATOM     38  C   UNL A   1      34.559  33.902  32.675  1.00  0.00     0.338 C 
ATOM     39  O   UNL A   1      33.708  33.128  33.087  1.00  0.00    -0.246 OA
BRANCH  38  40
ATOM     40  C   UNL A   1      35.937  33.518  32.308  1.00  0.00     0.060 A 
ATOM     41  C   UNL A   1      36.565  32.476  33.004  1.00  0.00     0.016 A 
ATOM     42  C   UNL A   1      36.600  34.167  31.265  1.00  0.00     0.016 A 
ATOM     43  C   UNL A   1      37.870  32.098  32.673  1.00  0.00     0.010 A 
ATOM     44  C   UNL A   1      37.913  33.803  30.949  1.00  0.00     0.010 A 
ATOM     45  C   UNL A   1      38.567  32.786  31.670  1.00  0.00    -0.014 A 
BRANCH  45  46
ATOM     46  C   UNL A   1      40.030  32.585  31.509  1.00  0.00     0.031 A 
ATOM     47  C   UNL A   1      40.961  33.474  32.293  1.00  0.00     0.074 A 
ATOM     48  C   UNL A   1      40.532  31.624  30.711  1.00  0.00     0.049 A 
ATOM     49  N   UNL A   1      42.268  33.539  32.281  1.00  0.00    -0.248 NA
ATOM     50  C   UNL A   1      40.324  34.428  33.217  1.00  0.00     0.031 C 
ATOM     51  C   UNL A   1      39.754  30.663  29.929  1.00  0.00     0.029 A 
ATOM     52  N   UNL A   1      41.838  31.304  30.429  1.00  0.00    -0.354 N 
ATOM     53  C   UNL A   1      42.607  34.546  33.177  1.00  0.00     0.074 A 
ATOM     54  C   UNL A   1      41.369  35.084  33.697  1.00  0.00     0.031 C 
ATOM     55  C   UNL A   1      40.600  29.849  29.268  1.00  0.00     0.029 A 
ATOM     56  C   UNL A   1      41.974  30.251  29.556  1.00  0.00     0.049 A 
ATOM     57  H   UNL A   1      42.605  31.783  30.817  1.00  0.00     0.167 HD
ATOM     58  C   UNL A   1      43.839  34.980  33.539  1.00  0.00     0.037 A 
ATOM     59  C   UNL A   1      43.088  29.697  29.041  1.00  0.00     0.037 A 
ATOM     60  C   UNL A   1      45.071  34.446  33.019  1.00  0.00     0.049 A 
ATOM     61  C   UNL A   1      44.433  30.290  29.362  1.00  0.00     0.074 A 
ATOM     62  C   UNL A   1      46.370  34.799  33.343  1.00  0.00     0.029 A 
ATOM     63  N   UNL A   1      45.155  33.452  32.055  1.00  0.00    -0.354 N 
ATOM     64  N   UNL A   1      44.747  31.250  30.194  1.00  0.00    -0.248 NA
ATOM     65  C   UNL A   1      45.581  29.721  28.638  1.00  0.00     0.031 C 
ATOM     66  C   UNL A   1      47.238  34.069  32.525  1.00  0.00     0.029 A 
ATOM     67  C   UNL A   1      46.485  33.209  31.745  1.00  0.00     0.049 A 
ATOM     68  H   UNL A   1      44.387  32.989  31.652  1.00  0.00     0.167 HD
ATOM     69  C   UNL A   1      46.127  31.383  30.114  1.00  0.00     0.074 A 
ATOM     70  C   UNL A   1      46.591  30.402  29.156  1.00  0.00     0.031 C 
ATOM     71  C   UNL A   1      46.937  32.239  30.782  1.00  0.00     0.037 A 
BRANCH  58  72
ATOM     72  C   UNL A   1      43.918  36.119  34.515  1.00  0.00     0.064 A 
ATOM     73  C   UNL A   1      43.901  37.460  34.098  1.00  0.00     0.173 A 
ATOM     74  C   UNL A   1      43.972  35.866  35.895  1.00  0.00     0.173 A 
ATOM     75  F   UNL A   1      43.861  37.760  32.791  1.00  0.00    -0.203 F 
ATOM     76  C   UNL A   1      43.967  38.499  35.022  1.00  0.00     0.198 A 
ATOM     77  C   UNL A   1      44.002  36.908  36.817  1.00  0.00     0.198 A 
ATOM     78  F   UNL A   1      43.984  34.605  36.351  1.00  0.00    -0.203 F 
ATOM     79  F   UNL A   1      44.003  39.770  34.598  1.00  0.00    -0.200 F 
ATOM     80  C   UNL A   1      44.009  38.223  36.380  1.00  0.00     0.200 A 
ATOM     81  F   UNL A   1      44.025  36.638  38.130  1.00  0.00    -0.200 F 
ATOM     82  F   UNL A   1      44.063  39.225  37.269  1.00  0.00    -0.200 F 
ENDBRANCH  58  72
BRANCH  59  83
ATOM     83  C   UNL A   1      43.025  28.528  28.131  1.00  0.00     0.064 A 
ATOM     84  C   UNL A   1      43.417  27.257  28.570  1.00  0.00     0.173 A 
ATOM     85  C   UNL A   1      42.729  28.692  26.775  1.00  0.00     0.173 A 
ATOM     86  F   UNL A   1      43.797  27.075  29.842  1.00  0.00    -0.203 F 
ATOM     87  C   UNL A   1      43.498  26.184  27.682  1.00  0.00     0.198 A 
ATOM     88  C   UNL A   1      42.809  27.618  25.890  1.00  0.00     0.198 A 
ATOM     89  F   UNL A   1      42.432  29.910  26.301  1.00  0.00    -0.203 F 
ATOM     90  F   UNL A   1      43.926  24.989  28.111  1.00  0.00    -0.200 F 
ATOM     91  C   UNL A   1      43.185  26.364  26.344  1.00  0.00     0.200 A 
ATOM     92  F   UNL A   1      42.560  27.799  24.586  1.00  0.00    -0.200 F 
ATOM     93  F   UNL A   1      43.278  25.341  25.484  1.00  0.00    -0.200 F 
ENDBRANCH  59  83
BRANCH  71  94
ATOM     94  C   UNL A   1      48.412  32.118  30.535  1.00  0.00     0.064 A 
ATOM     95  C   UNL A   1      49.219  31.242  31.276  1.00  0.00     0.173 A 
ATOM     96  C   UNL A   1      49.025  32.887  29.533  1.00  0.00     0.173 A 
ATOM     97  F   UNL A   1      48.687  30.502  32.261  1.00  0.00    -0.203 F 
ATOM     98  C   UNL A   1      50.590  31.163  31.044  1.00  0.00     0.198 A 
ATOM     99  C   UNL A   1      50.389  32.779  29.279  1.00  0.00     0.198 A 
ATOM    100  F   UNL A   1      48.300  33.740  28.797  1.00  0.00    -0.203 F 
ATOM    101  F   UNL A   1      51.352  30.365  31.805  1.00  0.00    -0.200 F 
ATOM    102  C   UNL A   1      51.172  31.924  30.041  1.00  0.00     0.200 A 
ATOM    103  F   UNL A   1      50.947  33.506  28.302  1.00  0.00    -0.200 F 
ATOM    104  F   UNL A   1      52.491  31.844  29.817  1.00  0.00    -0.200 F 
ENDBRANCH  71  94
ENDBRANCH  45  46
ENDBRANCH  38  40
ENDBRANCH  37  38
ENDBRANCH  36  37
ENDBRANCH  35  36
ENDBRANCH  34  35
ENDBRANCH  33  34
ENDBRANCH  32  33
ENDBRANCH  31  32
ENDBRANCH   1  31
TORSDOF 26
ENDMDL
