MODEL 1
REMARK VINA RESULT:      -9.6      0.000      0.000
REMARK SMILES O=C(Cc1ccc(S(=O)(=O)CC[NH+]2CCCC2)cc1)OCCOCCOCCOCCOC(=O)c1ccc(-c2c3nc(c(-c4c(F)c(F)c(F)c(F)c4F)c4ccc([nH]4)c(-c4c(F)c(F)c(F)c(F)c4F)c4nc(c(-c5c(F)c(F)c(F)c(F)c5F)c5ccc2[nH]5)C=C4)C=C3)cc1
REMARK SMILES IDX 24 1 23 2 22 3 21 4 20 5 2 6 1 7 3 8 4 9 5 10 19 11 6 12
REMARK SMILES IDX 18 13 7 14 8 15 9 16 10 17 11 18 12 19 13 20 14 21 17 22
REMARK SMILES IDX 15 24 16 25 25 26 26 27 27 28 28 29 29 30 30 31 31 32 32 33
REMARK SMILES IDX 33 34 34 35 35 36 36 37 97 38 37 39 96 40 38 41 39 42 40 43
REMARK SMILES IDX 90 44 41 45 95 46 89 47 91 48 42 49 94 50 88 51 87 52 43 54
REMARK SMILES IDX 75 55 55 56 74 57 56 58 59 59 73 60 92 61 57 62 58 63 72 65
REMARK SMILES IDX 93 66 60 67 44 68 45 69 53 70 46 71 47 72 51 73 54 74 48 75
REMARK SMILES IDX 49 76 52 77 50 78 76 79 77 80 85 81 78 82 79 83 83 84 86 85
REMARK SMILES IDX 80 86 81 87 84 88 82 89 61 90 62 91 70 92 63 93 64 94 68 95
REMARK SMILES IDX 71 96 65 97 66 98 69 99 67 100
REMARK H PARENT 13 23 91 53 59 64
REMARK Flexibility Score: inf
ROOT
ATOM      1  C   UNL A   1      32.704  29.668  27.224  1.00  0.00     0.188 C 
ENDROOT
BRANCH   1   2
ATOM      2  O   UNL A   1      33.030  28.305  26.987  1.00  0.00    -0.376 OA
BRANCH   2   3
ATOM      3  C   UNL A   1      32.413  27.436  26.064  1.00  0.00     0.202 C 
BRANCH   3   4
ATOM      4  C   UNL A   1      32.948  27.240  24.647  1.00  0.00     0.261 C 
BRANCH   4   5
ATOM      5  O   UNL A   1      32.434  26.136  23.894  1.00  0.00    -0.463 OA
BRANCH   5   6
ATOM      6  C   UNL A   1      31.251  26.014  23.260  1.00  0.00     0.310 C 
ATOM      7  O   UNL A   1      30.757  27.022  22.754  1.00  0.00    -0.252 OA
BRANCH   6   8
ATOM      8  C   UNL A   1      30.455  24.730  23.297  1.00  0.00     0.158 C 
BRANCH   8   9
ATOM      9  C   UNL A   1      31.154  23.521  23.832  1.00  0.00    -0.037 A 
ATOM     10  C   UNL A   1      31.131  23.211  25.195  1.00  0.00     0.005 A 
ATOM     11  C   UNL A   1      31.766  22.643  22.938  1.00  0.00     0.005 A 
ATOM     12  C   UNL A   1      31.720  22.031  25.653  1.00  0.00     0.020 A 
ATOM     13  C   UNL A   1      32.201  21.406  23.382  1.00  0.00     0.020 A 
ATOM     14  C   UNL A   1      32.260  21.125  24.736  1.00  0.00     0.067 A 
BRANCH  14  15
ATOM     15  S   UNL A   1      32.993  19.615  25.311  1.00  0.00     0.183 S 
ATOM     16  O   UNL A   1      33.196  19.798  26.741  1.00  0.00    -0.223 OA
ATOM     17  O   UNL A   1      32.147  18.537  24.834  1.00  0.00    -0.223 OA
BRANCH  15  18
ATOM     18  C   UNL A   1      34.617  19.427  24.624  1.00  0.00     0.203 C 
BRANCH  18  19
ATOM     19  C   UNL A   1      35.662  20.479  25.001  1.00  0.00     0.279 C 
BRANCH  19  20
ATOM     20  N   UNL A   1      35.189  21.861  25.039  1.00  0.00    -0.334 N 
ATOM     21  C   UNL A   1      35.546  22.686  23.883  1.00  0.00     0.262 C 
ATOM     22  C   UNL A   1      35.369  22.624  26.266  1.00  0.00     0.262 C 
ATOM     23  H   UNL A   1      34.190  21.656  25.000  1.00  0.00     0.348 HD
ATOM     24  C   UNL A   1      35.882  24.055  24.456  1.00  0.00     0.067 C 
ATOM     25  C   UNL A   1      35.195  24.060  25.807  1.00  0.00     0.067 C 
ENDBRANCH  19  20
ENDBRANCH  18  19
ENDBRANCH  15  18
ENDBRANCH  14  15
ENDBRANCH   8   9
ENDBRANCH   6   8
ENDBRANCH   5   6
ENDBRANCH   4   5
ENDBRANCH   3   4
ENDBRANCH   2   3
ENDBRANCH   1   2
BRANCH   1  26
ATOM     26  C   UNL A   1      33.693  30.837  27.127  1.00  0.00     0.188 C 
BRANCH  26  27
ATOM     27  O   UNL A   1      33.585  31.846  28.115  1.00  0.00    -0.377 OA
BRANCH  27  28
ATOM     28  C   UNL A   1      33.090  33.074  27.629  1.00  0.00     0.188 C 
BRANCH  28  29
ATOM     29  C   UNL A   1      33.809  34.302  28.214  1.00  0.00     0.188 C 
BRANCH  29  30
ATOM     30  O   UNL A   1      34.590  34.182  29.387  1.00  0.00    -0.376 OA
BRANCH  30  31
ATOM     31  C   UNL A   1      34.086  34.534  30.668  1.00  0.00     0.202 C 
BRANCH  31  32
ATOM     32  C   UNL A   1      34.927  34.663  31.954  1.00  0.00     0.261 C 
BRANCH  32  33
ATOM     33  O   UNL A   1      36.219  34.058  31.980  1.00  0.00    -0.460 OA
BRANCH  33  34
ATOM     34  C   UNL A   1      36.298  32.832  32.541  1.00  0.00     0.338 C 
ATOM     35  O   UNL A   1      35.527  32.326  33.336  1.00  0.00    -0.246 OA
BRANCH  34  36
ATOM     36  C   UNL A   1      37.381  32.103  31.849  1.00  0.00     0.060 A 
ATOM     37  C   UNL A   1      38.225  31.277  32.607  1.00  0.00     0.016 A 
ATOM     38  C   UNL A   1      37.516  32.170  30.460  1.00  0.00     0.016 A 
ATOM     39  C   UNL A   1      39.207  30.514  31.980  1.00  0.00     0.010 A 
ATOM     40  C   UNL A   1      38.530  31.441  29.837  1.00  0.00     0.010 A 
ATOM     41  C   UNL A   1      39.391  30.628  30.597  1.00  0.00    -0.014 A 
BRANCH  41  42
ATOM     42  C   UNL A   1      40.613  30.080  29.971  1.00  0.00     0.031 A 
ATOM     43  C   UNL A   1      41.744  31.031  29.705  1.00  0.00     0.074 A 
ATOM     44  C   UNL A   1      40.709  28.785  29.625  1.00  0.00     0.049 A 
ATOM     45  N   UNL A   1      42.857  30.838  29.048  1.00  0.00    -0.248 NA
ATOM     46  C   UNL A   1      41.594  32.391  30.250  1.00  0.00     0.031 C 
ATOM     47  C   UNL A   1      39.697  27.763  29.881  1.00  0.00     0.029 A 
ATOM     48  N   UNL A   1      41.704  28.117  28.954  1.00  0.00    -0.354 N 
ATOM     49  C   UNL A   1      43.524  32.055  29.079  1.00  0.00     0.074 A 
ATOM     50  C   UNL A   1      42.694  32.983  29.814  1.00  0.00     0.031 C 
ATOM     51  C   UNL A   1      40.107  26.601  29.338  1.00  0.00     0.029 A 
ATOM     52  C   UNL A   1      41.385  26.813  28.660  1.00  0.00     0.049 A 
ATOM     53  H   UNL A   1      42.562  28.532  28.707  1.00  0.00     0.167 HD
ATOM     54  C   UNL A   1      44.721  32.367  28.535  1.00  0.00     0.037 A 
ATOM     55  C   UNL A   1      42.033  25.916  27.890  1.00  0.00     0.037 A 
ATOM     56  C   UNL A   1      45.542  31.435  27.812  1.00  0.00     0.049 A 
ATOM     57  C   UNL A   1      43.331  26.316  27.228  1.00  0.00     0.074 A 
ATOM     58  C   UNL A   1      46.796  31.637  27.265  1.00  0.00     0.029 A 
ATOM     59  N   UNL A   1      45.180  30.129  27.519  1.00  0.00    -0.354 N 
ATOM     60  N   UNL A   1      43.983  27.452  27.299  1.00  0.00    -0.248 NA
ATOM     61  C   UNL A   1      43.978  25.313  26.369  1.00  0.00     0.031 C 
ATOM     62  C   UNL A   1      47.162  30.477  26.580  1.00  0.00     0.029 A 
ATOM     63  C   UNL A   1      46.167  29.528  26.758  1.00  0.00     0.049 A 
ATOM     64  H   UNL A   1      44.345  29.694  27.810  1.00  0.00     0.167 HD
ATOM     65  C   UNL A   1      45.124  27.291  26.521  1.00  0.00     0.074 A 
ATOM     66  C   UNL A   1      45.086  25.941  26.000  1.00  0.00     0.031 C 
ATOM     67  C   UNL A   1      46.115  28.178  26.257  1.00  0.00     0.037 A 
BRANCH  54  68
ATOM     68  C   UNL A   1      45.200  33.782  28.656  1.00  0.00     0.064 A 
ATOM     69  C   UNL A   1      44.911  34.751  27.685  1.00  0.00     0.173 A 
ATOM     70  C   UNL A   1      45.911  34.186  29.797  1.00  0.00     0.173 A 
ATOM     71  F   UNL A   1      44.249  34.411  26.567  1.00  0.00    -0.203 F 
ATOM     72  C   UNL A   1      45.326  36.070  27.846  1.00  0.00     0.198 A 
ATOM     73  C   UNL A   1      46.299  35.511  29.969  1.00  0.00     0.198 A 
ATOM     74  F   UNL A   1      46.214  33.296  30.755  1.00  0.00    -0.203 F 
ATOM     75  F   UNL A   1      45.069  36.973  26.889  1.00  0.00    -0.200 F 
ATOM     76  C   UNL A   1      46.009  36.451  28.992  1.00  0.00     0.200 A 
ATOM     77  F   UNL A   1      46.947  35.878  31.083  1.00  0.00    -0.200 F 
ATOM     78  F   UNL A   1      46.392  37.724  29.154  1.00  0.00    -0.200 F 
ENDBRANCH  54  68
BRANCH  55  79
ATOM     79  C   UNL A   1      41.447  24.570  27.646  1.00  0.00     0.064 A 
ATOM     80  C   UNL A   1      42.024  23.415  28.193  1.00  0.00     0.173 A 
ATOM     81  C   UNL A   1      40.329  24.404  26.814  1.00  0.00     0.173 A 
ATOM     82  F   UNL A   1      43.112  23.515  28.971  1.00  0.00    -0.203 F 
ATOM     83  C   UNL A   1      41.525  22.148  27.894  1.00  0.00     0.198 A 
ATOM     84  C   UNL A   1      39.809  23.140  26.544  1.00  0.00     0.198 A 
ATOM     85  F   UNL A   1      39.740  25.474  26.257  1.00  0.00    -0.203 F 
ATOM     86  F   UNL A   1      42.137  21.059  28.377  1.00  0.00    -0.200 F 
ATOM     87  C   UNL A   1      40.415  22.012  27.073  1.00  0.00     0.200 A 
ATOM     88  F   UNL A   1      38.730  23.015  25.759  1.00  0.00    -0.200 F 
ATOM     89  F   UNL A   1      39.940  20.793  26.781  1.00  0.00    -0.200 F 
ENDBRANCH  55  79
BRANCH  67  90
ATOM     90  C   UNL A   1      47.254  27.718  25.394  1.00  0.00     0.064 A 
ATOM     91  C   UNL A   1      48.351  27.028  25.928  1.00  0.00     0.173 A 
ATOM     92  C   UNL A   1      47.208  27.905  24.002  1.00  0.00     0.173 A 
ATOM     93  F   UNL A   1      48.448  26.837  27.253  1.00  0.00    -0.203 F 
ATOM     94  C   UNL A   1      49.370  26.556  25.104  1.00  0.00     0.198 A 
ATOM     95  C   UNL A   1      48.211  27.401  23.178  1.00  0.00     0.198 A 
ATOM     96  F   UNL A   1      46.175  28.549  23.440  1.00  0.00    -0.203 F 
ATOM     97  F   UNL A   1      50.427  25.933  25.640  1.00  0.00    -0.200 F 
ATOM     98  C   UNL A   1      49.293  26.733  23.730  1.00  0.00     0.200 A 
ATOM     99  F   UNL A   1      48.124  27.556  21.850  1.00  0.00    -0.200 F 
ATOM    100  F   UNL A   1      50.264  26.261  22.937  1.00  0.00    -0.200 F 
ENDBRANCH  67  90
ENDBRANCH  41  42
ENDBRANCH  34  36
ENDBRANCH  33  34
ENDBRANCH  32  33
ENDBRANCH  31  32
ENDBRANCH  30  31
ENDBRANCH  29  30
ENDBRANCH  28  29
ENDBRANCH  27  28
ENDBRANCH  26  27
ENDBRANCH   1  26
TORSDOF 25
ENDMDL
MODEL 2
REMARK VINA RESULT:      -9.3      2.497      8.184
REMARK SMILES O=C(Cc1ccc(S(=O)(=O)CC[NH+]2CCCC2)cc1)OCCOCCOCCOCCOC(=O)c1ccc(-c2c3nc(c(-c4c(F)c(F)c(F)c(F)c4F)c4ccc([nH]4)c(-c4c(F)c(F)c(F)c(F)c4F)c4nc(c(-c5c(F)c(F)c(F)c(F)c5F)c5ccc2[nH]5)C=C4)C=C3)cc1
REMARK SMILES IDX 24 1 23 2 22 3 21 4 20 5 2 6 1 7 3 8 4 9 5 10 19 11 6 12
REMARK SMILES IDX 18 13 7 14 8 15 9 16 10 17 11 18 12 19 13 20 14 21 17 22
REMARK SMILES IDX 15 24 16 25 25 26 26 27 27 28 28 29 29 30 30 31 31 32 32 33
REMARK SMILES IDX 33 34 34 35 35 36 36 37 97 38 37 39 96 40 38 41 39 42 40 43
REMARK SMILES IDX 90 44 41 45 95 46 89 47 91 48 42 49 94 50 88 51 87 52 43 54
REMARK SMILES IDX 75 55 55 56 74 57 56 58 59 59 73 60 92 61 57 62 58 63 72 65
REMARK SMILES IDX 93 66 60 67 44 68 45 69 53 70 46 71 47 72 51 73 54 74 48 75
REMARK SMILES IDX 49 76 52 77 50 78 76 79 77 80 85 81 78 82 79 83 83 84 86 85
REMARK SMILES IDX 80 86 81 87 84 88 82 89 61 90 62 91 70 92 63 93 64 94 68 95
REMARK SMILES IDX 71 96 65 97 66 98 69 99 67 100
REMARK H PARENT 13 23 91 53 59 64
REMARK Flexibility Score: inf
ROOT
ATOM      1  C   UNL A   1      33.756  28.924  26.857  1.00  0.00     0.188 C 
ENDROOT
BRANCH   1   2
ATOM      2  O   UNL A   1      34.337  27.695  26.441  1.00  0.00    -0.376 OA
BRANCH   2   3
ATOM      3  C   UNL A   1      33.667  26.592  25.874  1.00  0.00     0.202 C 
BRANCH   3   4
ATOM      4  C   UNL A   1      34.358  25.250  25.639  1.00  0.00     0.261 C 
BRANCH   4   5
ATOM      5  O   UNL A   1      33.618  24.064  25.948  1.00  0.00    -0.463 OA
BRANCH   5   6
ATOM      6  C   UNL A   1      33.124  23.127  25.115  1.00  0.00     0.310 C 
ATOM      7  O   UNL A   1      33.856  22.190  24.795  1.00  0.00    -0.252 OA
BRANCH   6   8
ATOM      8  C   UNL A   1      31.776  23.283  24.450  1.00  0.00     0.158 C 
BRANCH   8   9
ATOM      9  C   UNL A   1      31.365  24.672  24.081  1.00  0.00    -0.037 A 
ATOM     10  C   UNL A   1      31.863  25.298  22.934  1.00  0.00     0.005 A 
ATOM     11  C   UNL A   1      30.401  25.319  24.853  1.00  0.00     0.005 A 
ATOM     12  C   UNL A   1      31.395  26.563  22.571  1.00  0.00     0.020 A 
ATOM     13  C   UNL A   1      29.831  26.494  24.395  1.00  0.00     0.020 A 
ATOM     14  C   UNL A   1      30.373  27.163  23.311  1.00  0.00     0.067 A 
BRANCH  14  15
ATOM     15  S   UNL A   1      29.762  28.761  22.841  1.00  0.00     0.183 S 
ATOM     16  O   UNL A   1      30.130  29.656  23.928  1.00  0.00    -0.223 OA
ATOM     17  O   UNL A   1      30.253  29.014  21.500  1.00  0.00    -0.223 OA
BRANCH  15  18
ATOM     18  C   UNL A   1      27.989  28.751  22.818  1.00  0.00     0.203 C 
BRANCH  18  19
ATOM     19  C   UNL A   1      27.273  29.885  23.554  1.00  0.00     0.279 C 
BRANCH  19  20
ATOM     20  N   UNL A   1      27.468  31.224  23.002  1.00  0.00    -0.334 N 
ATOM     21  C   UNL A   1      27.632  31.294  21.549  1.00  0.00     0.262 C 
ATOM     22  C   UNL A   1      28.424  32.111  23.651  1.00  0.00     0.262 C 
ATOM     23  H   UNL A   1      26.551  31.600  23.248  1.00  0.00     0.348 HD
ATOM     24  C   UNL A   1      28.699  32.352  21.316  1.00  0.00     0.067 C 
ATOM     25  C   UNL A   1      28.685  33.167  22.593  1.00  0.00     0.067 C 
ENDBRANCH  19  20
ENDBRANCH  18  19
ENDBRANCH  15  18
ENDBRANCH  14  15
ENDBRANCH   8   9
ENDBRANCH   6   8
ENDBRANCH   5   6
ENDBRANCH   4   5
ENDBRANCH   3   4
ENDBRANCH   2   3
ENDBRANCH   1   2
BRANCH   1  26
ATOM     26  C   UNL A   1      34.446  29.963  27.751  1.00  0.00     0.188 C 
BRANCH  26  27
ATOM     27  O   UNL A   1      33.764  31.189  27.946  1.00  0.00    -0.377 OA
BRANCH  27  28
ATOM     28  C   UNL A   1      34.602  32.258  28.325  1.00  0.00     0.188 C 
BRANCH  28  29
ATOM     29  C   UNL A   1      34.952  32.264  29.822  1.00  0.00     0.188 C 
BRANCH  29  30
ATOM     30  O   UNL A   1      34.352  33.203  30.694  1.00  0.00    -0.376 OA
BRANCH  30  31
ATOM     31  C   UNL A   1      34.246  32.975  32.091  1.00  0.00     0.202 C 
BRANCH  31  32
ATOM     32  C   UNL A   1      35.431  32.818  33.064  1.00  0.00     0.261 C 
BRANCH  32  33
ATOM     33  O   UNL A   1      36.059  31.540  33.163  1.00  0.00    -0.460 OA
BRANCH  33  34
ATOM     34  C   UNL A   1      37.278  31.511  33.744  1.00  0.00     0.338 C 
ATOM     35  O   UNL A   1      37.544  31.657  34.924  1.00  0.00    -0.246 OA
BRANCH  34  36
ATOM     36  C   UNL A   1      38.238  31.044  32.723  1.00  0.00     0.060 A 
ATOM     37  C   UNL A   1      39.439  30.457  33.150  1.00  0.00     0.016 A 
ATOM     38  C   UNL A   1      37.927  31.113  31.362  1.00  0.00     0.016 A 
ATOM     39  C   UNL A   1      40.333  29.934  32.219  1.00  0.00     0.010 A 
ATOM     40  C   UNL A   1      38.845  30.632  30.428  1.00  0.00     0.010 A 
ATOM     41  C   UNL A   1      40.059  30.061  30.852  1.00  0.00    -0.014 A 
BRANCH  41  42
ATOM     42  C   UNL A   1      41.127  29.804  29.862  1.00  0.00     0.031 A 
ATOM     43  C   UNL A   1      41.170  28.446  29.223  1.00  0.00     0.074 A 
ATOM     44  C   UNL A   1      42.045  30.736  29.556  1.00  0.00     0.049 A 
ATOM     45  N   UNL A   1      42.073  27.923  28.438  1.00  0.00    -0.248 NA
ATOM     46  C   UNL A   1      40.037  27.551  29.520  1.00  0.00     0.031 C 
ATOM     47  C   UNL A   1      42.070  32.102  30.073  1.00  0.00     0.029 A 
ATOM     48  N   UNL A   1      43.155  30.658  28.751  1.00  0.00    -0.354 N 
ATOM     49  C   UNL A   1      41.634  26.635  28.169  1.00  0.00     0.074 A 
ATOM     50  C   UNL A   1      40.386  26.449  28.875  1.00  0.00     0.031 C 
ATOM     51  C   UNL A   1      43.167  32.724  29.602  1.00  0.00     0.029 A 
ATOM     52  C   UNL A   1      43.939  31.786  28.789  1.00  0.00     0.049 A 
ATOM     53  H   UNL A   1      43.368  29.870  28.200  1.00  0.00     0.167 HD
ATOM     54  C   UNL A   1      42.226  25.692  27.403  1.00  0.00     0.037 A 
ATOM     55  C   UNL A   1      45.161  32.008  28.265  1.00  0.00     0.037 A 
ATOM     56  C   UNL A   1      43.463  25.889  26.700  1.00  0.00     0.049 A 
ATOM     57  C   UNL A   1      45.837  30.908  27.480  1.00  0.00     0.074 A 
ATOM     58  C   UNL A   1      44.122  25.014  25.856  1.00  0.00     0.029 A 
ATOM     59  N   UNL A   1      44.238  27.036  26.775  1.00  0.00    -0.354 N 
ATOM     60  N   UNL A   1      45.396  29.707  27.187  1.00  0.00    -0.248 NA
ATOM     61  C   UNL A   1      47.184  31.189  26.962  1.00  0.00     0.031 C 
ATOM     62  C   UNL A   1      45.330  25.603  25.477  1.00  0.00     0.029 A 
ATOM     63  C   UNL A   1      45.393  26.873  26.029  1.00  0.00     0.049 A 
ATOM     64  H   UNL A   1      44.002  27.847  27.283  1.00  0.00     0.167 HD
ATOM     65  C   UNL A   1      46.396  29.105  26.431  1.00  0.00     0.074 A 
ATOM     66  C   UNL A   1      47.459  30.078  26.295  1.00  0.00     0.031 C 
ATOM     67  C   UNL A   1      46.435  27.859  25.899  1.00  0.00     0.037 A 
BRANCH  54  68
ATOM     68  C   UNL A   1      41.575  24.344  27.320  1.00  0.00     0.064 A 
ATOM     69  C   UNL A   1      40.393  24.132  26.595  1.00  0.00     0.173 A 
ATOM     70  C   UNL A   1      42.180  23.234  27.931  1.00  0.00     0.173 A 
ATOM     71  F   UNL A   1      39.767  25.164  26.008  1.00  0.00    -0.203 F 
ATOM     72  C   UNL A   1      39.836  22.860  26.494  1.00  0.00     0.198 A 
ATOM     73  C   UNL A   1      41.636  21.961  27.804  1.00  0.00     0.198 A 
ATOM     74  F   UNL A   1      43.310  23.386  28.639  1.00  0.00    -0.203 F 
ATOM     75  F   UNL A   1      38.688  22.686  25.824  1.00  0.00    -0.200 F 
ATOM     76  C   UNL A   1      40.463  21.776  27.088  1.00  0.00     0.200 A 
ATOM     77  F   UNL A   1      42.251  20.912  28.367  1.00  0.00    -0.200 F 
ATOM     78  F   UNL A   1      39.935  20.549  26.974  1.00  0.00    -0.200 F 
ENDBRANCH  54  68
BRANCH  55  79
ATOM     79  C   UNL A   1      45.861  33.298  28.509  1.00  0.00     0.064 A 
ATOM     80  C   UNL A   1      45.707  34.386  27.637  1.00  0.00     0.173 A 
ATOM     81  C   UNL A   1      46.744  33.453  29.588  1.00  0.00     0.173 A 
ATOM     82  F   UNL A   1      44.898  34.281  26.573  1.00  0.00    -0.203 F 
ATOM     83  C   UNL A   1      46.429  35.565  27.819  1.00  0.00     0.198 A 
ATOM     84  C   UNL A   1      47.440  34.644  29.789  1.00  0.00     0.198 A 
ATOM     85  F   UNL A   1      46.937  32.444  30.451  1.00  0.00    -0.203 F 
ATOM     86  F   UNL A   1      46.312  36.562  26.933  1.00  0.00    -0.200 F 
ATOM     87  C   UNL A   1      47.292  35.694  28.898  1.00  0.00     0.200 A 
ATOM     88  F   UNL A   1      48.263  34.768  30.839  1.00  0.00    -0.200 F 
ATOM     89  F   UNL A   1      47.991  36.825  29.068  1.00  0.00    -0.200 F 
ENDBRANCH  55  79
BRANCH  67  90
ATOM     90  C   UNL A   1      47.646  27.479  25.096  1.00  0.00     0.064 A 
ATOM     91  C   UNL A   1      47.723  27.725  23.718  1.00  0.00     0.173 A 
ATOM     92  C   UNL A   1      48.773  26.930  25.730  1.00  0.00     0.173 A 
ATOM     93  F   UNL A   1      46.669  28.236  23.064  1.00  0.00    -0.203 F 
ATOM     94  C   UNL A   1      48.877  27.422  23.001  1.00  0.00     0.198 A 
ATOM     95  C   UNL A   1      49.936  26.659  25.016  1.00  0.00     0.198 A 
ATOM     96  F   UNL A   1      48.754  26.684  27.049  1.00  0.00    -0.203 F 
ATOM     97  F   UNL A   1      48.916  27.630  21.678  1.00  0.00    -0.200 F 
ATOM     98  C   UNL A   1      49.986  26.901  23.652  1.00  0.00     0.200 A 
ATOM     99  F   UNL A   1      51.012  26.174  25.651  1.00  0.00    -0.200 F 
ATOM    100  F   UNL A   1      51.102  26.627  22.963  1.00  0.00    -0.200 F 
ENDBRANCH  67  90
ENDBRANCH  41  42
ENDBRANCH  34  36
ENDBRANCH  33  34
ENDBRANCH  32  33
ENDBRANCH  31  32
ENDBRANCH  30  31
ENDBRANCH  29  30
ENDBRANCH  28  29
ENDBRANCH  27  28
ENDBRANCH  26  27
ENDBRANCH   1  26
TORSDOF 25
ENDMDL
MODEL 3
REMARK VINA RESULT:      -9.2      4.878      7.484
REMARK SMILES O=C(Cc1ccc(S(=O)(=O)CC[NH+]2CCCC2)cc1)OCCOCCOCCOCCOC(=O)c1ccc(-c2c3nc(c(-c4c(F)c(F)c(F)c(F)c4F)c4ccc([nH]4)c(-c4c(F)c(F)c(F)c(F)c4F)c4nc(c(-c5c(F)c(F)c(F)c(F)c5F)c5ccc2[nH]5)C=C4)C=C3)cc1
REMARK SMILES IDX 24 1 23 2 22 3 21 4 20 5 2 6 1 7 3 8 4 9 5 10 19 11 6 12
REMARK SMILES IDX 18 13 7 14 8 15 9 16 10 17 11 18 12 19 13 20 14 21 17 22
REMARK SMILES IDX 15 24 16 25 25 26 26 27 27 28 28 29 29 30 30 31 31 32 32 33
REMARK SMILES IDX 33 34 34 35 35 36 36 37 97 38 37 39 96 40 38 41 39 42 40 43
REMARK SMILES IDX 90 44 41 45 95 46 89 47 91 48 42 49 94 50 88 51 87 52 43 54
REMARK SMILES IDX 75 55 55 56 74 57 56 58 59 59 73 60 92 61 57 62 58 63 72 65
REMARK SMILES IDX 93 66 60 67 44 68 45 69 53 70 46 71 47 72 51 73 54 74 48 75
REMARK SMILES IDX 49 76 52 77 50 78 76 79 77 80 85 81 78 82 79 83 83 84 86 85
REMARK SMILES IDX 80 86 81 87 84 88 82 89 61 90 62 91 70 92 63 93 64 94 68 95
REMARK SMILES IDX 71 96 65 97 66 98 69 99 67 100
REMARK H PARENT 13 23 91 53 59 64
REMARK Flexibility Score: inf
ROOT
ATOM      1  C   UNL A   1      33.197  30.499  26.557  1.00  0.00     0.188 C 
ENDROOT
BRANCH   1   2
ATOM      2  O   UNL A   1      32.561  29.486  25.788  1.00  0.00    -0.376 OA
BRANCH   2   3
ATOM      3  C   UNL A   1      31.456  29.647  24.928  1.00  0.00     0.202 C 
BRANCH   3   4
ATOM      4  C   UNL A   1      31.526  29.312  23.439  1.00  0.00     0.261 C 
BRANCH   4   5
ATOM      5  O   UNL A   1      30.685  28.256  22.961  1.00  0.00    -0.463 OA
BRANCH   5   6
ATOM      6  C   UNL A   1      29.363  28.071  23.140  1.00  0.00     0.310 C 
ATOM      7  O   UNL A   1      28.618  29.044  23.013  1.00  0.00    -0.252 OA
BRANCH   6   8
ATOM      8  C   UNL A   1      28.802  26.762  23.646  1.00  0.00     0.158 C 
BRANCH   8   9
ATOM      9  C   UNL A   1      29.752  25.854  24.359  1.00  0.00    -0.037 A 
ATOM     10  C   UNL A   1      30.004  25.993  25.727  1.00  0.00     0.005 A 
ATOM     11  C   UNL A   1      30.330  24.797  23.658  1.00  0.00     0.005 A 
ATOM     12  C   UNL A   1      30.830  25.078  26.381  1.00  0.00     0.020 A 
ATOM     13  C   UNL A   1      31.012  23.809  24.348  1.00  0.00     0.020 A 
ATOM     14  C   UNL A   1      31.338  23.980  25.683  1.00  0.00     0.067 A 
BRANCH  14  15
ATOM     15  S   UNL A   1      32.373  22.803  26.515  1.00  0.00     0.183 S 
ATOM     16  O   UNL A   1      32.002  22.881  27.920  1.00  0.00    -0.223 OA
ATOM     17  O   UNL A   1      32.232  21.550  25.799  1.00  0.00    -0.223 OA
BRANCH  15  18
ATOM     18  C   UNL A   1      34.066  23.327  26.445  1.00  0.00     0.203 C 
BRANCH  18  19
ATOM     19  C   UNL A   1      34.653  23.613  25.062  1.00  0.00     0.279 C 
BRANCH  19  20
ATOM     20  N   UNL A   1      35.690  22.689  24.607  1.00  0.00    -0.334 N 
ATOM     21  C   UNL A   1      35.342  21.268  24.662  1.00  0.00     0.262 C 
ATOM     22  C   UNL A   1      37.053  22.883  25.085  1.00  0.00     0.262 C 
ATOM     23  H   UNL A   1      35.708  22.985  23.631  1.00  0.00     0.348 HD
ATOM     24  C   UNL A   1      36.607  20.562  25.125  1.00  0.00     0.067 C 
ATOM     25  C   UNL A   1      37.711  21.547  24.797  1.00  0.00     0.067 C 
ENDBRANCH  19  20
ENDBRANCH  18  19
ENDBRANCH  15  18
ENDBRANCH  14  15
ENDBRANCH   8   9
ENDBRANCH   6   8
ENDBRANCH   5   6
ENDBRANCH   4   5
ENDBRANCH   3   4
ENDBRANCH   2   3
ENDBRANCH   1   2
BRANCH   1  26
ATOM     26  C   UNL A   1      34.180  30.241  27.707  1.00  0.00     0.188 C 
BRANCH  26  27
ATOM     27  O   UNL A   1      34.677  31.379  28.388  1.00  0.00    -0.377 OA
BRANCH  27  28
ATOM     28  C   UNL A   1      34.303  32.607  27.803  1.00  0.00     0.188 C 
BRANCH  28  29
ATOM     29  C   UNL A   1      33.685  33.600  28.802  1.00  0.00     0.188 C 
BRANCH  29  30
ATOM     30  O   UNL A   1      32.716  34.538  28.373  1.00  0.00    -0.376 OA
BRANCH  30  31
ATOM     31  C   UNL A   1      32.504  35.767  29.052  1.00  0.00     0.202 C 
BRANCH  31  32
ATOM     32  C   UNL A   1      33.477  36.411  30.060  1.00  0.00     0.261 C 
BRANCH  32  33
ATOM     33  O   UNL A   1      32.966  36.805  31.333  1.00  0.00    -0.460 OA
BRANCH  33  34
ATOM     34  C   UNL A   1      32.613  35.810  32.175  1.00  0.00     0.338 C 
ATOM     35  O   UNL A   1      31.497  35.539  32.582  1.00  0.00    -0.246 OA
BRANCH  34  36
ATOM     36  C   UNL A   1      33.799  34.947  32.354  1.00  0.00     0.060 A 
ATOM     37  C   UNL A   1      33.612  33.642  32.836  1.00  0.00     0.016 A 
ATOM     38  C   UNL A   1      35.070  35.389  31.979  1.00  0.00     0.016 A 
ATOM     39  C   UNL A   1      34.696  32.774  32.944  1.00  0.00     0.010 A 
ATOM     40  C   UNL A   1      36.162  34.535  32.132  1.00  0.00     0.010 A 
ATOM     41  C   UNL A   1      35.981  33.233  32.634  1.00  0.00    -0.014 A 
BRANCH  41  42
ATOM     42  C   UNL A   1      37.162  32.440  33.040  1.00  0.00     0.031 A 
ATOM     43  C   UNL A   1      37.805  32.775  34.355  1.00  0.00     0.074 A 
ATOM     44  C   UNL A   1      37.665  31.471  32.257  1.00  0.00     0.049 A 
ATOM     45  N   UNL A   1      38.919  32.332  34.874  1.00  0.00    -0.248 NA
ATOM     46  C   UNL A   1      37.094  33.752  35.198  1.00  0.00     0.031 C 
ATOM     47  C   UNL A   1      37.095  31.027  30.988  1.00  0.00     0.029 A 
ATOM     48  N   UNL A   1      38.794  30.704  32.408  1.00  0.00    -0.354 N 
ATOM     49  C   UNL A   1      39.055  32.993  36.086  1.00  0.00     0.074 A 
ATOM     50  C   UNL A   1      37.915  33.871  36.229  1.00  0.00     0.031 C 
ATOM     51  C   UNL A   1      37.900  30.089  30.455  1.00  0.00     0.029 A 
ATOM     52  C   UNL A   1      39.061  29.903  31.324  1.00  0.00     0.049 A 
ATOM     53  H   UNL A   1      39.358  30.726  33.215  1.00  0.00     0.167 HD
ATOM     54  C   UNL A   1      40.049  32.879  36.995  1.00  0.00     0.037 A 
ATOM     55  C   UNL A   1      40.144  29.149  31.051  1.00  0.00     0.037 A 
ATOM     56  C   UNL A   1      41.175  31.999  36.847  1.00  0.00     0.049 A 
ATOM     57  C   UNL A   1      41.278  29.101  32.049  1.00  0.00     0.074 A 
ATOM     58  C   UNL A   1      42.211  31.770  37.734  1.00  0.00     0.029 A 
ATOM     59  N   UNL A   1      41.421  31.216  35.729  1.00  0.00    -0.354 N 
ATOM     60  N   UNL A   1      41.381  29.689  33.217  1.00  0.00    -0.248 NA
ATOM     61  C   UNL A   1      42.451  28.292  31.686  1.00  0.00     0.031 C 
ATOM     62  C   UNL A   1      43.121  30.904  37.124  1.00  0.00     0.029 A 
ATOM     63  C   UNL A   1      42.618  30.539  35.885  1.00  0.00     0.049 A 
ATOM     64  H   UNL A   1      40.832  31.151  34.942  1.00  0.00     0.167 HD
ATOM     65  C   UNL A   1      42.611  29.301  33.736  1.00  0.00     0.074 A 
ATOM     66  C   UNL A   1      43.212  28.413  32.764  1.00  0.00     0.031 C 
ATOM     67  C   UNL A   1      43.195  29.649  34.909  1.00  0.00     0.037 A 
BRANCH  54  68
ATOM     68  C   UNL A   1      39.995  33.757  38.209  1.00  0.00     0.064 A 
ATOM     69  C   UNL A   1      39.262  33.403  39.351  1.00  0.00     0.173 A 
ATOM     70  C   UNL A   1      40.740  34.945  38.248  1.00  0.00     0.173 A 
ATOM     71  F   UNL A   1      38.519  32.285  39.358  1.00  0.00    -0.203 F 
ATOM     72  C   UNL A   1      39.268  34.213  40.483  1.00  0.00     0.198 A 
ATOM     73  C   UNL A   1      40.767  35.738  39.391  1.00  0.00     0.198 A 
ATOM     74  F   UNL A   1      41.456  35.329  37.179  1.00  0.00    -0.203 F 
ATOM     75  F   UNL A   1      38.534  33.874  41.551  1.00  0.00    -0.200 F 
ATOM     76  C   UNL A   1      40.029  35.372  40.506  1.00  0.00     0.200 A 
ATOM     77  F   UNL A   1      41.514  36.850  39.414  1.00  0.00    -0.200 F 
ATOM     78  F   UNL A   1      40.049  36.142  41.602  1.00  0.00    -0.200 F 
ENDBRANCH  54  68
BRANCH  55  79
ATOM     79  C   UNL A   1      40.248  28.421  29.757  1.00  0.00     0.064 A 
ATOM     80  C   UNL A   1      40.955  28.961  28.673  1.00  0.00     0.173 A 
ATOM     81  C   UNL A   1      39.595  27.194  29.559  1.00  0.00     0.173 A 
ATOM     82  F   UNL A   1      41.572  30.145  28.800  1.00  0.00    -0.203 F 
ATOM     83  C   UNL A   1      40.980  28.318  27.436  1.00  0.00     0.198 A 
ATOM     84  C   UNL A   1      39.650  26.536  28.332  1.00  0.00     0.198 A 
ATOM     85  F   UNL A   1      38.898  26.634  30.559  1.00  0.00    -0.203 F 
ATOM     86  F   UNL A   1      41.607  28.890  26.399  1.00  0.00    -0.200 F 
ATOM     87  C   UNL A   1      40.331  27.104  27.268  1.00  0.00     0.200 A 
ATOM     88  F   UNL A   1      39.030  25.357  28.178  1.00  0.00    -0.200 F 
ATOM     89  F   UNL A   1      40.351  26.490  26.076  1.00  0.00    -0.200 F 
ENDBRANCH  55  79
BRANCH  67  90
ATOM     90  C   UNL A   1      44.535  29.052  35.228  1.00  0.00     0.064 A 
ATOM     91  C   UNL A   1      45.730  29.709  34.904  1.00  0.00     0.173 A 
ATOM     92  C   UNL A   1      44.621  27.841  35.935  1.00  0.00     0.173 A 
ATOM     93  F   UNL A   1      45.702  30.862  34.217  1.00  0.00    -0.203 F 
ATOM     94  C   UNL A   1      46.963  29.169  35.261  1.00  0.00     0.198 A 
ATOM     95  C   UNL A   1      45.853  27.322  36.320  1.00  0.00     0.198 A 
ATOM     96  F   UNL A   1      43.507  27.178  36.278  1.00  0.00    -0.203 F 
ATOM     97  F   UNL A   1      48.094  29.795  34.908  1.00  0.00    -0.200 F 
ATOM     98  C   UNL A   1      47.023  27.984  35.978  1.00  0.00     0.200 A 
ATOM     99  F   UNL A   1      45.908  26.187  37.029  1.00  0.00    -0.200 F 
ATOM    100  F   UNL A   1      48.210  27.475  36.338  1.00  0.00    -0.200 F 
ENDBRANCH  67  90
ENDBRANCH  41  42
ENDBRANCH  34  36
ENDBRANCH  33  34
ENDBRANCH  32  33
ENDBRANCH  31  32
ENDBRANCH  30  31
ENDBRANCH  29  30
ENDBRANCH  28  29
ENDBRANCH  27  28
ENDBRANCH  26  27
ENDBRANCH   1  26
TORSDOF 25
ENDMDL
