MODEL 1
REMARK VINA RESULT:     -10.0      0.000      0.000
REMARK SMILES COc1cccc(NC(=O)/C(C#N)=C\c2ccc(O[C@@H](C)C(=O)OCCOCCOCCOCCOC(=O)c3ccc(-c4c5nc(c(-c6c(F)c(F)c(F)c(F)c6F)c6ccc([nH]6)c(-c6c(F)c(F)c(F)c(F)c6F)c6nc(c(-c7c(F)c(F)c(F)c(F)c7F)c7ccc4[nH]7)C=C6)C=C5)cc3)cc2)c1
REMARK SMILES IDX 28 1 27 2 26 3 25 4 24 5 22 6 23 7 20 8 21 9 19 10 18 11
REMARK SMILES IDX 15 12 16 13 103 14 17 15 102 16 14 17 11 18 9 19 8 20 10 22
REMARK SMILES IDX 7 23 3 24 4 25 104 26 5 27 6 28 2 29 1 30 12 31 13 32 29 33
REMARK SMILES IDX 30 34 31 35 32 36 33 37 34 38 35 39 36 40 37 41 38 42 39 43
REMARK SMILES IDX 40 44 101 45 41 46 100 47 42 48 43 49 44 50 94 51 45 52
REMARK SMILES IDX 99 53 93 54 95 55 46 56 98 57 92 58 91 59 47 61 79 62 59 63
REMARK SMILES IDX 78 64 60 65 63 66 77 67 96 68 61 69 62 70 76 72 97 73 64 74
REMARK SMILES IDX 48 75 49 76 57 77 50 78 51 79 55 80 58 81 52 82 53 83 56 84
REMARK SMILES IDX 54 85 80 86 81 87 89 88 82 89 83 90 87 91 90 92 84 93 85 94
REMARK SMILES IDX 88 95 86 96 65 97 66 98 74 99 67 100 68 101 72 102 75 103
REMARK SMILES IDX 69 104 70 105 73 106 71 107
REMARK H PARENT 8 21 95 60 63 71
REMARK Flexibility Score: inf
ROOT
ATOM      1  C   UNL A   1      34.449  31.884  28.070  1.00  0.00     0.188 C 
ENDROOT
BRANCH   1   2
ATOM      2  O   UNL A   1      34.374  30.687  27.309  1.00  0.00    -0.376 OA
BRANCH   2   3
ATOM      3  C   UNL A   1      33.170  30.279  26.672  1.00  0.00     0.202 C 
BRANCH   3   4
ATOM      4  C   UNL A   1      33.124  29.332  25.466  1.00  0.00     0.261 C 
BRANCH   4   5
ATOM      5  O   UNL A   1      31.827  29.152  24.905  1.00  0.00    -0.461 OA
BRANCH   5   6
ATOM      6  C   UNL A   1      31.726  28.911  23.579  1.00  0.00     0.347 C 
ATOM      7  O   UNL A   1      30.869  29.408  22.857  1.00  0.00    -0.248 OA
BRANCH   6   8
ATOM      8  C   UNL A   1      32.851  27.971  23.054  1.00  0.00     0.279 C 
ATOM      9  C   UNL A   1      33.966  28.825  22.452  1.00  0.00     0.066 C 
BRANCH   8  10
ATOM     10  O   UNL A   1      32.711  26.788  22.276  1.00  0.00    -0.479 OA
BRANCH  10  11
ATOM     11  C   UNL A   1      33.243  25.596  22.661  1.00  0.00     0.120 A 
ATOM     12  C   UNL A   1      34.391  23.242  23.648  1.00  0.00    -0.024 A 
ATOM     13  C   UNL A   1      34.462  24.409  24.406  1.00  0.00     0.012 A 
ATOM     14  C   UNL A   1      33.661  23.236  22.458  1.00  0.00     0.012 A 
ATOM     15  C   UNL A   1      33.861  25.578  23.919  1.00  0.00     0.047 A 
ATOM     16  C   UNL A   1      33.188  24.423  21.926  1.00  0.00     0.047 A 
BRANCH  12  17
ATOM     17  C   UNL A   1      35.178  22.051  23.955  1.00  0.00     0.033 C 
ATOM     18  C   UNL A   1      34.585  20.888  24.277  1.00  0.00     0.118 C 
BRANCH  18  19
ATOM     19  C   UNL A   1      33.070  20.538  24.208  1.00  0.00     0.266 C 
ATOM     20  N   UNL A   1      32.030  21.395  24.511  1.00  0.00    -0.321 N 
ATOM     21  H   UNL A   1      31.235  21.192  23.967  1.00  0.00     0.170 HD
ATOM     22  O   UNL A   1      32.691  19.456  23.748  1.00  0.00    -0.268 OA
BRANCH  20  23
ATOM     23  C   UNL A   1      31.783  22.482  25.382  1.00  0.00     0.045 A 
ATOM     24  C   UNL A   1      30.642  24.593  25.756  1.00  0.00     0.120 A 
ATOM     25  C   UNL A   1      31.421  24.850  26.876  1.00  0.00     0.046 A 
ATOM     26  C   UNL A   1      30.830  23.433  24.994  1.00  0.00     0.072 A 
ATOM     27  C   UNL A   1      32.253  23.844  27.343  1.00  0.00     0.006 A 
ATOM     28  C   UNL A   1      32.364  22.634  26.638  1.00  0.00     0.026 A 
BRANCH  24  29
ATOM     29  O   UNL A   1      29.719  25.526  25.367  1.00  0.00    -0.497 OA
ATOM     30  C   UNL A   1      29.875  25.779  23.967  1.00  0.00     0.278 C 
ENDBRANCH  24  29
ENDBRANCH  20  23
ENDBRANCH  18  19
BRANCH  18  31
ATOM     31  C   UNL A   1      35.404  19.670  24.672  1.00  0.00     0.105 C 
ATOM     32  N   UNL A   1      36.084  18.659  24.999  1.00  0.00    -0.192 NA
ENDBRANCH  18  31
ENDBRANCH  12  17
ENDBRANCH  10  11
ENDBRANCH   8  10
ENDBRANCH   6   8
ENDBRANCH   5   6
ENDBRANCH   4   5
ENDBRANCH   3   4
ENDBRANCH   2   3
ENDBRANCH   1   2
BRANCH   1  33
ATOM     33  C   UNL A   1      33.378  32.977  27.901  1.00  0.00     0.188 C 
BRANCH  33  34
ATOM     34  O   UNL A   1      33.812  34.283  28.220  1.00  0.00    -0.377 OA
BRANCH  34  35
ATOM     35  C   UNL A   1      32.929  35.154  28.908  1.00  0.00     0.188 C 
BRANCH  35  36
ATOM     36  C   UNL A   1      33.346  35.798  30.245  1.00  0.00     0.188 C 
BRANCH  36  37
ATOM     37  O   UNL A   1      33.125  34.993  31.392  1.00  0.00    -0.376 OA
BRANCH  37  38
ATOM     38  C   UNL A   1      34.252  34.503  32.102  1.00  0.00     0.202 C 
BRANCH  38  39
ATOM     39  C   UNL A   1      34.240  33.018  32.499  1.00  0.00     0.261 C 
BRANCH  39  40
ATOM     40  O   UNL A   1      35.324  32.222  32.000  1.00  0.00    -0.460 OA
BRANCH  40  41
ATOM     41  C   UNL A   1      36.459  32.189  32.732  1.00  0.00     0.338 C 
ATOM     42  O   UNL A   1      36.604  32.522  33.888  1.00  0.00    -0.246 OA
BRANCH  41  43
ATOM     43  C   UNL A   1      37.487  31.500  31.924  1.00  0.00     0.060 A 
ATOM     44  C   UNL A   1      38.474  30.753  32.578  1.00  0.00     0.016 A 
ATOM     45  C   UNL A   1      37.482  31.606  30.531  1.00  0.00     0.016 A 
ATOM     46  C   UNL A   1      39.489  30.142  31.840  1.00  0.00     0.010 A 
ATOM     47  C   UNL A   1      38.509  31.009  29.794  1.00  0.00     0.010 A 
ATOM     48  C   UNL A   1      39.536  30.305  30.449  1.00  0.00    -0.014 A 
BRANCH  48  49
ATOM     49  C   UNL A   1      40.762  29.927  29.704  1.00  0.00     0.031 A 
ATOM     50  C   UNL A   1      40.844  28.543  29.124  1.00  0.00     0.074 A 
ATOM     51  C   UNL A   1      41.761  30.802  29.501  1.00  0.00     0.049 A 
ATOM     52  N   UNL A   1      41.819  27.966  28.470  1.00  0.00    -0.248 NA
ATOM     53  C   UNL A   1      39.655  27.695  29.304  1.00  0.00     0.031 C 
ATOM     54  C   UNL A   1      41.754  32.197  29.930  1.00  0.00     0.029 A 
ATOM     55  N   UNL A   1      42.969  30.646  28.868  1.00  0.00    -0.354 N 
ATOM     56  C   UNL A   1      41.366  26.688  28.169  1.00  0.00     0.074 A 
ATOM     57  C   UNL A   1      40.045  26.561  28.746  1.00  0.00     0.031 C 
ATOM     58  C   UNL A   1      42.893  32.779  29.519  1.00  0.00     0.029 A 
ATOM     59  C   UNL A   1      43.739  31.784  28.858  1.00  0.00     0.049 A 
ATOM     60  H   UNL A   1      43.256  29.798  28.460  1.00  0.00     0.167 HD
ATOM     61  C   UNL A   1      41.989  25.713  27.465  1.00  0.00     0.037 A 
ATOM     62  C   UNL A   1      44.988  31.984  28.386  1.00  0.00     0.037 A 
ATOM     63  C   UNL A   1      43.308  25.843  26.903  1.00  0.00     0.049 A 
ATOM     64  C   UNL A   1      45.732  30.819  27.778  1.00  0.00     0.074 A 
ATOM     65  C   UNL A   1      44.027  24.921  26.166  1.00  0.00     0.029 A 
ATOM     66  N   UNL A   1      44.114  26.965  27.036  1.00  0.00    -0.354 N 
ATOM     67  N   UNL A   1      45.299  29.615  27.484  1.00  0.00    -0.248 NA
ATOM     68  C   UNL A   1      47.148  31.037  27.450  1.00  0.00     0.031 C 
ATOM     69  C   UNL A   1      45.295  25.458  25.913  1.00  0.00     0.029 A 
ATOM     70  C   UNL A   1      45.340  26.744  26.428  1.00  0.00     0.049 A 
ATOM     71  H   UNL A   1      43.853  27.796  27.495  1.00  0.00     0.167 HD
ATOM     72  C   UNL A   1      46.368  28.956  26.884  1.00  0.00     0.074 A 
ATOM     73  C   UNL A   1      47.471  29.894  26.861  1.00  0.00     0.031 C 
ATOM     74  C   UNL A   1      46.424  27.695  26.385  1.00  0.00     0.037 A 
BRANCH  61  75
ATOM     75  C   UNL A   1      41.261  24.406  27.316  1.00  0.00     0.064 A 
ATOM     76  C   UNL A   1      41.702  23.234  27.951  1.00  0.00     0.173 A 
ATOM     77  C   UNL A   1      40.120  24.320  26.504  1.00  0.00     0.173 A 
ATOM     78  F   UNL A   1      42.796  23.255  28.726  1.00  0.00    -0.203 F 
ATOM     79  C   UNL A   1      41.058  22.016  27.737  1.00  0.00     0.198 A 
ATOM     80  C   UNL A   1      39.457  23.109  26.324  1.00  0.00     0.198 A 
ATOM     81  F   UNL A   1      39.651  25.409  25.876  1.00  0.00    -0.203 F 
ATOM     82  F   UNL A   1      41.545  20.897  28.290  1.00  0.00    -0.200 F 
ATOM     83  C   UNL A   1      39.935  21.956  26.927  1.00  0.00     0.200 A 
ATOM     84  F   UNL A   1      38.361  23.055  25.552  1.00  0.00    -0.200 F 
ATOM     85  F   UNL A   1      39.321  20.784  26.714  1.00  0.00    -0.200 F 
ENDBRANCH  61  75
BRANCH  62  86
ATOM     86  C   UNL A   1      45.626  33.330  28.475  1.00  0.00     0.064 A 
ATOM     87  C   UNL A   1      45.540  34.257  27.429  1.00  0.00     0.173 A 
ATOM     88  C   UNL A   1      46.334  33.728  29.615  1.00  0.00     0.173 A 
ATOM     89  F   UNL A   1      44.884  33.937  26.303  1.00  0.00    -0.203 F 
ATOM     90  C   UNL A   1      46.144  35.513  27.520  1.00  0.00     0.198 A 
ATOM     91  C   UNL A   1      46.890  34.997  29.729  1.00  0.00     0.198 A 
ATOM     92  F   UNL A   1      46.437  32.893  30.651  1.00  0.00    -0.203 F 
ATOM     93  F   UNL A   1      46.071  36.365  26.488  1.00  0.00    -0.200 F 
ATOM     94  C   UNL A   1      46.811  35.885  28.674  1.00  0.00     0.200 A 
ATOM     95  F   UNL A   1      47.459  35.373  30.878  1.00  0.00    -0.200 F 
ATOM     96  F   UNL A   1      47.360  37.102  28.779  1.00  0.00    -0.200 F 
ENDBRANCH  62  86
BRANCH  74  97
ATOM     97  C   UNL A   1      47.690  27.280  25.688  1.00  0.00     0.064 A 
ATOM     98  C   UNL A   1      47.904  27.509  24.321  1.00  0.00     0.173 A 
ATOM     99  C   UNL A   1      48.726  26.671  26.418  1.00  0.00     0.173 A 
ATOM    100  F   UNL A   1      46.946  28.075  23.573  1.00  0.00    -0.203 F 
ATOM    101  C   UNL A   1      49.091  27.117  23.705  1.00  0.00     0.198 A 
ATOM    102  C   UNL A   1      49.926  26.314  25.807  1.00  0.00     0.198 A 
ATOM    103  F   UNL A   1      48.580  26.435  27.730  1.00  0.00    -0.203 F 
ATOM    104  F   UNL A   1      49.251  27.297  22.386  1.00  0.00    -0.200 F 
ATOM    105  C   UNL A   1      50.104  26.529  24.449  1.00  0.00     0.200 A 
ATOM    106  F   UNL A   1      50.908  25.764  26.533  1.00  0.00    -0.200 F 
ATOM    107  F   UNL A   1      51.248  26.162  23.857  1.00  0.00    -0.200 F 
ENDBRANCH  74  97
ENDBRANCH  48  49
ENDBRANCH  41  43
ENDBRANCH  40  41
ENDBRANCH  39  40
ENDBRANCH  38  39
ENDBRANCH  37  38
ENDBRANCH  36  37
ENDBRANCH  35  36
ENDBRANCH  34  35
ENDBRANCH  33  34
ENDBRANCH   1  33
TORSDOF 27
ENDMDL
MODEL 2
REMARK VINA RESULT:      -9.8      1.146      7.067
REMARK SMILES COc1cccc(NC(=O)/C(C#N)=C\c2ccc(O[C@@H](C)C(=O)OCCOCCOCCOCCOC(=O)c3ccc(-c4c5nc(c(-c6c(F)c(F)c(F)c(F)c6F)c6ccc([nH]6)c(-c6c(F)c(F)c(F)c(F)c6F)c6nc(c(-c7c(F)c(F)c(F)c(F)c7F)c7ccc4[nH]7)C=C6)C=C5)cc3)cc2)c1
REMARK SMILES IDX 28 1 27 2 26 3 25 4 24 5 22 6 23 7 20 8 21 9 19 10 18 11
REMARK SMILES IDX 15 12 16 13 103 14 17 15 102 16 14 17 11 18 9 19 8 20 10 22
REMARK SMILES IDX 7 23 3 24 4 25 104 26 5 27 6 28 2 29 1 30 12 31 13 32 29 33
REMARK SMILES IDX 30 34 31 35 32 36 33 37 34 38 35 39 36 40 37 41 38 42 39 43
REMARK SMILES IDX 40 44 101 45 41 46 100 47 42 48 43 49 44 50 94 51 45 52
REMARK SMILES IDX 99 53 93 54 95 55 46 56 98 57 92 58 91 59 47 61 79 62 59 63
REMARK SMILES IDX 78 64 60 65 63 66 77 67 96 68 61 69 62 70 76 72 97 73 64 74
REMARK SMILES IDX 48 75 49 76 57 77 50 78 51 79 55 80 58 81 52 82 53 83 56 84
REMARK SMILES IDX 54 85 80 86 81 87 89 88 82 89 83 90 87 91 90 92 84 93 85 94
REMARK SMILES IDX 88 95 86 96 65 97 66 98 74 99 67 100 68 101 72 102 75 103
REMARK SMILES IDX 69 104 70 105 73 106 71 107
REMARK H PARENT 8 21 95 60 63 71
REMARK Flexibility Score: inf
ROOT
ATOM      1  C   UNL A   1      34.478  33.015  29.043  1.00  0.00     0.188 C 
ENDROOT
BRANCH   1   2
ATOM      2  O   UNL A   1      34.380  31.759  28.386  1.00  0.00    -0.376 OA
BRANCH   2   3
ATOM      3  C   UNL A   1      33.512  31.560  27.277  1.00  0.00     0.202 C 
BRANCH   3   4
ATOM      4  C   UNL A   1      32.934  30.195  26.883  1.00  0.00     0.261 C 
BRANCH   4   5
ATOM      5  O   UNL A   1      31.857  30.256  25.952  1.00  0.00    -0.461 OA
BRANCH   5   6
ATOM      6  C   UNL A   1      31.412  29.102  25.406  1.00  0.00     0.347 C 
ATOM      7  O   UNL A   1      30.880  29.028  24.304  1.00  0.00    -0.248 OA
BRANCH   6   8
ATOM      8  C   UNL A   1      31.695  27.864  26.307  1.00  0.00     0.279 C 
ATOM      9  C   UNL A   1      31.316  28.206  27.747  1.00  0.00     0.066 C 
BRANCH   8  10
ATOM     10  O   UNL A   1      32.854  27.041  26.322  1.00  0.00    -0.479 OA
BRANCH  10  11
ATOM     11  C   UNL A   1      32.784  25.683  26.238  1.00  0.00     0.120 A 
ATOM     12  C   UNL A   1      32.445  22.919  25.956  1.00  0.00    -0.024 A 
ATOM     13  C   UNL A   1      31.434  23.780  25.534  1.00  0.00     0.012 A 
ATOM     14  C   UNL A   1      33.652  23.447  26.417  1.00  0.00     0.012 A 
ATOM     15  C   UNL A   1      31.621  25.164  25.651  1.00  0.00     0.047 A 
ATOM     16  C   UNL A   1      33.773  24.806  26.652  1.00  0.00     0.047 A 
BRANCH  12  17
ATOM     17  C   UNL A   1      32.250  21.479  26.092  1.00  0.00     0.033 C 
ATOM     18  C   UNL A   1      33.071  20.604  25.484  1.00  0.00     0.118 C 
BRANCH  18  19
ATOM     19  C   UNL A   1      34.401  20.908  24.734  1.00  0.00     0.266 C 
ATOM     20  N   UNL A   1      34.655  22.027  23.964  1.00  0.00    -0.321 N 
ATOM     21  H   UNL A   1      35.608  22.271  24.002  1.00  0.00     0.170 HD
ATOM     22  O   UNL A   1      35.390  20.184  24.882  1.00  0.00    -0.268 OA
BRANCH  20  23
ATOM     23  C   UNL A   1      33.935  22.920  23.138  1.00  0.00     0.045 A 
ATOM     24  C   UNL A   1      33.730  25.165  22.233  1.00  0.00     0.120 A 
ATOM     25  C   UNL A   1      32.450  24.893  21.769  1.00  0.00     0.046 A 
ATOM     26  C   UNL A   1      34.466  24.201  22.935  1.00  0.00     0.072 A 
ATOM     27  C   UNL A   1      31.990  23.587  21.836  1.00  0.00     0.006 A 
ATOM     28  C   UNL A   1      32.772  22.592  22.446  1.00  0.00     0.026 A 
BRANCH  24  29
ATOM     29  O   UNL A   1      34.245  26.419  22.048  1.00  0.00    -0.497 OA
ATOM     30  C   UNL A   1      33.569  27.333  22.917  1.00  0.00     0.278 C 
ENDBRANCH  24  29
ENDBRANCH  20  23
ENDBRANCH  18  19
BRANCH  18  31
ATOM     31  C   UNL A   1      32.823  19.107  25.561  1.00  0.00     0.105 C 
ATOM     32  N   UNL A   1      32.619  17.864  25.624  1.00  0.00    -0.192 NA
ENDBRANCH  18  31
ENDBRANCH  12  17
ENDBRANCH  10  11
ENDBRANCH   8  10
ENDBRANCH   6   8
ENDBRANCH   5   6
ENDBRANCH   4   5
ENDBRANCH   3   4
ENDBRANCH   2   3
ENDBRANCH   1   2
BRANCH   1  33
ATOM     33  C   UNL A   1      33.620  34.203  28.573  1.00  0.00     0.188 C 
BRANCH  33  34
ATOM     34  O   UNL A   1      33.966  35.445  29.151  1.00  0.00    -0.377 OA
BRANCH  34  35
ATOM     35  C   UNL A   1      32.955  36.223  29.772  1.00  0.00     0.188 C 
BRANCH  35  36
ATOM     36  C   UNL A   1      32.884  36.333  31.308  1.00  0.00     0.188 C 
BRANCH  36  37
ATOM     37  O   UNL A   1      32.895  35.094  31.999  1.00  0.00    -0.376 OA
BRANCH  37  38
ATOM     38  C   UNL A   1      34.129  34.612  32.507  1.00  0.00     0.202 C 
BRANCH  38  39
ATOM     39  C   UNL A   1      34.166  33.158  33.002  1.00  0.00     0.261 C 
BRANCH  39  40
ATOM     40  O   UNL A   1      35.184  32.323  32.433  1.00  0.00    -0.460 OA
BRANCH  40  41
ATOM     41  C   UNL A   1      36.306  32.128  33.160  1.00  0.00     0.338 C 
ATOM     42  O   UNL A   1      36.482  32.382  34.331  1.00  0.00    -0.246 OA
BRANCH  41  43
ATOM     43  C   UNL A   1      37.256  31.375  32.314  1.00  0.00     0.060 A 
ATOM     44  C   UNL A   1      38.187  30.530  32.930  1.00  0.00     0.016 A 
ATOM     45  C   UNL A   1      37.234  31.515  30.925  1.00  0.00     0.016 A 
ATOM     46  C   UNL A   1      39.132  29.853  32.157  1.00  0.00     0.010 A 
ATOM     47  C   UNL A   1      38.191  30.852  30.153  1.00  0.00     0.010 A 
ATOM     48  C   UNL A   1      39.166  30.047  30.769  1.00  0.00    -0.014 A 
BRANCH  48  49
ATOM     49  C   UNL A   1      40.342  29.584  29.990  1.00  0.00     0.031 A 
ATOM     50  C   UNL A   1      41.501  30.526  29.825  1.00  0.00     0.074 A 
ATOM     51  C   UNL A   1      40.405  28.342  29.483  1.00  0.00     0.049 A 
ATOM     52  N   UNL A   1      42.617  30.371  29.160  1.00  0.00    -0.248 NA
ATOM     53  C   UNL A   1      41.383  31.823  30.510  1.00  0.00     0.031 C 
ATOM     54  C   UNL A   1      39.390  27.310  29.659  1.00  0.00     0.029 A 
ATOM     55  N   UNL A   1      41.378  27.737  28.726  1.00  0.00    -0.354 N 
ATOM     56  C   UNL A   1      43.329  31.550  29.341  1.00  0.00     0.074 A 
ATOM     57  C   UNL A   1      42.502  32.425  30.142  1.00  0.00     0.031 C 
ATOM     58  C   UNL A   1      39.807  26.186  29.054  1.00  0.00     0.029 A 
ATOM     59  C   UNL A   1      41.088  26.437  28.390  1.00  0.00     0.049 A 
ATOM     60  H   UNL A   1      42.206  28.192  28.451  1.00  0.00     0.167 HD
ATOM     61  C   UNL A   1      44.565  31.869  28.890  1.00  0.00     0.037 A 
ATOM     62  C   UNL A   1      41.771  25.565  27.618  1.00  0.00     0.037 A 
ATOM     63  C   UNL A   1      45.378  30.997  28.083  1.00  0.00     0.049 A 
ATOM     64  C   UNL A   1      43.057  26.020  26.969  1.00  0.00     0.074 A 
ATOM     65  C   UNL A   1      46.647  31.218  27.580  1.00  0.00     0.029 A 
ATOM     66  N   UNL A   1      44.989  29.739  27.644  1.00  0.00    -0.354 N 
ATOM     67  N   UNL A   1      43.734  27.130  27.148  1.00  0.00    -0.248 NA
ATOM     68  C   UNL A   1      43.665  25.104  25.994  1.00  0.00     0.031 C 
ATOM     69  C   UNL A   1      46.997  30.124  26.780  1.00  0.00     0.029 A 
ATOM     70  C   UNL A   1      45.977  29.188  26.843  1.00  0.00     0.049 A 
ATOM     71  H   UNL A   1      44.136  29.302  27.869  1.00  0.00     0.167 HD
ATOM     72  C   UNL A   1      44.874  27.018  26.359  1.00  0.00     0.074 A 
ATOM     73  C   UNL A   1      44.793  25.734  25.695  1.00  0.00     0.031 C 
ATOM     74  C   UNL A   1      45.900  27.894  26.209  1.00  0.00     0.037 A 
BRANCH  61  75
ATOM     75  C   UNL A   1      45.081  33.242  29.220  1.00  0.00     0.064 A 
ATOM     76  C   UNL A   1      44.885  34.336  28.361  1.00  0.00     0.173 A 
ATOM     77  C   UNL A   1      45.804  33.461  30.402  1.00  0.00     0.173 A 
ATOM     78  F   UNL A   1      44.215  34.180  27.210  1.00  0.00    -0.203 F 
ATOM     79  C   UNL A   1      45.438  35.582  28.649  1.00  0.00     0.198 A 
ATOM     80  C   UNL A   1      46.321  34.718  30.706  1.00  0.00     0.198 A 
ATOM     81  F   UNL A   1      46.017  32.454  31.263  1.00  0.00    -0.203 F 
ATOM     82  F   UNL A   1      45.306  36.589  27.775  1.00  0.00    -0.200 F 
ATOM     83  C   UNL A   1      46.152  35.772  29.822  1.00  0.00     0.200 A 
ATOM     84  F   UNL A   1      46.999  34.903  31.847  1.00  0.00    -0.200 F 
ATOM     85  F   UNL A   1      46.691  36.969  30.094  1.00  0.00    -0.200 F 
ENDBRANCH  61  75
BRANCH  62  86
ATOM     86  C   UNL A   1      41.260  24.180  27.402  1.00  0.00     0.064 A 
ATOM     87  C   UNL A   1      40.129  23.925  26.615  1.00  0.00     0.173 A 
ATOM     88  C   UNL A   1      41.896  23.071  27.971  1.00  0.00     0.173 A 
ATOM     89  F   UNL A   1      39.466  24.944  26.047  1.00  0.00    -0.203 F 
ATOM     90  C   UNL A   1      39.657  22.626  26.421  1.00  0.00     0.198 A 
ATOM     91  C   UNL A   1      41.459  21.772  27.736  1.00  0.00     0.198 A 
ATOM     92  F   UNL A   1      42.988  23.249  28.717  1.00  0.00    -0.203 F 
ATOM     93  F   UNL A   1      38.553  22.418  25.690  1.00  0.00    -0.200 F 
ATOM     94  C   UNL A   1      40.328  21.548  26.974  1.00  0.00     0.200 A 
ATOM     95  F   UNL A   1      42.162  20.738  28.206  1.00  0.00    -0.200 F 
ATOM     96  F   UNL A   1      39.898  20.298  26.761  1.00  0.00    -0.200 F 
ENDBRANCH  62  86
BRANCH  74  97
ATOM     97  C   UNL A   1      47.066  27.460  25.364  1.00  0.00     0.064 A 
ATOM     98  C   UNL A   1      47.188  27.818  24.013  1.00  0.00     0.173 A 
ATOM     99  C   UNL A   1      48.102  26.700  25.934  1.00  0.00     0.173 A 
ATOM    100  F   UNL A   1      46.224  28.531  23.414  1.00  0.00    -0.203 F 
ATOM    101  C   UNL A   1      48.284  27.404  23.258  1.00  0.00     0.198 A 
ATOM    102  C   UNL A   1      49.214  26.321  25.186  1.00  0.00     0.198 A 
ATOM    103  F   UNL A   1      48.043  26.337  27.225  1.00  0.00    -0.203 F 
ATOM    104  F   UNL A   1      48.351  27.712  21.955  1.00  0.00    -0.200 F 
ATOM    105  C   UNL A   1      49.300  26.665  23.847  1.00  0.00     0.200 A 
ATOM    106  F   UNL A   1      50.201  25.623  25.764  1.00  0.00    -0.200 F 
ATOM    107  F   UNL A   1      50.357  26.278  23.121  1.00  0.00    -0.200 F 
ENDBRANCH  74  97
ENDBRANCH  48  49
ENDBRANCH  41  43
ENDBRANCH  40  41
ENDBRANCH  39  40
ENDBRANCH  38  39
ENDBRANCH  37  38
ENDBRANCH  36  37
ENDBRANCH  35  36
ENDBRANCH  34  35
ENDBRANCH  33  34
ENDBRANCH   1  33
TORSDOF 27
ENDMDL
MODEL 3
REMARK VINA RESULT:      -9.3      2.397      7.443
REMARK SMILES COc1cccc(NC(=O)/C(C#N)=C\c2ccc(O[C@@H](C)C(=O)OCCOCCOCCOCCOC(=O)c3ccc(-c4c5nc(c(-c6c(F)c(F)c(F)c(F)c6F)c6ccc([nH]6)c(-c6c(F)c(F)c(F)c(F)c6F)c6nc(c(-c7c(F)c(F)c(F)c(F)c7F)c7ccc4[nH]7)C=C6)C=C5)cc3)cc2)c1
REMARK SMILES IDX 28 1 27 2 26 3 25 4 24 5 22 6 23 7 20 8 21 9 19 10 18 11
REMARK SMILES IDX 15 12 16 13 103 14 17 15 102 16 14 17 11 18 9 19 8 20 10 22
REMARK SMILES IDX 7 23 3 24 4 25 104 26 5 27 6 28 2 29 1 30 12 31 13 32 29 33
REMARK SMILES IDX 30 34 31 35 32 36 33 37 34 38 35 39 36 40 37 41 38 42 39 43
REMARK SMILES IDX 40 44 101 45 41 46 100 47 42 48 43 49 44 50 94 51 45 52
REMARK SMILES IDX 99 53 93 54 95 55 46 56 98 57 92 58 91 59 47 61 79 62 59 63
REMARK SMILES IDX 78 64 60 65 63 66 77 67 96 68 61 69 62 70 76 72 97 73 64 74
REMARK SMILES IDX 48 75 49 76 57 77 50 78 51 79 55 80 58 81 52 82 53 83 56 84
REMARK SMILES IDX 54 85 80 86 81 87 89 88 82 89 83 90 87 91 90 92 84 93 85 94
REMARK SMILES IDX 88 95 86 96 65 97 66 98 74 99 67 100 68 101 72 102 75 103
REMARK SMILES IDX 69 104 70 105 73 106 71 107
REMARK H PARENT 8 21 95 60 63 71
REMARK Flexibility Score: inf
ROOT
ATOM      1  C   UNL A   1      34.539  32.616  28.875  1.00  0.00     0.188 C 
ENDROOT
BRANCH   1   2
ATOM      2  O   UNL A   1      34.332  31.264  28.490  1.00  0.00    -0.376 OA
BRANCH   2   3
ATOM      3  C   UNL A   1      33.760  30.922  27.234  1.00  0.00     0.202 C 
BRANCH   3   4
ATOM      4  C   UNL A   1      33.060  29.586  26.954  1.00  0.00     0.261 C 
BRANCH   4   5
ATOM      5  O   UNL A   1      33.035  29.209  25.580  1.00  0.00    -0.461 OA
BRANCH   5   6
ATOM      6  C   UNL A   1      33.028  27.893  25.273  1.00  0.00     0.347 C 
ATOM      7  O   UNL A   1      33.245  27.000  26.086  1.00  0.00    -0.248 OA
BRANCH   6   8
ATOM      8  C   UNL A   1      32.663  27.626  23.783  1.00  0.00     0.279 C 
ATOM      9  C   UNL A   1      32.691  28.951  23.024  1.00  0.00     0.066 C 
BRANCH   8  10
ATOM     10  O   UNL A   1      31.601  26.829  23.272  1.00  0.00    -0.479 OA
BRANCH  10  11
ATOM     11  C   UNL A   1      31.715  25.481  23.113  1.00  0.00     0.120 A 
ATOM     12  C   UNL A   1      32.147  22.748  22.692  1.00  0.00    -0.024 A 
ATOM     13  C   UNL A   1      33.068  23.672  22.199  1.00  0.00     0.012 A 
ATOM     14  C   UNL A   1      31.079  23.189  23.475  1.00  0.00     0.012 A 
ATOM     15  C   UNL A   1      32.860  25.037  22.438  1.00  0.00     0.047 A 
ATOM     16  C   UNL A   1      30.813  24.543  23.590  1.00  0.00     0.047 A 
BRANCH  12  17
ATOM     17  C   UNL A   1      32.150  21.342  22.297  1.00  0.00     0.033 C 
ATOM     18  C   UNL A   1      32.412  20.369  23.187  1.00  0.00     0.118 C 
BRANCH  18  19
ATOM     19  C   UNL A   1      32.561  20.504  24.731  1.00  0.00     0.266 C 
ATOM     20  N   UNL A   1      33.451  21.334  25.386  1.00  0.00    -0.321 N 
ATOM     21  H   UNL A   1      33.081  21.639  26.246  1.00  0.00     0.170 HD
ATOM     22  O   UNL A   1      31.778  19.931  25.494  1.00  0.00    -0.268 OA
BRANCH  20  23
ATOM     23  C   UNL A   1      34.743  21.868  25.171  1.00  0.00     0.045 A 
ATOM     24  C   UNL A   1      37.145  21.517  25.236  1.00  0.00     0.120 A 
ATOM     25  C   UNL A   1      37.378  22.875  25.073  1.00  0.00     0.046 A 
ATOM     26  C   UNL A   1      35.841  21.010  25.309  1.00  0.00     0.072 A 
ATOM     27  C   UNL A   1      36.300  23.698  24.785  1.00  0.00     0.006 A 
ATOM     28  C   UNL A   1      34.998  23.172  24.753  1.00  0.00     0.026 A 
BRANCH  24  29
ATOM     29  O   UNL A   1      38.216  20.677  25.385  1.00  0.00    -0.497 OA
ATOM     30  C   UNL A   1      37.985  19.488  24.624  1.00  0.00     0.278 C 
ENDBRANCH  24  29
ENDBRANCH  20  23
ENDBRANCH  18  19
BRANCH  18  31
ATOM     31  C   UNL A   1      32.492  18.913  22.761  1.00  0.00     0.105 C 
ATOM     32  N   UNL A   1      32.560  17.704  22.407  1.00  0.00    -0.192 NA
ENDBRANCH  18  31
ENDBRANCH  12  17
ENDBRANCH  10  11
ENDBRANCH   8  10
ENDBRANCH   6   8
ENDBRANCH   5   6
ENDBRANCH   4   5
ENDBRANCH   3   4
ENDBRANCH   2   3
ENDBRANCH   1   2
BRANCH   1  33
ATOM     33  C   UNL A   1      33.580  33.715  28.383  1.00  0.00     0.188 C 
BRANCH  33  34
ATOM     34  O   UNL A   1      33.939  35.026  28.768  1.00  0.00    -0.377 OA
BRANCH  34  35
ATOM     35  C   UNL A   1      32.924  35.927  29.181  1.00  0.00     0.188 C 
BRANCH  35  36
ATOM     36  C   UNL A   1      32.886  36.455  30.629  1.00  0.00     0.188 C 
BRANCH  36  37
ATOM     37  O   UNL A   1      32.757  35.456  31.628  1.00  0.00    -0.376 OA
BRANCH  37  38
ATOM     38  C   UNL A   1      33.926  35.016  32.302  1.00  0.00     0.202 C 
BRANCH  38  39
ATOM     39  C   UNL A   1      33.778  33.825  33.261  1.00  0.00     0.261 C 
BRANCH  39  40
ATOM     40  O   UNL A   1      34.811  32.833  33.199  1.00  0.00    -0.460 OA
BRANCH  40  41
ATOM     41  C   UNL A   1      35.921  33.044  33.942  1.00  0.00     0.338 C 
ATOM     42  O   UNL A   1      35.995  33.577  35.027  1.00  0.00    -0.246 OA
BRANCH  41  43
ATOM     43  C   UNL A   1      37.040  32.347  33.273  1.00  0.00     0.060 A 
ATOM     44  C   UNL A   1      37.741  31.362  33.978  1.00  0.00     0.016 A 
ATOM     45  C   UNL A   1      37.401  32.677  31.965  1.00  0.00     0.016 A 
ATOM     46  C   UNL A   1      38.837  30.731  33.389  1.00  0.00     0.010 A 
ATOM     47  C   UNL A   1      38.510  32.058  31.382  1.00  0.00     0.010 A 
ATOM     48  C   UNL A   1      39.254  31.109  32.105  1.00  0.00    -0.014 A 
BRANCH  48  49
ATOM     49  C   UNL A   1      40.581  30.673  31.603  1.00  0.00     0.031 A 
ATOM     50  C   UNL A   1      41.787  31.484  31.986  1.00  0.00     0.074 A 
ATOM     51  C   UNL A   1      40.725  29.559  30.868  1.00  0.00     0.049 A 
ATOM     52  N   UNL A   1      43.040  31.332  31.643  1.00  0.00    -0.248 NA
ATOM     53  C   UNL A   1      41.541  32.624  32.884  1.00  0.00     0.031 C 
ATOM     54  C   UNL A   1      39.647  28.640  30.516  1.00  0.00     0.029 A 
ATOM     55  N   UNL A   1      41.844  29.004  30.299  1.00  0.00    -0.354 N 
ATOM     56  C   UNL A   1      43.730  32.359  32.276  1.00  0.00     0.074 A 
ATOM     57  C   UNL A   1      42.750  33.150  32.989  1.00  0.00     0.031 C 
ATOM     58  C   UNL A   1      40.164  27.617  29.815  1.00  0.00     0.029 A 
ATOM     59  C   UNL A   1      41.596  27.841  29.611  1.00  0.00     0.049 A 
ATOM     60  H   UNL A   1      42.741  29.403  30.376  1.00  0.00     0.167 HD
ATOM     61  C   UNL A   1      45.061  32.612  32.274  1.00  0.00     0.037 A 
ATOM     62  C   UNL A   1      42.430  27.065  28.886  1.00  0.00     0.037 A 
ATOM     63  C   UNL A   1      46.028  31.827  31.552  1.00  0.00     0.049 A 
ATOM     64  C   UNL A   1      43.874  27.483  28.743  1.00  0.00     0.074 A 
ATOM     65  C   UNL A   1      47.400  31.991  31.489  1.00  0.00     0.029 A 
ATOM     66  N   UNL A   1      45.719  30.737  30.751  1.00  0.00    -0.354 N 
ATOM     67  N   UNL A   1      44.527  28.447  29.350  1.00  0.00    -0.248 NA
ATOM     68  C   UNL A   1      44.694  26.713  27.798  1.00  0.00     0.031 C 
ATOM     69  C   UNL A   1      47.911  31.044  30.593  1.00  0.00     0.029 A 
ATOM     70  C   UNL A   1      46.869  30.242  30.156  1.00  0.00     0.049 A 
ATOM     71  H   UNL A   1      44.814  30.369  30.623  1.00  0.00     0.167 HD
ATOM     72  C   UNL A   1      45.843  28.359  28.907  1.00  0.00     0.074 A 
ATOM     73  C   UNL A   1      45.893  27.251  27.976  1.00  0.00     0.031 C 
ATOM     74  C   UNL A   1      46.914  29.119  29.252  1.00  0.00     0.037 A 
BRANCH  61  75
ATOM     75  C   UNL A   1      45.529  33.821  33.035  1.00  0.00     0.064 A 
ATOM     76  C   UNL A   1      45.687  35.072  32.418  1.00  0.00     0.173 A 
ATOM     77  C   UNL A   1      45.848  33.719  34.397  1.00  0.00     0.173 A 
ATOM     78  F   UNL A   1      45.411  35.223  31.115  1.00  0.00    -0.203 F 
ATOM     79  C   UNL A   1      46.196  36.161  33.124  1.00  0.00     0.198 A 
ATOM     80  C   UNL A   1      46.320  34.818  35.109  1.00  0.00     0.198 A 
ATOM     81  F   UNL A   1      45.712  32.549  35.040  1.00  0.00    -0.203 F 
ATOM     82  F   UNL A   1      46.414  37.323  32.494  1.00  0.00    -0.200 F 
ATOM     83  C   UNL A   1      46.509  36.033  34.469  1.00  0.00     0.200 A 
ATOM     84  F   UNL A   1      46.607  34.698  36.413  1.00  0.00    -0.200 F 
ATOM     85  F   UNL A   1      47.007  37.078  35.145  1.00  0.00    -0.200 F 
ENDBRANCH  61  75
BRANCH  62  86
ATOM     86  C   UNL A   1      41.931  25.821  28.229  1.00  0.00     0.064 A 
ATOM     87  C   UNL A   1      42.254  24.549  28.717  1.00  0.00     0.173 A 
ATOM     88  C   UNL A   1      41.107  25.874  27.098  1.00  0.00     0.173 A 
ATOM     89  F   UNL A   1      43.047  24.426  29.792  1.00  0.00    -0.203 F 
ATOM     90  C   UNL A   1      41.785  23.391  28.093  1.00  0.00     0.198 A 
ATOM     91  C   UNL A   1      40.595  24.724  26.508  1.00  0.00     0.198 A 
ATOM     92  F   UNL A   1      40.751  27.059  26.598  1.00  0.00    -0.203 F 
ATOM     93  F   UNL A   1      42.140  22.188  28.563  1.00  0.00    -0.200 F 
ATOM     94  C   UNL A   1      40.948  23.480  26.993  1.00  0.00     0.200 A 
ATOM     95  F   UNL A   1      39.724  24.826  25.500  1.00  0.00    -0.200 F 
ATOM     96  F   UNL A   1      40.467  22.372  26.414  1.00  0.00    -0.200 F 
ENDBRANCH  62  86
BRANCH  74  97
ATOM     97  C   UNL A   1      48.253  28.726  28.693  1.00  0.00     0.064 A 
ATOM     98  C   UNL A   1      48.782  29.308  27.530  1.00  0.00     0.173 A 
ATOM     99  C   UNL A   1      49.040  27.770  29.359  1.00  0.00     0.173 A 
ATOM    100  F   UNL A   1      48.070  30.215  26.847  1.00  0.00    -0.203 F 
ATOM    101  C   UNL A   1      50.029  28.926  27.041  1.00  0.00     0.198 A 
ATOM    102  C   UNL A   1      50.302  27.418  28.887  1.00  0.00     0.198 A 
ATOM    103  F   UNL A   1      48.589  27.187  30.481  1.00  0.00    -0.203 F 
ATOM    104  F   UNL A   1      50.488  29.456  25.898  1.00  0.00    -0.200 F 
ATOM    105  C   UNL A   1      50.791  27.989  27.723  1.00  0.00     0.200 A 
ATOM    106  F   UNL A   1      51.043  26.528  29.560  1.00  0.00    -0.200 F 
ATOM    107  F   UNL A   1      51.995  27.632  27.256  1.00  0.00    -0.200 F 
ENDBRANCH  74  97
ENDBRANCH  48  49
ENDBRANCH  41  43
ENDBRANCH  40  41
ENDBRANCH  39  40
ENDBRANCH  38  39
ENDBRANCH  37  38
ENDBRANCH  36  37
ENDBRANCH  35  36
ENDBRANCH  34  35
ENDBRANCH  33  34
ENDBRANCH   1  33
TORSDOF 27
ENDMDL
