MODEL 1
REMARK VINA RESULT:     -10.1      0.000      0.000
REMARK SMILES C[NH+](C)[C@@H]1CC[N@@H+](Cc2ccc(C(=O)OCCOCCOCCOCCOC(=O)c3ccc(-c4c5nc(c(-c6c(F)c(F)c(F)c(F)c6F)c6ccc([nH]6)c(-c6c(F)c(F)c(F)c(F)c6F)c6nc(c(-c7c(F)c(F)c(F)c(F)c7F)c7ccc4[nH]7)C=C6)C=C5)cc3)cn2)C1
REMARK SMILES IDX 20 1 19 2 18 3 17 4 16 5 15 6 13 7 14 8 12 9 9 10 10 11
REMARK SMILES IDX 94 12 11 13 93 14 8 15 7 16 4 17 5 18 95 19 6 20 2 22 1 23
REMARK SMILES IDX 3 24 21 26 22 27 23 28 24 29 25 30 26 31 27 32 28 33 29 34
REMARK SMILES IDX 30 35 31 36 92 37 32 38 91 39 33 40 34 41 35 42 85 43 36 44
REMARK SMILES IDX 90 45 84 46 86 47 37 48 89 49 83 50 82 51 38 53 70 54 50 55
REMARK SMILES IDX 69 56 51 57 54 58 68 59 87 60 52 61 53 62 67 64 88 65 55 66
REMARK SMILES IDX 39 67 40 68 48 69 41 70 42 71 46 72 49 73 43 74 44 75 47 76
REMARK SMILES IDX 45 77 71 78 72 79 80 80 73 81 74 82 78 83 81 84 75 85 76 86
REMARK SMILES IDX 79 87 77 88 56 89 57 90 65 91 58 92 59 93 63 94 66 95 60 96
REMARK SMILES IDX 61 97 64 98 62 99
REMARK H PARENT 7 21 2 25 86 52 54 63
REMARK Flexibility Score: inf
ROOT
ATOM      1  C   UNL A   1      33.886  26.073  24.446  1.00  0.00     0.188 C 
ENDROOT
BRANCH   1   2
ATOM      2  C   UNL A   1      34.467  25.539  25.770  1.00  0.00     0.188 C 
BRANCH   2   3
ATOM      3  O   UNL A   1      34.336  24.136  25.905  1.00  0.00    -0.376 OA
BRANCH   3   4
ATOM      4  C   UNL A   1      34.952  23.241  24.997  1.00  0.00     0.202 C 
BRANCH   4   5
ATOM      5  C   UNL A   1      34.441  21.814  24.729  1.00  0.00     0.261 C 
BRANCH   5   6
ATOM      6  O   UNL A   1      33.255  21.695  23.949  1.00  0.00    -0.460 OA
BRANCH   6   7
ATOM      7  C   UNL A   1      32.083  21.684  24.613  1.00  0.00     0.339 C 
ATOM      8  O   UNL A   1      31.682  20.826  25.378  1.00  0.00    -0.246 OA
BRANCH   7   9
ATOM      9  C   UNL A   1      31.450  23.000  24.422  1.00  0.00     0.078 A 
ATOM     10  C   UNL A   1      30.242  25.453  24.270  1.00  0.00     0.095 A 
ATOM     11  C   UNL A   1      30.673  24.848  23.091  1.00  0.00     0.031 A 
ATOM     12  N   UNL A   1      30.526  24.945  25.498  1.00  0.00    -0.254 NA
ATOM     13  C   UNL A   1      31.251  23.584  23.168  1.00  0.00     0.019 A 
ATOM     14  C   UNL A   1      31.128  23.736  25.549  1.00  0.00     0.127 A 
BRANCH  10  15
ATOM     15  C   UNL A   1      29.210  26.563  24.216  1.00  0.00     0.319 C 
BRANCH  15  16
ATOM     16  N   UNL A   1      29.230  27.410  23.004  1.00  0.00    -0.325 N 
ATOM     17  C   UNL A   1      29.350  29.815  23.436  1.00  0.00     0.245 C 
ATOM     18  C   UNL A   1      30.760  29.271  23.158  1.00  0.00     0.132 C 
ATOM     19  C   UNL A   1      28.420  28.633  23.071  1.00  0.00     0.328 C 
ATOM     20  C   UNL A   1      30.566  27.864  22.601  1.00  0.00     0.269 C 
ATOM     21  H   UNL A   1      28.835  26.757  22.328  1.00  0.00     0.348 HD
BRANCH  17  22
ATOM     22  N   UNL A   1      28.865  31.055  22.800  1.00  0.00    -0.333 N 
ATOM     23  C   UNL A   1      28.766  30.908  21.346  1.00  0.00     0.332 C 
ATOM     24  C   UNL A   1      27.627  31.596  23.341  1.00  0.00     0.332 C 
ATOM     25  H   UNL A   1      29.580  31.746  23.030  1.00  0.00     0.348 HD
ENDBRANCH  17  22
ENDBRANCH  15  16
ENDBRANCH  10  15
ENDBRANCH   7   9
ENDBRANCH   6   7
ENDBRANCH   5   6
ENDBRANCH   4   5
ENDBRANCH   3   4
ENDBRANCH   2   3
ENDBRANCH   1   2
BRANCH   1  26
ATOM     26  O   UNL A   1      33.585  27.460  24.441  1.00  0.00    -0.377 OA
BRANCH  26  27
ATOM     27  C   UNL A   1      33.387  28.118  25.694  1.00  0.00     0.188 C 
BRANCH  27  28
ATOM     28  C   UNL A   1      33.234  29.656  25.830  1.00  0.00     0.188 C 
BRANCH  28  29
ATOM     29  O   UNL A   1      32.207  30.091  26.706  1.00  0.00    -0.376 OA
BRANCH  29  30
ATOM     30  C   UNL A   1      31.424  31.212  26.345  1.00  0.00     0.202 C 
BRANCH  30  31
ATOM     31  C   UNL A   1      31.892  32.581  26.860  1.00  0.00     0.261 C 
BRANCH  31  32
ATOM     32  O   UNL A   1      32.813  32.551  27.959  1.00  0.00    -0.460 OA
BRANCH  32  33
ATOM     33  C   UNL A   1      33.855  33.404  27.899  1.00  0.00     0.338 C 
ATOM     34  O   UNL A   1      33.815  34.612  27.715  1.00  0.00    -0.246 OA
BRANCH  33  35
ATOM     35  C   UNL A   1      35.073  32.665  28.280  1.00  0.00     0.060 A 
ATOM     36  C   UNL A   1      34.946  31.352  28.752  1.00  0.00     0.016 A 
ATOM     37  C   UNL A   1      36.330  33.266  28.180  1.00  0.00     0.016 A 
ATOM     38  C   UNL A   1      36.076  30.655  29.176  1.00  0.00     0.010 A 
ATOM     39  C   UNL A   1      37.460  32.571  28.619  1.00  0.00     0.010 A 
ATOM     40  C   UNL A   1      37.331  31.278  29.159  1.00  0.00    -0.014 A 
BRANCH  40  41
ATOM     41  C   UNL A   1      38.461  30.645  29.881  1.00  0.00     0.031 A 
ATOM     42  C   UNL A   1      38.678  30.996  31.328  1.00  0.00     0.074 A 
ATOM     43  C   UNL A   1      39.246  29.734  29.280  1.00  0.00     0.049 A 
ATOM     44  N   UNL A   1      39.578  30.553  32.167  1.00  0.00    -0.248 NA
ATOM     45  C   UNL A   1      37.751  31.982  31.907  1.00  0.00     0.031 C 
ATOM     46  C   UNL A   1      39.115  29.289  27.895  1.00  0.00     0.029 A 
ATOM     47  N   UNL A   1      40.309  29.016  29.767  1.00  0.00    -0.354 N 
ATOM     48  C   UNL A   1      39.327  31.204  33.368  1.00  0.00     0.074 A 
ATOM     49  C   UNL A   1      38.219  32.105  33.139  1.00  0.00     0.031 C 
ATOM     50  C   UNL A   1      40.064  28.371  27.642  1.00  0.00     0.029 A 
ATOM     51  C   UNL A   1      40.885  28.187  28.837  1.00  0.00     0.049 A 
ATOM     52  H   UNL A   1      40.629  29.089  30.696  1.00  0.00     0.167 HD
ATOM     53  C   UNL A   1      39.955  31.055  34.559  1.00  0.00     0.037 A 
ATOM     54  C   UNL A   1      41.960  27.381  28.940  1.00  0.00     0.037 A 
ATOM     55  C   UNL A   1      41.062  30.162  34.781  1.00  0.00     0.049 A 
ATOM     56  C   UNL A   1      42.682  27.281  30.260  1.00  0.00     0.074 A 
ATOM     57  C   UNL A   1      41.761  29.927  35.953  1.00  0.00     0.029 A 
ATOM     58  N   UNL A   1      41.640  29.361  33.806  1.00  0.00    -0.354 N 
ATOM     59  N   UNL A   1      42.421  27.876  31.399  1.00  0.00    -0.248 NA
ATOM     60  C   UNL A   1      43.845  26.384  30.310  1.00  0.00     0.031 C 
ATOM     61  C   UNL A   1      42.800  29.035  35.671  1.00  0.00     0.029 A 
ATOM     62  C   UNL A   1      42.703  28.652  34.343  1.00  0.00     0.049 A 
ATOM     63  H   UNL A   1      41.339  29.305  32.870  1.00  0.00     0.167 HD
ATOM     64  C   UNL A   1      43.356  27.396  32.308  1.00  0.00     0.074 A 
ATOM     65  C   UNL A   1      44.184  26.450  31.589  1.00  0.00     0.031 C 
ATOM     66  C   UNL A   1      43.513  27.705  33.619  1.00  0.00     0.037 A 
BRANCH  53  67
ATOM     67  C   UNL A   1      39.478  31.900  35.706  1.00  0.00     0.064 A 
ATOM     68  C   UNL A   1      38.449  31.476  36.563  1.00  0.00     0.173 A 
ATOM     69  C   UNL A   1      40.079  33.140  35.972  1.00  0.00     0.173 A 
ATOM     70  F   UNL A   1      37.830  30.306  36.347  1.00  0.00    -0.203 F 
ATOM     71  C   UNL A   1      38.023  32.274  37.622  1.00  0.00     0.198 A 
ATOM     72  C   UNL A   1      39.674  33.920  37.051  1.00  0.00     0.198 A 
ATOM     73  F   UNL A   1      41.068  33.594  35.186  1.00  0.00    -0.203 F 
ATOM     74  F   UNL A   1      37.002  31.872  38.392  1.00  0.00    -0.200 F 
ATOM     75  C   UNL A   1      38.641  33.491  37.870  1.00  0.00     0.200 A 
ATOM     76  F   UNL A   1      40.282  35.087  37.297  1.00  0.00    -0.200 F 
ATOM     77  F   UNL A   1      38.235  34.254  38.894  1.00  0.00    -0.200 F 
ENDBRANCH  53  67
BRANCH  54  78
ATOM     78  C   UNL A   1      42.422  26.599  27.761  1.00  0.00     0.064 A 
ATOM     79  C   UNL A   1      42.027  25.267  27.573  1.00  0.00     0.173 A 
ATOM     80  C   UNL A   1      43.289  27.161  26.812  1.00  0.00     0.173 A 
ATOM     81  F   UNL A   1      41.218  24.676  28.465  1.00  0.00    -0.203 F 
ATOM     82  C   UNL A   1      42.502  24.519  26.497  1.00  0.00     0.198 A 
ATOM     83  C   UNL A   1      43.736  26.423  25.719  1.00  0.00     0.198 A 
ATOM     84  F   UNL A   1      43.697  28.431  26.945  1.00  0.00    -0.203 F 
ATOM     85  F   UNL A   1      42.155  23.231  26.373  1.00  0.00    -0.200 F 
ATOM     86  C   UNL A   1      43.352  25.100  25.568  1.00  0.00     0.200 A 
ATOM     87  F   UNL A   1      44.544  26.994  24.815  1.00  0.00    -0.200 F 
ATOM     88  F   UNL A   1      43.807  24.382  24.532  1.00  0.00    -0.200 F 
ENDBRANCH  54  78
BRANCH  66  89
ATOM     89  C   UNL A   1      44.582  26.969  34.381  1.00  0.00     0.064 A 
ATOM     90  C   UNL A   1      45.870  27.496  34.560  1.00  0.00     0.173 A 
ATOM     91  C   UNL A   1      44.304  25.717  34.954  1.00  0.00     0.173 A 
ATOM     92  F   UNL A   1      46.194  28.684  34.025  1.00  0.00    -0.203 F 
ATOM     93  C   UNL A   1      46.850  26.779  35.243  1.00  0.00     0.198 A 
ATOM     94  C   UNL A   1      45.274  25.022  35.672  1.00  0.00     0.198 A 
ATOM     95  F   UNL A   1      43.086  25.169  34.826  1.00  0.00    -0.203 F 
ATOM     96  F   UNL A   1      48.092  27.273  35.340  1.00  0.00    -0.200 F 
ATOM     97  C   UNL A   1      46.549  25.546  35.803  1.00  0.00     0.200 A 
ATOM     98  F   UNL A   1      44.975  23.840  36.229  1.00  0.00    -0.200 F 
ATOM     99  F   UNL A   1      47.493  24.859  36.461  1.00  0.00    -0.200 F 
ENDBRANCH  66  89
ENDBRANCH  40  41
ENDBRANCH  33  35
ENDBRANCH  32  33
ENDBRANCH  31  32
ENDBRANCH  30  31
ENDBRANCH  29  30
ENDBRANCH  28  29
ENDBRANCH  27  28
ENDBRANCH  26  27
ENDBRANCH   1  26
TORSDOF 23
ENDMDL
MODEL 2
REMARK VINA RESULT:     -10.0      0.832      7.244
REMARK SMILES C[NH+](C)[C@@H]1CC[N@@H+](Cc2ccc(C(=O)OCCOCCOCCOCCOC(=O)c3ccc(-c4c5nc(c(-c6c(F)c(F)c(F)c(F)c6F)c6ccc([nH]6)c(-c6c(F)c(F)c(F)c(F)c6F)c6nc(c(-c7c(F)c(F)c(F)c(F)c7F)c7ccc4[nH]7)C=C6)C=C5)cc3)cn2)C1
REMARK SMILES IDX 20 1 19 2 18 3 17 4 16 5 15 6 13 7 14 8 12 9 9 10 10 11
REMARK SMILES IDX 94 12 11 13 93 14 8 15 7 16 4 17 5 18 95 19 6 20 2 22 1 23
REMARK SMILES IDX 3 24 21 26 22 27 23 28 24 29 25 30 26 31 27 32 28 33 29 34
REMARK SMILES IDX 30 35 31 36 92 37 32 38 91 39 33 40 34 41 35 42 85 43 36 44
REMARK SMILES IDX 90 45 84 46 86 47 37 48 89 49 83 50 82 51 38 53 70 54 50 55
REMARK SMILES IDX 69 56 51 57 54 58 68 59 87 60 52 61 53 62 67 64 88 65 55 66
REMARK SMILES IDX 39 67 40 68 48 69 41 70 42 71 46 72 49 73 43 74 44 75 47 76
REMARK SMILES IDX 45 77 71 78 72 79 80 80 73 81 74 82 78 83 81 84 75 85 76 86
REMARK SMILES IDX 79 87 77 88 56 89 57 90 65 91 58 92 59 93 63 94 66 95 60 96
REMARK SMILES IDX 61 97 64 98 62 99
REMARK H PARENT 7 21 2 25 86 52 54 63
REMARK Flexibility Score: inf
ROOT
ATOM      1  C   UNL A   1      34.958  24.321  25.017  1.00  0.00     0.188 C 
ENDROOT
BRANCH   1   2
ATOM      2  C   UNL A   1      34.781  23.853  26.474  1.00  0.00     0.188 C 
BRANCH   2   3
ATOM      3  O   UNL A   1      34.845  22.445  26.615  1.00  0.00    -0.376 OA
BRANCH   3   4
ATOM      4  C   UNL A   1      35.373  21.620  25.593  1.00  0.00     0.202 C 
BRANCH   4   5
ATOM      5  C   UNL A   1      34.501  20.782  24.640  1.00  0.00     0.261 C 
BRANCH   5   6
ATOM      6  O   UNL A   1      33.386  21.441  24.047  1.00  0.00    -0.460 OA
BRANCH   6   7
ATOM      7  C   UNL A   1      32.195  21.301  24.660  1.00  0.00     0.339 C 
ATOM      8  O   UNL A   1      31.780  20.314  25.241  1.00  0.00    -0.246 OA
BRANCH   7   9
ATOM      9  C   UNL A   1      31.554  22.627  24.696  1.00  0.00     0.078 A 
ATOM     10  C   UNL A   1      30.388  25.101  24.560  1.00  0.00     0.095 A 
ATOM     11  C   UNL A   1      30.524  24.496  25.808  1.00  0.00     0.031 A 
ATOM     12  N   UNL A   1      30.676  24.454  23.399  1.00  0.00    -0.254 NA
ATOM     13  C   UNL A   1      31.153  23.257  25.878  1.00  0.00     0.019 A 
ATOM     14  C   UNL A   1      31.245  23.232  23.491  1.00  0.00     0.127 A 
BRANCH  10  15
ATOM     15  C   UNL A   1      30.164  26.599  24.465  1.00  0.00     0.319 C 
BRANCH  15  16
ATOM     16  N   UNL A   1      29.617  27.094  23.184  1.00  0.00    -0.325 N 
ATOM     17  C   UNL A   1      28.887  29.429  23.214  1.00  0.00     0.245 C 
ATOM     18  C   UNL A   1      30.313  29.342  22.646  1.00  0.00     0.132 C 
ATOM     19  C   UNL A   1      28.430  27.951  23.290  1.00  0.00     0.328 C 
ATOM     20  C   UNL A   1      30.568  27.863  22.373  1.00  0.00     0.269 C 
ATOM     21  H   UNL A   1      29.378  26.206  22.742  1.00  0.00     0.348 HD
BRANCH  17  22
ATOM     22  N   UNL A   1      27.847  30.247  22.561  1.00  0.00    -0.333 N 
ATOM     23  C   UNL A   1      27.654  31.521  23.257  1.00  0.00     0.332 C 
ATOM     24  C   UNL A   1      28.028  30.469  21.134  1.00  0.00     0.332 C 
ATOM     25  H   UNL A   1      27.004  29.679  22.638  1.00  0.00     0.348 HD
ENDBRANCH  17  22
ENDBRANCH  15  16
ENDBRANCH  10  15
ENDBRANCH   7   9
ENDBRANCH   6   7
ENDBRANCH   5   6
ENDBRANCH   4   5
ENDBRANCH   3   4
ENDBRANCH   2   3
ENDBRANCH   1   2
BRANCH   1  26
ATOM     26  O   UNL A   1      34.244  25.500  24.676  1.00  0.00    -0.377 OA
BRANCH  26  27
ATOM     27  C   UNL A   1      33.621  26.245  25.725  1.00  0.00     0.188 C 
BRANCH  27  28
ATOM     28  C   UNL A   1      33.704  27.791  25.833  1.00  0.00     0.188 C 
BRANCH  28  29
ATOM     29  O   UNL A   1      32.657  28.407  26.565  1.00  0.00    -0.376 OA
BRANCH  29  30
ATOM     30  C   UNL A   1      31.795  29.312  25.903  1.00  0.00     0.202 C 
BRANCH  30  31
ATOM     31  C   UNL A   1      32.060  30.808  26.119  1.00  0.00     0.261 C 
BRANCH  31  32
ATOM     32  O   UNL A   1      32.536  31.175  27.422  1.00  0.00    -0.460 OA
BRANCH  32  33
ATOM     33  C   UNL A   1      33.411  32.198  27.481  1.00  0.00     0.338 C 
ATOM     34  O   UNL A   1      33.181  33.382  27.283  1.00  0.00    -0.246 OA
BRANCH  33  35
ATOM     35  C   UNL A   1      34.686  31.680  28.012  1.00  0.00     0.060 A 
ATOM     36  C   UNL A   1      34.770  30.327  28.365  1.00  0.00     0.016 A 
ATOM     37  C   UNL A   1      35.788  32.525  28.166  1.00  0.00     0.016 A 
ATOM     38  C   UNL A   1      35.943  29.828  28.926  1.00  0.00     0.010 A 
ATOM     39  C   UNL A   1      36.959  32.026  28.742  1.00  0.00     0.010 A 
ATOM     40  C   UNL A   1      37.026  30.685  29.164  1.00  0.00    -0.014 A 
BRANCH  40  41
ATOM     41  C   UNL A   1      38.141  30.218  30.022  1.00  0.00     0.031 A 
ATOM     42  C   UNL A   1      39.136  29.248  29.445  1.00  0.00     0.074 A 
ATOM     43  C   UNL A   1      38.302  30.690  31.271  1.00  0.00     0.049 A 
ATOM     44  N   UNL A   1      40.203  28.723  29.992  1.00  0.00    -0.248 NA
ATOM     45  C   UNL A   1      38.894  28.810  28.061  1.00  0.00     0.031 C 
ATOM     46  C   UNL A   1      37.424  31.655  31.927  1.00  0.00     0.029 A 
ATOM     47  N   UNL A   1      39.268  30.419  32.207  1.00  0.00    -0.354 N 
ATOM     48  C   UNL A   1      40.755  27.896  29.022  1.00  0.00     0.074 A 
ATOM     49  C   UNL A   1      39.885  27.953  27.869  1.00  0.00     0.031 C 
ATOM     50  C   UNL A   1      37.892  31.897  33.164  1.00  0.00     0.029 A 
ATOM     51  C   UNL A   1      39.084  31.082  33.394  1.00  0.00     0.049 A 
ATOM     52  H   UNL A   1      40.021  29.806  32.043  1.00  0.00     0.167 HD
ATOM     53  C   UNL A   1      41.894  27.164  29.083  1.00  0.00     0.037 A 
ATOM     54  C   UNL A   1      39.793  31.027  34.539  1.00  0.00     0.037 A 
ATOM     55  C   UNL A   1      42.754  27.105  30.236  1.00  0.00     0.049 A 
ATOM     56  C   UNL A   1      41.021  30.154  34.602  1.00  0.00     0.074 A 
ATOM     57  C   UNL A   1      43.937  26.404  30.396  1.00  0.00     0.029 A 
ATOM     58  N   UNL A   1      42.519  27.766  31.433  1.00  0.00    -0.354 N 
ATOM     59  N   UNL A   1      41.556  29.399  33.672  1.00  0.00    -0.248 NA
ATOM     60  C   UNL A   1      41.754  30.137  35.876  1.00  0.00     0.031 C 
ATOM     61  C   UNL A   1      44.381  26.589  31.708  1.00  0.00     0.029 A 
ATOM     62  C   UNL A   1      43.520  27.468  32.345  1.00  0.00     0.049 A 
ATOM     63  H   UNL A   1      41.753  28.359  31.609  1.00  0.00     0.167 HD
ATOM     64  C   UNL A   1      42.705  28.853  34.232  1.00  0.00     0.074 A 
ATOM     65  C   UNL A   1      42.796  29.375  35.580  1.00  0.00     0.031 C 
ATOM     66  C   UNL A   1      43.605  28.002  33.681  1.00  0.00     0.037 A 
BRANCH  53  67
ATOM     67  C   UNL A   1      42.258  26.345  27.878  1.00  0.00     0.064 A 
ATOM     68  C   UNL A   1      43.035  26.869  26.832  1.00  0.00     0.173 A 
ATOM     69  C   UNL A   1      41.849  25.007  27.780  1.00  0.00     0.173 A 
ATOM     70  F   UNL A   1      43.442  28.146  26.866  1.00  0.00    -0.203 F 
ATOM     71  C   UNL A   1      43.363  26.091  25.723  1.00  0.00     0.198 A 
ATOM     72  C   UNL A   1      42.207  24.222  26.687  1.00  0.00     0.198 A 
ATOM     73  F   UNL A   1      41.105  24.454  28.751  1.00  0.00    -0.203 F 
ATOM     74  F   UNL A   1      44.059  26.630  24.712  1.00  0.00    -0.200 F 
ATOM     75  C   UNL A   1      42.956  24.767  25.656  1.00  0.00     0.200 A 
ATOM     76  F   UNL A   1      41.825  22.940  26.632  1.00  0.00    -0.200 F 
ATOM     77  F   UNL A   1      43.279  24.018  24.592  1.00  0.00    -0.200 F 
ENDBRANCH  53  67
BRANCH  54  78
ATOM     78  C   UNL A   1      39.365  31.822  35.721  1.00  0.00     0.064 A 
ATOM     79  C   UNL A   1      38.417  31.326  36.627  1.00  0.00     0.173 A 
ATOM     80  C   UNL A   1      39.878  33.107  35.955  1.00  0.00     0.173 A 
ATOM     81  F   UNL A   1      37.878  30.113  36.434  1.00  0.00    -0.203 F 
ATOM     82  C   UNL A   1      37.978  32.093  37.704  1.00  0.00     0.198 A 
ATOM     83  C   UNL A   1      39.464  33.859  37.052  1.00  0.00     0.198 A 
ATOM     84  F   UNL A   1      40.788  33.630  35.120  1.00  0.00    -0.203 F 
ATOM     85  F   UNL A   1      37.028  31.617  38.521  1.00  0.00    -0.200 F 
ATOM     86  C   UNL A   1      38.506  33.357  37.919  1.00  0.00     0.200 A 
ATOM     87  F   UNL A   1      39.989  35.074  37.264  1.00  0.00    -0.200 F 
ATOM     88  F   UNL A   1      38.087  34.094  38.957  1.00  0.00    -0.200 F 
ENDBRANCH  54  78
BRANCH  66  89
ATOM     89  C   UNL A   1      44.803  27.627  34.511  1.00  0.00     0.064 A 
ATOM     90  C   UNL A   1      44.815  26.493  35.336  1.00  0.00     0.173 A 
ATOM     91  C   UNL A   1      45.965  28.415  34.466  1.00  0.00     0.173 A 
ATOM     92  F   UNL A   1      43.728  25.710  35.425  1.00  0.00    -0.203 F 
ATOM     93  C   UNL A   1      45.927  26.186  36.118  1.00  0.00     0.198 A 
ATOM     94  C   UNL A   1      47.089  28.083  35.218  1.00  0.00     0.198 A 
ATOM     95  F   UNL A   1      46.015  29.505  33.686  1.00  0.00    -0.203 F 
ATOM     96  F   UNL A   1      45.889  25.137  36.951  1.00  0.00    -0.200 F 
ATOM     97  C   UNL A   1      47.064  26.978  36.054  1.00  0.00     0.200 A 
ATOM     98  F   UNL A   1      48.194  28.837  35.139  1.00  0.00    -0.200 F 
ATOM     99  F   UNL A   1      48.133  26.681  36.806  1.00  0.00    -0.200 F 
ENDBRANCH  66  89
ENDBRANCH  40  41
ENDBRANCH  33  35
ENDBRANCH  32  33
ENDBRANCH  31  32
ENDBRANCH  30  31
ENDBRANCH  29  30
ENDBRANCH  28  29
ENDBRANCH  27  28
ENDBRANCH  26  27
ENDBRANCH   1  26
TORSDOF 23
ENDMDL
MODEL 3
REMARK VINA RESULT:      -9.7      4.842     10.746
REMARK SMILES C[NH+](C)[C@@H]1CC[N@@H+](Cc2ccc(C(=O)OCCOCCOCCOCCOC(=O)c3ccc(-c4c5nc(c(-c6c(F)c(F)c(F)c(F)c6F)c6ccc([nH]6)c(-c6c(F)c(F)c(F)c(F)c6F)c6nc(c(-c7c(F)c(F)c(F)c(F)c7F)c7ccc4[nH]7)C=C6)C=C5)cc3)cn2)C1
REMARK SMILES IDX 20 1 19 2 18 3 17 4 16 5 15 6 13 7 14 8 12 9 9 10 10 11
REMARK SMILES IDX 94 12 11 13 93 14 8 15 7 16 4 17 5 18 95 19 6 20 2 22 1 23
REMARK SMILES IDX 3 24 21 26 22 27 23 28 24 29 25 30 26 31 27 32 28 33 29 34
REMARK SMILES IDX 30 35 31 36 92 37 32 38 91 39 33 40 34 41 35 42 85 43 36 44
REMARK SMILES IDX 90 45 84 46 86 47 37 48 89 49 83 50 82 51 38 53 70 54 50 55
REMARK SMILES IDX 69 56 51 57 54 58 68 59 87 60 52 61 53 62 67 64 88 65 55 66
REMARK SMILES IDX 39 67 40 68 48 69 41 70 42 71 46 72 49 73 43 74 44 75 47 76
REMARK SMILES IDX 45 77 71 78 72 79 80 80 73 81 74 82 78 83 81 84 75 85 76 86
REMARK SMILES IDX 79 87 77 88 56 89 57 90 65 91 58 92 59 93 63 94 66 95 60 96
REMARK SMILES IDX 61 97 64 98 62 99
REMARK H PARENT 7 21 2 25 86 52 54 63
REMARK Flexibility Score: inf
ROOT
ATOM      1  C   UNL A   1      34.848  24.141  24.553  1.00  0.00     0.188 C 
ENDROOT
BRANCH   1   2
ATOM      2  C   UNL A   1      34.366  25.241  23.588  1.00  0.00     0.188 C 
BRANCH   2   3
ATOM      3  O   UNL A   1      33.876  26.388  24.257  1.00  0.00    -0.376 OA
BRANCH   3   4
ATOM      4  C   UNL A   1      33.387  27.511  23.547  1.00  0.00     0.202 C 
BRANCH   4   5
ATOM      5  C   UNL A   1      31.994  28.124  23.777  1.00  0.00     0.261 C 
BRANCH   5   6
ATOM      6  O   UNL A   1      31.215  27.566  24.830  1.00  0.00    -0.460 OA
BRANCH   6   7
ATOM      7  C   UNL A   1      30.241  26.704  24.482  1.00  0.00     0.339 C 
ATOM      8  O   UNL A   1      29.218  26.960  23.873  1.00  0.00    -0.246 OA
BRANCH   7   9
ATOM      9  C   UNL A   1      30.722  25.343  24.777  1.00  0.00     0.078 A 
ATOM     10  C   UNL A   1      31.573  22.765  25.134  1.00  0.00     0.095 A 
ATOM     11  C   UNL A   1      31.616  23.637  26.220  1.00  0.00     0.031 A 
ATOM     12  N   UNL A   1      31.264  23.179  23.876  1.00  0.00    -0.254 NA
ATOM     13  C   UNL A   1      31.146  24.935  26.046  1.00  0.00     0.019 A 
ATOM     14  C   UNL A   1      30.853  24.457  23.724  1.00  0.00     0.127 A 
BRANCH  10  15
ATOM     15  C   UNL A   1      31.609  21.266  25.366  1.00  0.00     0.319 C 
BRANCH  15  16
ATOM     16  N   UNL A   1      32.752  20.544  24.766  1.00  0.00    -0.325 N 
ATOM     17  C   UNL A   1      32.799  18.141  25.220  1.00  0.00     0.245 C 
ATOM     18  C   UNL A   1      32.155  18.393  23.848  1.00  0.00     0.132 C 
ATOM     19  C   UNL A   1      33.375  19.522  25.617  1.00  0.00     0.328 C 
ATOM     20  C   UNL A   1      32.442  19.852  23.510  1.00  0.00     0.269 C 
ATOM     21  H   UNL A   1      33.393  21.324  24.617  1.00  0.00     0.348 HD
BRANCH  17  22
ATOM     22  N   UNL A   1      33.823  17.094  25.409  1.00  0.00    -0.333 N 
ATOM     23  C   UNL A   1      33.263  15.756  25.205  1.00  0.00     0.332 C 
ATOM     24  C   UNL A   1      35.040  17.260  24.630  1.00  0.00     0.332 C 
ATOM     25  H   UNL A   1      34.111  17.205  26.380  1.00  0.00     0.348 HD
ENDBRANCH  17  22
ENDBRANCH  15  16
ENDBRANCH  10  15
ENDBRANCH   7   9
ENDBRANCH   6   7
ENDBRANCH   5   6
ENDBRANCH   4   5
ENDBRANCH   3   4
ENDBRANCH   2   3
ENDBRANCH   1   2
BRANCH   1  26
ATOM     26  O   UNL A   1      36.211  23.772  24.407  1.00  0.00    -0.377 OA
BRANCH  26  27
ATOM     27  C   UNL A   1      36.803  22.940  25.408  1.00  0.00     0.188 C 
BRANCH  27  28
ATOM     28  C   UNL A   1      38.118  23.304  26.146  1.00  0.00     0.188 C 
BRANCH  28  29
ATOM     29  O   UNL A   1      39.183  22.384  25.982  1.00  0.00    -0.376 OA
BRANCH  29  30
ATOM     30  C   UNL A   1      38.906  21.098  25.460  1.00  0.00     0.202 C 
BRANCH  30  31
ATOM     31  C   UNL A   1      39.614  19.910  26.127  1.00  0.00     0.261 C 
BRANCH  31  32
ATOM     32  O   UNL A   1      40.688  19.324  25.378  1.00  0.00    -0.460 OA
BRANCH  32  33
ATOM     33  C   UNL A   1      41.844  19.114  26.039  1.00  0.00     0.338 C 
ATOM     34  O   UNL A   1      42.400  18.044  26.239  1.00  0.00    -0.246 OA
BRANCH  33  35
ATOM     35  C   UNL A   1      42.444  20.428  26.338  1.00  0.00     0.060 A 
ATOM     36  C   UNL A   1      42.428  20.893  27.659  1.00  0.00     0.016 A 
ATOM     37  C   UNL A   1      43.012  21.198  25.321  1.00  0.00     0.016 A 
ATOM     38  C   UNL A   1      42.933  22.156  27.957  1.00  0.00     0.010 A 
ATOM     39  C   UNL A   1      43.505  22.472  25.618  1.00  0.00     0.010 A 
ATOM     40  C   UNL A   1      43.428  22.972  26.931  1.00  0.00    -0.014 A 
BRANCH  40  41
ATOM     41  C   UNL A   1      43.682  24.407  27.207  1.00  0.00     0.031 A 
ATOM     42  C   UNL A   1      45.055  24.960  26.941  1.00  0.00     0.074 A 
ATOM     43  C   UNL A   1      42.697  25.217  27.633  1.00  0.00     0.049 A 
ATOM     44  N   UNL A   1      45.505  26.180  27.080  1.00  0.00    -0.248 NA
ATOM     45  C   UNL A   1      46.060  24.003  26.449  1.00  0.00     0.031 C 
ATOM     46  C   UNL A   1      41.320  24.806  27.896  1.00  0.00     0.029 A 
ATOM     47  N   UNL A   1      42.709  26.560  27.916  1.00  0.00    -0.354 N 
ATOM     48  C   UNL A   1      46.838  26.137  26.696  1.00  0.00     0.074 A 
ATOM     49  C   UNL A   1      47.140  24.764  26.359  1.00  0.00     0.031 C 
ATOM     50  C   UNL A   1      40.617  25.877  28.303  1.00  0.00     0.029 A 
ATOM     51  C   UNL A   1      41.501  27.040  28.355  1.00  0.00     0.049 A 
ATOM     52  H   UNL A   1      43.509  27.125  27.812  1.00  0.00     0.167 HD
ATOM     53  C   UNL A   1      47.730  27.155  26.618  1.00  0.00     0.037 A 
ATOM     54  C   UNL A   1      41.155  28.277  28.764  1.00  0.00     0.037 A 
ATOM     55  C   UNL A   1      47.427  28.520  26.960  1.00  0.00     0.049 A 
ATOM     56  C   UNL A   1      42.184  29.379  28.729  1.00  0.00     0.074 A 
ATOM     57  C   UNL A   1      48.256  29.628  26.904  1.00  0.00     0.029 A 
ATOM     58  N   UNL A   1      46.201  28.964  27.434  1.00  0.00    -0.354 N 
ATOM     59  N   UNL A   1      43.434  29.339  28.335  1.00  0.00    -0.248 NA
ATOM     60  C   UNL A   1      41.746  30.706  29.185  1.00  0.00     0.031 C 
ATOM     61  C   UNL A   1      47.551  30.727  27.405  1.00  0.00     0.029 A 
ATOM     62  C   UNL A   1      46.258  30.323  27.699  1.00  0.00     0.049 A 
ATOM     63  H   UNL A   1      45.407  28.396  27.562  1.00  0.00     0.167 HD
ATOM     64  C   UNL A   1      43.918  30.636  28.455  1.00  0.00     0.074 A 
ATOM     65  C   UNL A   1      42.821  31.442  28.947  1.00  0.00     0.031 C 
ATOM     66  C   UNL A   1      45.156  31.117  28.179  1.00  0.00     0.037 A 
BRANCH  53  67
ATOM     67  C   UNL A   1      49.125  26.823  26.171  1.00  0.00     0.064 A 
ATOM     68  C   UNL A   1      50.098  26.350  27.066  1.00  0.00     0.173 A 
ATOM     69  C   UNL A   1      49.488  26.953  24.822  1.00  0.00     0.173 A 
ATOM     70  F   UNL A   1      49.811  26.220  28.370  1.00  0.00    -0.203 F 
ATOM     71  C   UNL A   1      51.387  26.047  26.631  1.00  0.00     0.198 A 
ATOM     72  C   UNL A   1      50.766  26.617  24.385  1.00  0.00     0.198 A 
ATOM     73  F   UNL A   1      48.598  27.401  23.923  1.00  0.00    -0.203 F 
ATOM     74  F   UNL A   1      52.314  25.648  27.514  1.00  0.00    -0.200 F 
ATOM     75  C   UNL A   1      51.717  26.173  25.290  1.00  0.00     0.200 A 
ATOM     76  F   UNL A   1      51.078  26.726  23.086  1.00  0.00    -0.200 F 
ATOM     77  F   UNL A   1      52.954  25.873  24.872  1.00  0.00    -0.200 F 
ENDBRANCH  53  67
BRANCH  54  78
ATOM     78  C   UNL A   1      39.772  28.545  29.241  1.00  0.00     0.064 A 
ATOM     79  C   UNL A   1      38.792  29.059  28.379  1.00  0.00     0.173 A 
ATOM     80  C   UNL A   1      39.408  28.318  30.577  1.00  0.00     0.173 A 
ATOM     81  F   UNL A   1      39.096  29.317  27.099  1.00  0.00    -0.203 F 
ATOM     82  C   UNL A   1      37.512  29.360  28.840  1.00  0.00     0.198 A 
ATOM     83  C   UNL A   1      38.118  28.586  31.028  1.00  0.00     0.198 A 
ATOM     84  F   UNL A   1      40.306  27.827  31.444  1.00  0.00    -0.203 F 
ATOM     85  F   UNL A   1      36.613  29.904  28.009  1.00  0.00    -0.200 F 
ATOM     86  C   UNL A   1      37.174  29.118  30.163  1.00  0.00     0.200 A 
ATOM     87  F   UNL A   1      37.791  28.336  32.304  1.00  0.00    -0.200 F 
ATOM     88  F   UNL A   1      35.942  29.404  30.606  1.00  0.00    -0.200 F 
ENDBRANCH  54  78
BRANCH  66  89
ATOM     89  C   UNL A   1      45.375  32.597  28.343  1.00  0.00     0.064 A 
ATOM     90  C   UNL A   1      45.717  33.170  29.577  1.00  0.00     0.173 A 
ATOM     91  C   UNL A   1      45.254  33.454  27.236  1.00  0.00     0.173 A 
ATOM     92  F   UNL A   1      45.836  32.400  30.669  1.00  0.00    -0.203 F 
ATOM     93  C   UNL A   1      45.885  34.547  29.706  1.00  0.00     0.198 A 
ATOM     94  C   UNL A   1      45.462  34.825  27.361  1.00  0.00     0.198 A 
ATOM     95  F   UNL A   1      44.941  32.961  26.029  1.00  0.00    -0.203 F 
ATOM     96  F   UNL A   1      46.142  35.078  30.910  1.00  0.00    -0.200 F 
ATOM     97  C   UNL A   1      45.763  35.372  28.598  1.00  0.00     0.200 A 
ATOM     98  F   UNL A   1      45.364  35.617  26.285  1.00  0.00    -0.200 F 
ATOM     99  F   UNL A   1      45.925  36.696  28.725  1.00  0.00    -0.200 F 
ENDBRANCH  66  89
ENDBRANCH  40  41
ENDBRANCH  33  35
ENDBRANCH  32  33
ENDBRANCH  31  32
ENDBRANCH  30  31
ENDBRANCH  29  30
ENDBRANCH  28  29
ENDBRANCH  27  28
ENDBRANCH  26  27
ENDBRANCH   1  26
TORSDOF 23
ENDMDL
