MODEL 1
REMARK VINA RESULT:     -11.5      0.000      0.000
REMARK SMILES Cc1cc2c(=O)cc(-c3ccc(F)cc3)oc2c(C(=O)OCCOCCOCCOCCOC(=O)c2ccc(-c3c4nc(c(-c5c(F)c(F)c(F)c(F)c5F)c5ccc([nH]5)c(-c5c(F)c(F)c(F)c(F)c5F)c5nc(c(-c6c(F)c(F)c(F)c(F)c6F)c6ccc3[nH]6)C=C5)C=C4)cc2)c1C
REMARK SMILES IDX 28 1 27 2 26 3 25 4 24 5 23 6 22 7 21 8 19 9 20 10 18 11
REMARK SMILES IDX 1 12 2 13 3 14 99 15 4 16 100 17 5 18 17 19 6 20 7 21 16 22
REMARK SMILES IDX 8 23 9 24 10 25 15 26 11 27 14 28 12 29 13 30 29 31 30 32
REMARK SMILES IDX 31 33 32 34 33 35 34 36 35 37 36 38 37 39 98 40 38 41 97 42
REMARK SMILES IDX 39 43 40 44 41 45 91 46 42 47 96 48 90 49 92 50 43 51 95 52
REMARK SMILES IDX 89 53 88 54 44 56 76 57 56 58 75 59 57 60 60 61 74 62 93 63
REMARK SMILES IDX 58 64 59 65 73 67 94 68 61 69 45 70 46 71 54 72 47 73 48 74
REMARK SMILES IDX 52 75 55 76 49 77 50 78 53 79 51 80 77 81 78 82 86 83 79 84
REMARK SMILES IDX 80 85 84 86 87 87 81 88 82 89 85 90 83 91 62 92 63 93 71 94
REMARK SMILES IDX 64 95 65 96 69 97 72 98 66 99 67 100 70 101 68 102
REMARK H PARENT 92 55 60 66
REMARK Flexibility Score: inf
ROOT
ATOM      1  C   UNL A   1      32.886  36.145  30.385  1.00  0.00     0.188 C 
ENDROOT
BRANCH   1   2
ATOM      2  O   UNL A   1      33.000  34.763  30.088  1.00  0.00    -0.377 OA
BRANCH   2   3
ATOM      3  C   UNL A   1      33.727  34.349  28.939  1.00  0.00     0.188 C 
BRANCH   3   4
ATOM      4  C   UNL A   1      34.300  32.919  28.791  1.00  0.00     0.188 C 
BRANCH   4   5
ATOM      5  O   UNL A   1      34.417  32.435  27.457  1.00  0.00    -0.376 OA
BRANCH   5   6
ATOM      6  C   UNL A   1      34.395  31.022  27.306  1.00  0.00     0.202 C 
BRANCH   6   7
ATOM      7  C   UNL A   1      32.987  30.448  27.425  1.00  0.00     0.261 C 
BRANCH   7   8
ATOM      8  O   UNL A   1      32.438  30.084  26.151  1.00  0.00    -0.460 OA
BRANCH   8   9
ATOM      9  C   UNL A   1      31.737  28.931  26.091  1.00  0.00     0.342 C 
ATOM     10  O   UNL A   1      31.401  28.245  27.040  1.00  0.00    -0.246 OA
BRANCH   9  11
ATOM     11  C   UNL A   1      31.354  28.670  24.676  1.00  0.00     0.106 A 
ATOM     12  C   UNL A   1      29.538  30.284  21.686  1.00  0.00     0.044 C 
ATOM     13  C   UNL A   1      30.331  29.344  22.556  1.00  0.00    -0.046 A 
ATOM     14  C   UNL A   1      30.814  28.162  21.980  1.00  0.00     0.019 A 
ATOM     15  C   UNL A   1      30.577  29.601  23.926  1.00  0.00    -0.030 A 
ATOM     16  C   UNL A   1      31.500  27.222  22.750  1.00  0.00     0.066 A 
ATOM     17  C   UNL A   1      29.929  30.791  24.597  1.00  0.00     0.046 C 
ATOM     18  C   UNL A   1      31.901  25.947  22.137  1.00  0.00     0.193 A 
ATOM     19  C   UNL A   1      31.770  27.455  24.097  1.00  0.00     0.153 A 
ATOM     20  O   UNL A   1      31.761  25.718  20.943  1.00  0.00    -0.289 OA
ATOM     21  C   UNL A   1      32.446  24.932  23.040  1.00  0.00     0.100 A 
ATOM     22  O   UNL A   1      32.357  26.486  24.889  1.00  0.00    -0.455 OA
ATOM     23  C   UNL A   1      32.628  25.248  24.327  1.00  0.00     0.138 A 
BRANCH  23  24
ATOM     24  C   UNL A   1      33.132  24.217  25.245  1.00  0.00     0.018 A 
ATOM     25  C   UNL A   1      34.505  23.940  25.323  1.00  0.00     0.015 A 
ATOM     26  C   UNL A   1      32.252  23.572  26.130  1.00  0.00     0.015 A 
ATOM     27  C   UNL A   1      34.989  23.042  26.281  1.00  0.00     0.040 A 
ATOM     28  C   UNL A   1      32.738  22.677  27.085  1.00  0.00     0.040 A 
ATOM     29  C   UNL A   1      34.102  22.424  27.154  1.00  0.00     0.123 A 
ATOM     30  F   UNL A   1      34.570  21.582  28.085  1.00  0.00    -0.207 F 
ENDBRANCH  23  24
ENDBRANCH   9  11
ENDBRANCH   8   9
ENDBRANCH   7   8
ENDBRANCH   6   7
ENDBRANCH   5   6
ENDBRANCH   4   5
ENDBRANCH   3   4
ENDBRANCH   2   3
ENDBRANCH   1   2
BRANCH   1  31
ATOM     31  C   UNL A   1      33.534  36.668  31.680  1.00  0.00     0.188 C 
BRANCH  31  32
ATOM     32  O   UNL A   1      33.719  35.668  32.674  1.00  0.00    -0.376 OA
BRANCH  32  33
ATOM     33  C   UNL A   1      35.014  35.588  33.253  1.00  0.00     0.202 C 
BRANCH  33  34
ATOM     34  C   UNL A   1      35.435  34.194  33.734  1.00  0.00     0.261 C 
BRANCH  34  35
ATOM     35  O   UNL A   1      36.284  33.454  32.842  1.00  0.00    -0.460 OA
BRANCH  35  36
ATOM     36  C   UNL A   1      35.791  32.334  32.270  1.00  0.00     0.338 C 
ATOM     37  O   UNL A   1      34.623  32.010  32.154  1.00  0.00    -0.246 OA
BRANCH  36  38
ATOM     38  C   UNL A   1      36.932  31.649  31.630  1.00  0.00     0.060 A 
ATOM     39  C   UNL A   1      37.059  31.657  30.238  1.00  0.00     0.016 A 
ATOM     40  C   UNL A   1      37.848  30.944  32.422  1.00  0.00     0.016 A 
ATOM     41  C   UNL A   1      38.118  30.976  29.638  1.00  0.00     0.010 A 
ATOM     42  C   UNL A   1      38.902  30.252  31.818  1.00  0.00     0.010 A 
ATOM     43  C   UNL A   1      39.055  30.284  30.424  1.00  0.00    -0.014 A 
BRANCH  43  44
ATOM     44  C   UNL A   1      40.292  29.771  29.790  1.00  0.00     0.031 A 
ATOM     45  C   UNL A   1      40.406  28.374  29.264  1.00  0.00     0.074 A 
ATOM     46  C   UNL A   1      41.331  30.621  29.689  1.00  0.00     0.049 A 
ATOM     47  N   UNL A   1      41.394  27.828  28.599  1.00  0.00    -0.248 NA
ATOM     48  C   UNL A   1      39.277  27.470  29.518  1.00  0.00     0.031 C 
ATOM     49  C   UNL A   1      41.335  31.995  30.193  1.00  0.00     0.029 A 
ATOM     50  N   UNL A   1      42.570  30.466  29.124  1.00  0.00    -0.354 N 
ATOM     51  C   UNL A   1      40.999  26.526  28.331  1.00  0.00     0.074 A 
ATOM     52  C   UNL A   1      39.699  26.347  28.946  1.00  0.00     0.031 C 
ATOM     53  C   UNL A   1      42.511  32.566  29.897  1.00  0.00     0.029 A 
ATOM     54  C   UNL A   1      43.348  31.594  29.200  1.00  0.00     0.049 A 
ATOM     55  H   UNL A   1      42.873  29.628  28.706  1.00  0.00     0.167 HD
ATOM     56  C   UNL A   1      41.661  25.579  27.620  1.00  0.00     0.037 A 
ATOM     57  C   UNL A   1      44.595  31.825  28.750  1.00  0.00     0.037 A 
ATOM     58  C   UNL A   1      42.962  25.765  27.025  1.00  0.00     0.049 A 
ATOM     59  C   UNL A   1      45.318  30.744  28.002  1.00  0.00     0.074 A 
ATOM     60  C   UNL A   1      43.689  24.878  26.247  1.00  0.00     0.029 A 
ATOM     61  N   UNL A   1      43.740  26.907  27.154  1.00  0.00    -0.354 N 
ATOM     62  N   UNL A   1      44.900  29.544  27.678  1.00  0.00    -0.248 NA
ATOM     63  C   UNL A   1      46.680  31.050  27.546  1.00  0.00     0.031 C 
ATOM     64  C   UNL A   1      44.924  25.462  25.951  1.00  0.00     0.029 A 
ATOM     65  C   UNL A   1      44.950  26.734  26.497  1.00  0.00     0.049 A 
ATOM     66  H   UNL A   1      43.472  27.721  27.639  1.00  0.00     0.167 HD
ATOM     67  C   UNL A   1      45.938  28.959  26.967  1.00  0.00     0.074 A 
ATOM     68  C   UNL A   1      46.998  29.942  26.888  1.00  0.00     0.031 C 
ATOM     69  C   UNL A   1      46.003  27.717  26.431  1.00  0.00     0.037 A 
BRANCH  56  70
ATOM     70  C   UNL A   1      40.994  24.249  27.420  1.00  0.00     0.064 A 
ATOM     71  C   UNL A   1      39.909  24.105  26.543  1.00  0.00     0.173 A 
ATOM     72  C   UNL A   1      41.513  23.090  28.015  1.00  0.00     0.173 A 
ATOM     73  F   UNL A   1      39.374  25.183  25.948  1.00  0.00    -0.203 F 
ATOM     74  C   UNL A   1      39.364  22.851  26.276  1.00  0.00     0.198 A 
ATOM     75  C   UNL A   1      40.982  21.834  27.727  1.00  0.00     0.198 A 
ATOM     76  F   UNL A   1      42.559  23.169  28.852  1.00  0.00    -0.203 F 
ATOM     77  F   UNL A   1      38.315  22.741  25.448  1.00  0.00    -0.200 F 
ATOM     78  C   UNL A   1      39.907  21.717  26.859  1.00  0.00     0.200 A 
ATOM     79  F   UNL A   1      41.519  20.738  28.278  1.00  0.00    -0.200 F 
ATOM     80  F   UNL A   1      39.397  20.509  26.582  1.00  0.00    -0.200 F 
ENDBRANCH  56  70
BRANCH  57  81
ATOM     81  C   UNL A   1      45.212  33.158  28.967  1.00  0.00     0.064 A 
ATOM     82  C   UNL A   1      46.028  33.398  30.080  1.00  0.00     0.173 A 
ATOM     83  C   UNL A   1      45.027  34.203  28.051  1.00  0.00     0.173 A 
ATOM     84  F   UNL A   1      46.221  32.432  30.990  1.00  0.00    -0.203 F 
ATOM     85  C   UNL A   1      46.629  34.639  30.274  1.00  0.00     0.198 A 
ATOM     86  C   UNL A   1      45.650  35.435  28.232  1.00  0.00     0.198 A 
ATOM     87  F   UNL A   1      44.261  34.019  26.965  1.00  0.00    -0.203 F 
ATOM     88  F   UNL A   1      47.380  34.854  31.363  1.00  0.00    -0.200 F 
ATOM     89  C   UNL A   1      46.446  35.654  29.346  1.00  0.00     0.200 A 
ATOM     90  F   UNL A   1      45.486  36.407  27.324  1.00  0.00    -0.200 F 
ATOM     91  F   UNL A   1      47.035  36.844  29.527  1.00  0.00    -0.200 F 
ENDBRANCH  57  81
BRANCH  69  92
ATOM     92  C   UNL A   1      47.262  27.344  25.703  1.00  0.00     0.064 A 
ATOM     93  C   UNL A   1      47.424  27.615  24.336  1.00  0.00     0.173 A 
ATOM     94  C   UNL A   1      48.339  26.762  26.390  1.00  0.00     0.173 A 
ATOM     95  F   UNL A   1      46.419  28.155  23.632  1.00  0.00    -0.203 F 
ATOM     96  C   UNL A   1      48.613  27.302  23.681  1.00  0.00     0.198 A 
ATOM     97  C   UNL A   1      49.536  26.478  25.738  1.00  0.00     0.198 A 
ATOM     98  F   UNL A   1      48.236  26.488  27.699  1.00  0.00    -0.203 F 
ATOM     99  F   UNL A   1      48.732  27.536  22.367  1.00  0.00    -0.200 F 
ATOM    100  C   UNL A   1      49.670  26.745  24.384  1.00  0.00     0.200 A 
ATOM    101  F   UNL A   1      50.561  25.952  26.421  1.00  0.00    -0.200 F 
ATOM    102  F   UNL A   1      50.818  26.459  23.754  1.00  0.00    -0.200 F 
ENDBRANCH  69  92
ENDBRANCH  43  44
ENDBRANCH  36  38
ENDBRANCH  35  36
ENDBRANCH  34  35
ENDBRANCH  33  34
ENDBRANCH  32  33
ENDBRANCH  31  32
ENDBRANCH   1  31
TORSDOF 21
ENDMDL
MODEL 2
REMARK VINA RESULT:     -11.3      1.388      7.169
REMARK SMILES Cc1cc2c(=O)cc(-c3ccc(F)cc3)oc2c(C(=O)OCCOCCOCCOCCOC(=O)c2ccc(-c3c4nc(c(-c5c(F)c(F)c(F)c(F)c5F)c5ccc([nH]5)c(-c5c(F)c(F)c(F)c(F)c5F)c5nc(c(-c6c(F)c(F)c(F)c(F)c6F)c6ccc3[nH]6)C=C5)C=C4)cc2)c1C
REMARK SMILES IDX 28 1 27 2 26 3 25 4 24 5 23 6 22 7 21 8 19 9 20 10 18 11
REMARK SMILES IDX 1 12 2 13 3 14 99 15 4 16 100 17 5 18 17 19 6 20 7 21 16 22
REMARK SMILES IDX 8 23 9 24 10 25 15 26 11 27 14 28 12 29 13 30 29 31 30 32
REMARK SMILES IDX 31 33 32 34 33 35 34 36 35 37 36 38 37 39 98 40 38 41 97 42
REMARK SMILES IDX 39 43 40 44 41 45 91 46 42 47 96 48 90 49 92 50 43 51 95 52
REMARK SMILES IDX 89 53 88 54 44 56 76 57 56 58 75 59 57 60 60 61 74 62 93 63
REMARK SMILES IDX 58 64 59 65 73 67 94 68 61 69 45 70 46 71 54 72 47 73 48 74
REMARK SMILES IDX 52 75 55 76 49 77 50 78 53 79 51 80 77 81 78 82 86 83 79 84
REMARK SMILES IDX 80 85 84 86 87 87 81 88 82 89 85 90 83 91 62 92 63 93 71 94
REMARK SMILES IDX 64 95 65 96 69 97 72 98 66 99 67 100 70 101 68 102
REMARK H PARENT 92 55 60 66
REMARK Flexibility Score: inf
ROOT
ATOM      1  C   UNL A   1      34.223  33.428  29.016  1.00  0.00     0.188 C 
ENDROOT
BRANCH   1   2
ATOM      2  O   UNL A   1      35.210  32.948  28.118  1.00  0.00    -0.377 OA
BRANCH   2   3
ATOM      3  C   UNL A   1      35.313  31.554  27.865  1.00  0.00     0.188 C 
BRANCH   3   4
ATOM      4  C   UNL A   1      34.071  30.646  27.700  1.00  0.00     0.188 C 
BRANCH   4   5
ATOM      5  O   UNL A   1      33.785  30.224  26.371  1.00  0.00    -0.376 OA
BRANCH   5   6
ATOM      6  C   UNL A   1      34.086  28.867  26.073  1.00  0.00     0.202 C 
BRANCH   6   7
ATOM      7  C   UNL A   1      33.358  27.895  26.996  1.00  0.00     0.261 C 
BRANCH   7   8
ATOM      8  O   UNL A   1      33.207  26.595  26.409  1.00  0.00    -0.460 OA
BRANCH   8   9
ATOM      9  C   UNL A   1      31.981  26.269  25.947  1.00  0.00     0.342 C 
ATOM     10  O   UNL A   1      31.056  25.835  26.611  1.00  0.00    -0.246 OA
BRANCH   9  11
ATOM     11  C   UNL A   1      31.902  26.609  24.500  1.00  0.00     0.106 A 
ATOM     12  C   UNL A   1      30.842  29.439  22.110  1.00  0.00     0.044 C 
ATOM     13  C   UNL A   1      31.389  28.151  22.669  1.00  0.00    -0.046 A 
ATOM     14  C   UNL A   1      31.935  27.224  21.772  1.00  0.00     0.019 A 
ATOM     15  C   UNL A   1      31.344  27.841  24.049  1.00  0.00    -0.030 A 
ATOM     16  C   UNL A   1      32.399  25.987  22.221  1.00  0.00     0.066 A 
ATOM     17  C   UNL A   1      30.616  28.761  25.004  1.00  0.00     0.046 C 
ATOM     18  C   UNL A   1      32.869  24.998  21.239  1.00  0.00     0.193 A 
ATOM     19  C   UNL A   1      32.382  25.660  23.575  1.00  0.00     0.153 A 
ATOM     20  O   UNL A   1      32.981  25.254  20.048  1.00  0.00    -0.289 OA
ATOM     21  C   UNL A   1      33.164  23.659  21.753  1.00  0.00     0.100 A 
ATOM     22  O   UNL A   1      32.743  24.401  24.015  1.00  0.00    -0.455 OA
ATOM     23  C   UNL A   1      33.077  23.442  23.071  1.00  0.00     0.138 A 
BRANCH  23  24
ATOM     24  C   UNL A   1      33.328  22.087  23.583  1.00  0.00     0.018 A 
ATOM     25  C   UNL A   1      34.456  21.820  24.373  1.00  0.00     0.015 A 
ATOM     26  C   UNL A   1      32.381  21.070  23.374  1.00  0.00     0.015 A 
ATOM     27  C   UNL A   1      34.626  20.559  24.954  1.00  0.00     0.040 A 
ATOM     28  C   UNL A   1      32.554  19.812  23.956  1.00  0.00     0.040 A 
ATOM     29  C   UNL A   1      33.673  19.571  24.744  1.00  0.00     0.123 A 
ATOM     30  F   UNL A   1      33.826  18.371  25.319  1.00  0.00    -0.207 F 
ENDBRANCH  23  24
ENDBRANCH   9  11
ENDBRANCH   8   9
ENDBRANCH   7   8
ENDBRANCH   6   7
ENDBRANCH   5   6
ENDBRANCH   4   5
ENDBRANCH   3   4
ENDBRANCH   2   3
ENDBRANCH   1   2
BRANCH   1  31
ATOM     31  C   UNL A   1      34.685  34.217  30.254  1.00  0.00     0.188 C 
BRANCH  31  32
ATOM     32  O   UNL A   1      33.656  34.435  31.213  1.00  0.00    -0.376 OA
BRANCH  32  33
ATOM     33  C   UNL A   1      33.957  34.072  32.552  1.00  0.00     0.202 C 
BRANCH  33  34
ATOM     34  C   UNL A   1      35.441  33.822  32.848  1.00  0.00     0.261 C 
BRANCH  34  35
ATOM     35  O   UNL A   1      35.839  32.444  32.931  1.00  0.00    -0.460 OA
BRANCH  35  36
ATOM     36  C   UNL A   1      36.918  32.132  33.681  1.00  0.00     0.338 C 
ATOM     37  O   UNL A   1      37.005  32.131  34.895  1.00  0.00    -0.246 OA
BRANCH  36  38
ATOM     38  C   UNL A   1      37.938  31.600  32.754  1.00  0.00     0.060 A 
ATOM     39  C   UNL A   1      37.786  31.774  31.376  1.00  0.00     0.016 A 
ATOM     40  C   UNL A   1      39.021  30.872  33.263  1.00  0.00     0.016 A 
ATOM     41  C   UNL A   1      38.733  31.236  30.505  1.00  0.00     0.010 A 
ATOM     42  C   UNL A   1      39.964  30.324  32.388  1.00  0.00     0.010 A 
ATOM     43  C   UNL A   1      39.837  30.523  31.005  1.00  0.00    -0.014 A 
BRANCH  43  44
ATOM     44  C   UNL A   1      40.944  30.167  30.088  1.00  0.00     0.031 A 
ATOM     45  C   UNL A   1      42.043  31.124  29.746  1.00  0.00     0.074 A 
ATOM     46  C   UNL A   1      40.940  28.926  29.569  1.00  0.00     0.049 A 
ATOM     47  N   UNL A   1      43.125  30.909  29.038  1.00  0.00    -0.248 NA
ATOM     48  C   UNL A   1      41.918  32.496  30.254  1.00  0.00     0.031 C 
ATOM     49  C   UNL A   1      39.902  27.923  29.815  1.00  0.00     0.029 A 
ATOM     50  N   UNL A   1      41.830  28.290  28.743  1.00  0.00    -0.354 N 
ATOM     51  C   UNL A   1      43.822  32.108  29.034  1.00  0.00     0.074 A 
ATOM     52  C   UNL A   1      43.019  33.062  29.773  1.00  0.00     0.031 C 
ATOM     53  C   UNL A   1      40.224  26.792  29.172  1.00  0.00     0.029 A 
ATOM     54  C   UNL A   1      41.480  26.995  28.456  1.00  0.00     0.049 A 
ATOM     55  H   UNL A   1      42.642  28.722  28.389  1.00  0.00     0.167 HD
ATOM     56  C   UNL A   1      45.030  32.373  28.477  1.00  0.00     0.037 A 
ATOM     57  C   UNL A   1      42.104  26.069  27.706  1.00  0.00     0.037 A 
ATOM     58  C   UNL A   1      45.813  31.418  27.731  1.00  0.00     0.049 A 
ATOM     59  C   UNL A   1      43.420  26.405  27.068  1.00  0.00     0.074 A 
ATOM     60  C   UNL A   1      47.069  31.583  27.170  1.00  0.00     0.029 A 
ATOM     61  N   UNL A   1      45.410  30.126  27.425  1.00  0.00    -0.354 N 
ATOM     62  N   UNL A   1      44.114  27.515  27.143  1.00  0.00    -0.248 NA
ATOM     63  C   UNL A   1      44.048  25.358  26.250  1.00  0.00     0.031 C 
ATOM     64  C   UNL A   1      47.403  30.412  26.483  1.00  0.00     0.029 A 
ATOM     65  C   UNL A   1      46.380  29.495  26.658  1.00  0.00     0.049 A 
ATOM     66  H   UNL A   1      44.562  29.715  27.711  1.00  0.00     0.167 HD
ATOM     67  C   UNL A   1      45.264  27.296  26.400  1.00  0.00     0.074 A 
ATOM     68  C   UNL A   1      45.187  25.940  25.899  1.00  0.00     0.031 C 
ATOM     69  C   UNL A   1      46.290  28.146  26.157  1.00  0.00     0.037 A 
BRANCH  56  70
ATOM     70  C   UNL A   1      45.607  33.747  28.659  1.00  0.00     0.064 A 
ATOM     71  C   UNL A   1      46.427  34.052  29.754  1.00  0.00     0.173 A 
ATOM     72  C   UNL A   1      45.436  34.732  27.674  1.00  0.00     0.173 A 
ATOM     73  F   UNL A   1      46.623  33.145  30.724  1.00  0.00    -0.203 F 
ATOM     74  C   UNL A   1      47.050  35.293  29.860  1.00  0.00     0.198 A 
ATOM     75  C   UNL A   1      46.080  35.964  27.771  1.00  0.00     0.198 A 
ATOM     76  F   UNL A   1      44.672  34.488  26.598  1.00  0.00    -0.203 F 
ATOM     77  F   UNL A   1      47.816  35.568  30.927  1.00  0.00    -0.200 F 
ATOM     78  C   UNL A   1      46.884  36.243  28.864  1.00  0.00     0.200 A 
ATOM     79  F   UNL A   1      45.932  36.874  26.799  1.00  0.00    -0.200 F 
ATOM     80  F   UNL A   1      47.503  37.428  28.957  1.00  0.00    -0.200 F 
ENDBRANCH  56  70
BRANCH  57  81
ATOM     81  C   UNL A   1      41.497  24.721  27.559  1.00  0.00     0.064 A 
ATOM     82  C   UNL A   1      40.371  24.526  26.750  1.00  0.00     0.173 A 
ATOM     83  C   UNL A   1      42.051  23.602  28.195  1.00  0.00     0.173 A 
ATOM     84  F   UNL A   1      39.799  25.571  26.133  1.00  0.00    -0.203 F 
ATOM     85  C   UNL A   1      39.814  23.260  26.590  1.00  0.00     0.198 A 
ATOM     86  C   UNL A   1      41.509  22.332  28.012  1.00  0.00     0.198 A 
ATOM     87  F   UNL A   1      43.135  23.737  28.973  1.00  0.00    -0.203 F 
ATOM     88  F   UNL A   1      38.718  23.103  25.835  1.00  0.00    -0.200 F 
ATOM     89  C   UNL A   1      40.388  22.163  27.214  1.00  0.00     0.200 A 
ATOM     90  F   UNL A   1      42.078  21.272  28.603  1.00  0.00    -0.200 F 
ATOM     91  F   UNL A   1      39.859  20.943  27.049  1.00  0.00    -0.200 F 
ENDBRANCH  57  81
BRANCH  69  92
ATOM     92  C   UNL A   1      47.422  27.639  25.312  1.00  0.00     0.064 A 
ATOM     93  C   UNL A   1      47.425  27.804  23.918  1.00  0.00     0.173 A 
ATOM     94  C   UNL A   1      48.541  27.032  25.904  1.00  0.00     0.173 A 
ATOM     95  F   UNL A   1      46.373  28.363  23.303  1.00  0.00    -0.203 F 
ATOM     96  C   UNL A   1      48.500  27.367  23.149  1.00  0.00     0.198 A 
ATOM     97  C   UNL A   1      49.626  26.623  25.134  1.00  0.00     0.198 A 
ATOM     98  F   UNL A   1      48.590  26.856  27.233  1.00  0.00    -0.203 F 
ATOM     99  F   UNL A   1      48.465  27.502  21.816  1.00  0.00    -0.200 F 
ATOM    100  C   UNL A   1      49.603  26.787  23.757  1.00  0.00     0.200 A 
ATOM    101  F   UNL A   1      50.697  26.076  25.725  1.00  0.00    -0.200 F 
ATOM    102  F   UNL A   1      50.643  26.380  23.015  1.00  0.00    -0.200 F 
ENDBRANCH  69  92
ENDBRANCH  43  44
ENDBRANCH  36  38
ENDBRANCH  35  36
ENDBRANCH  34  35
ENDBRANCH  33  34
ENDBRANCH  32  33
ENDBRANCH  31  32
ENDBRANCH   1  31
TORSDOF 21
ENDMDL
MODEL 3
REMARK VINA RESULT:     -11.2      2.121      7.978
REMARK SMILES Cc1cc2c(=O)cc(-c3ccc(F)cc3)oc2c(C(=O)OCCOCCOCCOCCOC(=O)c2ccc(-c3c4nc(c(-c5c(F)c(F)c(F)c(F)c5F)c5ccc([nH]5)c(-c5c(F)c(F)c(F)c(F)c5F)c5nc(c(-c6c(F)c(F)c(F)c(F)c6F)c6ccc3[nH]6)C=C5)C=C4)cc2)c1C
REMARK SMILES IDX 28 1 27 2 26 3 25 4 24 5 23 6 22 7 21 8 19 9 20 10 18 11
REMARK SMILES IDX 1 12 2 13 3 14 99 15 4 16 100 17 5 18 17 19 6 20 7 21 16 22
REMARK SMILES IDX 8 23 9 24 10 25 15 26 11 27 14 28 12 29 13 30 29 31 30 32
REMARK SMILES IDX 31 33 32 34 33 35 34 36 35 37 36 38 37 39 98 40 38 41 97 42
REMARK SMILES IDX 39 43 40 44 41 45 91 46 42 47 96 48 90 49 92 50 43 51 95 52
REMARK SMILES IDX 89 53 88 54 44 56 76 57 56 58 75 59 57 60 60 61 74 62 93 63
REMARK SMILES IDX 58 64 59 65 73 67 94 68 61 69 45 70 46 71 54 72 47 73 48 74
REMARK SMILES IDX 52 75 55 76 49 77 50 78 53 79 51 80 77 81 78 82 86 83 79 84
REMARK SMILES IDX 80 85 84 86 87 87 81 88 82 89 85 90 83 91 62 92 63 93 71 94
REMARK SMILES IDX 64 95 65 96 69 97 72 98 66 99 67 100 70 101 68 102
REMARK H PARENT 92 55 60 66
REMARK Flexibility Score: inf
ROOT
ATOM      1  C   UNL A   1      33.535  35.511  29.884  1.00  0.00     0.188 C 
ENDROOT
BRANCH   1   2
ATOM      2  O   UNL A   1      32.580  34.772  29.141  1.00  0.00    -0.377 OA
BRANCH   2   3
ATOM      3  C   UNL A   1      33.001  34.004  28.021  1.00  0.00     0.188 C 
BRANCH   3   4
ATOM      4  C   UNL A   1      34.274  33.125  28.049  1.00  0.00     0.188 C 
BRANCH   4   5
ATOM      5  O   UNL A   1      34.065  31.742  28.315  1.00  0.00    -0.376 OA
BRANCH   5   6
ATOM      6  C   UNL A   1      34.398  30.850  27.259  1.00  0.00     0.202 C 
BRANCH   6   7
ATOM      7  C   UNL A   1      33.178  30.447  26.436  1.00  0.00     0.261 C 
BRANCH   7   8
ATOM      8  O   UNL A   1      33.160  29.044  26.141  1.00  0.00    -0.460 OA
BRANCH   8   9
ATOM      9  C   UNL A   1      32.981  28.689  24.850  1.00  0.00     0.342 C 
ATOM     10  O   UNL A   1      33.514  29.205  23.884  1.00  0.00    -0.246 OA
BRANCH   9  11
ATOM     11  C   UNL A   1      32.091  27.497  24.795  1.00  0.00     0.106 A 
ATOM     12  C   UNL A   1      32.034  23.724  25.575  1.00  0.00     0.044 C 
ATOM     13  C   UNL A   1      31.634  25.122  25.183  1.00  0.00    -0.046 A 
ATOM     14  C   UNL A   1      30.304  25.345  24.804  1.00  0.00     0.019 A 
ATOM     15  C   UNL A   1      32.554  26.198  25.159  1.00  0.00    -0.030 A 
ATOM     16  C   UNL A   1      29.889  26.605  24.369  1.00  0.00     0.066 A 
ATOM     17  C   UNL A   1      34.023  25.939  25.412  1.00  0.00     0.046 C 
ATOM     18  C   UNL A   1      28.513  26.776  23.881  1.00  0.00     0.193 A 
ATOM     19  C   UNL A   1      30.768  27.686  24.349  1.00  0.00     0.153 A 
ATOM     20  O   UNL A   1      27.675  25.888  23.945  1.00  0.00    -0.289 OA
ATOM     21  C   UNL A   1      28.195  28.067  23.266  1.00  0.00     0.100 A 
ATOM     22  O   UNL A   1      30.392  28.907  23.825  1.00  0.00    -0.455 OA
ATOM     23  C   UNL A   1      29.129  29.025  23.265  1.00  0.00     0.138 A 
BRANCH  23  24
ATOM     24  C   UNL A   1      28.828  30.305  22.608  1.00  0.00     0.018 A 
ATOM     25  C   UNL A   1      28.508  30.349  21.242  1.00  0.00     0.015 A 
ATOM     26  C   UNL A   1      28.754  31.485  23.366  1.00  0.00     0.015 A 
ATOM     27  C   UNL A   1      28.108  31.552  20.651  1.00  0.00     0.040 A 
ATOM     28  C   UNL A   1      28.354  32.684  22.773  1.00  0.00     0.040 A 
ATOM     29  C   UNL A   1      28.031  32.705  21.422  1.00  0.00     0.123 A 
ATOM     30  F   UNL A   1      27.627  33.851  20.859  1.00  0.00    -0.207 F 
ENDBRANCH  23  24
ENDBRANCH   9  11
ENDBRANCH   8   9
ENDBRANCH   7   8
ENDBRANCH   6   7
ENDBRANCH   5   6
ENDBRANCH   4   5
ENDBRANCH   3   4
ENDBRANCH   2   3
ENDBRANCH   1   2
BRANCH   1  31
ATOM     31  C   UNL A   1      33.297  35.700  31.394  1.00  0.00     0.188 C 
BRANCH  31  32
ATOM     32  O   UNL A   1      33.123  34.479  32.104  1.00  0.00    -0.376 OA
BRANCH  32  33
ATOM     33  C   UNL A   1      34.306  33.858  32.585  1.00  0.00     0.202 C 
BRANCH  33  34
ATOM     34  C   UNL A   1      34.794  32.653  31.772  1.00  0.00     0.261 C 
BRANCH  34  35
ATOM     35  O   UNL A   1      35.507  31.648  32.510  1.00  0.00    -0.460 OA
BRANCH  35  36
ATOM     36  C   UNL A   1      36.584  32.026  33.232  1.00  0.00     0.338 C 
ATOM     37  O   UNL A   1      36.617  32.356  34.403  1.00  0.00    -0.246 OA
BRANCH  36  38
ATOM     38  C   UNL A   1      37.769  31.782  32.383  1.00  0.00     0.060 A 
ATOM     39  C   UNL A   1      38.979  31.400  32.967  1.00  0.00     0.016 A 
ATOM     40  C   UNL A   1      37.683  31.993  31.000  1.00  0.00     0.016 A 
ATOM     41  C   UNL A   1      40.102  31.208  32.164  1.00  0.00     0.010 A 
ATOM     42  C   UNL A   1      38.813  31.812  30.198  1.00  0.00     0.010 A 
ATOM     43  C   UNL A   1      40.024  31.396  30.773  1.00  0.00    -0.014 A 
BRANCH  43  44
ATOM     44  C   UNL A   1      41.154  30.963  29.919  1.00  0.00     0.031 A 
ATOM     45  C   UNL A   1      42.275  31.880  29.543  1.00  0.00     0.074 A 
ATOM     46  C   UNL A   1      41.149  29.687  29.491  1.00  0.00     0.049 A 
ATOM     47  N   UNL A   1      43.375  31.602  28.886  1.00  0.00    -0.248 NA
ATOM     48  C   UNL A   1      42.153  33.287  29.947  1.00  0.00     0.031 C 
ATOM     49  C   UNL A   1      40.090  28.717  29.776  1.00  0.00     0.029 A 
ATOM     50  N   UNL A   1      42.055  28.984  28.741  1.00  0.00    -0.354 N 
ATOM     51  C   UNL A   1      44.088  32.790  28.817  1.00  0.00     0.074 A 
ATOM     52  C   UNL A   1      43.275  33.804  29.459  1.00  0.00     0.031 C 
ATOM     53  C   UNL A   1      40.417  27.538  29.227  1.00  0.00     0.029 A 
ATOM     54  C   UNL A   1      41.696  27.675  28.538  1.00  0.00     0.049 A 
ATOM     55  H   UNL A   1      42.882  29.379  28.382  1.00  0.00     0.167 HD
ATOM     56  C   UNL A   1      45.315  33.001  28.280  1.00  0.00     0.037 A 
ATOM     57  C   UNL A   1      42.330  26.690  27.876  1.00  0.00     0.037 A 
ATOM     58  C   UNL A   1      46.107  31.985  27.630  1.00  0.00     0.049 A 
ATOM     59  C   UNL A   1      43.669  26.964  27.257  1.00  0.00     0.074 A 
ATOM     60  C   UNL A   1      47.382  32.095  27.098  1.00  0.00     0.029 A 
ATOM     61  N   UNL A   1      45.697  30.678  27.406  1.00  0.00    -0.354 N 
ATOM     62  N   UNL A   1      44.375  28.069  27.274  1.00  0.00    -0.248 NA
ATOM     63  C   UNL A   1      44.308  25.854  26.537  1.00  0.00     0.031 C 
ATOM     64  C   UNL A   1      47.721  30.874  26.508  1.00  0.00     0.029 A 
ATOM     65  C   UNL A   1      46.681  29.983  26.717  1.00  0.00     0.049 A 
ATOM     66  H   UNL A   1      44.835  30.299  27.695  1.00  0.00     0.167 HD
ATOM     67  C   UNL A   1      45.545  27.784  26.584  1.00  0.00     0.074 A 
ATOM     68  C   UNL A   1      45.464  26.396  26.180  1.00  0.00     0.031 C 
ATOM     69  C   UNL A   1      46.589  28.603  26.312  1.00  0.00     0.037 A 
BRANCH  56  70
ATOM     70  C   UNL A   1      45.904  34.378  28.380  1.00  0.00     0.064 A 
ATOM     71  C   UNL A   1      46.860  34.690  29.357  1.00  0.00     0.173 A 
ATOM     72  C   UNL A   1      45.602  35.358  27.422  1.00  0.00     0.173 A 
ATOM     73  F   UNL A   1      47.185  33.788  30.297  1.00  0.00    -0.203 F 
ATOM     74  C   UNL A   1      47.486  35.935  29.377  1.00  0.00     0.198 A 
ATOM     75  C   UNL A   1      46.247  36.593  27.430  1.00  0.00     0.198 A 
ATOM     76  F   UNL A   1      44.704  35.106  26.457  1.00  0.00    -0.203 F 
ATOM     77  F   UNL A   1      48.383  36.217  30.332  1.00  0.00    -0.200 F 
ATOM     78  C   UNL A   1      47.186  36.880  28.408  1.00  0.00     0.200 A 
ATOM     79  F   UNL A   1      45.969  37.498  26.483  1.00  0.00    -0.200 F 
ATOM     80  F   UNL A   1      47.806  38.068  28.414  1.00  0.00    -0.200 F 
ENDBRANCH  56  70
BRANCH  57  81
ATOM     81  C   UNL A   1      41.711  25.342  27.809  1.00  0.00     0.064 A 
ATOM     82  C   UNL A   1      40.612  25.098  26.975  1.00  0.00     0.173 A 
ATOM     83  C   UNL A   1      42.225  24.267  28.547  1.00  0.00     0.173 A 
ATOM     84  F   UNL A   1      40.078  26.100  26.261  1.00  0.00    -0.203 F 
ATOM     85  C   UNL A   1      40.044  23.830  26.890  1.00  0.00     0.198 A 
ATOM     86  C   UNL A   1      41.673  22.993  28.440  1.00  0.00     0.198 A 
ATOM     87  F   UNL A   1      43.282  24.449  29.352  1.00  0.00    -0.203 F 
ATOM     88  F   UNL A   1      38.974  23.629  26.109  1.00  0.00    -0.200 F 
ATOM     89  C   UNL A   1      40.579  22.777  27.616  1.00  0.00     0.200 A 
ATOM     90  F   UNL A   1      42.205  21.975  29.130  1.00  0.00    -0.200 F 
ATOM     91  F   UNL A   1      40.040  21.554  27.523  1.00  0.00    -0.200 F 
ENDBRANCH  57  81
BRANCH  69  92
ATOM     92  C   UNL A   1      47.739  28.023  25.541  1.00  0.00     0.064 A 
ATOM     93  C   UNL A   1      48.911  27.600  26.186  1.00  0.00     0.173 A 
ATOM     94  C   UNL A   1      47.647  27.834  24.154  1.00  0.00     0.173 A 
ATOM     95  F   UNL A   1      49.055  27.772  27.508  1.00  0.00    -0.203 F 
ATOM     96  C   UNL A   1      49.955  27.024  25.466  1.00  0.00     0.198 A 
ATOM     97  C   UNL A   1      48.681  27.231  23.442  1.00  0.00     0.198 A 
ATOM     98  F   UNL A   1      46.545  28.216  23.491  1.00  0.00    -0.203 F 
ATOM     99  F   UNL A   1      51.081  26.661  26.097  1.00  0.00    -0.200 F 
ATOM    100  C   UNL A   1      49.836  26.830  24.098  1.00  0.00     0.200 A 
ATOM    101  F   UNL A   1      48.558  27.032  22.123  1.00  0.00    -0.200 F 
ATOM    102  F   UNL A   1      50.836  26.262  23.410  1.00  0.00    -0.200 F 
ENDBRANCH  69  92
ENDBRANCH  43  44
ENDBRANCH  36  38
ENDBRANCH  35  36
ENDBRANCH  34  35
ENDBRANCH  33  34
ENDBRANCH  32  33
ENDBRANCH  31  32
ENDBRANCH   1  31
TORSDOF 21
ENDMDL
