MODEL 1
REMARK VINA RESULT:     -10.6      0.000      0.000
REMARK SMILES C[C@H](C(=O)OCCOCCOCCOCCOC(=O)c1ccc(-c2c3nc(c(-c4c(F)c(F)c(F)c(F)c4F)c4ccc([nH]4)c(-c4c(F)c(F)c(F)c(F)c4F)c4nc(c(-c5c(F)c(F)c(F)c(F)c5F)c5ccc2[nH]5)C=C4)C=C3)cc1)c1ccc2c(c1)[nH]c1ccc(Cl)cc12
REMARK SMILES IDX 12 1 11 2 10 3 9 4 8 5 7 6 6 7 5 8 3 9 4 10 2 11 1 12 83 13
REMARK SMILES IDX 84 14 88 15 85 16 87 17 86 18 89 19 96 20 90 21 95 23 91 24
REMARK SMILES IDX 93 25 92 26 94 27 13 28 14 29 15 30 16 31 17 32 18 33 19 34
REMARK SMILES IDX 20 35 21 36 82 37 22 38 81 39 23 40 24 41 25 42 75 43 26 44
REMARK SMILES IDX 80 45 74 46 76 47 27 48 79 49 73 50 72 51 28 53 60 54 40 55
REMARK SMILES IDX 59 56 41 57 44 58 58 59 77 60 42 61 43 62 57 64 78 65 45 66
REMARK SMILES IDX 29 67 30 68 38 69 31 70 32 71 36 72 39 73 33 74 34 75 37 76
REMARK SMILES IDX 35 77 61 78 62 79 70 80 63 81 64 82 68 83 71 84 65 85 66 86
REMARK SMILES IDX 69 87 67 88 46 89 47 90 55 91 48 92 49 93 53 94 56 95 50 96
REMARK SMILES IDX 51 97 54 98 52 99
REMARK H PARENT 89 22 76 52 44 63
REMARK Flexibility Score: inf
ROOT
ATOM      1  C   UNL A   1      34.289  32.371  27.787  1.00  0.00     0.188 C 
ENDROOT
BRANCH   1   2
ATOM      2  O   UNL A   1      33.773  31.074  27.588  1.00  0.00    -0.377 OA
BRANCH   2   3
ATOM      3  C   UNL A   1      34.601  30.012  28.010  1.00  0.00     0.188 C 
BRANCH   3   4
ATOM      4  C   UNL A   1      34.999  29.007  26.915  1.00  0.00     0.188 C 
BRANCH   4   5
ATOM      5  O   UNL A   1      34.115  27.962  26.524  1.00  0.00    -0.376 OA
BRANCH   5   6
ATOM      6  C   UNL A   1      32.760  27.988  26.944  1.00  0.00     0.202 C 
BRANCH   6   7
ATOM      7  C   UNL A   1      31.686  28.558  25.992  1.00  0.00     0.261 C 
BRANCH   7   8
ATOM      8  O   UNL A   1      32.146  29.194  24.774  1.00  0.00    -0.463 OA
BRANCH   8   9
ATOM      9  C   UNL A   1      31.572  28.771  23.620  1.00  0.00     0.313 C 
ATOM     10  O   UNL A   1      30.407  29.037  23.331  1.00  0.00    -0.252 OA
BRANCH   9  11
ATOM     11  C   UNL A   1      32.442  27.882  22.704  1.00  0.00     0.126 C 
ATOM     12  C   UNL A   1      33.848  28.510  22.711  1.00  0.00     0.025 C 
BRANCH  11  13
ATOM     13  C   UNL A   1      32.501  26.351  22.899  1.00  0.00    -0.032 A 
ATOM     14  C   UNL A   1      31.360  25.521  22.822  1.00  0.00     0.005 A 
ATOM     15  C   UNL A   1      33.732  25.741  23.213  1.00  0.00     0.031 A 
ATOM     16  C   UNL A   1      31.422  24.126  23.020  1.00  0.00     0.011 A 
ATOM     17  C   UNL A   1      33.764  24.355  23.475  1.00  0.00     0.047 A 
ATOM     18  C   UNL A   1      32.647  23.528  23.370  1.00  0.00     0.007 A 
ATOM     19  N   UNL A   1      34.806  23.559  23.891  1.00  0.00    -0.355 N 
ATOM     20  C   UNL A   1      33.056  22.193  23.715  1.00  0.00     0.009 A 
ATOM     21  C   UNL A   1      34.378  22.277  24.153  1.00  0.00     0.047 A 
ATOM     22  H   UNL A   1      35.736  23.866  23.989  1.00  0.00     0.167 HD
ATOM     23  C   UNL A   1      32.417  20.934  23.764  1.00  0.00     0.031 A 
ATOM     24  C   UNL A   1      35.057  21.205  24.745  1.00  0.00     0.028 A 
ATOM     25  C   UNL A   1      33.100  19.843  24.319  1.00  0.00     0.041 A 
ATOM     26  C   UNL A   1      34.384  19.983  24.836  1.00  0.00     0.022 A 
ATOM     27  Cl  UNL A   1      32.335  18.300  24.378  1.00  0.00    -0.084 Cl
ENDBRANCH  11  13
ENDBRANCH   9  11
ENDBRANCH   8   9
ENDBRANCH   7   8
ENDBRANCH   6   7
ENDBRANCH   5   6
ENDBRANCH   4   5
ENDBRANCH   3   4
ENDBRANCH   2   3
ENDBRANCH   1   2
BRANCH   1  28
ATOM     28  C   UNL A   1      34.772  32.688  29.210  1.00  0.00     0.188 C 
BRANCH  28  29
ATOM     29  O   UNL A   1      34.933  34.080  29.459  1.00  0.00    -0.376 OA
BRANCH  29  30
ATOM     30  C   UNL A   1      34.092  35.007  28.789  1.00  0.00     0.202 C 
BRANCH  30  31
ATOM     31  C   UNL A   1      33.083  35.831  29.612  1.00  0.00     0.261 C 
BRANCH  31  32
ATOM     32  O   UNL A   1      32.479  35.194  30.747  1.00  0.00    -0.460 OA
BRANCH  32  33
ATOM     33  C   UNL A   1      32.701  35.726  31.970  1.00  0.00     0.338 C 
ATOM     34  O   UNL A   1      31.993  36.501  32.572  1.00  0.00    -0.246 OA
BRANCH  33  35
ATOM     35  C   UNL A   1      33.871  35.022  32.556  1.00  0.00     0.060 A 
ATOM     36  C   UNL A   1      35.115  35.669  32.545  1.00  0.00     0.016 A 
ATOM     37  C   UNL A   1      33.742  33.755  33.130  1.00  0.00     0.016 A 
ATOM     38  C   UNL A   1      36.239  35.039  33.078  1.00  0.00     0.010 A 
ATOM     39  C   UNL A   1      34.878  33.109  33.632  1.00  0.00     0.010 A 
ATOM     40  C   UNL A   1      36.136  33.735  33.576  1.00  0.00    -0.014 A 
BRANCH  40  41
ATOM     41  C   UNL A   1      37.374  32.951  33.817  1.00  0.00     0.031 A 
ATOM     42  C   UNL A   1      38.128  33.202  35.095  1.00  0.00     0.074 A 
ATOM     43  C   UNL A   1      37.801  32.015  32.952  1.00  0.00     0.049 A 
ATOM     44  N   UNL A   1      39.251  32.682  35.519  1.00  0.00    -0.248 NA
ATOM     45  C   UNL A   1      37.529  34.178  36.022  1.00  0.00     0.031 C 
ATOM     46  C   UNL A   1      37.128  31.637  31.713  1.00  0.00     0.029 A 
ATOM     47  N   UNL A   1      38.917  31.214  32.990  1.00  0.00    -0.354 N 
ATOM     48  C   UNL A   1      39.496  33.273  36.752  1.00  0.00     0.074 A 
ATOM     49  C   UNL A   1      38.424  34.211  36.996  1.00  0.00     0.031 C 
ATOM     50  C   UNL A   1      37.852  30.682  31.100  1.00  0.00     0.029 A 
ATOM     51  C   UNL A   1      39.056  30.411  31.885  1.00  0.00     0.049 A 
ATOM     52  H   UNL A   1      39.557  31.216  33.739  1.00  0.00     0.167 HD
ATOM     53  C   UNL A   1      40.523  33.049  37.606  1.00  0.00     0.037 A 
ATOM     54  C   UNL A   1      40.054  29.572  31.541  1.00  0.00     0.037 A 
ATOM     55  C   UNL A   1      41.589  32.115  37.358  1.00  0.00     0.049 A 
ATOM     56  C   UNL A   1      41.233  29.408  32.469  1.00  0.00     0.074 A 
ATOM     57  C   UNL A   1      42.665  31.801  38.169  1.00  0.00     0.029 A 
ATOM     58  N   UNL A   1      41.719  31.354  36.207  1.00  0.00    -0.354 N 
ATOM     59  N   UNL A   1      41.449  29.950  33.644  1.00  0.00    -0.248 NA
ATOM     60  C   UNL A   1      42.309  28.511  32.023  1.00  0.00     0.031 C 
ATOM     61  C   UNL A   1      43.483  30.902  37.478  1.00  0.00     0.029 A 
ATOM     62  C   UNL A   1      42.878  30.596  36.269  1.00  0.00     0.049 A 
ATOM     63  H   UNL A   1      41.082  31.351  35.455  1.00  0.00     0.167 HD
ATOM     64  C   UNL A   1      42.659  29.433  34.091  1.00  0.00     0.074 A 
ATOM     65  C   UNL A   1      43.127  28.524  33.066  1.00  0.00     0.031 C 
ATOM     66  C   UNL A   1      43.324  29.685  35.246  1.00  0.00     0.037 A 
BRANCH  53  67
ATOM     67  C   UNL A   1      40.564  33.858  38.871  1.00  0.00     0.064 A 
ATOM     68  C   UNL A   1      41.306  35.044  38.971  1.00  0.00     0.173 A 
ATOM     69  C   UNL A   1      39.819  33.453  39.990  1.00  0.00     0.173 A 
ATOM     70  F   UNL A   1      42.050  35.466  37.937  1.00  0.00    -0.203 F 
ATOM     71  C   UNL A   1      41.323  35.780  40.154  1.00  0.00     0.198 A 
ATOM     72  C   UNL A   1      39.810  34.210  41.158  1.00  0.00     0.198 A 
ATOM     73  F   UNL A   1      39.090  32.328  39.947  1.00  0.00    -0.203 F 
ATOM     74  F   UNL A   1      42.081  36.882  40.244  1.00  0.00    -0.200 F 
ATOM     75  C   UNL A   1      40.568  35.368  41.241  1.00  0.00     0.200 A 
ATOM     76  F   UNL A   1      39.068  33.818  42.202  1.00  0.00    -0.200 F 
ATOM     77  F   UNL A   1      40.577  36.084  42.375  1.00  0.00    -0.200 F 
ENDBRANCH  53  67
BRANCH  54  78
ATOM     78  C   UNL A   1      40.003  28.833  30.250  1.00  0.00     0.064 A 
ATOM     79  C   UNL A   1      39.407  27.566  30.163  1.00  0.00     0.173 A 
ATOM     80  C   UNL A   1      40.583  29.358  29.085  1.00  0.00     0.173 A 
ATOM     81  F   UNL A   1      38.864  27.006  31.253  1.00  0.00    -0.203 F 
ATOM     82  C   UNL A   1      39.417  26.844  28.971  1.00  0.00     0.198 A 
ATOM     83  C   UNL A   1      40.562  28.650  27.886  1.00  0.00     0.198 A 
ATOM     84  F   UNL A   1      41.171  30.564  29.113  1.00  0.00    -0.203 F 
ATOM     85  F   UNL A   1      38.894  25.611  28.932  1.00  0.00    -0.200 F 
ATOM     86  C   UNL A   1      39.989  27.389  27.832  1.00  0.00     0.200 A 
ATOM     87  F   UNL A   1      41.107  29.187  26.785  1.00  0.00    -0.200 F 
ATOM     88  F   UNL A   1      40.000  26.695  26.686  1.00  0.00    -0.200 F 
ENDBRANCH  54  78
BRANCH  66  89
ATOM     89  C   UNL A   1      44.601  28.931  35.494  1.00  0.00     0.064 A 
ATOM     90  C   UNL A   1      45.851  29.443  35.114  1.00  0.00     0.173 A 
ATOM     91  C   UNL A   1      44.576  27.699  36.166  1.00  0.00     0.173 A 
ATOM     92  F   UNL A   1      45.932  30.611  34.460  1.00  0.00    -0.203 F 
ATOM     93  C   UNL A   1      47.023  28.734  35.369  1.00  0.00     0.198 A 
ATOM     94  C   UNL A   1      45.752  27.012  36.453  1.00  0.00     0.198 A 
ATOM     95  F   UNL A   1      43.409  27.168  36.562  1.00  0.00    -0.203 F 
ATOM     96  F   UNL A   1      48.200  29.217  34.948  1.00  0.00    -0.200 F 
ATOM     97  C   UNL A   1      46.974  27.524  36.046  1.00  0.00     0.200 A 
ATOM     98  F   UNL A   1      45.702  25.853  37.125  1.00  0.00    -0.200 F 
ATOM     99  F   UNL A   1      48.103  26.850  36.300  1.00  0.00    -0.200 F 
ENDBRANCH  66  89
ENDBRANCH  40  41
ENDBRANCH  33  35
ENDBRANCH  32  33
ENDBRANCH  31  32
ENDBRANCH  30  31
ENDBRANCH  29  30
ENDBRANCH  28  29
ENDBRANCH   1  28
TORSDOF 21
ENDMDL
MODEL 2
REMARK VINA RESULT:     -10.4      6.253     11.235
REMARK SMILES C[C@H](C(=O)OCCOCCOCCOCCOC(=O)c1ccc(-c2c3nc(c(-c4c(F)c(F)c(F)c(F)c4F)c4ccc([nH]4)c(-c4c(F)c(F)c(F)c(F)c4F)c4nc(c(-c5c(F)c(F)c(F)c(F)c5F)c5ccc2[nH]5)C=C4)C=C3)cc1)c1ccc2c(c1)[nH]c1ccc(Cl)cc12
REMARK SMILES IDX 12 1 11 2 10 3 9 4 8 5 7 6 6 7 5 8 3 9 4 10 2 11 1 12 83 13
REMARK SMILES IDX 84 14 88 15 85 16 87 17 86 18 89 19 96 20 90 21 95 23 91 24
REMARK SMILES IDX 93 25 92 26 94 27 13 28 14 29 15 30 16 31 17 32 18 33 19 34
REMARK SMILES IDX 20 35 21 36 82 37 22 38 81 39 23 40 24 41 25 42 75 43 26 44
REMARK SMILES IDX 80 45 74 46 76 47 27 48 79 49 73 50 72 51 28 53 60 54 40 55
REMARK SMILES IDX 59 56 41 57 44 58 58 59 77 60 42 61 43 62 57 64 78 65 45 66
REMARK SMILES IDX 29 67 30 68 38 69 31 70 32 71 36 72 39 73 33 74 34 75 37 76
REMARK SMILES IDX 35 77 61 78 62 79 70 80 63 81 64 82 68 83 71 84 65 85 66 86
REMARK SMILES IDX 69 87 67 88 46 89 47 90 55 91 48 92 49 93 53 94 56 95 50 96
REMARK SMILES IDX 51 97 54 98 52 99
REMARK H PARENT 89 22 76 52 44 63
REMARK Flexibility Score: inf
ROOT
ATOM      1  C   UNL A   1      35.639  22.042  24.585  1.00  0.00     0.188 C 
ENDROOT
BRANCH   1   2
ATOM      2  O   UNL A   1      34.349  22.306  25.091  1.00  0.00    -0.377 OA
BRANCH   2   3
ATOM      3  C   UNL A   1      33.273  21.871  24.288  1.00  0.00     0.188 C 
BRANCH   3   4
ATOM      4  C   UNL A   1      32.012  21.432  25.052  1.00  0.00     0.188 C 
BRANCH   4   5
ATOM      5  O   UNL A   1      31.103  22.394  25.578  1.00  0.00    -0.376 OA
BRANCH   5   6
ATOM      6  C   UNL A   1      31.385  23.033  26.813  1.00  0.00     0.202 C 
BRANCH   6   7
ATOM      7  C   UNL A   1      31.996  24.452  26.806  1.00  0.00     0.261 C 
BRANCH   7   8
ATOM      8  O   UNL A   1      31.091  25.567  26.988  1.00  0.00    -0.463 OA
BRANCH   8   9
ATOM      9  C   UNL A   1      30.505  26.058  25.867  1.00  0.00     0.313 C 
ATOM     10  O   UNL A   1      29.393  25.686  25.493  1.00  0.00    -0.252 OA
BRANCH   9  11
ATOM     11  C   UNL A   1      31.332  27.069  25.043  1.00  0.00     0.126 C 
ATOM     12  C   UNL A   1      30.389  27.595  23.944  1.00  0.00     0.025 C 
BRANCH  11  13
ATOM     13  C   UNL A   1      32.103  28.217  25.731  1.00  0.00    -0.032 A 
ATOM     14  C   UNL A   1      33.290  28.014  26.469  1.00  0.00     0.005 A 
ATOM     15  C   UNL A   1      31.590  29.529  25.668  1.00  0.00     0.031 A 
ATOM     16  C   UNL A   1      33.976  29.067  27.108  1.00  0.00     0.011 A 
ATOM     17  C   UNL A   1      32.251  30.559  26.369  1.00  0.00     0.047 A 
ATOM     18  C   UNL A   1      33.440  30.368  27.072  1.00  0.00     0.007 A 
ATOM     19  N   UNL A   1      31.900  31.878  26.539  1.00  0.00    -0.355 N 
ATOM     20  C   UNL A   1      33.809  31.628  27.658  1.00  0.00     0.009 A 
ATOM     21  C   UNL A   1      32.760  32.513  27.406  1.00  0.00     0.047 A 
ATOM     22  H   UNL A   1      31.133  32.310  26.100  1.00  0.00     0.167 HD
ATOM     23  C   UNL A   1      34.897  32.088  28.434  1.00  0.00     0.031 A 
ATOM     24  C   UNL A   1      32.680  33.788  27.981  1.00  0.00     0.028 A 
ATOM     25  C   UNL A   1      34.847  33.377  28.983  1.00  0.00     0.041 A 
ATOM     26  C   UNL A   1      33.741  34.200  28.793  1.00  0.00     0.022 A 
ATOM     27  Cl  UNL A   1      36.170  33.953  29.926  1.00  0.00    -0.084 Cl
ENDBRANCH  11  13
ENDBRANCH   9  11
ENDBRANCH   8   9
ENDBRANCH   7   8
ENDBRANCH   6   7
ENDBRANCH   5   6
ENDBRANCH   4   5
ENDBRANCH   3   4
ENDBRANCH   2   3
ENDBRANCH   1   2
BRANCH   1  28
ATOM     28  C   UNL A   1      36.624  23.220  24.619  1.00  0.00     0.188 C 
BRANCH  28  29
ATOM     29  O   UNL A   1      37.810  22.946  25.357  1.00  0.00    -0.376 OA
BRANCH  29  30
ATOM     30  C   UNL A   1      38.274  21.608  25.456  1.00  0.00     0.202 C 
BRANCH  30  31
ATOM     31  C   UNL A   1      39.633  21.336  26.130  1.00  0.00     0.261 C 
BRANCH  31  32
ATOM     32  O   UNL A   1      40.025  19.966  26.298  1.00  0.00    -0.460 OA
BRANCH  32  33
ATOM     33  C   UNL A   1      41.335  19.658  26.178  1.00  0.00     0.338 C 
ATOM     34  O   UNL A   1      41.811  18.641  25.725  1.00  0.00    -0.246 OA
BRANCH  33  35
ATOM     35  C   UNL A   1      42.112  20.884  26.497  1.00  0.00     0.060 A 
ATOM     36  C   UNL A   1      42.247  21.258  27.841  1.00  0.00     0.016 A 
ATOM     37  C   UNL A   1      42.719  21.640  25.491  1.00  0.00     0.016 A 
ATOM     38  C   UNL A   1      42.961  22.407  28.182  1.00  0.00     0.010 A 
ATOM     39  C   UNL A   1      43.405  22.811  25.831  1.00  0.00     0.010 A 
ATOM     40  C   UNL A   1      43.499  23.217  27.175  1.00  0.00    -0.014 A 
BRANCH  40  41
ATOM     41  C   UNL A   1      43.948  24.591  27.512  1.00  0.00     0.031 A 
ATOM     42  C   UNL A   1      42.903  25.591  27.930  1.00  0.00     0.074 A 
ATOM     43  C   UNL A   1      45.246  24.940  27.489  1.00  0.00     0.049 A 
ATOM     44  N   UNL A   1      43.031  26.857  28.233  1.00  0.00    -0.248 NA
ATOM     45  C   UNL A   1      41.521  25.088  28.016  1.00  0.00     0.031 C 
ATOM     46  C   UNL A   1      46.356  24.049  27.162  1.00  0.00     0.029 A 
ATOM     47  N   UNL A   1      45.846  26.149  27.744  1.00  0.00    -0.354 N 
ATOM     48  C   UNL A   1      41.750  27.302  28.533  1.00  0.00     0.074 A 
ATOM     49  C   UNL A   1      40.854  26.182  28.350  1.00  0.00     0.031 C 
ATOM     50  C   UNL A   1      47.505  24.746  27.225  1.00  0.00     0.029 A 
ATOM     51  C   UNL A   1      47.206  26.139  27.559  1.00  0.00     0.049 A 
ATOM     52  H   UNL A   1      45.347  26.948  28.032  1.00  0.00     0.167 HD
ATOM     53  C   UNL A   1      41.357  28.535  28.932  1.00  0.00     0.037 A 
ATOM     54  C   UNL A   1      48.100  27.145  27.630  1.00  0.00     0.037 A 
ATOM     55  C   UNL A   1      42.251  29.648  29.112  1.00  0.00     0.049 A 
ATOM     56  C   UNL A   1      47.622  28.532  27.989  1.00  0.00     0.074 A 
ATOM     57  C   UNL A   1      41.955  30.932  29.531  1.00  0.00     0.029 A 
ATOM     58  N   UNL A   1      43.616  29.609  28.871  1.00  0.00    -0.354 N 
ATOM     59  N   UNL A   1      46.415  28.943  28.296  1.00  0.00    -0.248 NA
ATOM     60  C   UNL A   1      48.635  29.597  28.012  1.00  0.00     0.031 C 
ATOM     61  C   UNL A   1      43.128  31.690  29.477  1.00  0.00     0.029 A 
ATOM     62  C   UNL A   1      44.171  30.859  29.098  1.00  0.00     0.049 A 
ATOM     63  H   UNL A   1      44.117  28.813  28.581  1.00  0.00     0.167 HD
ATOM     64  C   UNL A   1      46.530  30.298  28.585  1.00  0.00     0.074 A 
ATOM     65  C   UNL A   1      47.929  30.639  28.428  1.00  0.00     0.031 C 
ATOM     66  C   UNL A   1      45.568  31.181  28.950  1.00  0.00     0.037 A 
BRANCH  53  67
ATOM     67  C   UNL A   1      39.889  28.756  29.161  1.00  0.00     0.064 A 
ATOM     68  C   UNL A   1      39.296  28.569  30.419  1.00  0.00     0.173 A 
ATOM     69  C   UNL A   1      39.070  29.195  28.108  1.00  0.00     0.173 A 
ATOM     70  F   UNL A   1      40.029  28.135  31.454  1.00  0.00    -0.203 F 
ATOM     71  C   UNL A   1      37.933  28.787  30.607  1.00  0.00     0.198 A 
ATOM     72  C   UNL A   1      37.716  29.444  28.309  1.00  0.00     0.198 A 
ATOM     73  F   UNL A   1      39.586  29.391  26.886  1.00  0.00    -0.203 F 
ATOM     74  F   UNL A   1      37.378  28.552  31.804  1.00  0.00    -0.200 F 
ATOM     75  C   UNL A   1      37.147  29.233  29.555  1.00  0.00     0.200 A 
ATOM     76  F   UNL A   1      36.962  29.890  27.295  1.00  0.00    -0.200 F 
ATOM     77  F   UNL A   1      35.838  29.452  29.741  1.00  0.00    -0.200 F 
ENDBRANCH  53  67
BRANCH  54  78
ATOM     78  C   UNL A   1      49.538  26.896  27.338  1.00  0.00     0.064 A 
ATOM     79  C   UNL A   1      50.036  26.976  26.030  1.00  0.00     0.173 A 
ATOM     80  C   UNL A   1      50.436  26.533  28.353  1.00  0.00     0.173 A 
ATOM     81  F   UNL A   1      49.214  27.291  25.018  1.00  0.00    -0.203 F 
ATOM     82  C   UNL A   1      51.368  26.678  25.745  1.00  0.00     0.198 A 
ATOM     83  C   UNL A   1      51.774  26.268  28.073  1.00  0.00     0.198 A 
ATOM     84  F   UNL A   1      50.012  26.435  29.623  1.00  0.00    -0.203 F 
ATOM     85  F   UNL A   1      51.802  26.705  24.477  1.00  0.00    -0.200 F 
ATOM     86  C   UNL A   1      52.237  26.331  26.767  1.00  0.00     0.200 A 
ATOM     87  F   UNL A   1      52.613  25.944  29.067  1.00  0.00    -0.200 F 
ATOM     88  F   UNL A   1      53.517  26.043  26.494  1.00  0.00    -0.200 F 
ENDBRANCH  54  78
BRANCH  66  89
ATOM     89  C   UNL A   1      45.994  32.589  29.258  1.00  0.00     0.064 A 
ATOM     90  C   UNL A   1      46.449  32.965  30.531  1.00  0.00     0.173 A 
ATOM     91  C   UNL A   1      45.991  33.567  28.250  1.00  0.00     0.173 A 
ATOM     92  F   UNL A   1      46.463  32.075  31.534  1.00  0.00    -0.203 F 
ATOM     93  C   UNL A   1      46.854  34.273  30.790  1.00  0.00     0.198 A 
ATOM     94  C   UNL A   1      46.432  34.862  28.502  1.00  0.00     0.198 A 
ATOM     95  F   UNL A   1      45.576  33.259  27.012  1.00  0.00    -0.203 F 
ATOM     96  F   UNL A   1      47.233  34.622  32.027  1.00  0.00    -0.200 F 
ATOM     97  C   UNL A   1      46.854  35.217  29.774  1.00  0.00     0.200 A 
ATOM     98  F   UNL A   1      46.449  35.767  27.514  1.00  0.00    -0.200 F 
ATOM     99  F   UNL A   1      47.254  36.472  30.022  1.00  0.00    -0.200 F 
ENDBRANCH  66  89
ENDBRANCH  40  41
ENDBRANCH  33  35
ENDBRANCH  32  33
ENDBRANCH  31  32
ENDBRANCH  30  31
ENDBRANCH  29  30
ENDBRANCH  28  29
ENDBRANCH   1  28
TORSDOF 21
ENDMDL
MODEL 3
REMARK VINA RESULT:     -10.2      5.240      8.974
REMARK SMILES C[C@H](C(=O)OCCOCCOCCOCCOC(=O)c1ccc(-c2c3nc(c(-c4c(F)c(F)c(F)c(F)c4F)c4ccc([nH]4)c(-c4c(F)c(F)c(F)c(F)c4F)c4nc(c(-c5c(F)c(F)c(F)c(F)c5F)c5ccc2[nH]5)C=C4)C=C3)cc1)c1ccc2c(c1)[nH]c1ccc(Cl)cc12
REMARK SMILES IDX 12 1 11 2 10 3 9 4 8 5 7 6 6 7 5 8 3 9 4 10 2 11 1 12 83 13
REMARK SMILES IDX 84 14 88 15 85 16 87 17 86 18 89 19 96 20 90 21 95 23 91 24
REMARK SMILES IDX 93 25 92 26 94 27 13 28 14 29 15 30 16 31 17 32 18 33 19 34
REMARK SMILES IDX 20 35 21 36 82 37 22 38 81 39 23 40 24 41 25 42 75 43 26 44
REMARK SMILES IDX 80 45 74 46 76 47 27 48 79 49 73 50 72 51 28 53 60 54 40 55
REMARK SMILES IDX 59 56 41 57 44 58 58 59 77 60 42 61 43 62 57 64 78 65 45 66
REMARK SMILES IDX 29 67 30 68 38 69 31 70 32 71 36 72 39 73 33 74 34 75 37 76
REMARK SMILES IDX 35 77 61 78 62 79 70 80 63 81 64 82 68 83 71 84 65 85 66 86
REMARK SMILES IDX 69 87 67 88 46 89 47 90 55 91 48 92 49 93 53 94 56 95 50 96
REMARK SMILES IDX 51 97 54 98 52 99
REMARK H PARENT 89 22 76 52 44 63
REMARK Flexibility Score: inf
ROOT
ATOM      1  C   UNL A   1      35.478  32.962  32.499  1.00  0.00     0.188 C 
ENDROOT
BRANCH   1   2
ATOM      2  O   UNL A   1      36.810  32.882  32.043  1.00  0.00    -0.377 OA
BRANCH   2   3
ATOM      3  C   UNL A   1      37.486  34.113  31.901  1.00  0.00     0.188 C 
BRANCH   3   4
ATOM      4  C   UNL A   1      38.139  34.356  30.530  1.00  0.00     0.188 C 
BRANCH   4   5
ATOM      5  O   UNL A   1      39.506  34.742  30.428  1.00  0.00    -0.376 OA
BRANCH   5   6
ATOM      6  C   UNL A   1      40.199  34.574  29.202  1.00  0.00     0.202 C 
BRANCH   6   7
ATOM      7  C   UNL A   1      41.118  35.706  28.694  1.00  0.00     0.261 C 
BRANCH   7   8
ATOM      8  O   UNL A   1      42.535  35.421  28.599  1.00  0.00    -0.463 OA
BRANCH   8   9
ATOM      9  C   UNL A   1      43.078  35.465  27.356  1.00  0.00     0.313 C 
ATOM     10  O   UNL A   1      42.406  35.715  26.357  1.00  0.00    -0.252 OA
BRANCH   9  11
ATOM     11  C   UNL A   1      44.580  35.124  27.248  1.00  0.00     0.126 C 
ATOM     12  C   UNL A   1      45.267  35.852  28.419  1.00  0.00     0.025 C 
BRANCH  11  13
ATOM     13  C   UNL A   1      45.061  33.662  27.125  1.00  0.00    -0.032 A 
ATOM     14  C   UNL A   1      46.422  33.307  26.998  1.00  0.00     0.005 A 
ATOM     15  C   UNL A   1      44.109  32.622  27.089  1.00  0.00     0.031 A 
ATOM     16  C   UNL A   1      46.849  31.969  26.867  1.00  0.00     0.011 A 
ATOM     17  C   UNL A   1      44.548  31.296  26.889  1.00  0.00     0.047 A 
ATOM     18  C   UNL A   1      45.892  30.940  26.795  1.00  0.00     0.007 A 
ATOM     19  N   UNL A   1      43.820  30.141  26.723  1.00  0.00    -0.355 N 
ATOM     20  C   UNL A   1      45.954  29.517  26.589  1.00  0.00     0.009 A 
ATOM     21  C   UNL A   1      44.640  29.076  26.426  1.00  0.00     0.047 A 
ATOM     22  H   UNL A   1      42.841  30.084  26.805  1.00  0.00     0.167 HD
ATOM     23  C   UNL A   1      46.996  28.572  26.457  1.00  0.00     0.031 A 
ATOM     24  C   UNL A   1      44.315  27.775  26.023  1.00  0.00     0.028 A 
ATOM     25  C   UNL A   1      46.680  27.256  26.092  1.00  0.00     0.041 A 
ATOM     26  C   UNL A   1      45.366  26.871  25.841  1.00  0.00     0.022 A 
ATOM     27  Cl  UNL A   1      47.941  26.090  25.934  1.00  0.00    -0.084 Cl
ENDBRANCH  11  13
ENDBRANCH   9  11
ENDBRANCH   8   9
ENDBRANCH   7   8
ENDBRANCH   6   7
ENDBRANCH   5   6
ENDBRANCH   4   5
ENDBRANCH   3   4
ENDBRANCH   2   3
ENDBRANCH   1   2
BRANCH   1  28
ATOM     28  C   UNL A   1      34.735  34.265  32.169  1.00  0.00     0.188 C 
BRANCH  28  29
ATOM     29  O   UNL A   1      33.797  34.130  31.108  1.00  0.00    -0.376 OA
BRANCH  29  30
ATOM     30  C   UNL A   1      34.188  34.471  29.787  1.00  0.00     0.202 C 
BRANCH  30  31
ATOM     31  C   UNL A   1      34.759  33.373  28.869  1.00  0.00     0.261 C 
BRANCH  31  32
ATOM     32  O   UNL A   1      34.720  32.022  29.350  1.00  0.00    -0.460 OA
BRANCH  32  33
ATOM     33  C   UNL A   1      34.706  31.021  28.442  1.00  0.00     0.338 C 
ATOM     34  O   UNL A   1      33.885  30.831  27.573  1.00  0.00    -0.246 OA
BRANCH  33  35
ATOM     35  C   UNL A   1      36.003  30.305  28.549  1.00  0.00     0.060 A 
ATOM     36  C   UNL A   1      36.307  29.648  29.750  1.00  0.00     0.016 A 
ATOM     37  C   UNL A   1      36.896  30.257  27.475  1.00  0.00     0.016 A 
ATOM     38  C   UNL A   1      37.518  28.971  29.893  1.00  0.00     0.010 A 
ATOM     39  C   UNL A   1      38.126  29.608  27.632  1.00  0.00     0.010 A 
ATOM     40  C   UNL A   1      38.455  28.993  28.854  1.00  0.00    -0.014 A 
BRANCH  40  41
ATOM     41  C   UNL A   1      39.854  28.578  29.130  1.00  0.00     0.031 A 
ATOM     42  C   UNL A   1      40.725  29.518  29.918  1.00  0.00     0.074 A 
ATOM     43  C   UNL A   1      40.333  27.387  28.729  1.00  0.00     0.049 A 
ATOM     44  N   UNL A   1      41.985  29.408  30.253  1.00  0.00    -0.248 NA
ATOM     45  C   UNL A   1      40.082  30.755  30.393  1.00  0.00     0.031 C 
ATOM     46  C   UNL A   1      39.573  26.366  28.013  1.00  0.00     0.029 A 
ATOM     47  N   UNL A   1      41.586  26.841  28.869  1.00  0.00    -0.354 N 
ATOM     48  C   UNL A   1      42.285  30.562  30.966  1.00  0.00     0.074 A 
ATOM     49  C   UNL A   1      41.088  31.372  30.992  1.00  0.00     0.031 C 
ATOM     50  C   UNL A   1      40.380  25.319  27.765  1.00  0.00     0.029 A 
ATOM     51  C   UNL A   1      41.721  25.613  28.271  1.00  0.00     0.049 A 
ATOM     52  H   UNL A   1      42.318  27.290  29.351  1.00  0.00     0.167 HD
ATOM     53  C   UNL A   1      43.455  30.912  31.551  1.00  0.00     0.037 A 
ATOM     54  C   UNL A   1      42.810  24.830  28.131  1.00  0.00     0.037 A 
ATOM     55  C   UNL A   1      44.645  30.103  31.522  1.00  0.00     0.049 A 
ATOM     56  C   UNL A   1      44.126  25.285  28.715  1.00  0.00     0.074 A 
ATOM     57  C   UNL A   1      45.875  30.359  32.100  1.00  0.00     0.029 A 
ATOM     58  N   UNL A   1      44.755  28.886  30.867  1.00  0.00    -0.354 N 
ATOM     59  N   UNL A   1      44.400  26.365  29.409  1.00  0.00    -0.248 NA
ATOM     60  C   UNL A   1      45.287  24.410  28.497  1.00  0.00     0.031 C 
ATOM     61  C   UNL A   1      46.749  29.330  31.738  1.00  0.00     0.029 A 
ATOM     62  C   UNL A   1      46.045  28.395  30.997  1.00  0.00     0.049 A 
ATOM     63  H   UNL A   1      44.026  28.436  30.382  1.00  0.00     0.167 HD
ATOM     64  C   UNL A   1      45.747  26.279  29.741  1.00  0.00     0.074 A 
ATOM     65  C   UNL A   1      46.234  25.035  29.182  1.00  0.00     0.031 C 
ATOM     66  C   UNL A   1      46.512  27.148  30.446  1.00  0.00     0.037 A 
BRANCH  53  67
ATOM     67  C   UNL A   1      43.517  32.246  32.239  1.00  0.00     0.064 A 
ATOM     68  C   UNL A   1      43.833  33.425  31.547  1.00  0.00     0.173 A 
ATOM     69  C   UNL A   1      43.222  32.346  33.608  1.00  0.00     0.173 A 
ATOM     70  F   UNL A   1      44.140  33.382  30.242  1.00  0.00    -0.203 F 
ATOM     71  C   UNL A   1      43.877  34.651  32.207  1.00  0.00     0.198 A 
ATOM     72  C   UNL A   1      43.233  33.578  34.255  1.00  0.00     0.198 A 
ATOM     73  F   UNL A   1      42.911  31.250  34.316  1.00  0.00    -0.203 F 
ATOM     74  F   UNL A   1      44.232  35.757  31.537  1.00  0.00    -0.200 F 
ATOM     75  C   UNL A   1      43.568  34.728  33.556  1.00  0.00     0.200 A 
ATOM     76  F   UNL A   1      42.919  33.652  35.556  1.00  0.00    -0.200 F 
ATOM     77  F   UNL A   1      43.601  35.910  34.187  1.00  0.00    -0.200 F 
ENDBRANCH  53  67
BRANCH  54  78
ATOM     78  C   UNL A   1      42.719  23.542  27.391  1.00  0.00     0.064 A 
ATOM     79  C   UNL A   1      42.273  22.373  28.024  1.00  0.00     0.173 A 
ATOM     80  C   UNL A   1      43.116  23.443  26.049  1.00  0.00     0.173 A 
ATOM     81  F   UNL A   1      41.910  22.406  29.314  1.00  0.00    -0.203 F 
ATOM     82  C   UNL A   1      42.251  21.152  27.351  1.00  0.00     0.198 A 
ATOM     83  C   UNL A   1      43.061  22.229  25.368  1.00  0.00     0.198 A 
ATOM     84  F   UNL A   1      43.557  24.529  25.396  1.00  0.00    -0.203 F 
ATOM     85  F   UNL A   1      41.876  20.040  27.998  1.00  0.00    -0.200 F 
ATOM     86  C   UNL A   1      42.639  21.082  26.022  1.00  0.00     0.200 A 
ATOM     87  F   UNL A   1      43.427  22.169  24.079  1.00  0.00    -0.200 F 
ATOM     88  F   UNL A   1      42.618  19.909  25.376  1.00  0.00    -0.200 F 
ENDBRANCH  54  78
BRANCH  66  89
ATOM     89  C   UNL A   1      47.943  26.766  30.704  1.00  0.00     0.064 A 
ATOM     90  C   UNL A   1      48.993  27.237  29.901  1.00  0.00     0.173 A 
ATOM     91  C   UNL A   1      48.273  25.954  31.801  1.00  0.00     0.173 A 
ATOM     92  F   UNL A   1      48.735  28.008  28.834  1.00  0.00    -0.203 F 
ATOM     93  C   UNL A   1      50.315  26.884  30.169  1.00  0.00     0.198 A 
ATOM     94  C   UNL A   1      49.597  25.634  32.087  1.00  0.00     0.198 A 
ATOM     95  F   UNL A   1      47.310  25.485  32.608  1.00  0.00    -0.203 F 
ATOM     96  F   UNL A   1      51.295  27.301  29.356  1.00  0.00    -0.200 F 
ATOM     97  C   UNL A   1      50.616  26.091  31.266  1.00  0.00     0.200 A 
ATOM     98  F   UNL A   1      49.886  24.884  33.160  1.00  0.00    -0.200 F 
ATOM     99  F   UNL A   1      51.888  25.761  31.528  1.00  0.00    -0.200 F 
ENDBRANCH  66  89
ENDBRANCH  40  41
ENDBRANCH  33  35
ENDBRANCH  32  33
ENDBRANCH  31  32
ENDBRANCH  30  31
ENDBRANCH  29  30
ENDBRANCH  28  29
ENDBRANCH   1  28
TORSDOF 21
ENDMDL
