MODEL 1
REMARK VINA RESULT:      -9.0      0.000      0.000
REMARK SMILES COc1ccc([C@@H]2CC(c3ccc(Cl)cc3)=NN2C2=[NH+]C(=O)[C@@H](CC(=O)OCCOCCOCCOCCOC(=O)c3ccc(-c4c5nc(c(-c6c(F)c(F)c(F)c(F)c6F)c6ccc([nH]6)c(-c6c(F)c(F)c(F)c(F)c6F)c6nc(c(-c7c(F)c(F)c(F)c(F)c7F)c7ccc4[nH]7)C=C6)C=C5)cc3)S2)cc1OC
REMARK SMILES IDX 32 1 31 2 30 3 29 4 28 5 27 6 25 7 26 8 24 9 23 10 19 11
REMARK SMILES IDX 20 12 105 13 21 14 22 16 18 17 7 18 8 19 9 20 17 21 6 22
REMARK SMILES IDX 3 23 4 24 107 25 5 26 106 27 2 28 1 29 108 30 109 31 10 32
REMARK SMILES IDX 11 33 16 34 12 35 15 36 13 37 14 38 33 39 34 40 35 41 36 42
REMARK SMILES IDX 37 43 38 44 39 45 40 46 41 47 42 48 43 49 104 50 44 51
REMARK SMILES IDX 103 52 45 53 46 54 47 55 97 56 48 57 102 58 96 59 98 60
REMARK SMILES IDX 49 61 101 62 95 63 94 64 50 66 82 67 62 68 81 69 63 70 66 71
REMARK SMILES IDX 80 72 99 73 64 74 65 75 79 77 100 78 67 79 51 80 52 81 60 82
REMARK SMILES IDX 53 83 54 84 58 85 61 86 55 87 56 88 59 89 57 90 83 91 84 92
REMARK SMILES IDX 92 93 85 94 86 95 90 96 93 97 87 98 88 99 91 100 89 101
REMARK SMILES IDX 68 102 69 103 77 104 70 105 71 106 75 107 78 108 72 109
REMARK SMILES IDX 73 110 76 111 74 112
REMARK H PARENT 20 15 98 65 66 76
REMARK Flexibility Score: inf
ROOT
ATOM      1  C   UNL A   1      33.008  27.423  24.023  1.00  0.00     0.188 C 
ENDROOT
BRANCH   1   2
ATOM      2  C   UNL A   1      32.040  26.439  23.353  1.00  0.00     0.188 C 
BRANCH   2   3
ATOM      3  O   UNL A   1      31.992  25.134  23.881  1.00  0.00    -0.376 OA
BRANCH   3   4
ATOM      4  C   UNL A   1      31.102  24.160  23.358  1.00  0.00     0.202 C 
BRANCH   4   5
ATOM      5  C   UNL A   1      31.284  22.633  23.452  1.00  0.00     0.261 C 
BRANCH   5   6
ATOM      6  O   UNL A   1      32.585  22.115  23.156  1.00  0.00    -0.463 OA
BRANCH   6   7
ATOM      7  C   UNL A   1      33.279  21.561  24.175  1.00  0.00     0.307 C 
ATOM      8  O   UNL A   1      32.774  20.882  25.064  1.00  0.00    -0.252 OA
BRANCH   7   9
ATOM      9  C   UNL A   1      34.779  21.754  24.087  1.00  0.00     0.150 C 
BRANCH   9  10
ATOM     10  C   UNL A   1      35.636  21.638  25.340  1.00  0.00     0.184 C 
ATOM     11  C   UNL A   1      37.915  22.498  26.039  1.00  0.00     0.340 C 
ATOM     12  N   UNL A   1      37.005  23.289  26.503  1.00  0.00    -0.202 N 
ATOM     13  S   UNL A   1      37.344  21.201  25.018  1.00  0.00    -0.020 SA
ATOM     14  C   UNL A   1      35.743  22.975  26.057  1.00  0.00     0.322 C 
ATOM     15  H   UNL A   1      37.196  24.039  27.113  1.00  0.00     0.316 HD
ATOM     16  O   UNL A   1      34.765  23.694  26.232  1.00  0.00    -0.246 OA
BRANCH  11  17
ATOM     17  N   UNL A   1      39.274  22.570  26.261  1.00  0.00    -0.120 N 
ATOM     18  C   UNL A   1      39.816  23.156  27.500  1.00  0.00     0.243 C 
ATOM     19  C   UNL A   1      41.216  22.565  27.615  1.00  0.00     0.118 C 
ATOM     20  C   UNL A   1      41.251  21.730  26.371  1.00  0.00     0.096 C 
ATOM     21  N   UNL A   1      40.181  21.738  25.645  1.00  0.00    -0.086 NA
BRANCH  18  22
ATOM     22  C   UNL A   1      39.762  24.673  27.501  1.00  0.00     0.003 A 
ATOM     23  C   UNL A   1      40.128  27.486  27.635  1.00  0.00     0.160 A 
ATOM     24  C   UNL A   1      39.414  26.784  28.623  1.00  0.00     0.051 A 
ATOM     25  C   UNL A   1      40.668  26.772  26.564  1.00  0.00     0.161 A 
ATOM     26  C   UNL A   1      39.218  25.400  28.558  1.00  0.00     0.012 A 
ATOM     27  C   UNL A   1      40.453  25.382  26.502  1.00  0.00     0.058 A 
BRANCH  23  28
ATOM     28  O   UNL A   1      40.421  28.798  27.913  1.00  0.00    -0.493 OA
ATOM     29  C   UNL A   1      39.347  29.698  27.646  1.00  0.00     0.278 C 
ENDBRANCH  23  28
BRANCH  25  30
ATOM     30  O   UNL A   1      41.512  27.182  25.571  1.00  0.00    -0.493 OA
ATOM     31  C   UNL A   1      42.413  26.262  24.993  1.00  0.00     0.278 C 
ENDBRANCH  25  30
ENDBRANCH  18  22
BRANCH  20  32
ATOM     32  C   UNL A   1      42.446  20.955  26.023  1.00  0.00     0.000 A 
ATOM     33  C   UNL A   1      42.390  19.559  26.058  1.00  0.00     0.011 A 
ATOM     34  C   UNL A   1      43.629  21.614  25.680  1.00  0.00     0.011 A 
ATOM     35  C   UNL A   1      43.521  18.816  25.718  1.00  0.00     0.021 A 
ATOM     36  C   UNL A   1      44.764  20.866  25.360  1.00  0.00     0.021 A 
ATOM     37  C   UNL A   1      44.704  19.472  25.371  1.00  0.00     0.041 A 
ATOM     38  Cl  UNL A   1      46.101  18.557  24.962  1.00  0.00    -0.084 Cl
ENDBRANCH  20  32
ENDBRANCH  11  17
ENDBRANCH   9  10
ENDBRANCH   7   9
ENDBRANCH   6   7
ENDBRANCH   5   6
ENDBRANCH   4   5
ENDBRANCH   3   4
ENDBRANCH   2   3
ENDBRANCH   1   2
BRANCH   1  39
ATOM     39  O   UNL A   1      32.554  28.148  25.151  1.00  0.00    -0.377 OA
BRANCH  39  40
ATOM     40  C   UNL A   1      33.480  28.883  25.949  1.00  0.00     0.188 C 
BRANCH  40  41
ATOM     41  C   UNL A   1      33.116  30.266  26.526  1.00  0.00     0.188 C 
BRANCH  41  42
ATOM     42  O   UNL A   1      34.118  30.864  27.328  1.00  0.00    -0.376 OA
BRANCH  42  43
ATOM     43  C   UNL A   1      33.847  32.119  27.933  1.00  0.00     0.202 C 
BRANCH  43  44
ATOM     44  C   UNL A   1      35.023  33.084  28.151  1.00  0.00     0.261 C 
BRANCH  44  45
ATOM     45  O   UNL A   1      34.709  34.337  28.788  1.00  0.00    -0.460 OA
BRANCH  45  46
ATOM     46  C   UNL A   1      34.222  34.308  30.043  1.00  0.00     0.338 C 
ATOM     47  O   UNL A   1      33.060  34.447  30.392  1.00  0.00    -0.246 OA
BRANCH  46  48
ATOM     48  C   UNL A   1      35.315  33.897  30.948  1.00  0.00     0.060 A 
ATOM     49  C   UNL A   1      36.503  34.638  30.966  1.00  0.00     0.016 A 
ATOM     50  C   UNL A   1      35.175  32.771  31.762  1.00  0.00     0.016 A 
ATOM     51  C   UNL A   1      37.568  34.238  31.778  1.00  0.00     0.010 A 
ATOM     52  C   UNL A   1      36.250  32.359  32.557  1.00  0.00     0.010 A 
ATOM     53  C   UNL A   1      37.463  33.073  32.547  1.00  0.00    -0.014 A 
BRANCH  53  54
ATOM     54  C   UNL A   1      38.657  32.528  33.245  1.00  0.00     0.031 A 
ATOM     55  C   UNL A   1      38.898  32.881  34.678  1.00  0.00     0.074 A 
ATOM     56  C   UNL A   1      39.550  31.753  32.609  1.00  0.00     0.049 A 
ATOM     57  N   UNL A   1      39.912  32.568  35.443  1.00  0.00    -0.248 NA
ATOM     58  C   UNL A   1      37.871  33.703  35.330  1.00  0.00     0.031 C 
ATOM     59  C   UNL A   1      39.445  31.360  31.215  1.00  0.00     0.029 A 
ATOM     60  N   UNL A   1      40.738  31.200  33.032  1.00  0.00    -0.354 N 
ATOM     61  C   UNL A   1      39.651  33.162  36.668  1.00  0.00     0.074 A 
ATOM     62  C   UNL A   1      38.400  33.880  36.532  1.00  0.00     0.031 C 
ATOM     63  C   UNL A   1      40.555  30.684  30.885  1.00  0.00     0.029 A 
ATOM     64  C   UNL A   1      41.426  30.551  32.037  1.00  0.00     0.049 A 
ATOM     65  H   UNL A   1      41.063  31.265  33.958  1.00  0.00     0.167 HD
ATOM     66  C   UNL A   1      40.387  33.105  37.802  1.00  0.00     0.037 A 
ATOM     67  C   UNL A   1      42.621  29.928  32.028  1.00  0.00     0.037 A 
ATOM     68  C   UNL A   1      41.639  32.406  37.933  1.00  0.00     0.049 A 
ATOM     69  C   UNL A   1      43.430  29.898  33.290  1.00  0.00     0.074 A 
ATOM     70  C   UNL A   1      42.436  32.275  39.058  1.00  0.00     0.029 A 
ATOM     71  N   UNL A   1      42.290  31.735  36.907  1.00  0.00    -0.354 N 
ATOM     72  N   UNL A   1      43.147  30.417  34.458  1.00  0.00    -0.248 NA
ATOM     73  C   UNL A   1      44.725  29.207  33.235  1.00  0.00     0.031 C 
ATOM     74  C   UNL A   1      43.598  31.583  38.698  1.00  0.00     0.029 A 
ATOM     75  C   UNL A   1      43.494  31.220  37.366  1.00  0.00     0.049 A 
ATOM     76  H   UNL A   1      41.948  31.640  35.989  1.00  0.00     0.167 HD
ATOM     77  C   UNL A   1      44.220  30.108  35.279  1.00  0.00     0.074 A 
ATOM     78  C   UNL A   1      45.145  29.325  34.485  1.00  0.00     0.031 C 
ATOM     79  C   UNL A   1      44.422  30.455  36.572  1.00  0.00     0.037 A 
BRANCH  66  80
ATOM     80  C   UNL A   1      39.864  33.855  38.989  1.00  0.00     0.064 A 
ATOM     81  C   UNL A   1      38.906  33.298  39.851  1.00  0.00     0.173 A 
ATOM     82  C   UNL A   1      40.346  35.139  39.282  1.00  0.00     0.173 A 
ATOM     83  F   UNL A   1      38.401  32.080  39.603  1.00  0.00    -0.203 F 
ATOM     84  C   UNL A   1      38.431  34.012  40.948  1.00  0.00     0.198 A 
ATOM     85  C   UNL A   1      39.894  35.835  40.399  1.00  0.00     0.198 A 
ATOM     86  F   UNL A   1      41.262  35.715  38.489  1.00  0.00    -0.203 F 
ATOM     87  F   UNL A   1      37.477  33.483  41.726  1.00  0.00    -0.200 F 
ATOM     88  C   UNL A   1      38.931  35.275  41.225  1.00  0.00     0.200 A 
ATOM     89  F   UNL A   1      40.388  37.049  40.674  1.00  0.00    -0.200 F 
ATOM     90  F   UNL A   1      38.479  35.957  42.287  1.00  0.00    -0.200 F 
ENDBRANCH  66  80
BRANCH  67  91
ATOM     91  C   UNL A   1      43.138  29.266  30.796  1.00  0.00     0.064 A 
ATOM     92  C   UNL A   1      43.979  29.956  29.909  1.00  0.00     0.173 A 
ATOM     93  C   UNL A   1      42.774  27.955  30.458  1.00  0.00     0.173 A 
ATOM     94  F   UNL A   1      44.340  31.221  30.175  1.00  0.00    -0.203 F 
ATOM     95  C   UNL A   1      44.416  29.369  28.722  1.00  0.00     0.198 A 
ATOM     96  C   UNL A   1      43.233  27.360  29.284  1.00  0.00     0.198 A 
ATOM     97  F   UNL A   1      41.987  27.244  31.278  1.00  0.00    -0.203 F 
ATOM     98  F   UNL A   1      45.185  30.067  27.875  1.00  0.00    -0.200 F 
ATOM     99  C   UNL A   1      44.047  28.070  28.412  1.00  0.00     0.200 A 
ATOM    100  F   UNL A   1      42.902  26.091  29.003  1.00  0.00    -0.200 F 
ATOM    101  F   UNL A   1      44.482  27.499  27.281  1.00  0.00    -0.200 F 
ENDBRANCH  67  91
BRANCH  79 102
ATOM    102  C   UNL A   1      45.690  29.976  37.216  1.00  0.00     0.064 A 
ATOM    103  C   UNL A   1      46.864  30.746  37.195  1.00  0.00     0.173 A 
ATOM    104  C   UNL A   1      45.730  28.735  37.870  1.00  0.00     0.173 A 
ATOM    105  F   UNL A   1      46.885  31.929  36.561  1.00  0.00    -0.203 F 
ATOM    106  C   UNL A   1      48.037  30.276  37.777  1.00  0.00     0.198 A 
ATOM    107  C   UNL A   1      46.895  28.286  38.482  1.00  0.00     0.198 A 
ATOM    108  F   UNL A   1      44.636  27.960  37.917  1.00  0.00    -0.203 F 
ATOM    109  F   UNL A   1      49.162  31.000  37.690  1.00  0.00    -0.200 F 
ATOM    110  C   UNL A   1      48.050  29.051  38.428  1.00  0.00     0.200 A 
ATOM    111  F   UNL A   1      46.902  27.107  39.121  1.00  0.00    -0.200 F 
ATOM    112  F   UNL A   1      49.180  28.602  38.991  1.00  0.00    -0.200 F 
ENDBRANCH  79 102
ENDBRANCH  53  54
ENDBRANCH  46  48
ENDBRANCH  45  46
ENDBRANCH  44  45
ENDBRANCH  43  44
ENDBRANCH  42  43
ENDBRANCH  41  42
ENDBRANCH  40  41
ENDBRANCH  39  40
ENDBRANCH   1  39
TORSDOF 26
ENDMDL
MODEL 2
REMARK VINA RESULT:      -9.0      4.914      8.929
REMARK SMILES COc1ccc([C@@H]2CC(c3ccc(Cl)cc3)=NN2C2=[NH+]C(=O)[C@@H](CC(=O)OCCOCCOCCOCCOC(=O)c3ccc(-c4c5nc(c(-c6c(F)c(F)c(F)c(F)c6F)c6ccc([nH]6)c(-c6c(F)c(F)c(F)c(F)c6F)c6nc(c(-c7c(F)c(F)c(F)c(F)c7F)c7ccc4[nH]7)C=C6)C=C5)cc3)S2)cc1OC
REMARK SMILES IDX 32 1 31 2 30 3 29 4 28 5 27 6 25 7 26 8 24 9 23 10 19 11
REMARK SMILES IDX 20 12 105 13 21 14 22 16 18 17 7 18 8 19 9 20 17 21 6 22
REMARK SMILES IDX 3 23 4 24 107 25 5 26 106 27 2 28 1 29 108 30 109 31 10 32
REMARK SMILES IDX 11 33 16 34 12 35 15 36 13 37 14 38 33 39 34 40 35 41 36 42
REMARK SMILES IDX 37 43 38 44 39 45 40 46 41 47 42 48 43 49 104 50 44 51
REMARK SMILES IDX 103 52 45 53 46 54 47 55 97 56 48 57 102 58 96 59 98 60
REMARK SMILES IDX 49 61 101 62 95 63 94 64 50 66 82 67 62 68 81 69 63 70 66 71
REMARK SMILES IDX 80 72 99 73 64 74 65 75 79 77 100 78 67 79 51 80 52 81 60 82
REMARK SMILES IDX 53 83 54 84 58 85 61 86 55 87 56 88 59 89 57 90 83 91 84 92
REMARK SMILES IDX 92 93 85 94 86 95 90 96 93 97 87 98 88 99 91 100 89 101
REMARK SMILES IDX 68 102 69 103 77 104 70 105 71 106 75 107 78 108 72 109
REMARK SMILES IDX 73 110 76 111 74 112
REMARK H PARENT 20 15 98 65 66 76
REMARK Flexibility Score: inf
ROOT
ATOM      1  C   UNL A   1      36.139  22.583  25.735  1.00  0.00     0.188 C 
ENDROOT
BRANCH   1   2
ATOM      2  C   UNL A   1      35.131  23.397  26.557  1.00  0.00     0.188 C 
BRANCH   2   3
ATOM      3  O   UNL A   1      34.288  22.677  27.426  1.00  0.00    -0.376 OA
BRANCH   3   4
ATOM      4  C   UNL A   1      33.748  21.418  27.054  1.00  0.00     0.202 C 
BRANCH   4   5
ATOM      5  C   UNL A   1      32.796  21.163  25.871  1.00  0.00     0.261 C 
BRANCH   5   6
ATOM      6  O   UNL A   1      32.303  22.311  25.174  1.00  0.00    -0.463 OA
BRANCH   6   7
ATOM      7  C   UNL A   1      32.713  22.486  23.897  1.00  0.00     0.307 C 
ATOM      8  O   UNL A   1      33.846  22.237  23.498  1.00  0.00    -0.252 OA
BRANCH   7   9
ATOM      9  C   UNL A   1      31.620  22.925  22.945  1.00  0.00     0.150 C 
BRANCH   9  10
ATOM     10  C   UNL A   1      31.462  24.397  22.594  1.00  0.00     0.184 C 
ATOM     11  C   UNL A   1      32.346  26.572  23.546  1.00  0.00     0.340 C 
ATOM     12  N   UNL A   1      33.087  26.217  22.549  1.00  0.00    -0.202 N 
ATOM     13  S   UNL A   1      31.090  25.446  23.998  1.00  0.00    -0.020 SA
ATOM     14  C   UNL A   1      32.762  24.975  22.055  1.00  0.00     0.322 C 
ATOM     15  H   UNL A   1      33.809  26.777  22.181  1.00  0.00     0.316 HD
ATOM     16  O   UNL A   1      33.443  24.375  21.231  1.00  0.00    -0.246 OA
BRANCH  11  17
ATOM     17  N   UNL A   1      32.443  27.733  24.285  1.00  0.00    -0.120 N 
ATOM     18  C   UNL A   1      31.247  28.377  24.857  1.00  0.00     0.243 C 
ATOM     19  C   UNL A   1      31.788  29.231  25.997  1.00  0.00     0.118 C 
ATOM     20  C   UNL A   1      33.252  28.940  25.870  1.00  0.00     0.096 C 
ATOM     21  N   UNL A   1      33.594  28.115  24.934  1.00  0.00    -0.086 NA
BRANCH  18  22
ATOM     22  C   UNL A   1      30.440  29.137  23.819  1.00  0.00     0.003 A 
ATOM     23  C   UNL A   1      28.770  30.120  21.743  1.00  0.00     0.160 A 
ATOM     24  C   UNL A   1      30.169  30.070  21.607  1.00  0.00     0.051 A 
ATOM     25  C   UNL A   1      28.196  29.672  22.935  1.00  0.00     0.161 A 
ATOM     26  C   UNL A   1      31.000  29.599  22.630  1.00  0.00     0.012 A 
ATOM     27  C   UNL A   1      29.042  29.213  23.961  1.00  0.00     0.058 A 
BRANCH  23  28
ATOM     28  O   UNL A   1      28.058  30.411  20.606  1.00  0.00    -0.493 OA
ATOM     29  C   UNL A   1      27.900  31.809  20.366  1.00  0.00     0.278 C 
ENDBRANCH  23  28
BRANCH  25  30
ATOM     30  O   UNL A   1      26.882  29.479  23.259  1.00  0.00    -0.493 OA
ATOM     31  C   UNL A   1      26.419  28.180  23.557  1.00  0.00     0.278 C 
ENDBRANCH  25  30
ENDBRANCH  18  22
BRANCH  20  32
ATOM     32  C   UNL A   1      34.222  29.569  26.774  1.00  0.00     0.000 A 
ATOM     33  C   UNL A   1      33.987  30.870  27.228  1.00  0.00     0.011 A 
ATOM     34  C   UNL A   1      35.372  28.875  27.155  1.00  0.00     0.011 A 
ATOM     35  C   UNL A   1      34.901  31.470  28.095  1.00  0.00     0.021 A 
ATOM     36  C   UNL A   1      36.293  29.487  28.007  1.00  0.00     0.021 A 
ATOM     37  C   UNL A   1      36.051  30.777  28.480  1.00  0.00     0.041 A 
ATOM     38  Cl  UNL A   1      37.182  31.520  29.542  1.00  0.00    -0.084 Cl
ENDBRANCH  20  32
ENDBRANCH  11  17
ENDBRANCH   9  10
ENDBRANCH   7   9
ENDBRANCH   6   7
ENDBRANCH   5   6
ENDBRANCH   4   5
ENDBRANCH   3   4
ENDBRANCH   2   3
ENDBRANCH   1   2
BRANCH   1  39
ATOM     39  O   UNL A   1      37.338  22.168  26.363  1.00  0.00    -0.377 OA
BRANCH  39  40
ATOM     40  C   UNL A   1      38.509  21.933  25.584  1.00  0.00     0.188 C 
BRANCH  40  41
ATOM     41  C   UNL A   1      39.784  21.337  26.215  1.00  0.00     0.188 C 
BRANCH  41  42
ATOM     42  O   UNL A   1      40.546  22.241  26.993  1.00  0.00    -0.376 OA
BRANCH  42  43
ATOM     43  C   UNL A   1      40.063  23.563  27.170  1.00  0.00     0.202 C 
BRANCH  43  44
ATOM     44  C   UNL A   1      41.065  24.646  27.600  1.00  0.00     0.261 C 
BRANCH  44  45
ATOM     45  O   UNL A   1      40.580  26.002  27.588  1.00  0.00    -0.460 OA
BRANCH  45  46
ATOM     46  C   UNL A   1      39.908  26.448  28.667  1.00  0.00     0.338 C 
ATOM     47  O   UNL A   1      39.049  25.857  29.303  1.00  0.00    -0.246 OA
BRANCH  46  48
ATOM     48  C   UNL A   1      40.510  27.731  29.082  1.00  0.00     0.060 A 
ATOM     49  C   UNL A   1      41.591  27.722  29.973  1.00  0.00     0.016 A 
ATOM     50  C   UNL A   1      39.997  28.940  28.609  1.00  0.00     0.016 A 
ATOM     51  C   UNL A   1      42.145  28.926  30.417  1.00  0.00     0.010 A 
ATOM     52  C   UNL A   1      40.538  30.145  29.072  1.00  0.00     0.010 A 
ATOM     53  C   UNL A   1      41.595  30.145  30.002  1.00  0.00    -0.014 A 
BRANCH  53  54
ATOM     54  C   UNL A   1      42.038  31.418  30.630  1.00  0.00     0.031 A 
ATOM     55  C   UNL A   1      41.321  31.932  31.838  1.00  0.00     0.074 A 
ATOM     56  C   UNL A   1      43.046  32.141  30.116  1.00  0.00     0.049 A 
ATOM     57  N   UNL A   1      41.506  33.052  32.489  1.00  0.00    -0.248 NA
ATOM     58  C   UNL A   1      40.252  31.082  32.374  1.00  0.00     0.031 C 
ATOM     59  C   UNL A   1      43.803  31.766  28.935  1.00  0.00     0.029 A 
ATOM     60  N   UNL A   1      43.573  33.357  30.488  1.00  0.00    -0.354 N 
ATOM     61  C   UNL A   1      40.570  33.047  33.510  1.00  0.00     0.074 A 
ATOM     62  C   UNL A   1      39.798  31.829  33.370  1.00  0.00     0.031 C 
ATOM     63  C   UNL A   1      44.651  32.763  28.646  1.00  0.00     0.029 A 
ATOM     64  C   UNL A   1      44.541  33.821  29.632  1.00  0.00     0.049 A 
ATOM     65  H   UNL A   1      43.283  33.848  31.290  1.00  0.00     0.167 HD
ATOM     66  C   UNL A   1      40.379  33.973  34.478  1.00  0.00     0.037 A 
ATOM     67  C   UNL A   1      45.258  34.962  29.616  1.00  0.00     0.037 A 
ATOM     68  C   UNL A   1      41.133  35.192  34.607  1.00  0.00     0.049 A 
ATOM     69  C   UNL A   1      45.012  35.984  30.685  1.00  0.00     0.074 A 
ATOM     70  C   UNL A   1      41.022  36.173  35.579  1.00  0.00     0.029 A 
ATOM     71  N   UNL A   1      42.127  35.612  33.735  1.00  0.00    -0.354 N 
ATOM     72  N   UNL A   1      44.160  35.944  31.678  1.00  0.00    -0.248 NA
ATOM     73  C   UNL A   1      45.817  37.212  30.630  1.00  0.00     0.031 C 
ATOM     74  C   UNL A   1      41.899  37.214  35.258  1.00  0.00     0.029 A 
ATOM     75  C   UNL A   1      42.611  36.853  34.127  1.00  0.00     0.049 A 
ATOM     76  H   UNL A   1      42.442  35.104  32.952  1.00  0.00     0.167 HD
ATOM     77  C   UNL A   1      44.331  37.132  32.371  1.00  0.00     0.074 A 
ATOM     78  C   UNL A   1      45.394  37.858  31.707  1.00  0.00     0.031 C 
ATOM     79  C   UNL A   1      43.656  37.582  33.455  1.00  0.00     0.037 A 
BRANCH  66  80
ATOM     80  C   UNL A   1      39.276  33.712  35.459  1.00  0.00     0.064 A 
ATOM     81  C   UNL A   1      39.535  33.198  36.740  1.00  0.00     0.173 A 
ATOM     82  C   UNL A   1      37.946  34.003  35.123  1.00  0.00     0.173 A 
ATOM     83  F   UNL A   1      40.789  32.887  37.103  1.00  0.00    -0.203 F 
ATOM     84  C   UNL A   1      38.497  32.960  37.637  1.00  0.00     0.198 A 
ATOM     85  C   UNL A   1      36.916  33.796  36.034  1.00  0.00     0.198 A 
ATOM     86  F   UNL A   1      37.648  34.496  33.911  1.00  0.00    -0.203 F 
ATOM     87  F   UNL A   1      38.760  32.418  38.834  1.00  0.00    -0.200 F 
ATOM     88  C   UNL A   1      37.191  33.267  37.287  1.00  0.00     0.200 A 
ATOM     89  F   UNL A   1      35.657  34.106  35.700  1.00  0.00    -0.200 F 
ATOM     90  F   UNL A   1      36.194  33.046  38.155  1.00  0.00    -0.200 F 
ENDBRANCH  66  80
BRANCH  67  91
ATOM     91  C   UNL A   1      46.287  35.213  28.568  1.00  0.00     0.064 A 
ATOM     92  C   UNL A   1      47.559  34.626  28.656  1.00  0.00     0.173 A 
ATOM     93  C   UNL A   1      46.041  36.069  27.485  1.00  0.00     0.173 A 
ATOM     94  F   UNL A   1      47.853  33.815  29.684  1.00  0.00    -0.203 F 
ATOM     95  C   UNL A   1      48.551  34.905  27.717  1.00  0.00     0.198 A 
ATOM     96  C   UNL A   1      47.026  36.326  26.532  1.00  0.00     0.198 A 
ATOM     97  F   UNL A   1      44.838  36.642  27.342  1.00  0.00    -0.203 F 
ATOM     98  F   UNL A   1      49.770  34.362  27.850  1.00  0.00    -0.200 F 
ATOM     99  C   UNL A   1      48.283  35.751  26.652  1.00  0.00     0.200 A 
ATOM    100  F   UNL A   1      46.752  37.118  25.485  1.00  0.00    -0.200 F 
ATOM    101  F   UNL A   1      49.230  36.004  25.739  1.00  0.00    -0.200 F 
ENDBRANCH  67  91
BRANCH  79 102
ATOM    102  C   UNL A   1      44.059  38.920  34.001  1.00  0.00     0.064 A 
ATOM    103  C   UNL A   1      43.543  40.116  33.476  1.00  0.00     0.173 A 
ATOM    104  C   UNL A   1      44.966  39.009  35.068  1.00  0.00     0.173 A 
ATOM    105  F   UNL A   1      42.691  40.087  32.440  1.00  0.00    -0.203 F 
ATOM    106  C   UNL A   1      43.945  41.350  33.980  1.00  0.00     0.198 A 
ATOM    107  C   UNL A   1      45.337  40.243  35.591  1.00  0.00     0.198 A 
ATOM    108  F   UNL A   1      45.490  37.897  35.604  1.00  0.00    -0.203 F 
ATOM    109  F   UNL A   1      43.487  42.479  33.422  1.00  0.00    -0.200 F 
ATOM    110  C   UNL A   1      44.835  41.412  35.042  1.00  0.00     0.200 A 
ATOM    111  F   UNL A   1      46.188  40.301  36.626  1.00  0.00    -0.200 F 
ATOM    112  F   UNL A   1      45.218  42.601  35.527  1.00  0.00    -0.200 F 
ENDBRANCH  79 102
ENDBRANCH  53  54
ENDBRANCH  46  48
ENDBRANCH  45  46
ENDBRANCH  44  45
ENDBRANCH  43  44
ENDBRANCH  42  43
ENDBRANCH  41  42
ENDBRANCH  40  41
ENDBRANCH  39  40
ENDBRANCH   1  39
TORSDOF 26
ENDMDL
MODEL 3
REMARK VINA RESULT:      -8.5      2.130      3.162
REMARK SMILES COc1ccc([C@@H]2CC(c3ccc(Cl)cc3)=NN2C2=[NH+]C(=O)[C@@H](CC(=O)OCCOCCOCCOCCOC(=O)c3ccc(-c4c5nc(c(-c6c(F)c(F)c(F)c(F)c6F)c6ccc([nH]6)c(-c6c(F)c(F)c(F)c(F)c6F)c6nc(c(-c7c(F)c(F)c(F)c(F)c7F)c7ccc4[nH]7)C=C6)C=C5)cc3)S2)cc1OC
REMARK SMILES IDX 32 1 31 2 30 3 29 4 28 5 27 6 25 7 26 8 24 9 23 10 19 11
REMARK SMILES IDX 20 12 105 13 21 14 22 16 18 17 7 18 8 19 9 20 17 21 6 22
REMARK SMILES IDX 3 23 4 24 107 25 5 26 106 27 2 28 1 29 108 30 109 31 10 32
REMARK SMILES IDX 11 33 16 34 12 35 15 36 13 37 14 38 33 39 34 40 35 41 36 42
REMARK SMILES IDX 37 43 38 44 39 45 40 46 41 47 42 48 43 49 104 50 44 51
REMARK SMILES IDX 103 52 45 53 46 54 47 55 97 56 48 57 102 58 96 59 98 60
REMARK SMILES IDX 49 61 101 62 95 63 94 64 50 66 82 67 62 68 81 69 63 70 66 71
REMARK SMILES IDX 80 72 99 73 64 74 65 75 79 77 100 78 67 79 51 80 52 81 60 82
REMARK SMILES IDX 53 83 54 84 58 85 61 86 55 87 56 88 59 89 57 90 83 91 84 92
REMARK SMILES IDX 92 93 85 94 86 95 90 96 93 97 87 98 88 99 91 100 89 101
REMARK SMILES IDX 68 102 69 103 77 104 70 105 71 106 75 107 78 108 72 109
REMARK SMILES IDX 73 110 76 111 74 112
REMARK H PARENT 20 15 98 65 66 76
REMARK Flexibility Score: inf
ROOT
ATOM      1  C   UNL A   1      32.895  27.351  24.238  1.00  0.00     0.188 C 
ENDROOT
BRANCH   1   2
ATOM      2  C   UNL A   1      31.747  26.491  23.692  1.00  0.00     0.188 C 
BRANCH   2   3
ATOM      3  O   UNL A   1      31.740  25.131  24.058  1.00  0.00    -0.376 OA
BRANCH   3   4
ATOM      4  C   UNL A   1      31.360  24.122  23.135  1.00  0.00     0.202 C 
BRANCH   4   5
ATOM      5  C   UNL A   1      31.563  22.607  23.326  1.00  0.00     0.261 C 
BRANCH   5   6
ATOM      6  O   UNL A   1      32.907  22.118  23.269  1.00  0.00    -0.463 OA
BRANCH   6   7
ATOM      7  C   UNL A   1      33.540  21.901  24.443  1.00  0.00     0.307 C 
ATOM      8  O   UNL A   1      32.964  21.687  25.506  1.00  0.00    -0.252 OA
BRANCH   7   9
ATOM      9  C   UNL A   1      35.049  21.836  24.337  1.00  0.00     0.150 C 
BRANCH   9  10
ATOM     10  C   UNL A   1      35.905  21.915  25.594  1.00  0.00     0.184 C 
ATOM     11  C   UNL A   1      38.238  22.746  26.126  1.00  0.00     0.340 C 
ATOM     12  N   UNL A   1      37.385  23.671  26.417  1.00  0.00    -0.202 N 
ATOM     13  S   UNL A   1      37.578  21.313  25.377  1.00  0.00    -0.020 SA
ATOM     14  C   UNL A   1      36.102  23.358  26.033  1.00  0.00     0.322 C 
ATOM     15  H   UNL A   1      37.628  24.513  26.867  1.00  0.00     0.316 HD
ATOM     16  O   UNL A   1      35.174  24.159  26.056  1.00  0.00    -0.246 OA
BRANCH  11  17
ATOM     17  N   UNL A   1      39.601  22.772  26.338  1.00  0.00    -0.120 N 
ATOM     18  C   UNL A   1      40.169  23.323  27.581  1.00  0.00     0.243 C 
ATOM     19  C   UNL A   1      41.551  22.688  27.677  1.00  0.00     0.118 C 
ATOM     20  C   UNL A   1      41.551  21.869  26.422  1.00  0.00     0.096 C 
ATOM     21  N   UNL A   1      40.476  21.921  25.704  1.00  0.00    -0.086 NA
BRANCH  18  22
ATOM     22  C   UNL A   1      40.163  24.842  27.604  1.00  0.00     0.003 A 
ATOM     23  C   UNL A   1      40.506  27.636  27.977  1.00  0.00     0.160 A 
ATOM     24  C   UNL A   1      39.399  26.948  28.505  1.00  0.00     0.051 A 
ATOM     25  C   UNL A   1      41.457  26.917  27.250  1.00  0.00     0.161 A 
ATOM     26  C   UNL A   1      39.216  25.574  28.316  1.00  0.00     0.012 A 
ATOM     27  C   UNL A   1      41.256  25.538  27.054  1.00  0.00     0.058 A 
BRANCH  23  28
ATOM     28  O   UNL A   1      40.675  28.932  28.398  1.00  0.00    -0.493 OA
ATOM     29  C   UNL A   1      41.387  29.050  29.628  1.00  0.00     0.278 C 
ENDBRANCH  23  28
BRANCH  25  30
ATOM     30  O   UNL A   1      42.674  27.308  26.768  1.00  0.00    -0.493 OA
ATOM     31  C   UNL A   1      43.595  26.337  26.320  1.00  0.00     0.278 C 
ENDBRANCH  25  30
ENDBRANCH  18  22
BRANCH  20  32
ATOM     32  C   UNL A   1      42.719  21.062  26.054  1.00  0.00     0.000 A 
ATOM     33  C   UNL A   1      43.927  21.701  25.765  1.00  0.00     0.011 A 
ATOM     34  C   UNL A   1      42.609  19.671  25.978  1.00  0.00     0.011 A 
ATOM     35  C   UNL A   1      45.045  20.937  25.424  1.00  0.00     0.021 A 
ATOM     36  C   UNL A   1      43.725  18.913  25.618  1.00  0.00     0.021 A 
ATOM     37  C   UNL A   1      44.939  19.547  25.351  1.00  0.00     0.041 A 
ATOM     38  Cl  UNL A   1      46.313  18.607  24.921  1.00  0.00    -0.084 Cl
ENDBRANCH  20  32
ENDBRANCH  11  17
ENDBRANCH   9  10
ENDBRANCH   7   9
ENDBRANCH   6   7
ENDBRANCH   5   6
ENDBRANCH   4   5
ENDBRANCH   3   4
ENDBRANCH   2   3
ENDBRANCH   1   2
BRANCH   1  39
ATOM     39  O   UNL A   1      32.632  28.199  25.341  1.00  0.00    -0.377 OA
BRANCH  39  40
ATOM     40  C   UNL A   1      33.679  28.535  26.250  1.00  0.00     0.188 C 
BRANCH  40  41
ATOM     41  C   UNL A   1      33.725  29.912  26.943  1.00  0.00     0.188 C 
BRANCH  41  42
ATOM     42  O   UNL A   1      34.783  30.084  27.867  1.00  0.00    -0.376 OA
BRANCH  42  43
ATOM     43  C   UNL A   1      34.947  31.350  28.486  1.00  0.00     0.202 C 
BRANCH  43  44
ATOM     44  C   UNL A   1      36.372  31.798  28.848  1.00  0.00     0.261 C 
BRANCH  44  45
ATOM     45  O   UNL A   1      36.490  33.064  29.524  1.00  0.00    -0.460 OA
BRANCH  45  46
ATOM     46  C   UNL A   1      36.064  33.147  30.799  1.00  0.00     0.338 C 
ATOM     47  O   UNL A   1      34.959  33.488  31.192  1.00  0.00    -0.246 OA
BRANCH  46  48
ATOM     48  C   UNL A   1      37.113  32.579  31.669  1.00  0.00     0.060 A 
ATOM     49  C   UNL A   1      36.740  31.798  32.770  1.00  0.00     0.016 A 
ATOM     50  C   UNL A   1      38.462  32.832  31.410  1.00  0.00     0.016 A 
ATOM     51  C   UNL A   1      37.714  31.291  33.634  1.00  0.00     0.010 A 
ATOM     52  C   UNL A   1      39.435  32.343  32.289  1.00  0.00     0.010 A 
ATOM     53  C   UNL A   1      39.065  31.595  33.422  1.00  0.00    -0.014 A 
BRANCH  53  54
ATOM     54  C   UNL A   1      40.080  31.240  34.448  1.00  0.00     0.031 A 
ATOM     55  C   UNL A   1      40.385  32.205  35.549  1.00  0.00     0.074 A 
ATOM     56  C   UNL A   1      40.763  30.085  34.390  1.00  0.00     0.049 A 
ATOM     57  N   UNL A   1      41.283  32.115  36.497  1.00  0.00    -0.248 NA
ATOM     58  C   UNL A   1      39.583  33.434  35.581  1.00  0.00     0.031 C 
ATOM     59  C   UNL A   1      40.581  29.078  33.360  1.00  0.00     0.029 A 
ATOM     60  N   UNL A   1      41.774  29.586  35.180  1.00  0.00    -0.354 N 
ATOM     61  C   UNL A   1      41.161  33.281  37.235  1.00  0.00     0.074 A 
ATOM     62  C   UNL A   1      40.126  34.075  36.605  1.00  0.00     0.031 C 
ATOM     63  C   UNL A   1      41.495  28.115  33.548  1.00  0.00     0.029 A 
ATOM     64  C   UNL A   1      42.294  28.400  34.724  1.00  0.00     0.049 A 
ATOM     65  H   UNL A   1      42.095  30.038  35.993  1.00  0.00     0.167 HD
ATOM     66  C   UNL A   1      41.848  33.649  38.342  1.00  0.00     0.037 A 
ATOM     67  C   UNL A   1      43.299  27.625  35.175  1.00  0.00     0.037 A 
ATOM     68  C   UNL A   1      42.889  32.868  38.958  1.00  0.00     0.049 A 
ATOM     69  C   UNL A   1      44.062  28.065  36.389  1.00  0.00     0.074 A 
ATOM     70  C   UNL A   1      43.617  33.157  40.100  1.00  0.00     0.029 A 
ATOM     71  N   UNL A   1      43.367  31.656  38.481  1.00  0.00    -0.354 N 
ATOM     72  N   UNL A   1      43.902  29.144  37.111  1.00  0.00    -0.248 NA
ATOM     73  C   UNL A   1      45.148  27.188  36.846  1.00  0.00     0.031 C 
ATOM     74  C   UNL A   1      44.577  32.155  40.277  1.00  0.00     0.029 A 
ATOM     75  C   UNL A   1      44.403  31.203  39.286  1.00  0.00     0.049 A 
ATOM     76  H   UNL A   1      43.022  31.187  37.687  1.00  0.00     0.167 HD
ATOM     77  C   UNL A   1      44.857  29.073  38.113  1.00  0.00     0.074 A 
ATOM     78  C   UNL A   1      45.571  27.827  37.927  1.00  0.00     0.031 C 
ATOM     79  C   UNL A   1      45.123  29.971  39.091  1.00  0.00     0.037 A 
BRANCH  66  80
ATOM     80  C   UNL A   1      41.512  34.982  38.938  1.00  0.00     0.064 A 
ATOM     81  C   UNL A   1      42.154  36.159  38.521  1.00  0.00     0.173 A 
ATOM     82  C   UNL A   1      40.517  35.087  39.921  1.00  0.00     0.173 A 
ATOM     83  F   UNL A   1      43.125  36.109  37.596  1.00  0.00    -0.203 F 
ATOM     84  C   UNL A   1      41.829  37.388  39.089  1.00  0.00     0.198 A 
ATOM     85  C   UNL A   1      40.172  36.322  40.460  1.00  0.00     0.198 A 
ATOM     86  F   UNL A   1      39.874  33.991  40.352  1.00  0.00    -0.203 F 
ATOM     87  F   UNL A   1      42.493  38.492  38.716  1.00  0.00    -0.200 F 
ATOM     88  C   UNL A   1      40.834  37.470  40.050  1.00  0.00     0.200 A 
ATOM     89  F   UNL A   1      39.200  36.401  41.379  1.00  0.00    -0.200 F 
ATOM     90  F   UNL A   1      40.517  38.655  40.589  1.00  0.00    -0.200 F 
ENDBRANCH  66  80
BRANCH  67  91
ATOM     91  C   UNL A   1      43.651  26.345  34.497  1.00  0.00     0.064 A 
ATOM     92  C   UNL A   1      43.049  25.138  34.885  1.00  0.00     0.173 A 
ATOM     93  C   UNL A   1      44.618  26.291  33.483  1.00  0.00     0.173 A 
ATOM     94  F   UNL A   1      42.132  25.131  35.865  1.00  0.00    -0.203 F 
ATOM     95  C   UNL A   1      43.418  23.925  34.303  1.00  0.00     0.198 A 
ATOM     96  C   UNL A   1      44.967  25.081  32.883  1.00  0.00     0.198 A 
ATOM     97  F   UNL A   1      45.212  27.416  33.062  1.00  0.00    -0.203 F 
ATOM     98  F   UNL A   1      42.855  22.784  34.723  1.00  0.00    -0.200 F 
ATOM     99  C   UNL A   1      44.373  23.898  33.299  1.00  0.00     0.200 A 
ATOM    100  F   UNL A   1      45.866  25.063  31.890  1.00  0.00    -0.200 F 
ATOM    101  F   UNL A   1      44.713  22.736  32.727  1.00  0.00    -0.200 F 
ENDBRANCH  67  91
BRANCH  79 102
ATOM    102  C   UNL A   1      46.227  29.629  40.048  1.00  0.00     0.064 A 
ATOM    103  C   UNL A   1      47.527  30.135  39.885  1.00  0.00     0.173 A 
ATOM    104  C   UNL A   1      45.982  28.790  41.146  1.00  0.00     0.173 A 
ATOM    105  F   UNL A   1      47.820  30.921  38.838  1.00  0.00    -0.203 F 
ATOM    106  C   UNL A   1      48.545  29.789  40.769  1.00  0.00     0.198 A 
ATOM    107  C   UNL A   1      46.994  28.477  42.047  1.00  0.00     0.198 A 
ATOM    108  F   UNL A   1      44.758  28.279  41.345  1.00  0.00    -0.203 F 
ATOM    109  F   UNL A   1      49.791  30.234  40.558  1.00  0.00    -0.200 F 
ATOM    110  C   UNL A   1      48.276  28.967  41.854  1.00  0.00     0.200 A 
ATOM    111  F   UNL A   1      46.729  27.692  43.102  1.00  0.00    -0.200 F 
ATOM    112  F   UNL A   1      49.256  28.638  42.706  1.00  0.00    -0.200 F 
ENDBRANCH  79 102
ENDBRANCH  53  54
ENDBRANCH  46  48
ENDBRANCH  45  46
ENDBRANCH  44  45
ENDBRANCH  43  44
ENDBRANCH  42  43
ENDBRANCH  41  42
ENDBRANCH  40  41
ENDBRANCH  39  40
ENDBRANCH   1  39
TORSDOF 26
ENDMDL
