MODEL 1
REMARK VINA RESULT:     -10.8      0.000      0.000
REMARK SMILES C[C@@H]1CN(C(=O)C[NH+]2CCC(CC(=O)OCCOCCOCCOCCOC(=O)c3ccc(-c4c5nc(c(-c6c(F)c(F)c(F)c(F)c6F)c6ccc([nH]6)c(-c6c(F)c(F)c(F)c(F)c6F)c6nc(c(-c7c(F)c(F)c(F)c(F)c7F)c7ccc4[nH]7)C=C6)C=C5)cc3)CC2)C[C@@H](C)O1
REMARK SMILES IDX 20 1 19 2 18 3 17 4 16 5 15 6 13 7 14 8 12 9 11 10 8 11 9 12
REMARK SMILES IDX 94 13 10 15 93 16 7 17 5 18 1 19 2 20 3 21 98 22 4 23 96 24
REMARK SMILES IDX 95 25 97 26 6 27 21 28 22 29 23 30 24 31 25 32 26 33 27 34
REMARK SMILES IDX 28 35 29 36 30 37 31 38 92 39 32 40 91 41 33 42 34 43 35 44
REMARK SMILES IDX 85 45 36 46 90 47 84 48 86 49 37 50 89 51 83 52 82 53 38 55
REMARK SMILES IDX 70 56 50 57 69 58 51 59 54 60 68 61 87 62 52 63 53 64 67 66
REMARK SMILES IDX 88 67 55 68 39 69 40 70 48 71 41 72 42 73 46 74 49 75 43 76
REMARK SMILES IDX 44 77 47 78 45 79 71 80 72 81 80 82 73 83 74 84 78 85 81 86
REMARK SMILES IDX 75 87 76 88 79 89 77 90 56 91 57 92 65 93 58 94 59 95 63 96
REMARK SMILES IDX 66 97 60 98 61 99 64 100 62 101
REMARK H PARENT 8 14 86 54 54 65
REMARK Flexibility Score: inf
ROOT
ATOM      1  C   UNL A   1      33.254  35.141  29.293  1.00  0.00     0.188 C 
ENDROOT
BRANCH   1   2
ATOM      2  C   UNL A   1      33.379  34.015  28.258  1.00  0.00     0.188 C 
BRANCH   2   3
ATOM      3  O   UNL A   1      34.380  33.074  28.587  1.00  0.00    -0.376 OA
BRANCH   3   4
ATOM      4  C   UNL A   1      34.123  31.676  28.498  1.00  0.00     0.202 C 
BRANCH   4   5
ATOM      5  C   UNL A   1      33.570  31.008  27.230  1.00  0.00     0.261 C 
BRANCH   5   6
ATOM      6  O   UNL A   1      33.654  29.575  27.233  1.00  0.00    -0.463 OA
BRANCH   6   7
ATOM      7  C   UNL A   1      32.484  28.967  26.973  1.00  0.00     0.306 C 
ATOM      8  O   UNL A   1      31.964  28.129  27.712  1.00  0.00    -0.252 OA
BRANCH   7   9
ATOM      9  C   UNL A   1      31.687  29.507  25.818  1.00  0.00     0.126 C 
BRANCH   9  10
ATOM     10  C   UNL A   1      31.838  29.269  24.293  1.00  0.00     0.011 C 
ATOM     11  N   UNL A   1      31.723  26.549  23.100  1.00  0.00    -0.327 N 
ATOM     12  C   UNL A   1      30.585  27.403  22.828  1.00  0.00     0.262 C 
ATOM     13  C   UNL A   1      32.937  27.376  22.945  1.00  0.00     0.262 C 
ATOM     14  H   UNL A   1      31.669  25.798  22.413  1.00  0.00     0.348 HD
ATOM     15  C   UNL A   1      30.521  28.663  23.689  1.00  0.00     0.066 C 
ATOM     16  C   UNL A   1      33.096  28.438  24.033  1.00  0.00     0.066 C 
BRANCH  11  17
ATOM     17  C   UNL A   1      31.731  25.696  24.324  1.00  0.00     0.363 C 
BRANCH  17  18
ATOM     18  C   UNL A   1      31.597  24.124  24.198  1.00  0.00     0.277 C 
ATOM     19  C   UNL A   1      33.120  22.576  27.781  1.00  0.00     0.040 C 
ATOM     20  C   UNL A   1      34.117  22.847  26.644  1.00  0.00     0.135 C 
ATOM     21  C   UNL A   1      33.707  23.790  25.496  1.00  0.00     0.151 C 
ATOM     22  O   UNL A   1      34.517  21.615  26.055  1.00  0.00    -0.372 OA
ATOM     23  N   UNL A   1      32.644  23.308  24.665  1.00  0.00    -0.333 N 
ATOM     24  C   UNL A   1      33.461  21.010  25.282  1.00  0.00     0.135 C 
ATOM     25  C   UNL A   1      32.916  21.953  24.167  1.00  0.00     0.151 C 
ATOM     26  C   UNL A   1      34.107  19.743  24.746  1.00  0.00     0.040 C 
ATOM     27  O   UNL A   1      30.645  23.626  23.590  1.00  0.00    -0.268 OA
ENDBRANCH  17  18
ENDBRANCH  11  17
ENDBRANCH   9  10
ENDBRANCH   7   9
ENDBRANCH   6   7
ENDBRANCH   5   6
ENDBRANCH   4   5
ENDBRANCH   3   4
ENDBRANCH   2   3
ENDBRANCH   1   2
BRANCH   1  28
ATOM     28  O   UNL A   1      34.111  35.116  30.423  1.00  0.00    -0.377 OA
BRANCH  28  29
ATOM     29  C   UNL A   1      33.641  35.511  31.708  1.00  0.00     0.188 C 
BRANCH  29  30
ATOM     30  C   UNL A   1      34.667  35.934  32.763  1.00  0.00     0.188 C 
BRANCH  30  31
ATOM     31  O   UNL A   1      34.392  35.447  34.059  1.00  0.00    -0.376 OA
BRANCH  31  32
ATOM     32  C   UNL A   1      35.370  34.644  34.698  1.00  0.00     0.202 C 
BRANCH  32  33
ATOM     33  C   UNL A   1      36.352  33.828  33.838  1.00  0.00     0.261 C 
BRANCH  33  34
ATOM     34  O   UNL A   1      36.103  32.415  33.705  1.00  0.00    -0.460 OA
BRANCH  34  35
ATOM     35  C   UNL A   1      35.554  31.953  32.567  1.00  0.00     0.338 C 
ATOM     36  O   UNL A   1      34.454  32.222  32.105  1.00  0.00    -0.246 OA
BRANCH  35  37
ATOM     37  C   UNL A   1      36.587  31.184  31.845  1.00  0.00     0.060 A 
ATOM     38  C   UNL A   1      37.480  30.386  32.572  1.00  0.00     0.016 A 
ATOM     39  C   UNL A   1      36.687  31.269  30.455  1.00  0.00     0.016 A 
ATOM     40  C   UNL A   1      38.498  29.696  31.916  1.00  0.00     0.010 A 
ATOM     41  C   UNL A   1      37.725  30.600  29.800  1.00  0.00     0.010 A 
ATOM     42  C   UNL A   1      38.656  29.841  30.532  1.00  0.00    -0.014 A 
BRANCH  42  43
ATOM     43  C   UNL A   1      39.915  29.387  29.893  1.00  0.00     0.031 A 
ATOM     44  C   UNL A   1      41.044  30.373  29.767  1.00  0.00     0.074 A 
ATOM     45  C   UNL A   1      40.071  28.122  29.465  1.00  0.00     0.049 A 
ATOM     46  N   UNL A   1      42.217  30.232  29.204  1.00  0.00    -0.248 NA
ATOM     47  C   UNL A   1      40.815  31.701  30.359  1.00  0.00     0.031 C 
ATOM     48  C   UNL A   1      39.077  27.059  29.584  1.00  0.00     0.029 A 
ATOM     49  N   UNL A   1      41.134  27.522  28.835  1.00  0.00    -0.354 N 
ATOM     50  C   UNL A   1      42.859  31.453  29.365  1.00  0.00     0.074 A 
ATOM     51  C   UNL A   1      41.936  32.333  30.049  1.00  0.00     0.031 C 
ATOM     52  C   UNL A   1      39.570  25.939  29.028  1.00  0.00     0.029 A 
ATOM     53  C   UNL A   1      40.898  26.216  28.483  1.00  0.00     0.049 A 
ATOM     54  H   UNL A   1      41.983  27.985  28.652  1.00  0.00     0.167 HD
ATOM     55  C   UNL A   1      44.109  31.808  28.983  1.00  0.00     0.037 A 
ATOM     56  C   UNL A   1      41.660  25.357  27.776  1.00  0.00     0.037 A 
ATOM     57  C   UNL A   1      45.022  30.931  28.298  1.00  0.00     0.049 A 
ATOM     58  C   UNL A   1      43.013  25.805  27.280  1.00  0.00     0.074 A 
ATOM     59  C   UNL A   1      46.315  31.189  27.880  1.00  0.00     0.029 A 
ATOM     60  N   UNL A   1      44.731  29.628  27.920  1.00  0.00    -0.354 N 
ATOM     61  N   UNL A   1      43.624  26.952  27.453  1.00  0.00    -0.248 NA
ATOM     62  C   UNL A   1      43.783  24.833  26.489  1.00  0.00     0.031 C 
ATOM     63  C   UNL A   1      46.783  30.066  27.190  1.00  0.00     0.029 A 
ATOM     64  C   UNL A   1      45.809  29.082  27.242  1.00  0.00     0.049 A 
ATOM     65  H   UNL A   1      43.884  29.162  28.105  1.00  0.00     0.167 HD
ATOM     66  C   UNL A   1      44.858  26.829  26.824  1.00  0.00     0.074 A 
ATOM     67  C   UNL A   1      44.915  25.490  26.278  1.00  0.00     0.031 C 
ATOM     68  C   UNL A   1      45.854  27.743  26.708  1.00  0.00     0.037 A 
BRANCH  55  69
ATOM     69  C   UNL A   1      44.546  33.217  29.263  1.00  0.00     0.064 A 
ATOM     70  C   UNL A   1      44.337  34.256  28.343  1.00  0.00     0.173 A 
ATOM     71  C   UNL A   1      45.164  33.537  30.482  1.00  0.00     0.173 A 
ATOM     72  F   UNL A   1      43.766  34.003  27.156  1.00  0.00    -0.203 F 
ATOM     73  C   UNL A   1      44.758  35.554  28.621  1.00  0.00     0.198 A 
ATOM     74  C   UNL A   1      45.551  34.841  30.770  1.00  0.00     0.198 A 
ATOM     75  F   UNL A   1      45.386  32.582  31.398  1.00  0.00    -0.203 F 
ATOM     76  F   UNL A   1      44.598  36.519  27.705  1.00  0.00    -0.200 F 
ATOM     77  C   UNL A   1      45.357  35.847  29.837  1.00  0.00     0.200 A 
ATOM     78  F   UNL A   1      46.116  35.125  31.952  1.00  0.00    -0.200 F 
ATOM     79  F   UNL A   1      45.755  37.099  30.105  1.00  0.00    -0.200 F 
ENDBRANCH  55  69
BRANCH  56  80
ATOM     80  C   UNL A   1      41.157  23.989  27.474  1.00  0.00     0.064 A 
ATOM     81  C   UNL A   1      41.750  22.855  28.046  1.00  0.00     0.173 A 
ATOM     82  C   UNL A   1      40.092  23.787  26.584  1.00  0.00     0.173 A 
ATOM     83  F   UNL A   1      42.790  22.994  28.883  1.00  0.00    -0.203 F 
ATOM     84  C   UNL A   1      41.312  21.572  27.723  1.00  0.00     0.198 A 
ATOM     85  C   UNL A   1      39.633  22.505  26.286  1.00  0.00     0.198 A 
ATOM     86  F   UNL A   1      39.490  24.837  26.005  1.00  0.00    -0.203 F 
ATOM     87  F   UNL A   1      41.934  20.504  28.243  1.00  0.00    -0.200 F 
ATOM     88  C   UNL A   1      40.251  21.398  26.849  1.00  0.00     0.200 A 
ATOM     89  F   UNL A   1      38.598  22.343  25.453  1.00  0.00    -0.200 F 
ATOM     90  F   UNL A   1      39.827  20.165  26.542  1.00  0.00    -0.200 F 
ENDBRANCH  56  80
BRANCH  68  91
ATOM     91  C   UNL A   1      47.111  27.316  26.001  1.00  0.00     0.064 A 
ATOM     92  C   UNL A   1      47.306  27.546  24.631  1.00  0.00     0.173 A 
ATOM     93  C   UNL A   1      48.155  26.708  26.717  1.00  0.00     0.173 A 
ATOM     94  F   UNL A   1      46.336  28.114  23.898  1.00  0.00    -0.203 F 
ATOM     95  C   UNL A   1      48.484  27.157  23.998  1.00  0.00     0.198 A 
ATOM     96  C   UNL A   1      49.346  26.352  26.088  1.00  0.00     0.198 A 
ATOM     97  F   UNL A   1      48.027  26.472  28.031  1.00  0.00    -0.203 F 
ATOM     98  F   UNL A   1      48.624  27.338  22.678  1.00  0.00    -0.200 F 
ATOM     99  C   UNL A   1      49.506  26.569  24.729  1.00  0.00     0.200 A 
ATOM    100  F   UNL A   1      50.338  25.802  26.800  1.00  0.00    -0.200 F 
ATOM    101  F   UNL A   1      50.643  26.204  24.120  1.00  0.00    -0.200 F 
ENDBRANCH  68  91
ENDBRANCH  42  43
ENDBRANCH  35  37
ENDBRANCH  34  35
ENDBRANCH  33  34
ENDBRANCH  32  33
ENDBRANCH  31  32
ENDBRANCH  30  31
ENDBRANCH  29  30
ENDBRANCH  28  29
ENDBRANCH   1  28
TORSDOF 23
ENDMDL
MODEL 2
REMARK VINA RESULT:     -10.4      3.549      9.513
REMARK SMILES C[C@@H]1CN(C(=O)C[NH+]2CCC(CC(=O)OCCOCCOCCOCCOC(=O)c3ccc(-c4c5nc(c(-c6c(F)c(F)c(F)c(F)c6F)c6ccc([nH]6)c(-c6c(F)c(F)c(F)c(F)c6F)c6nc(c(-c7c(F)c(F)c(F)c(F)c7F)c7ccc4[nH]7)C=C6)C=C5)cc3)CC2)C[C@@H](C)O1
REMARK SMILES IDX 20 1 19 2 18 3 17 4 16 5 15 6 13 7 14 8 12 9 11 10 8 11 9 12
REMARK SMILES IDX 94 13 10 15 93 16 7 17 5 18 1 19 2 20 3 21 98 22 4 23 96 24
REMARK SMILES IDX 95 25 97 26 6 27 21 28 22 29 23 30 24 31 25 32 26 33 27 34
REMARK SMILES IDX 28 35 29 36 30 37 31 38 92 39 32 40 91 41 33 42 34 43 35 44
REMARK SMILES IDX 85 45 36 46 90 47 84 48 86 49 37 50 89 51 83 52 82 53 38 55
REMARK SMILES IDX 70 56 50 57 69 58 51 59 54 60 68 61 87 62 52 63 53 64 67 66
REMARK SMILES IDX 88 67 55 68 39 69 40 70 48 71 41 72 42 73 46 74 49 75 43 76
REMARK SMILES IDX 44 77 47 78 45 79 71 80 72 81 80 82 73 83 74 84 78 85 81 86
REMARK SMILES IDX 75 87 76 88 79 89 77 90 56 91 57 92 65 93 58 94 59 95 63 96
REMARK SMILES IDX 66 97 60 98 61 99 64 100 62 101
REMARK H PARENT 8 14 86 54 54 65
REMARK Flexibility Score: inf
ROOT
ATOM      1  C   UNL A   1      34.785  23.072  26.304  1.00  0.00     0.188 C 
ENDROOT
BRANCH   1   2
ATOM      2  C   UNL A   1      34.336  22.296  27.550  1.00  0.00     0.188 C 
BRANCH   2   3
ATOM      3  O   UNL A   1      33.456  21.233  27.248  1.00  0.00    -0.376 OA
BRANCH   3   4
ATOM      4  C   UNL A   1      33.541  20.546  26.003  1.00  0.00     0.202 C 
BRANCH   4   5
ATOM      5  C   UNL A   1      32.400  20.540  24.974  1.00  0.00     0.261 C 
BRANCH   5   6
ATOM      6  O   UNL A   1      32.601  21.431  23.866  1.00  0.00    -0.463 OA
BRANCH   6   7
ATOM      7  C   UNL A   1      31.813  22.519  23.901  1.00  0.00     0.306 C 
ATOM      8  O   UNL A   1      31.171  22.873  24.891  1.00  0.00    -0.252 OA
BRANCH   7   9
ATOM      9  C   UNL A   1      31.900  23.451  22.724  1.00  0.00     0.126 C 
BRANCH   9  10
ATOM     10  C   UNL A   1      32.979  24.501  22.350  1.00  0.00     0.011 C 
ATOM     11  N   UNL A   1      32.976  27.244  23.495  1.00  0.00    -0.327 N 
ATOM     12  C   UNL A   1      34.029  26.368  23.965  1.00  0.00     0.262 C 
ATOM     13  C   UNL A   1      32.865  27.050  22.035  1.00  0.00     0.262 C 
ATOM     14  H   UNL A   1      33.275  28.186  23.745  1.00  0.00     0.348 HD
ATOM     15  C   UNL A   1      33.833  24.896  23.607  1.00  0.00     0.066 C 
ATOM     16  C   UNL A   1      32.311  25.681  21.641  1.00  0.00     0.066 C 
BRANCH  11  17
ATOM     17  C   UNL A   1      31.660  27.262  24.199  1.00  0.00     0.363 C 
BRANCH  17  18
ATOM     18  C   UNL A   1      31.012  28.638  24.637  1.00  0.00     0.277 C 
ATOM     19  C   UNL A   1      27.007  28.430  23.423  1.00  0.00     0.040 C 
ATOM     20  C   UNL A   1      28.034  28.937  22.399  1.00  0.00     0.135 C 
ATOM     21  C   UNL A   1      29.529  28.638  22.624  1.00  0.00     0.151 C 
ATOM     22  O   UNL A   1      27.905  30.347  22.250  1.00  0.00    -0.372 OA
ATOM     23  N   UNL A   1      30.111  29.279  23.766  1.00  0.00    -0.333 N 
ATOM     24  C   UNL A   1      28.376  31.065  23.409  1.00  0.00     0.135 C 
ATOM     25  C   UNL A   1      29.855  30.725  23.766  1.00  0.00     0.151 C 
ATOM     26  C   UNL A   1      28.161  32.520  23.025  1.00  0.00     0.040 C 
ATOM     27  O   UNL A   1      31.383  29.201  25.671  1.00  0.00    -0.268 OA
ENDBRANCH  17  18
ENDBRANCH  11  17
ENDBRANCH   9  10
ENDBRANCH   7   9
ENDBRANCH   6   7
ENDBRANCH   5   6
ENDBRANCH   4   5
ENDBRANCH   3   4
ENDBRANCH   2   3
ENDBRANCH   1   2
BRANCH   1  28
ATOM     28  O   UNL A   1      36.022  23.762  26.349  1.00  0.00    -0.377 OA
BRANCH  28  29
ATOM     29  C   UNL A   1      36.969  23.641  25.292  1.00  0.00     0.188 C 
BRANCH  29  30
ATOM     30  C   UNL A   1      36.713  22.599  24.198  1.00  0.00     0.188 C 
BRANCH  30  31
ATOM     31  O   UNL A   1      37.508  21.438  24.314  1.00  0.00    -0.376 OA
BRANCH  31  32
ATOM     32  C   UNL A   1      38.072  21.132  25.578  1.00  0.00     0.202 C 
BRANCH  32  33
ATOM     33  C   UNL A   1      39.602  21.018  25.710  1.00  0.00     0.261 C 
BRANCH  33  34
ATOM     34  O   UNL A   1      40.128  19.828  26.328  1.00  0.00    -0.460 OA
BRANCH  34  35
ATOM     35  C   UNL A   1      41.430  19.529  26.165  1.00  0.00     0.338 C 
ATOM     36  O   UNL A   1      41.908  18.513  25.683  1.00  0.00    -0.246 OA
BRANCH  35  37
ATOM     37  C   UNL A   1      42.217  20.731  26.506  1.00  0.00     0.060 A 
ATOM     38  C   UNL A   1      42.127  21.265  27.799  1.00  0.00     0.016 A 
ATOM     39  C   UNL A   1      43.026  21.341  25.545  1.00  0.00     0.016 A 
ATOM     40  C   UNL A   1      42.817  22.432  28.125  1.00  0.00     0.010 A 
ATOM     41  C   UNL A   1      43.695  22.525  25.864  1.00  0.00     0.010 A 
ATOM     42  C   UNL A   1      43.564  23.095  27.144  1.00  0.00    -0.014 A 
BRANCH  42  43
ATOM     43  C   UNL A   1      44.016  24.486  27.391  1.00  0.00     0.031 A 
ATOM     44  C   UNL A   1      43.001  25.489  27.867  1.00  0.00     0.074 A 
ATOM     45  C   UNL A   1      45.301  24.847  27.234  1.00  0.00     0.049 A 
ATOM     46  N   UNL A   1      43.138  26.768  28.102  1.00  0.00    -0.248 NA
ATOM     47  C   UNL A   1      41.644  24.973  28.110  1.00  0.00     0.031 C 
ATOM     48  C   UNL A   1      46.388  23.956  26.837  1.00  0.00     0.029 A 
ATOM     49  N   UNL A   1      45.905  26.072  27.387  1.00  0.00    -0.354 N 
ATOM     50  C   UNL A   1      41.886  27.212  28.509  1.00  0.00     0.074 A 
ATOM     51  C   UNL A   1      40.994  26.073  28.459  1.00  0.00     0.031 C 
ATOM     52  C   UNL A   1      47.526  24.668  26.761  1.00  0.00     0.029 A 
ATOM     53  C   UNL A   1      47.240  26.069  27.067  1.00  0.00     0.049 A 
ATOM     54  H   UNL A   1      45.425  26.874  27.695  1.00  0.00     0.167 HD
ATOM     55  C   UNL A   1      41.514  28.455  28.896  1.00  0.00     0.037 A 
ATOM     56  C   UNL A   1      48.118  27.090  27.003  1.00  0.00     0.037 A 
ATOM     57  C   UNL A   1      42.403  29.586  28.939  1.00  0.00     0.049 A 
ATOM     58  C   UNL A   1      47.658  28.485  27.351  1.00  0.00     0.074 A 
ATOM     59  C   UNL A   1      42.128  30.884  29.330  1.00  0.00     0.029 A 
ATOM     60  N   UNL A   1      43.738  29.554  28.566  1.00  0.00    -0.354 N 
ATOM     61  N   UNL A   1      46.480  28.894  27.755  1.00  0.00    -0.248 NA
ATOM     62  C   UNL A   1      48.654  29.560  27.232  1.00  0.00     0.031 C 
ATOM     63  C   UNL A   1      43.279  31.653  29.130  1.00  0.00     0.029 A 
ATOM     64  C   UNL A   1      44.292  30.819  28.684  1.00  0.00     0.049 A 
ATOM     65  H   UNL A   1      44.222  28.752  28.261  1.00  0.00     0.167 HD
ATOM     66  C   UNL A   1      46.601  30.262  27.971  1.00  0.00     0.074 A 
ATOM     67  C   UNL A   1      47.972  30.611  27.665  1.00  0.00     0.031 C 
ATOM     68  C   UNL A   1      45.662  31.151  28.382  1.00  0.00     0.037 A 
BRANCH  55  69
ATOM     69  C   UNL A   1      40.073  28.664  29.266  1.00  0.00     0.064 A 
ATOM     70  C   UNL A   1      39.602  28.442  30.568  1.00  0.00     0.173 A 
ATOM     71  C   UNL A   1      39.155  29.115  28.305  1.00  0.00     0.173 A 
ATOM     72  F   UNL A   1      40.433  27.995  31.521  1.00  0.00    -0.203 F 
ATOM     73  C   UNL A   1      38.259  28.636  30.887  1.00  0.00     0.198 A 
ATOM     74  C   UNL A   1      37.823  29.340  28.635  1.00  0.00     0.198 A 
ATOM     75  F   UNL A   1      39.553  29.344  27.044  1.00  0.00    -0.203 F 
ATOM     76  F   UNL A   1      37.820  28.365  32.124  1.00  0.00    -0.200 F 
ATOM     77  C   UNL A   1      37.373  29.092  29.923  1.00  0.00     0.200 A 
ATOM     78  F   UNL A   1      36.971  29.796  27.705  1.00  0.00    -0.200 F 
ATOM     79  F   UNL A   1      36.083  29.285  30.233  1.00  0.00    -0.200 F 
ENDBRANCH  55  69
BRANCH  56  80
ATOM     80  C   UNL A   1      49.521  26.841  26.574  1.00  0.00     0.064 A 
ATOM     81  C   UNL A   1      49.897  26.947  25.227  1.00  0.00     0.173 A 
ATOM     82  C   UNL A   1      50.508  26.462  27.496  1.00  0.00     0.173 A 
ATOM     83  F   UNL A   1      48.984  27.281  24.302  1.00  0.00    -0.203 F 
ATOM     84  C   UNL A   1      51.199  26.663  24.817  1.00  0.00     0.198 A 
ATOM     85  C   UNL A   1      51.817  26.210  27.090  1.00  0.00     0.198 A 
ATOM     86  F   UNL A   1      50.202  26.342  28.797  1.00  0.00    -0.203 F 
ATOM     87  F   UNL A   1      51.517  26.721  23.516  1.00  0.00    -0.200 F 
ATOM     88  C   UNL A   1      52.159  26.302  25.750  1.00  0.00     0.200 A 
ATOM     89  F   UNL A   1      52.744  25.875  27.997  1.00  0.00    -0.200 F 
ATOM     90  F   UNL A   1      53.411  26.033  25.356  1.00  0.00    -0.200 F 
ENDBRANCH  56  80
BRANCH  68  91
ATOM     91  C   UNL A   1      46.092  32.579  28.571  1.00  0.00     0.064 A 
ATOM     92  C   UNL A   1      45.967  33.533  27.550  1.00  0.00     0.173 A 
ATOM     93  C   UNL A   1      46.593  33.011  29.810  1.00  0.00     0.173 A 
ATOM     94  F   UNL A   1      45.504  33.172  26.343  1.00  0.00    -0.203 F 
ATOM     95  C   UNL A   1      46.356  34.855  27.750  1.00  0.00     0.198 A 
ATOM     96  C   UNL A   1      46.948  34.341  30.018  1.00  0.00     0.198 A 
ATOM     97  F   UNL A   1      46.725  32.145  30.825  1.00  0.00    -0.203 F 
ATOM     98  F   UNL A   1      46.278  35.734  26.743  1.00  0.00    -0.200 F 
ATOM     99  C   UNL A   1      46.838  35.260  28.986  1.00  0.00     0.200 A 
ATOM    100  F   UNL A   1      47.395  34.733  31.219  1.00  0.00    -0.200 F 
ATOM    101  F   UNL A   1      47.203  36.535  29.181  1.00  0.00    -0.200 F 
ENDBRANCH  68  91
ENDBRANCH  42  43
ENDBRANCH  35  37
ENDBRANCH  34  35
ENDBRANCH  33  34
ENDBRANCH  32  33
ENDBRANCH  31  32
ENDBRANCH  30  31
ENDBRANCH  29  30
ENDBRANCH  28  29
ENDBRANCH   1  28
TORSDOF 23
ENDMDL
MODEL 3
REMARK VINA RESULT:     -10.3      3.418      9.287
REMARK SMILES C[C@@H]1CN(C(=O)C[NH+]2CCC(CC(=O)OCCOCCOCCOCCOC(=O)c3ccc(-c4c5nc(c(-c6c(F)c(F)c(F)c(F)c6F)c6ccc([nH]6)c(-c6c(F)c(F)c(F)c(F)c6F)c6nc(c(-c7c(F)c(F)c(F)c(F)c7F)c7ccc4[nH]7)C=C6)C=C5)cc3)CC2)C[C@@H](C)O1
REMARK SMILES IDX 20 1 19 2 18 3 17 4 16 5 15 6 13 7 14 8 12 9 11 10 8 11 9 12
REMARK SMILES IDX 94 13 10 15 93 16 7 17 5 18 1 19 2 20 3 21 98 22 4 23 96 24
REMARK SMILES IDX 95 25 97 26 6 27 21 28 22 29 23 30 24 31 25 32 26 33 27 34
REMARK SMILES IDX 28 35 29 36 30 37 31 38 92 39 32 40 91 41 33 42 34 43 35 44
REMARK SMILES IDX 85 45 36 46 90 47 84 48 86 49 37 50 89 51 83 52 82 53 38 55
REMARK SMILES IDX 70 56 50 57 69 58 51 59 54 60 68 61 87 62 52 63 53 64 67 66
REMARK SMILES IDX 88 67 55 68 39 69 40 70 48 71 41 72 42 73 46 74 49 75 43 76
REMARK SMILES IDX 44 77 47 78 45 79 71 80 72 81 80 82 73 83 74 84 78 85 81 86
REMARK SMILES IDX 75 87 76 88 79 89 77 90 56 91 57 92 65 93 58 94 59 95 63 96
REMARK SMILES IDX 66 97 60 98 61 99 64 100 62 101
REMARK H PARENT 8 14 86 54 54 65
REMARK Flexibility Score: inf
ROOT
ATOM      1  C   UNL A   1      34.799  22.989  26.284  1.00  0.00     0.188 C 
ENDROOT
BRANCH   1   2
ATOM      2  C   UNL A   1      34.274  22.209  27.496  1.00  0.00     0.188 C 
BRANCH   2   3
ATOM      3  O   UNL A   1      33.406  21.153  27.138  1.00  0.00    -0.376 OA
BRANCH   3   4
ATOM      4  C   UNL A   1      33.607  20.420  25.934  1.00  0.00     0.202 C 
BRANCH   4   5
ATOM      5  C   UNL A   1      32.580  20.394  24.791  1.00  0.00     0.261 C 
BRANCH   5   6
ATOM      6  O   UNL A   1      32.792  21.396  23.786  1.00  0.00    -0.463 OA
BRANCH   6   7
ATOM      7  C   UNL A   1      31.956  22.443  23.886  1.00  0.00     0.306 C 
ATOM      8  O   UNL A   1      31.298  22.706  24.894  1.00  0.00    -0.252 OA
BRANCH   7   9
ATOM      9  C   UNL A   1      32.001  23.450  22.769  1.00  0.00     0.126 C 
BRANCH   9  10
ATOM     10  C   UNL A   1      33.077  24.508  22.412  1.00  0.00     0.011 C 
ATOM     11  N   UNL A   1      32.994  27.273  23.498  1.00  0.00    -0.327 N 
ATOM     12  C   UNL A   1      34.043  26.423  24.024  1.00  0.00     0.262 C 
ATOM     13  C   UNL A   1      32.939  27.048  22.040  1.00  0.00     0.262 C 
ATOM     14  H   UNL A   1      33.271  28.225  23.739  1.00  0.00     0.348 HD
ATOM     15  C   UNL A   1      33.880  24.941  23.690  1.00  0.00     0.066 C 
ATOM     16  C   UNL A   1      32.418  25.663  21.655  1.00  0.00     0.066 C 
BRANCH  11  17
ATOM     17  C   UNL A   1      31.655  27.286  24.155  1.00  0.00     0.363 C 
BRANCH  17  18
ATOM     18  C   UNL A   1      31.012  28.655  24.624  1.00  0.00     0.277 C 
ATOM     19  C   UNL A   1      26.981  28.446  23.501  1.00  0.00     0.040 C 
ATOM     20  C   UNL A   1      27.982  28.968  22.459  1.00  0.00     0.135 C 
ATOM     21  C   UNL A   1      29.483  28.672  22.646  1.00  0.00     0.151 C 
ATOM     22  O   UNL A   1      27.845  30.379  22.330  1.00  0.00    -0.372 OA
ATOM     23  N   UNL A   1      30.089  29.302  23.781  1.00  0.00    -0.333 N 
ATOM     24  C   UNL A   1      28.340  31.086  23.485  1.00  0.00     0.135 C 
ATOM     25  C   UNL A   1      29.828  30.747  23.804  1.00  0.00     0.151 C 
ATOM     26  C   UNL A   1      28.111  32.544  23.122  1.00  0.00     0.040 C 
ATOM     27  O   UNL A   1      31.406  29.207  25.655  1.00  0.00    -0.268 OA
ENDBRANCH  17  18
ENDBRANCH  11  17
ENDBRANCH   9  10
ENDBRANCH   7   9
ENDBRANCH   6   7
ENDBRANCH   5   6
ENDBRANCH   4   5
ENDBRANCH   3   4
ENDBRANCH   2   3
ENDBRANCH   1   2
BRANCH   1  28
ATOM     28  O   UNL A   1      36.091  23.567  26.362  1.00  0.00    -0.377 OA
BRANCH  28  29
ATOM     29  C   UNL A   1      37.037  23.394  25.311  1.00  0.00     0.188 C 
BRANCH  29  30
ATOM     30  C   UNL A   1      36.701  22.417  24.179  1.00  0.00     0.188 C 
BRANCH  30  31
ATOM     31  O   UNL A   1      37.406  21.196  24.248  1.00  0.00    -0.376 OA
BRANCH  31  32
ATOM     32  C   UNL A   1      37.943  20.798  25.498  1.00  0.00     0.202 C 
BRANCH  32  33
ATOM     33  C   UNL A   1      39.470  20.795  25.693  1.00  0.00     0.261 C 
BRANCH  33  34
ATOM     34  O   UNL A   1      40.065  19.608  26.253  1.00  0.00    -0.460 OA
BRANCH  34  35
ATOM     35  C   UNL A   1      41.395  19.431  26.143  1.00  0.00     0.338 C 
ATOM     36  O   UNL A   1      41.986  18.434  25.755  1.00  0.00    -0.246 OA
BRANCH  35  37
ATOM     37  C   UNL A   1      42.048  20.730  26.401  1.00  0.00     0.060 A 
ATOM     38  C   UNL A   1      42.151  21.195  27.719  1.00  0.00     0.016 A 
ATOM     39  C   UNL A   1      42.538  21.496  25.342  1.00  0.00     0.016 A 
ATOM     40  C   UNL A   1      42.713  22.444  27.981  1.00  0.00     0.010 A 
ATOM     41  C   UNL A   1      43.075  22.760  25.602  1.00  0.00     0.010 A 
ATOM     42  C   UNL A   1      43.131  23.254  26.918  1.00  0.00    -0.014 A 
BRANCH  42  43
ATOM     43  C   UNL A   1      43.413  24.689  27.165  1.00  0.00     0.031 A 
ATOM     44  C   UNL A   1      44.795  25.204  26.867  1.00  0.00     0.074 A 
ATOM     45  C   UNL A   1      42.461  25.527  27.610  1.00  0.00     0.049 A 
ATOM     46  N   UNL A   1      45.298  26.398  27.046  1.00  0.00    -0.248 NA
ATOM     47  C   UNL A   1      45.737  24.234  26.285  1.00  0.00     0.031 C 
ATOM     48  C   UNL A   1      41.072  25.164  27.879  1.00  0.00     0.029 A 
ATOM     49  N   UNL A   1      42.528  26.864  27.919  1.00  0.00    -0.354 N 
ATOM     50  C   UNL A   1      46.615  26.320  26.610  1.00  0.00     0.074 A 
ATOM     51  C   UNL A   1      46.843  24.955  26.187  1.00  0.00     0.031 C 
ATOM     52  C   UNL A   1      40.419  26.249  28.330  1.00  0.00     0.029 A 
ATOM     53  C   UNL A   1      41.353  27.372  28.416  1.00  0.00     0.049 A 
ATOM     54  H   UNL A   1      43.341  27.405  27.797  1.00  0.00     0.167 HD
ATOM     55  C   UNL A   1      47.548  27.299  26.561  1.00  0.00     0.037 A 
ATOM     56  C   UNL A   1      41.078  28.596  28.909  1.00  0.00     0.037 A 
ATOM     57  C   UNL A   1      47.318  28.655  26.987  1.00  0.00     0.049 A 
ATOM     58  C   UNL A   1      42.161  29.646  28.929  1.00  0.00     0.074 A 
ATOM     59  C   UNL A   1      48.193  29.726  26.965  1.00  0.00     0.029 A 
ATOM     60  N   UNL A   1      46.128  29.121  27.526  1.00  0.00    -0.354 N 
ATOM     61  N   UNL A   1      43.397  29.574  28.497  1.00  0.00    -0.248 NA
ATOM     62  C   UNL A   1      41.807  30.951  29.508  1.00  0.00     0.031 C 
ATOM     63  C   UNL A   1      47.554  30.823  27.552  1.00  0.00     0.029 A 
ATOM     64  C   UNL A   1      46.258  30.456  27.873  1.00  0.00     0.049 A 
ATOM     65  H   UNL A   1      45.312  28.583  27.645  1.00  0.00     0.167 HD
ATOM     66  C   UNL A   1      43.956  30.827  28.719  1.00  0.00     0.074 A 
ATOM     67  C   UNL A   1      42.920  31.646  29.312  1.00  0.00     0.031 C 
ATOM     68  C   UNL A   1      45.214  31.262  28.457  1.00  0.00     0.037 A 
BRANCH  55  69
ATOM     69  C   UNL A   1      48.915  26.930  26.063  1.00  0.00     0.064 A 
ATOM     70  C   UNL A   1      49.275  27.061  24.713  1.00  0.00     0.173 A 
ATOM     71  C   UNL A   1      49.890  26.457  26.956  1.00  0.00     0.173 A 
ATOM     72  F   UNL A   1      48.378  27.491  23.813  1.00  0.00    -0.203 F 
ATOM     73  C   UNL A   1      50.547  26.704  24.272  1.00  0.00     0.198 A 
ATOM     74  C   UNL A   1      51.170  26.136  26.518  1.00  0.00     0.198 A 
ATOM     75  F   UNL A   1      49.600  26.315  28.258  1.00  0.00    -0.203 F 
ATOM     76  F   UNL A   1      50.850  26.785  22.969  1.00  0.00    -0.200 F 
ATOM     77  C   UNL A   1      51.496  26.250  25.176  1.00  0.00     0.200 A 
ATOM     78  F   UNL A   1      52.090  25.711  27.396  1.00  0.00    -0.200 F 
ATOM     79  F   UNL A   1      52.722  25.914  24.751  1.00  0.00    -0.200 F 
ENDBRANCH  55  69
BRANCH  56  80
ATOM     80  C   UNL A   1      39.722  28.895  29.447  1.00  0.00     0.064 A 
ATOM     81  C   UNL A   1      39.397  28.630  30.784  1.00  0.00     0.173 A 
ATOM     82  C   UNL A   1      38.716  29.425  28.626  1.00  0.00     0.173 A 
ATOM     83  F   UNL A   1      40.317  28.097  31.604  1.00  0.00    -0.203 F 
ATOM     84  C   UNL A   1      38.113  28.862  31.274  1.00  0.00     0.198 A 
ATOM     85  C   UNL A   1      37.441  29.688  29.124  1.00  0.00     0.198 A 
ATOM     86  F   UNL A   1      38.971  29.695  27.337  1.00  0.00    -0.203 F 
ATOM     87  F   UNL A   1      37.815  28.548  32.543  1.00  0.00    -0.200 F 
ATOM     88  C   UNL A   1      37.138  29.397  30.446  1.00  0.00     0.200 A 
ATOM     89  F   UNL A   1      36.507  30.218  28.324  1.00  0.00    -0.200 F 
ATOM     90  F   UNL A   1      35.905  29.623  30.918  1.00  0.00    -0.200 F 
ENDBRANCH  56  80
BRANCH  68  91
ATOM     91  C   UNL A   1      45.533  32.698  28.767  1.00  0.00     0.064 A 
ATOM     92  C   UNL A   1      46.120  33.082  29.983  1.00  0.00     0.173 A 
ATOM     93  C   UNL A   1      45.289  33.700  27.814  1.00  0.00     0.173 A 
ATOM     94  F   UNL A   1      46.363  32.166  30.933  1.00  0.00    -0.203 F 
ATOM     95  C   UNL A   1      46.421  34.416  30.244  1.00  0.00     0.198 A 
ATOM     96  C   UNL A   1      45.624  35.028  28.065  1.00  0.00     0.198 A 
ATOM     97  F   UNL A   1      44.738  33.389  26.632  1.00  0.00    -0.203 F 
ATOM     98  F   UNL A   1      46.931  34.765  31.433  1.00  0.00    -0.200 F 
ATOM     99  C   UNL A   1      46.182  35.386  29.283  1.00  0.00     0.200 A 
ATOM    100  F   UNL A   1      45.409  35.960  27.127  1.00  0.00    -0.200 F 
ATOM    101  F   UNL A   1      46.482  36.669  29.532  1.00  0.00    -0.200 F 
ENDBRANCH  68  91
ENDBRANCH  42  43
ENDBRANCH  35  37
ENDBRANCH  34  35
ENDBRANCH  33  34
ENDBRANCH  32  33
ENDBRANCH  31  32
ENDBRANCH  30  31
ENDBRANCH  29  30
ENDBRANCH  28  29
ENDBRANCH   1  28
TORSDOF 23
ENDMDL
