MODEL 1
REMARK VINA RESULT:     -11.1      0.000      0.000
REMARK SMILES O=C(OCCOCCOCCOCCOC(=O)c1cc(S(=O)(=O)N2CCCCC2)c(Cl)cc1Cl)c1ccc(-c2c3nc(c(-c4c(F)c(F)c(F)c(F)c4F)c4ccc([nH]4)c(-c4c(F)c(F)c(F)c(F)c4F)c4nc(c(-c5c(F)c(F)c(F)c(F)c5F)c5ccc2[nH]5)C=C4)C=C3)cc1
REMARK SMILES IDX 9 1 8 2 7 3 6 4 5 5 4 6 3 7 2 8 1 9 35 10 36 11 97 12 37 13
REMARK SMILES IDX 96 14 38 15 39 16 40 17 90 18 41 19 95 20 89 21 91 22 42 23
REMARK SMILES IDX 94 24 88 25 87 26 43 28 75 29 55 30 74 31 56 32 59 33 73 34
REMARK SMILES IDX 92 35 57 36 58 37 72 39 93 40 60 41 44 42 45 43 53 44 46 45
REMARK SMILES IDX 47 46 51 47 54 48 48 49 49 50 52 51 50 52 76 53 77 54 85 55
REMARK SMILES IDX 78 56 79 57 83 58 86 59 80 60 81 61 84 62 82 63 61 64 62 65
REMARK SMILES IDX 70 66 63 67 64 68 68 69 71 70 65 71 66 72 69 73 67 74 10 75
REMARK SMILES IDX 11 76 12 77 13 78 14 79 15 80 16 81 17 82 18 83 19 84 33 85
REMARK SMILES IDX 20 86 32 87 34 88 30 89 31 90 21 91 22 92 23 93 24 94 25 95
REMARK SMILES IDX 29 96 26 97 28 98 27 99
REMARK H PARENT 91 27 59 38
REMARK Flexibility Score: inf
ROOT
ATOM      1  O   UNL A   1      35.449  32.931  27.609  1.00  0.00    -0.377 OA
ENDROOT
BRANCH   1   2
ATOM      2  C   UNL A   1      35.016  34.181  28.140  1.00  0.00     0.188 C 
BRANCH   2   3
ATOM      3  C   UNL A   1      33.514  34.290  28.393  1.00  0.00     0.188 C 
BRANCH   3   4
ATOM      4  O   UNL A   1      33.239  34.406  29.793  1.00  0.00    -0.376 OA
BRANCH   4   5
ATOM      5  C   UNL A   1      34.393  34.453  30.634  1.00  0.00     0.202 C 
BRANCH   5   6
ATOM      6  C   UNL A   1      34.237  33.679  31.942  1.00  0.00     0.261 C 
BRANCH   6   7
ATOM      7  O   UNL A   1      34.843  32.382  31.880  1.00  0.00    -0.460 OA
BRANCH   7   8
ATOM      8  C   UNL A   1      35.988  31.967  32.473  1.00  0.00     0.338 C 
ATOM      9  O   UNL A   1      36.170  32.281  33.650  1.00  0.00    -0.246 OA
BRANCH   8  10
ATOM     10  C   UNL A   1      37.047  31.135  31.811  1.00  0.00     0.060 A 
ATOM     11  C   UNL A   1      37.733  30.050  32.372  1.00  0.00     0.016 A 
ATOM     12  C   UNL A   1      37.337  31.462  30.474  1.00  0.00     0.016 A 
ATOM     13  C   UNL A   1      38.706  29.350  31.666  1.00  0.00     0.010 A 
ATOM     14  C   UNL A   1      38.312  30.770  29.755  1.00  0.00     0.010 A 
ATOM     15  C   UNL A   1      39.024  29.737  30.370  1.00  0.00    -0.014 A 
BRANCH  15  16
ATOM     16  C   UNL A   1      40.271  29.238  29.774  1.00  0.00     0.031 A 
ATOM     17  C   UNL A   1      41.410  30.204  29.683  1.00  0.00     0.074 A 
ATOM     18  C   UNL A   1      40.393  27.957  29.396  1.00  0.00     0.049 A 
ATOM     19  N   UNL A   1      42.544  30.104  29.049  1.00  0.00    -0.248 NA
ATOM     20  C   UNL A   1      41.238  31.470  30.418  1.00  0.00     0.031 C 
ATOM     21  C   UNL A   1      39.380  26.921  29.590  1.00  0.00     0.029 A 
ATOM     22  N   UNL A   1      41.424  27.314  28.767  1.00  0.00    -0.354 N 
ATOM     23  C   UNL A   1      43.195  31.311  29.265  1.00  0.00     0.074 A 
ATOM     24  C   UNL A   1      42.340  32.124  30.096  1.00  0.00     0.031 C 
ATOM     25  C   UNL A   1      39.833  25.770  29.065  1.00  0.00     0.029 A 
ATOM     26  C   UNL A   1      41.129  26.014  28.439  1.00  0.00     0.049 A 
ATOM     27  H   UNL A   1      42.289  27.740  28.568  1.00  0.00     0.167 HD
ATOM     28  C   UNL A   1      44.396  31.702  28.780  1.00  0.00     0.037 A 
ATOM     29  C   UNL A   1      41.816  25.154  27.664  1.00  0.00     0.037 A 
ATOM     30  C   UNL A   1      45.205  30.857  27.947  1.00  0.00     0.049 A 
ATOM     31  C   UNL A   1      43.111  25.630  27.061  1.00  0.00     0.074 A 
ATOM     32  C   UNL A   1      46.411  31.133  27.335  1.00  0.00     0.029 A 
ATOM     33  N   UNL A   1      44.867  29.550  27.610  1.00  0.00    -0.354 N 
ATOM     34  N   UNL A   1      43.700  26.797  27.189  1.00  0.00    -0.248 NA
ATOM     35  C   UNL A   1      43.831  24.687  26.197  1.00  0.00     0.031 C 
ATOM     36  C   UNL A   1      46.778  30.009  26.587  1.00  0.00     0.029 A 
ATOM     37  C   UNL A   1      45.833  29.010  26.784  1.00  0.00     0.049 A 
ATOM     38  H   UNL A   1      44.058  29.079  27.915  1.00  0.00     0.167 HD
ATOM     39  C   UNL A   1      44.869  26.725  26.445  1.00  0.00     0.074 A 
ATOM     40  C   UNL A   1      44.904  25.394  25.867  1.00  0.00     0.031 C 
ATOM     41  C   UNL A   1      45.827  27.666  26.253  1.00  0.00     0.037 A 
BRANCH  28  42
ATOM     42  C   UNL A   1      44.812  33.117  29.060  1.00  0.00     0.064 A 
ATOM     43  C   UNL A   1      44.444  34.185  28.227  1.00  0.00     0.173 A 
ATOM     44  C   UNL A   1      45.670  33.394  30.135  1.00  0.00     0.173 A 
ATOM     45  F   UNL A   1      43.652  33.972  27.165  1.00  0.00    -0.203 F 
ATOM     46  C   UNL A   1      44.962  35.464  28.427  1.00  0.00     0.198 A 
ATOM     47  C   UNL A   1      46.160  34.679  30.352  1.00  0.00     0.198 A 
ATOM     48  F   UNL A   1      46.061  32.410  30.959  1.00  0.00    -0.203 F 
ATOM     49  F   UNL A   1      44.668  36.447  27.565  1.00  0.00    -0.200 F 
ATOM     50  C   UNL A   1      45.820  35.709  29.489  1.00  0.00     0.200 A 
ATOM     51  F   UNL A   1      46.986  34.914  31.381  1.00  0.00    -0.200 F 
ATOM     52  F   UNL A   1      46.335  36.933  29.668  1.00  0.00    -0.200 F 
ENDBRANCH  28  42
BRANCH  29  53
ATOM     53  C   UNL A   1      41.253  23.806  27.384  1.00  0.00     0.064 A 
ATOM     54  C   UNL A   1      40.158  23.635  26.527  1.00  0.00     0.173 A 
ATOM     55  C   UNL A   1      41.833  22.651  27.934  1.00  0.00     0.173 A 
ATOM     56  F   UNL A   1      39.553  24.706  25.992  1.00  0.00    -0.203 F 
ATOM     57  C   UNL A   1      39.670  22.363  26.227  1.00  0.00     0.198 A 
ATOM     58  C   UNL A   1      41.363  21.379  27.611  1.00  0.00     0.198 A 
ATOM     59  F   UNL A   1      42.882  22.756  28.763  1.00  0.00    -0.203 F 
ATOM     60  F   UNL A   1      38.607  22.230  25.420  1.00  0.00    -0.200 F 
ATOM     61  C   UNL A   1      40.279  21.237  26.759  1.00  0.00     0.200 A 
ATOM     62  F   UNL A   1      41.965  20.295  28.116  1.00  0.00    -0.200 F 
ATOM     63  F   UNL A   1      39.821  20.015  26.453  1.00  0.00    -0.200 F 
ENDBRANCH  29  53
BRANCH  41  64
ATOM     64  C   UNL A   1      47.018  27.275  25.435  1.00  0.00     0.064 A 
ATOM     65  C   UNL A   1      47.149  27.661  24.095  1.00  0.00     0.173 A 
ATOM     66  C   UNL A   1      48.088  26.598  26.040  1.00  0.00     0.173 A 
ATOM     67  F   UNL A   1      46.146  28.300  23.474  1.00  0.00    -0.203 F 
ATOM     68  C   UNL A   1      48.313  27.380  23.386  1.00  0.00     0.198 A 
ATOM     69  C   UNL A   1      49.259  26.345  25.337  1.00  0.00     0.198 A 
ATOM     70  F   UNL A   1      48.008  26.219  27.325  1.00  0.00    -0.203 F 
ATOM     71  F   UNL A   1      48.414  27.739  22.099  1.00  0.00    -0.200 F 
ATOM     72  C   UNL A   1      49.371  26.735  24.011  1.00  0.00     0.200 A 
ATOM     73  F   UNL A   1      50.286  25.737  25.947  1.00  0.00    -0.200 F 
ATOM     74  F   UNL A   1      50.501  26.489  23.333  1.00  0.00    -0.200 F 
ENDBRANCH  41  64
ENDBRANCH  15  16
ENDBRANCH   8  10
ENDBRANCH   7   8
ENDBRANCH   6   7
ENDBRANCH   5   6
ENDBRANCH   4   5
ENDBRANCH   3   4
ENDBRANCH   2   3
ENDBRANCH   1   2
BRANCH   1  75
ATOM     75  C   UNL A   1      34.895  31.758  28.189  1.00  0.00     0.188 C 
BRANCH  75  76
ATOM     76  C   UNL A   1      35.189  30.393  27.529  1.00  0.00     0.188 C 
BRANCH  76  77
ATOM     77  O   UNL A   1      34.150  29.888  26.704  1.00  0.00    -0.376 OA
BRANCH  77  78
ATOM     78  C   UNL A   1      32.840  29.979  27.255  1.00  0.00     0.202 C 
BRANCH  78  79
ATOM     79  C   UNL A   1      31.743  29.309  26.417  1.00  0.00     0.261 C 
BRANCH  79  80
ATOM     80  O   UNL A   1      32.139  28.068  25.800  1.00  0.00    -0.460 OA
BRANCH  80  81
ATOM     81  C   UNL A   1      31.274  27.027  25.799  1.00  0.00     0.339 C 
ATOM     82  O   UNL A   1      30.486  26.727  26.677  1.00  0.00    -0.246 OA
BRANCH  81  83
ATOM     83  C   UNL A   1      31.346  26.442  24.436  1.00  0.00     0.080 A 
ATOM     84  C   UNL A   1      32.081  25.261  24.238  1.00  0.00     0.040 A 
ATOM     85  C   UNL A   1      30.858  27.133  23.326  1.00  0.00     0.057 A 
ATOM     86  C   UNL A   1      32.394  24.804  22.938  1.00  0.00     0.102 A 
ATOM     87  C   UNL A   1      31.237  26.724  22.043  1.00  0.00     0.043 A 
ATOM     88  Cl  UNL A   1      29.872  28.544  23.431  1.00  0.00    -0.083 Cl
ATOM     89  C   UNL A   1      32.038  25.590  21.844  1.00  0.00     0.062 A 
ATOM     90  Cl  UNL A   1      32.557  25.356  20.223  1.00  0.00    -0.083 Cl
BRANCH  86  91
ATOM     91  S   UNL A   1      33.175  23.203  22.853  1.00  0.00     0.244 S 
ATOM     92  O   UNL A   1      32.135  22.253  22.529  1.00  0.00    -0.207 OA
ATOM     93  O   UNL A   1      34.315  23.393  21.976  1.00  0.00    -0.207 OA
BRANCH  91  94
ATOM     94  N   UNL A   1      33.828  22.830  24.372  1.00  0.00    -0.198 NA
ATOM     95  C   UNL A   1      33.378  21.600  25.046  1.00  0.00     0.102 C 
ATOM     96  C   UNL A   1      35.056  23.552  24.770  1.00  0.00     0.102 C 
ATOM     97  C   UNL A   1      33.932  21.426  26.449  1.00  0.00     0.017 C 
ATOM     98  C   UNL A   1      35.618  23.184  26.135  1.00  0.00     0.017 C 
ATOM     99  C   UNL A   1      35.418  21.725  26.492  1.00  0.00     0.003 C 
ENDBRANCH  91  94
ENDBRANCH  86  91
ENDBRANCH  81  83
ENDBRANCH  80  81
ENDBRANCH  79  80
ENDBRANCH  78  79
ENDBRANCH  77  78
ENDBRANCH  76  77
ENDBRANCH  75  76
ENDBRANCH   1  75
TORSDOF 22
ENDMDL
MODEL 2
REMARK VINA RESULT:     -10.3      1.452      2.277
REMARK SMILES O=C(OCCOCCOCCOCCOC(=O)c1cc(S(=O)(=O)N2CCCCC2)c(Cl)cc1Cl)c1ccc(-c2c3nc(c(-c4c(F)c(F)c(F)c(F)c4F)c4ccc([nH]4)c(-c4c(F)c(F)c(F)c(F)c4F)c4nc(c(-c5c(F)c(F)c(F)c(F)c5F)c5ccc2[nH]5)C=C4)C=C3)cc1
REMARK SMILES IDX 9 1 8 2 7 3 6 4 5 5 4 6 3 7 2 8 1 9 35 10 36 11 97 12 37 13
REMARK SMILES IDX 96 14 38 15 39 16 40 17 90 18 41 19 95 20 89 21 91 22 42 23
REMARK SMILES IDX 94 24 88 25 87 26 43 28 75 29 55 30 74 31 56 32 59 33 73 34
REMARK SMILES IDX 92 35 57 36 58 37 72 39 93 40 60 41 44 42 45 43 53 44 46 45
REMARK SMILES IDX 47 46 51 47 54 48 48 49 49 50 52 51 50 52 76 53 77 54 85 55
REMARK SMILES IDX 78 56 79 57 83 58 86 59 80 60 81 61 84 62 82 63 61 64 62 65
REMARK SMILES IDX 70 66 63 67 64 68 68 69 71 70 65 71 66 72 69 73 67 74 10 75
REMARK SMILES IDX 11 76 12 77 13 78 14 79 15 80 16 81 17 82 18 83 19 84 33 85
REMARK SMILES IDX 20 86 32 87 34 88 30 89 31 90 21 91 22 92 23 93 24 94 25 95
REMARK SMILES IDX 29 96 26 97 28 98 27 99
REMARK H PARENT 91 27 59 38
REMARK Flexibility Score: inf
ROOT
ATOM      1  O   UNL A   1      35.362  32.614  27.577  1.00  0.00    -0.377 OA
ENDROOT
BRANCH   1   2
ATOM      2  C   UNL A   1      35.124  33.907  28.131  1.00  0.00     0.188 C 
BRANCH   2   3
ATOM      3  C   UNL A   1      33.661  34.221  28.433  1.00  0.00     0.188 C 
BRANCH   3   4
ATOM      4  O   UNL A   1      33.458  34.409  29.838  1.00  0.00    -0.376 OA
BRANCH   4   5
ATOM      5  C   UNL A   1      34.636  34.298  30.639  1.00  0.00     0.202 C 
BRANCH   5   6
ATOM      6  C   UNL A   1      34.360  34.224  32.139  1.00  0.00     0.261 C 
BRANCH   6   7
ATOM      7  O   UNL A   1      34.734  32.959  32.698  1.00  0.00    -0.460 OA
BRANCH   7   8
ATOM      8  C   UNL A   1      35.896  32.628  33.311  1.00  0.00     0.338 C 
ATOM      9  O   UNL A   1      36.088  33.065  34.447  1.00  0.00    -0.246 OA
BRANCH   8  10
ATOM     10  C   UNL A   1      36.962  31.752  32.721  1.00  0.00     0.060 A 
ATOM     11  C   UNL A   1      37.745  30.812  33.400  1.00  0.00     0.016 A 
ATOM     12  C   UNL A   1      37.148  31.866  31.331  1.00  0.00     0.016 A 
ATOM     13  C   UNL A   1      38.715  30.055  32.751  1.00  0.00     0.010 A 
ATOM     14  C   UNL A   1      38.118  31.115  30.667  1.00  0.00     0.010 A 
ATOM     15  C   UNL A   1      38.929  30.236  31.391  1.00  0.00    -0.014 A 
BRANCH  15  16
ATOM     16  C   UNL A   1      40.165  29.708  30.797  1.00  0.00     0.031 A 
ATOM     17  C   UNL A   1      41.382  30.574  30.890  1.00  0.00     0.074 A 
ATOM     18  C   UNL A   1      40.206  28.479  30.262  1.00  0.00     0.049 A 
ATOM     19  N   UNL A   1      42.540  30.455  30.306  1.00  0.00    -0.248 NA
ATOM     20  C   UNL A   1      41.268  31.748  31.775  1.00  0.00     0.031 C 
ATOM     21  C   UNL A   1      39.103  27.520  30.269  1.00  0.00     0.029 A 
ATOM     22  N   UNL A   1      41.218  27.832  29.606  1.00  0.00    -0.354 N 
ATOM     23  C   UNL A   1      43.272  31.564  30.709  1.00  0.00     0.074 A 
ATOM     24  C   UNL A   1      42.437  32.338  31.596  1.00  0.00     0.031 C 
ATOM     25  C   UNL A   1      39.492  26.409  29.621  1.00  0.00     0.029 A 
ATOM     26  C   UNL A   1      40.839  26.615  29.097  1.00  0.00     0.049 A 
ATOM     27  H   UNL A   1      42.125  28.202  29.508  1.00  0.00     0.167 HD
ATOM     28  C   UNL A   1      44.528  31.905  30.339  1.00  0.00     0.037 A 
ATOM     29  C   UNL A   1      41.500  25.802  28.252  1.00  0.00     0.037 A 
ATOM     30  C   UNL A   1      45.315  31.104  29.445  1.00  0.00     0.049 A 
ATOM     31  C   UNL A   1      42.864  26.234  27.782  1.00  0.00     0.074 A 
ATOM     32  C   UNL A   1      46.575  31.348  28.936  1.00  0.00     0.029 A 
ATOM     33  N   UNL A   1      44.894  29.885  28.923  1.00  0.00    -0.354 N 
ATOM     34  N   UNL A   1      43.537  27.320  28.090  1.00  0.00    -0.248 NA
ATOM     35  C   UNL A   1      43.556  25.348  26.838  1.00  0.00     0.031 C 
ATOM     36  C   UNL A   1      46.894  30.299  28.067  1.00  0.00     0.029 A 
ATOM     37  C   UNL A   1      45.862  29.370  28.083  1.00  0.00     0.049 A 
ATOM     38  H   UNL A   1      44.033  29.452  29.124  1.00  0.00     0.167 HD
ATOM     39  C   UNL A   1      44.739  27.240  27.402  1.00  0.00     0.074 A 
ATOM     40  C   UNL A   1      44.701  25.994  26.658  1.00  0.00     0.031 C 
ATOM     41  C   UNL A   1      45.779  28.110  27.382  1.00  0.00     0.037 A 
BRANCH  28  42
ATOM     42  C   UNL A   1      45.039  33.232  30.822  1.00  0.00     0.064 A 
ATOM     43  C   UNL A   1      45.690  33.379  32.058  1.00  0.00     0.173 A 
ATOM     44  C   UNL A   1      44.790  34.392  30.074  1.00  0.00     0.173 A 
ATOM     45  F   UNL A   1      45.923  32.308  32.831  1.00  0.00    -0.203 F 
ATOM     46  C   UNL A   1      46.024  34.641  32.547  1.00  0.00     0.198 A 
ATOM     47  C   UNL A   1      45.156  35.648  30.550  1.00  0.00     0.198 A 
ATOM     48  F   UNL A   1      44.165  34.312  28.889  1.00  0.00    -0.203 F 
ATOM     49  F   UNL A   1      46.563  34.764  33.768  1.00  0.00    -0.200 F 
ATOM     50  C   UNL A   1      45.756  35.774  31.793  1.00  0.00     0.200 A 
ATOM     51  F   UNL A   1      44.898  36.741  29.818  1.00  0.00    -0.200 F 
ATOM     52  F   UNL A   1      46.057  36.988  32.274  1.00  0.00    -0.200 F 
ENDBRANCH  28  42
BRANCH  29  53
ATOM     53  C   UNL A   1      40.848  24.554  27.771  1.00  0.00     0.064 A 
ATOM     54  C   UNL A   1      39.765  24.592  26.883  1.00  0.00     0.173 A 
ATOM     55  C   UNL A   1      41.330  23.292  28.154  1.00  0.00     0.173 A 
ATOM     56  F   UNL A   1      39.252  25.771  26.502  1.00  0.00    -0.203 F 
ATOM     57  C   UNL A   1      39.194  23.417  26.394  1.00  0.00     0.198 A 
ATOM     58  C   UNL A   1      40.777  22.119  27.643  1.00  0.00     0.198 A 
ATOM     59  F   UNL A   1      42.363  23.197  29.004  1.00  0.00    -0.203 F 
ATOM     60  F   UNL A   1      38.144  23.482  25.563  1.00  0.00    -0.200 F 
ATOM     61  C   UNL A   1      39.707  22.183  26.765  1.00  0.00     0.200 A 
ATOM     62  F   UNL A   1      41.287  20.931  27.993  1.00  0.00    -0.200 F 
ATOM     63  F   UNL A   1      39.169  21.056  26.278  1.00  0.00    -0.200 F 
ENDBRANCH  29  53
BRANCH  41  64
ATOM     64  C   UNL A   1      46.982  27.721  26.581  1.00  0.00     0.064 A 
ATOM     65  C   UNL A   1      48.085  27.089  27.170  1.00  0.00     0.173 A 
ATOM     66  C   UNL A   1      46.976  27.887  25.187  1.00  0.00     0.173 A 
ATOM     67  F   UNL A   1      48.137  26.919  28.500  1.00  0.00    -0.203 F 
ATOM     68  C   UNL A   1      49.145  26.638  26.389  1.00  0.00     0.198 A 
ATOM     69  C   UNL A   1      48.023  27.410  24.409  1.00  0.00     0.198 A 
ATOM     70  F   UNL A   1      45.935  28.478  24.582  1.00  0.00    -0.203 F 
ATOM     71  F   UNL A   1      50.201  26.053  26.970  1.00  0.00    -0.200 F 
ATOM     72  C   UNL A   1      49.107  26.787  25.009  1.00  0.00     0.200 A 
ATOM     73  F   UNL A   1      47.977  27.539  23.075  1.00  0.00    -0.200 F 
ATOM     74  F   UNL A   1      50.117  26.327  24.257  1.00  0.00    -0.200 F 
ENDBRANCH  41  64
ENDBRANCH  15  16
ENDBRANCH   8  10
ENDBRANCH   7   8
ENDBRANCH   6   7
ENDBRANCH   5   6
ENDBRANCH   4   5
ENDBRANCH   3   4
ENDBRANCH   2   3
ENDBRANCH   1   2
BRANCH   1  75
ATOM     75  C   UNL A   1      34.930  31.497  28.342  1.00  0.00     0.188 C 
BRANCH  75  76
ATOM     76  C   UNL A   1      35.180  30.077  27.788  1.00  0.00     0.188 C 
BRANCH  76  77
ATOM     77  O   UNL A   1      34.312  29.681  26.737  1.00  0.00    -0.376 OA
BRANCH  77  78
ATOM     78  C   UNL A   1      33.022  30.285  26.755  1.00  0.00     0.202 C 
BRANCH  78  79
ATOM     79  C   UNL A   1      32.028  29.707  25.741  1.00  0.00     0.261 C 
BRANCH  79  80
ATOM     80  O   UNL A   1      32.085  28.273  25.600  1.00  0.00    -0.460 OA
BRANCH  80  81
ATOM     81  C   UNL A   1      31.369  27.499  26.448  1.00  0.00     0.339 C 
ATOM     82  O   UNL A   1      30.931  27.816  27.539  1.00  0.00    -0.246 OA
BRANCH  81  83
ATOM     83  C   UNL A   1      31.063  26.254  25.700  1.00  0.00     0.080 A 
ATOM     84  C   UNL A   1      31.627  25.041  26.131  1.00  0.00     0.040 A 
ATOM     85  C   UNL A   1      30.384  26.292  24.480  1.00  0.00     0.057 A 
ATOM     86  C   UNL A   1      31.580  23.885  25.321  1.00  0.00     0.102 A 
ATOM     87  C   UNL A   1      30.409  25.169  23.647  1.00  0.00     0.043 A 
ATOM     88  Cl  UNL A   1      29.573  27.690  23.876  1.00  0.00    -0.083 Cl
ATOM     89  C   UNL A   1      31.040  23.981  24.040  1.00  0.00     0.062 A 
ATOM     90  Cl  UNL A   1      31.135  22.780  22.815  1.00  0.00    -0.083 Cl
BRANCH  86  91
ATOM     91  S   UNL A   1      32.181  22.388  26.084  1.00  0.00     0.244 S 
ATOM     92  O   UNL A   1      32.470  22.714  27.461  1.00  0.00    -0.207 OA
ATOM     93  O   UNL A   1      31.196  21.378  25.744  1.00  0.00    -0.207 OA
BRANCH  91  94
ATOM     94  N   UNL A   1      33.608  21.910  25.304  1.00  0.00    -0.198 NA
ATOM     95  C   UNL A   1      34.363  22.920  24.542  1.00  0.00     0.102 C 
ATOM     96  C   UNL A   1      34.200  20.620  25.720  1.00  0.00     0.102 C 
ATOM     97  C   UNL A   1      35.554  22.360  23.786  1.00  0.00     0.017 C 
ATOM     98  C   UNL A   1      35.485  20.230  25.006  1.00  0.00     0.017 C 
ATOM     99  C   UNL A   1      36.361  21.416  24.656  1.00  0.00     0.003 C 
ENDBRANCH  91  94
ENDBRANCH  86  91
ENDBRANCH  81  83
ENDBRANCH  80  81
ENDBRANCH  79  80
ENDBRANCH  78  79
ENDBRANCH  77  78
ENDBRANCH  76  77
ENDBRANCH  75  76
ENDBRANCH   1  75
TORSDOF 22
ENDMDL
MODEL 3
REMARK VINA RESULT:      -9.9      1.415      2.019
REMARK SMILES O=C(OCCOCCOCCOCCOC(=O)c1cc(S(=O)(=O)N2CCCCC2)c(Cl)cc1Cl)c1ccc(-c2c3nc(c(-c4c(F)c(F)c(F)c(F)c4F)c4ccc([nH]4)c(-c4c(F)c(F)c(F)c(F)c4F)c4nc(c(-c5c(F)c(F)c(F)c(F)c5F)c5ccc2[nH]5)C=C4)C=C3)cc1
REMARK SMILES IDX 9 1 8 2 7 3 6 4 5 5 4 6 3 7 2 8 1 9 35 10 36 11 97 12 37 13
REMARK SMILES IDX 96 14 38 15 39 16 40 17 90 18 41 19 95 20 89 21 91 22 42 23
REMARK SMILES IDX 94 24 88 25 87 26 43 28 75 29 55 30 74 31 56 32 59 33 73 34
REMARK SMILES IDX 92 35 57 36 58 37 72 39 93 40 60 41 44 42 45 43 53 44 46 45
REMARK SMILES IDX 47 46 51 47 54 48 48 49 49 50 52 51 50 52 76 53 77 54 85 55
REMARK SMILES IDX 78 56 79 57 83 58 86 59 80 60 81 61 84 62 82 63 61 64 62 65
REMARK SMILES IDX 70 66 63 67 64 68 68 69 71 70 65 71 66 72 69 73 67 74 10 75
REMARK SMILES IDX 11 76 12 77 13 78 14 79 15 80 16 81 17 82 18 83 19 84 33 85
REMARK SMILES IDX 20 86 32 87 34 88 30 89 31 90 21 91 22 92 23 93 24 94 25 95
REMARK SMILES IDX 29 96 26 97 28 98 27 99
REMARK H PARENT 91 27 59 38
REMARK Flexibility Score: inf
ROOT
ATOM      1  O   UNL A   1      34.688  31.647  27.360  1.00  0.00    -0.377 OA
ENDROOT
BRANCH   1   2
ATOM      2  C   UNL A   1      35.642  32.486  28.007  1.00  0.00     0.188 C 
BRANCH   2   3
ATOM      3  C   UNL A   1      35.131  33.873  28.388  1.00  0.00     0.188 C 
BRANCH   3   4
ATOM      4  O   UNL A   1      35.108  34.036  29.810  1.00  0.00    -0.376 OA
BRANCH   4   5
ATOM      5  C   UNL A   1      34.504  32.962  30.532  1.00  0.00     0.202 C 
BRANCH   5   6
ATOM      6  C   UNL A   1      35.143  32.693  31.893  1.00  0.00     0.261 C 
BRANCH   6   7
ATOM      7  O   UNL A   1      35.965  33.782  32.331  1.00  0.00    -0.460 OA
BRANCH   7   8
ATOM      8  C   UNL A   1      37.304  33.788  32.534  1.00  0.00     0.338 C 
ATOM      9  O   UNL A   1      37.764  34.646  33.288  1.00  0.00    -0.246 OA
BRANCH   8  10
ATOM     10  C   UNL A   1      38.271  32.816  31.925  1.00  0.00     0.060 A 
ATOM     11  C   UNL A   1      39.025  31.849  32.601  1.00  0.00     0.016 A 
ATOM     12  C   UNL A   1      38.387  32.862  30.523  1.00  0.00     0.016 A 
ATOM     13  C   UNL A   1      39.902  30.999  31.934  1.00  0.00     0.010 A 
ATOM     14  C   UNL A   1      39.263  32.018  29.841  1.00  0.00     0.010 A 
ATOM     15  C   UNL A   1      40.050  31.112  30.557  1.00  0.00    -0.014 A 
BRANCH  15  16
ATOM     16  C   UNL A   1      41.212  30.474  29.921  1.00  0.00     0.031 A 
ATOM     17  C   UNL A   1      42.449  31.305  29.788  1.00  0.00     0.074 A 
ATOM     18  C   UNL A   1      41.174  29.188  29.545  1.00  0.00     0.049 A 
ATOM     19  N   UNL A   1      43.542  31.076  29.117  1.00  0.00    -0.248 NA
ATOM     20  C   UNL A   1      42.446  32.583  30.524  1.00  0.00     0.031 C 
ATOM     21  C   UNL A   1      40.058  28.273  29.777  1.00  0.00     0.029 A 
ATOM     22  N   UNL A   1      42.103  28.431  28.884  1.00  0.00    -0.354 N 
ATOM     23  C   UNL A   1      44.332  32.202  29.306  1.00  0.00     0.074 A 
ATOM     24  C   UNL A   1      43.605  33.107  30.162  1.00  0.00     0.031 C 
ATOM     25  C   UNL A   1      40.358  27.078  29.242  1.00  0.00     0.029 A 
ATOM     26  C   UNL A   1      41.652  27.174  28.571  1.00  0.00     0.049 A 
ATOM     27  H   UNL A   1      43.004  28.757  28.654  1.00  0.00     0.167 HD
ATOM     28  C   UNL A   1      45.553  32.453  28.779  1.00  0.00     0.037 A 
ATOM     29  C   UNL A   1      42.210  26.241  27.777  1.00  0.00     0.037 A 
ATOM     30  C   UNL A   1      46.232  31.522  27.923  1.00  0.00     0.049 A 
ATOM     31  C   UNL A   1      43.530  26.567  27.129  1.00  0.00     0.074 A 
ATOM     32  C   UNL A   1      47.441  31.660  27.270  1.00  0.00     0.029 A 
ATOM     33  N   UNL A   1      45.737  30.262  27.602  1.00  0.00    -0.354 N 
ATOM     34  N   UNL A   1      44.252  27.659  27.233  1.00  0.00    -0.248 NA
ATOM     35  C   UNL A   1      44.108  25.548  26.244  1.00  0.00     0.031 C 
ATOM     36  C   UNL A   1      47.652  30.501  26.515  1.00  0.00     0.029 A 
ATOM     37  C   UNL A   1      46.607  29.615  26.746  1.00  0.00     0.049 A 
ATOM     38  H   UNL A   1      44.891  29.886  27.937  1.00  0.00     0.167 HD
ATOM     39  C   UNL A   1      45.379  27.455  26.449  1.00  0.00     0.074 A 
ATOM     40  C   UNL A   1      45.243  26.129  25.876  1.00  0.00     0.031 C 
ATOM     41  C   UNL A   1      46.430  28.281  26.222  1.00  0.00     0.037 A 
BRANCH  28  42
ATOM     42  C   UNL A   1      46.136  33.812  29.040  1.00  0.00     0.064 A 
ATOM     43  C   UNL A   1      45.834  34.924  28.237  1.00  0.00     0.173 A 
ATOM     44  C   UNL A   1      47.086  33.982  30.058  1.00  0.00     0.173 A 
ATOM     45  F   UNL A   1      44.957  34.810  27.227  1.00  0.00    -0.203 F 
ATOM     46  C   UNL A   1      46.499  36.137  28.410  1.00  0.00     0.198 A 
ATOM     47  C   UNL A   1      47.724  35.205  30.251  1.00  0.00     0.198 A 
ATOM     48  F   UNL A   1      47.420  32.953  30.851  1.00  0.00    -0.203 F 
ATOM     49  F   UNL A   1      46.259  37.157  27.575  1.00  0.00    -0.200 F 
ATOM     50  C   UNL A   1      47.443  36.276  29.416  1.00  0.00     0.200 A 
ATOM     51  F   UNL A   1      48.634  35.338  31.225  1.00  0.00    -0.200 F 
ATOM     52  F   UNL A   1      48.098  37.435  29.568  1.00  0.00    -0.200 F 
ENDBRANCH  28  42
BRANCH  29  53
ATOM     53  C   UNL A   1      41.488  24.965  27.522  1.00  0.00     0.064 A 
ATOM     54  C   UNL A   1      41.875  23.771  28.143  1.00  0.00     0.173 A 
ATOM     55  C   UNL A   1      40.360  24.927  26.685  1.00  0.00     0.173 A 
ATOM     56  F   UNL A   1      42.957  23.748  28.935  1.00  0.00    -0.203 F 
ATOM     57  C   UNL A   1      41.160  22.590  27.942  1.00  0.00     0.198 A 
ATOM     58  C   UNL A   1      39.631  23.753  26.507  1.00  0.00     0.198 A 
ATOM     59  F   UNL A   1      39.947  26.040  26.063  1.00  0.00    -0.203 F 
ATOM     60  F   UNL A   1      41.565  21.456  28.531  1.00  0.00    -0.200 F 
ATOM     61  C   UNL A   1      40.033  22.584  27.134  1.00  0.00     0.200 A 
ATOM     62  F   UNL A   1      38.534  23.758  25.738  1.00  0.00    -0.200 F 
ATOM     63  F   UNL A   1      39.336  21.454  26.957  1.00  0.00    -0.200 F 
ENDBRANCH  29  53
BRANCH  41  64
ATOM     64  C   UNL A   1      47.541  27.757  25.366  1.00  0.00     0.064 A 
ATOM     65  C   UNL A   1      47.498  27.847  23.968  1.00  0.00     0.173 A 
ATOM     66  C   UNL A   1      48.709  27.259  25.965  1.00  0.00     0.173 A 
ATOM     67  F   UNL A   1      46.397  28.306  23.354  1.00  0.00    -0.203 F 
ATOM     68  C   UNL A   1      48.588  27.453  23.198  1.00  0.00     0.198 A 
ATOM     69  C   UNL A   1      49.805  26.894  25.193  1.00  0.00     0.198 A 
ATOM     70  F   UNL A   1      48.795  27.166  27.300  1.00  0.00    -0.203 F 
ATOM     71  F   UNL A   1      48.522  27.527  21.862  1.00  0.00    -0.200 F 
ATOM     72  C   UNL A   1      49.744  26.990  23.812  1.00  0.00     0.200 A 
ATOM     73  F   UNL A   1      50.926  26.464  25.788  1.00  0.00    -0.200 F 
ATOM     74  F   UNL A   1      50.801  26.637  23.068  1.00  0.00    -0.200 F 
ENDBRANCH  41  64
ENDBRANCH  15  16
ENDBRANCH   8  10
ENDBRANCH   7   8
ENDBRANCH   6   7
ENDBRANCH   5   6
ENDBRANCH   4   5
ENDBRANCH   3   4
ENDBRANCH   2   3
ENDBRANCH   1   2
BRANCH   1  75
ATOM     75  C   UNL A   1      34.815  30.247  27.567  1.00  0.00     0.188 C 
BRANCH  75  76
ATOM     76  C   UNL A   1      33.538  29.379  27.581  1.00  0.00     0.188 C 
BRANCH  76  77
ATOM     77  O   UNL A   1      33.116  28.911  26.309  1.00  0.00    -0.376 OA
BRANCH  77  78
ATOM     78  C   UNL A   1      33.586  27.613  25.954  1.00  0.00     0.202 C 
BRANCH  78  79
ATOM     79  C   UNL A   1      32.634  26.466  26.313  1.00  0.00     0.261 C 
BRANCH  79  80
ATOM     80  O   UNL A   1      31.237  26.775  26.144  1.00  0.00    -0.460 OA
BRANCH  80  81
ATOM     81  C   UNL A   1      30.355  25.764  25.968  1.00  0.00     0.339 C 
ATOM     82  O   UNL A   1      29.316  25.581  26.576  1.00  0.00    -0.246 OA
BRANCH  81  83
ATOM     83  C   UNL A   1      30.814  25.032  24.760  1.00  0.00     0.080 A 
ATOM     84  C   UNL A   1      31.299  23.721  24.898  1.00  0.00     0.040 A 
ATOM     85  C   UNL A   1      30.946  25.679  23.529  1.00  0.00     0.057 A 
ATOM     86  C   UNL A   1      31.978  23.078  23.840  1.00  0.00     0.102 A 
ATOM     87  C   UNL A   1      31.687  25.072  22.512  1.00  0.00     0.043 A 
ATOM     88  Cl  UNL A   1      30.318  27.252  23.201  1.00  0.00    -0.083 Cl
ATOM     89  C   UNL A   1      32.242  23.794  22.675  1.00  0.00     0.062 A 
ATOM     90  Cl  UNL A   1      33.277  23.295  21.397  1.00  0.00    -0.083 Cl
BRANCH  86  91
ATOM     91  S   UNL A   1      32.372  21.359  24.111  1.00  0.00     0.244 S 
ATOM     92  O   UNL A   1      31.717  20.974  25.340  1.00  0.00    -0.207 OA
ATOM     93  O   UNL A   1      32.055  20.703  22.856  1.00  0.00    -0.207 OA
BRANCH  91  94
ATOM     94  N   UNL A   1      34.050  21.204  24.293  1.00  0.00    -0.198 NA
ATOM     95  C   UNL A   1      34.873  22.425  24.282  1.00  0.00     0.102 C 
ATOM     96  C   UNL A   1      34.552  19.910  24.805  1.00  0.00     0.102 C 
ATOM     97  C   UNL A   1      36.369  22.164  24.329  1.00  0.00     0.017 C 
ATOM     98  C   UNL A   1      36.062  19.811  24.965  1.00  0.00     0.017 C 
ATOM     99  C   UNL A   1      36.709  21.119  25.374  1.00  0.00     0.003 C 
ENDBRANCH  91  94
ENDBRANCH  86  91
ENDBRANCH  81  83
ENDBRANCH  80  81
ENDBRANCH  79  80
ENDBRANCH  78  79
ENDBRANCH  77  78
ENDBRANCH  76  77
ENDBRANCH  75  76
ENDBRANCH   1  75
TORSDOF 22
ENDMDL
