MODEL 1
REMARK VINA RESULT:     -10.4      0.000      0.000
REMARK SMILES O=C(OCCOCCOCCOCCOC(=O)[C@@H]1[C@@H](C(=O)NCc2ccccc2OCc2ccccc2)[C@@H]2C=C[C@H]1C2)c1ccc(-c2c3nc(c(-c4c(F)c(F)c(F)c(F)c4F)c4ccc([nH]4)c(-c4c(F)c(F)c(F)c(F)c4F)c4nc(c(-c5c(F)c(F)c(F)c(F)c5F)c5ccc2[nH]5)C=C4)C=C3)cc1
REMARK SMILES IDX 11 1 10 2 9 3 8 4 7 5 6 6 5 7 4 8 3 9 2 10 1 11 43 12 44 13
REMARK SMILES IDX 105 14 45 15 104 16 46 17 47 18 48 19 98 20 49 21 103 22
REMARK SMILES IDX 97 23 99 24 50 25 102 26 96 27 95 28 51 30 83 31 63 32 82 33
REMARK SMILES IDX 64 34 67 35 81 36 100 37 65 38 66 39 80 41 101 42 68 43
REMARK SMILES IDX 52 44 53 45 61 46 54 47 55 48 59 49 62 50 56 51 57 52 60 53
REMARK SMILES IDX 58 54 84 55 85 56 93 57 86 58 87 59 91 60 94 61 88 62 89 63
REMARK SMILES IDX 92 64 90 65 69 66 70 67 78 68 71 69 72 70 76 71 79 72 73 73
REMARK SMILES IDX 74 74 77 75 75 76 12 77 13 78 14 79 15 80 16 81 17 82 18 83
REMARK SMILES IDX 19 84 41 85 38 86 40 87 42 88 39 89 20 90 21 91 22 92 23 94
REMARK SMILES IDX 24 95 25 96 29 97 26 98 28 99 27 100 30 101 31 102 32 103
REMARK SMILES IDX 33 104 37 105 34 106 36 107 35 108
REMARK H PARENT 99 29 67 40 22 93
REMARK Flexibility Score: inf
ROOT
ATOM      1  C   UNL A   1      40.487  23.585  26.893  1.00  0.00     0.188 C 
ENDROOT
BRANCH   1   2
ATOM      2  C   UNL A   1      41.799  22.822  26.664  1.00  0.00     0.188 C 
BRANCH   2   3
ATOM      3  O   UNL A   1      42.298  21.874  27.577  1.00  0.00    -0.377 OA
BRANCH   3   4
ATOM      4  C   UNL A   1      41.825  20.551  27.442  1.00  0.00     0.188 C 
BRANCH   4   5
ATOM      5  C   UNL A   1      41.267  20.203  26.072  1.00  0.00     0.188 C 
BRANCH   5   6
ATOM      6  O   UNL A   1      41.502  18.826  25.754  1.00  0.00    -0.376 OA
BRANCH   6   7
ATOM      7  C   UNL A   1      42.692  18.265  26.319  1.00  0.00     0.202 C 
BRANCH   7   8
ATOM      8  C   UNL A   1      43.907  18.226  25.391  1.00  0.00     0.261 C 
BRANCH   8   9
ATOM      9  O   UNL A   1      44.757  19.377  25.492  1.00  0.00    -0.460 OA
BRANCH   9  10
ATOM     10  C   UNL A   1      44.850  20.444  24.665  1.00  0.00     0.338 C 
ATOM     11  O   UNL A   1      44.528  20.277  23.479  1.00  0.00    -0.246 OA
BRANCH  10  12
ATOM     12  C   UNL A   1      45.393  21.789  25.045  1.00  0.00     0.060 A 
ATOM     13  C   UNL A   1      45.580  22.253  26.348  1.00  0.00     0.016 A 
ATOM     14  C   UNL A   1      45.798  22.636  23.995  1.00  0.00     0.016 A 
ATOM     15  C   UNL A   1      46.157  23.478  26.621  1.00  0.00     0.010 A 
ATOM     16  C   UNL A   1      46.321  23.908  24.251  1.00  0.00     0.010 A 
ATOM     17  C   UNL A   1      46.474  24.330  25.574  1.00  0.00    -0.014 A 
BRANCH  17  18
ATOM     18  C   UNL A   1      46.639  25.739  25.945  1.00  0.00     0.031 A 
ATOM     19  C   UNL A   1      45.431  26.425  26.507  1.00  0.00     0.074 A 
ATOM     20  C   UNL A   1      47.866  26.277  26.006  1.00  0.00     0.049 A 
ATOM     21  N   UNL A   1      45.282  27.656  26.907  1.00  0.00    -0.248 NA
ATOM     22  C   UNL A   1      44.225  25.589  26.676  1.00  0.00     0.031 C 
ATOM     23  C   UNL A   1      49.111  25.574  25.685  1.00  0.00     0.029 A 
ATOM     24  N   UNL A   1      48.272  27.519  26.402  1.00  0.00    -0.354 N 
ATOM     25  C   UNL A   1      43.965  27.748  27.337  1.00  0.00     0.074 A 
ATOM     26  C   UNL A   1      43.355  26.453  27.168  1.00  0.00     0.031 C 
ATOM     27  C   UNL A   1      50.145  26.405  25.892  1.00  0.00     0.029 A 
ATOM     28  C   UNL A   1      49.626  27.710  26.289  1.00  0.00     0.049 A 
ATOM     29  H   UNL A   1      47.654  28.209  26.734  1.00  0.00     0.167 HD
ATOM     30  C   UNL A   1      43.327  28.840  27.814  1.00  0.00     0.037 A 
ATOM     31  C   UNL A   1      50.337  28.841  26.443  1.00  0.00     0.037 A 
ATOM     32  C   UNL A   1      43.981  30.111  27.952  1.00  0.00     0.049 A 
ATOM     33  C   UNL A   1      49.576  30.084  26.828  1.00  0.00     0.074 A 
ATOM     34  C   UNL A   1      43.447  31.329  28.318  1.00  0.00     0.029 A 
ATOM     35  N   UNL A   1      45.336  30.312  27.716  1.00  0.00    -0.354 N 
ATOM     36  N   UNL A   1      48.303  30.216  27.125  1.00  0.00    -0.248 NA
ATOM     37  C   UNL A   1      50.336  31.337  26.879  1.00  0.00     0.031 C 
ATOM     38  C   UNL A   1      44.472  32.279  28.249  1.00  0.00     0.029 A 
ATOM     39  C   UNL A   1      45.657  31.643  27.906  1.00  0.00     0.049 A 
ATOM     40  H   UNL A   1      45.974  29.610  27.452  1.00  0.00     0.167 HD
ATOM     41  C   UNL A   1      48.111  31.557  27.417  1.00  0.00     0.074 A 
ATOM     42  C   UNL A   1      49.408  32.194  27.280  1.00  0.00     0.031 C 
ATOM     43  C   UNL A   1      46.975  32.214  27.764  1.00  0.00     0.037 A 
BRANCH  30  44
ATOM     44  C   UNL A   1      41.860  28.706  28.088  1.00  0.00     0.064 A 
ATOM     45  C   UNL A   1      40.885  28.971  27.114  1.00  0.00     0.173 A 
ATOM     46  C   UNL A   1      41.420  28.375  29.379  1.00  0.00     0.173 A 
ATOM     47  F   UNL A   1      41.249  29.335  25.875  1.00  0.00    -0.203 F 
ATOM     48  C   UNL A   1      39.528  28.944  27.432  1.00  0.00     0.198 A 
ATOM     49  C   UNL A   1      40.063  28.319  29.686  1.00  0.00     0.198 A 
ATOM     50  F   UNL A   1      42.308  28.131  30.354  1.00  0.00    -0.203 F 
ATOM     51  F   UNL A   1      38.617  29.272  26.504  1.00  0.00    -0.200 F 
ATOM     52  C   UNL A   1      39.118  28.614  28.715  1.00  0.00     0.200 A 
ATOM     53  F   UNL A   1      39.671  28.004  30.927  1.00  0.00    -0.200 F 
ATOM     54  F   UNL A   1      37.814  28.601  29.022  1.00  0.00    -0.200 F 
ENDBRANCH  30  44
BRANCH  31  55
ATOM     55  C   UNL A   1      51.797  28.865  26.155  1.00  0.00     0.064 A 
ATOM     56  C   UNL A   1      52.748  28.727  27.174  1.00  0.00     0.173 A 
ATOM     57  C   UNL A   1      52.274  29.053  24.847  1.00  0.00     0.173 A 
ATOM     58  F   UNL A   1      52.350  28.566  28.445  1.00  0.00    -0.203 F 
ATOM     59  C   UNL A   1      54.115  28.797  26.901  1.00  0.00     0.198 A 
ATOM     60  C   UNL A   1      53.640  29.089  24.570  1.00  0.00     0.198 A 
ATOM     61  F   UNL A   1      51.413  29.198  23.829  1.00  0.00    -0.203 F 
ATOM     62  F   UNL A   1      55.001  28.715  27.903  1.00  0.00    -0.200 F 
ATOM     63  C   UNL A   1      54.560  28.972  25.600  1.00  0.00     0.200 A 
ATOM     64  F   UNL A   1      54.062  29.246  23.307  1.00  0.00    -0.200 F 
ATOM     65  F   UNL A   1      55.872  29.040  25.338  1.00  0.00    -0.200 F 
ENDBRANCH  31  55
BRANCH  43  66
ATOM     66  C   UNL A   1      47.105  33.677  28.058  1.00  0.00     0.064 A 
ATOM     67  C   UNL A   1      47.430  34.143  29.338  1.00  0.00     0.173 A 
ATOM     68  C   UNL A   1      46.962  34.614  27.024  1.00  0.00     0.173 A 
ATOM     69  F   UNL A   1      47.561  33.282  30.359  1.00  0.00    -0.203 F 
ATOM     70  C   UNL A   1      47.586  35.504  29.579  1.00  0.00     0.198 A 
ATOM     71  C   UNL A   1      47.155  35.969  27.261  1.00  0.00     0.198 A 
ATOM     72  F   UNL A   1      46.662  34.209  25.780  1.00  0.00    -0.203 F 
ATOM     73  F   UNL A   1      47.849  35.937  30.820  1.00  0.00    -0.200 F 
ATOM     74  C   UNL A   1      47.458  36.414  28.539  1.00  0.00     0.200 A 
ATOM     75  F   UNL A   1      47.052  36.844  26.251  1.00  0.00    -0.200 F 
ATOM     76  F   UNL A   1      47.626  37.723  28.770  1.00  0.00    -0.200 F 
ENDBRANCH  43  66
ENDBRANCH  17  18
ENDBRANCH  10  12
ENDBRANCH   9  10
ENDBRANCH   8   9
ENDBRANCH   7   8
ENDBRANCH   6   7
ENDBRANCH   5   6
ENDBRANCH   4   5
ENDBRANCH   3   4
ENDBRANCH   2   3
ENDBRANCH   1   2
BRANCH   1  77
ATOM     77  O   UNL A   1      39.233  22.993  26.633  1.00  0.00    -0.376 OA
BRANCH  77  78
ATOM     78  C   UNL A   1      38.124  23.796  26.270  1.00  0.00     0.202 C 
BRANCH  78  79
ATOM     79  C   UNL A   1      36.953  23.242  25.431  1.00  0.00     0.261 C 
BRANCH  79  80
ATOM     80  O   UNL A   1      35.692  23.089  26.117  1.00  0.00    -0.463 OA
BRANCH  80  81
ATOM     81  C   UNL A   1      34.660  23.827  25.670  1.00  0.00     0.310 C 
ATOM     82  O   UNL A   1      34.635  25.061  25.745  1.00  0.00    -0.252 OA
BRANCH  81  83
ATOM     83  C   UNL A   1      33.567  23.098  24.879  1.00  0.00     0.119 C 
ATOM     84  C   UNL A   1      32.531  22.575  25.894  1.00  0.00     0.100 C 
ATOM     85  C   UNL A   1      33.634  21.895  23.885  1.00  0.00     0.027 C 
ATOM     86  C   UNL A   1      32.157  21.160  25.376  1.00  0.00     0.025 C 
ATOM     87  C   UNL A   1      34.271  20.710  24.550  1.00  0.00    -0.027 C 
ATOM     88  C   UNL A   1      32.194  21.343  23.872  1.00  0.00     0.017 C 
ATOM     89  C   UNL A   1      33.386  20.267  25.458  1.00  0.00    -0.027 C 
BRANCH  84  90
ATOM     90  C   UNL A   1      31.359  23.510  26.134  1.00  0.00     0.224 C 
ATOM     91  O   UNL A   1      31.012  23.732  27.300  1.00  0.00    -0.275 OA
ATOM     92  N   UNL A   1      30.616  24.095  25.164  1.00  0.00    -0.352 N 
ATOM     93  H   UNL A   1      29.846  24.589  25.529  1.00  0.00     0.163 HD
BRANCH  92  94
ATOM     94  C   UNL A   1      30.683  24.170  23.711  1.00  0.00     0.155 C 
BRANCH  94  95
ATOM     95  C   UNL A   1      31.535  25.285  23.187  1.00  0.00     0.013 A 
ATOM     96  C   UNL A   1      31.964  25.118  21.842  1.00  0.00     0.009 A 
ATOM     97  C   UNL A   1      32.071  26.341  23.940  1.00  0.00     0.124 A 
ATOM     98  C   UNL A   1      32.903  25.952  21.253  1.00  0.00     0.001 A 
ATOM     99  C   UNL A   1      33.026  27.172  23.319  1.00  0.00     0.047 A 
ATOM    100  C   UNL A   1      33.445  26.980  22.001  1.00  0.00     0.004 A 
BRANCH  97 101
ATOM    101  O   UNL A   1      31.847  26.760  25.221  1.00  0.00    -0.489 OA
BRANCH 101 102
ATOM    102  C   UNL A   1      31.403  28.053  25.639  1.00  0.00     0.265 C 
BRANCH 102 103
ATOM    103  C   UNL A   1      32.488  28.967  26.167  1.00  0.00    -0.011 A 
ATOM    104  C   UNL A   1      33.756  28.432  26.467  1.00  0.00     0.007 A 
ATOM    105  C   UNL A   1      32.215  30.298  26.499  1.00  0.00     0.007 A 
ATOM    106  C   UNL A   1      34.652  29.156  27.252  1.00  0.00     0.000 A 
ATOM    107  C   UNL A   1      33.132  31.032  27.251  1.00  0.00     0.000 A 
ATOM    108  C   UNL A   1      34.330  30.448  27.661  1.00  0.00     0.000 A 
ENDBRANCH 102 103
ENDBRANCH 101 102
ENDBRANCH  97 101
ENDBRANCH  94  95
ENDBRANCH  92  94
ENDBRANCH  84  90
ENDBRANCH  81  83
ENDBRANCH  80  81
ENDBRANCH  79  80
ENDBRANCH  78  79
ENDBRANCH  77  78
ENDBRANCH   1  77
TORSDOF 26
ENDMDL
MODEL 2
REMARK VINA RESULT:     -10.4      3.401      8.455
REMARK SMILES O=C(OCCOCCOCCOCCOC(=O)[C@@H]1[C@@H](C(=O)NCc2ccccc2OCc2ccccc2)[C@@H]2C=C[C@H]1C2)c1ccc(-c2c3nc(c(-c4c(F)c(F)c(F)c(F)c4F)c4ccc([nH]4)c(-c4c(F)c(F)c(F)c(F)c4F)c4nc(c(-c5c(F)c(F)c(F)c(F)c5F)c5ccc2[nH]5)C=C4)C=C3)cc1
REMARK SMILES IDX 11 1 10 2 9 3 8 4 7 5 6 6 5 7 4 8 3 9 2 10 1 11 43 12 44 13
REMARK SMILES IDX 105 14 45 15 104 16 46 17 47 18 48 19 98 20 49 21 103 22
REMARK SMILES IDX 97 23 99 24 50 25 102 26 96 27 95 28 51 30 83 31 63 32 82 33
REMARK SMILES IDX 64 34 67 35 81 36 100 37 65 38 66 39 80 41 101 42 68 43
REMARK SMILES IDX 52 44 53 45 61 46 54 47 55 48 59 49 62 50 56 51 57 52 60 53
REMARK SMILES IDX 58 54 84 55 85 56 93 57 86 58 87 59 91 60 94 61 88 62 89 63
REMARK SMILES IDX 92 64 90 65 69 66 70 67 78 68 71 69 72 70 76 71 79 72 73 73
REMARK SMILES IDX 74 74 77 75 75 76 12 77 13 78 14 79 15 80 16 81 17 82 18 83
REMARK SMILES IDX 19 84 41 85 38 86 40 87 42 88 39 89 20 90 21 91 22 92 23 94
REMARK SMILES IDX 24 95 25 96 29 97 26 98 28 99 27 100 30 101 31 102 32 103
REMARK SMILES IDX 33 104 37 105 34 106 36 107 35 108
REMARK H PARENT 99 29 67 40 22 93
REMARK Flexibility Score: inf
ROOT
ATOM      1  C   UNL A   1      32.904  30.845  27.309  1.00  0.00     0.188 C 
ENDROOT
BRANCH   1   2
ATOM      2  C   UNL A   1      33.625  32.188  27.479  1.00  0.00     0.188 C 
BRANCH   2   3
ATOM      3  O   UNL A   1      35.004  32.285  27.747  1.00  0.00    -0.377 OA
BRANCH   3   4
ATOM      4  C   UNL A   1      35.392  32.251  29.103  1.00  0.00     0.188 C 
BRANCH   4   5
ATOM      5  C   UNL A   1      34.685  33.252  30.001  1.00  0.00     0.188 C 
BRANCH   5   6
ATOM      6  O   UNL A   1      35.548  33.701  31.053  1.00  0.00    -0.376 OA
BRANCH   6   7
ATOM      7  C   UNL A   1      34.889  34.061  32.271  1.00  0.00     0.202 C 
BRANCH   7   8
ATOM      8  C   UNL A   1      35.073  33.085  33.434  1.00  0.00     0.261 C 
BRANCH   8   9
ATOM      9  O   UNL A   1      35.806  31.900  33.091  1.00  0.00    -0.460 OA
BRANCH   9  10
ATOM     10  C   UNL A   1      37.039  31.515  33.493  1.00  0.00     0.338 C 
ATOM     11  O   UNL A   1      37.356  31.751  34.668  1.00  0.00    -0.246 OA
BRANCH  10  12
ATOM     12  C   UNL A   1      38.086  30.903  32.610  1.00  0.00     0.060 A 
ATOM     13  C   UNL A   1      39.245  30.262  33.047  1.00  0.00     0.016 A 
ATOM     14  C   UNL A   1      37.851  30.936  31.221  1.00  0.00     0.016 A 
ATOM     15  C   UNL A   1      40.128  29.654  32.175  1.00  0.00     0.010 A 
ATOM     16  C   UNL A   1      38.768  30.387  30.319  1.00  0.00     0.010 A 
ATOM     17  C   UNL A   1      39.921  29.768  30.808  1.00  0.00    -0.014 A 
BRANCH  17  18
ATOM     18  C   UNL A   1      41.100  29.513  29.975  1.00  0.00     0.031 A 
ATOM     19  C   UNL A   1      41.135  28.199  29.256  1.00  0.00     0.074 A 
ATOM     20  C   UNL A   1      41.949  30.512  29.691  1.00  0.00     0.049 A 
ATOM     21  N   UNL A   1      42.046  27.705  28.466  1.00  0.00    -0.248 NA
ATOM     22  C   UNL A   1      39.952  27.331  29.424  1.00  0.00     0.031 C 
ATOM     23  C   UNL A   1      41.831  31.885  30.188  1.00  0.00     0.029 A 
ATOM     24  N   UNL A   1      43.049  30.540  28.883  1.00  0.00    -0.354 N 
ATOM     25  C   UNL A   1      41.564  26.463  28.077  1.00  0.00     0.074 A 
ATOM     26  C   UNL A   1      40.277  26.276  28.697  1.00  0.00     0.031 C 
ATOM     27  C   UNL A   1      42.830  32.621  29.675  1.00  0.00     0.029 A 
ATOM     28  C   UNL A   1      43.689  31.753  28.876  1.00  0.00     0.049 A 
ATOM     29  H   UNL A   1      43.353  29.764  28.357  1.00  0.00     0.167 HD
ATOM     30  C   UNL A   1      42.170  25.555  27.280  1.00  0.00     0.037 A 
ATOM     31  C   UNL A   1      44.869  32.085  28.322  1.00  0.00     0.037 A 
ATOM     32  C   UNL A   1      43.461  25.787  26.695  1.00  0.00     0.049 A 
ATOM     33  C   UNL A   1      45.600  31.007  27.565  1.00  0.00     0.074 A 
ATOM     34  C   UNL A   1      44.248  24.931  25.955  1.00  0.00     0.029 A 
ATOM     35  N   UNL A   1      44.151  26.990  26.801  1.00  0.00    -0.354 N 
ATOM     36  N   UNL A   1      45.211  29.783  27.285  1.00  0.00    -0.248 NA
ATOM     37  C   UNL A   1      46.937  31.340  27.064  1.00  0.00     0.031 C 
ATOM     38  C   UNL A   1      45.442  25.599  25.661  1.00  0.00     0.029 A 
ATOM     39  C   UNL A   1      45.371  26.893  26.159  1.00  0.00     0.049 A 
ATOM     40  H   UNL A   1      43.820  27.793  27.265  1.00  0.00     0.167 HD
ATOM     41  C   UNL A   1      46.242  29.206  26.561  1.00  0.00     0.074 A 
ATOM     42  C   UNL A   1      47.267  30.225  26.428  1.00  0.00     0.031 C 
ATOM     43  C   UNL A   1      46.346  27.951  26.051  1.00  0.00     0.037 A 
BRANCH  30  44
ATOM     44  C   UNL A   1      41.491  24.228  27.119  1.00  0.00     0.064 A 
ATOM     45  C   UNL A   1      40.283  24.082  26.420  1.00  0.00     0.173 A 
ATOM     46  C   UNL A   1      42.026  23.091  27.742  1.00  0.00     0.173 A 
ATOM     47  F   UNL A   1      39.703  25.145  25.842  1.00  0.00    -0.203 F 
ATOM     48  C   UNL A   1      39.621  22.855  26.381  1.00  0.00     0.198 A 
ATOM     49  C   UNL A   1      41.378  21.860  27.676  1.00  0.00     0.198 A 
ATOM     50  F   UNL A   1      43.169  23.177  28.440  1.00  0.00    -0.203 F 
ATOM     51  F   UNL A   1      38.432  22.756  25.769  1.00  0.00    -0.200 F 
ATOM     52  C   UNL A   1      40.171  21.745  27.005  1.00  0.00     0.200 A 
ATOM     53  F   UNL A   1      41.911  20.791  28.283  1.00  0.00    -0.200 F 
ATOM     54  F   UNL A   1      39.527  20.571  26.978  1.00  0.00    -0.200 F 
ENDBRANCH  30  44
BRANCH  31  55
ATOM     55  C   UNL A   1      45.452  33.438  28.533  1.00  0.00     0.064 A 
ATOM     56  C   UNL A   1      45.244  34.478  27.619  1.00  0.00     0.173 A 
ATOM     57  C   UNL A   1      46.258  33.713  29.651  1.00  0.00     0.173 A 
ATOM     58  F   UNL A   1      44.501  34.267  26.522  1.00  0.00    -0.203 F 
ATOM     59  C   UNL A   1      45.834  35.730  27.801  1.00  0.00     0.198 A 
ATOM     60  C   UNL A   1      46.819  34.973  29.851  1.00  0.00     0.198 A 
ATOM     61  F   UNL A   1      46.500  32.756  30.559  1.00  0.00    -0.203 F 
ATOM     62  F   UNL A   1      45.660  36.690  26.882  1.00  0.00    -0.200 F 
ATOM     63  C   UNL A   1      46.615  35.978  28.919  1.00  0.00     0.200 A 
ATOM     64  F   UNL A   1      47.563  35.208  30.941  1.00  0.00    -0.200 F 
ATOM     65  F   UNL A   1      47.182  37.180  29.093  1.00  0.00    -0.200 F 
ENDBRANCH  31  55
BRANCH  43  66
ATOM     66  C   UNL A   1      47.587  27.641  25.273  1.00  0.00     0.064 A 
ATOM     67  C   UNL A   1      48.743  27.154  25.898  1.00  0.00     0.173 A 
ATOM     68  C   UNL A   1      47.591  27.776  23.877  1.00  0.00     0.173 A 
ATOM     69  F   UNL A   1      48.787  27.023  27.233  1.00  0.00    -0.203 F 
ATOM     70  C   UNL A   1      49.871  26.834  25.151  1.00  0.00     0.198 A 
ATOM     71  C   UNL A   1      48.708  27.420  23.132  1.00  0.00     0.198 A 
ATOM     72  F   UNL A   1      46.502  28.229  23.238  1.00  0.00    -0.203 F 
ATOM     73  F   UNL A   1      50.984  26.414  25.768  1.00  0.00    -0.200 F 
ATOM     74  C   UNL A   1      49.849  26.957  23.769  1.00  0.00     0.200 A 
ATOM     75  F   UNL A   1      48.677  27.521  21.795  1.00  0.00    -0.200 F 
ATOM     76  F   UNL A   1      50.932  26.632  23.050  1.00  0.00    -0.200 F 
ENDBRANCH  43  66
ENDBRANCH  17  18
ENDBRANCH  10  12
ENDBRANCH   9  10
ENDBRANCH   8   9
ENDBRANCH   7   8
ENDBRANCH   6   7
ENDBRANCH   5   6
ENDBRANCH   4   5
ENDBRANCH   3   4
ENDBRANCH   2   3
ENDBRANCH   1   2
BRANCH   1  77
ATOM     77  O   UNL A   1      33.613  29.626  27.273  1.00  0.00    -0.376 OA
BRANCH  77  78
ATOM     78  C   UNL A   1      33.029  28.475  26.687  1.00  0.00     0.202 C 
BRANCH  78  79
ATOM     79  C   UNL A   1      33.880  27.282  26.204  1.00  0.00     0.261 C 
BRANCH  79  80
ATOM     80  O   UNL A   1      33.161  26.073  25.884  1.00  0.00    -0.463 OA
BRANCH  80  81
ATOM     81  C   UNL A   1      33.883  25.037  25.420  1.00  0.00     0.310 C 
ATOM     82  O   UNL A   1      35.119  25.025  25.423  1.00  0.00    -0.252 OA
BRANCH  81  83
ATOM     83  C   UNL A   1      33.119  23.760  25.047  1.00  0.00     0.119 C 
ATOM     84  C   UNL A   1      32.064  23.514  26.143  1.00  0.00     0.100 C 
ATOM     85  C   UNL A   1      33.607  22.300  24.779  1.00  0.00     0.027 C 
ATOM     86  C   UNL A   1      32.093  21.978  26.375  1.00  0.00     0.025 C 
ATOM     87  C   UNL A   1      34.362  21.782  25.968  1.00  0.00    -0.027 C 
ATOM     88  C   UNL A   1      32.341  21.443  24.980  1.00  0.00     0.017 C 
ATOM     89  C   UNL A   1      33.453  21.594  26.939  1.00  0.00    -0.027 C 
BRANCH  84  90
ATOM     90  C   UNL A   1      30.696  24.099  25.841  1.00  0.00     0.224 C 
ATOM     91  O   UNL A   1      29.918  24.291  26.783  1.00  0.00    -0.275 OA
ATOM     92  N   UNL A   1      30.227  24.391  24.604  1.00  0.00    -0.352 N 
ATOM     93  H   UNL A   1      29.284  24.674  24.619  1.00  0.00     0.163 HD
BRANCH  92  94
ATOM     94  C   UNL A   1      30.784  24.388  23.259  1.00  0.00     0.155 C 
BRANCH  94  95
ATOM     95  C   UNL A   1      31.431  25.676  22.854  1.00  0.00     0.013 A 
ATOM     96  C   UNL A   1      32.665  25.525  22.163  1.00  0.00     0.009 A 
ATOM     97  C   UNL A   1      31.031  26.963  23.245  1.00  0.00     0.124 A 
ATOM     98  C   UNL A   1      33.492  26.601  21.875  1.00  0.00     0.001 A 
ATOM     99  C   UNL A   1      31.891  28.038  22.944  1.00  0.00     0.047 A 
ATOM    100  C   UNL A   1      33.107  27.865  22.278  1.00  0.00     0.004 A 
BRANCH  97 101
ATOM    101  O   UNL A   1      29.918  27.420  23.891  1.00  0.00    -0.489 OA
BRANCH 101 102
ATOM    102  C   UNL A   1      28.634  27.676  23.318  1.00  0.00     0.265 C 
BRANCH 102 103
ATOM    103  C   UNL A   1      28.385  29.114  22.912  1.00  0.00    -0.011 A 
ATOM    104  C   UNL A   1      29.174  29.692  21.899  1.00  0.00     0.007 A 
ATOM    105  C   UNL A   1      27.487  29.921  23.619  1.00  0.00     0.007 A 
ATOM    106  C   UNL A   1      29.200  31.076  21.737  1.00  0.00     0.000 A 
ATOM    107  C   UNL A   1      27.488  31.301  23.425  1.00  0.00     0.000 A 
ATOM    108  C   UNL A   1      28.372  31.881  22.515  1.00  0.00     0.000 A 
ENDBRANCH 102 103
ENDBRANCH 101 102
ENDBRANCH  97 101
ENDBRANCH  94  95
ENDBRANCH  92  94
ENDBRANCH  84  90
ENDBRANCH  81  83
ENDBRANCH  80  81
ENDBRANCH  79  80
ENDBRANCH  78  79
ENDBRANCH  77  78
ENDBRANCH   1  77
TORSDOF 26
ENDMDL
MODEL 3
REMARK VINA RESULT:     -10.3      6.527     12.161
REMARK SMILES O=C(OCCOCCOCCOCCOC(=O)[C@@H]1[C@@H](C(=O)NCc2ccccc2OCc2ccccc2)[C@@H]2C=C[C@H]1C2)c1ccc(-c2c3nc(c(-c4c(F)c(F)c(F)c(F)c4F)c4ccc([nH]4)c(-c4c(F)c(F)c(F)c(F)c4F)c4nc(c(-c5c(F)c(F)c(F)c(F)c5F)c5ccc2[nH]5)C=C4)C=C3)cc1
REMARK SMILES IDX 11 1 10 2 9 3 8 4 7 5 6 6 5 7 4 8 3 9 2 10 1 11 43 12 44 13
REMARK SMILES IDX 105 14 45 15 104 16 46 17 47 18 48 19 98 20 49 21 103 22
REMARK SMILES IDX 97 23 99 24 50 25 102 26 96 27 95 28 51 30 83 31 63 32 82 33
REMARK SMILES IDX 64 34 67 35 81 36 100 37 65 38 66 39 80 41 101 42 68 43
REMARK SMILES IDX 52 44 53 45 61 46 54 47 55 48 59 49 62 50 56 51 57 52 60 53
REMARK SMILES IDX 58 54 84 55 85 56 93 57 86 58 87 59 91 60 94 61 88 62 89 63
REMARK SMILES IDX 92 64 90 65 69 66 70 67 78 68 71 69 72 70 76 71 79 72 73 73
REMARK SMILES IDX 74 74 77 75 75 76 12 77 13 78 14 79 15 80 16 81 17 82 18 83
REMARK SMILES IDX 19 84 41 85 38 86 40 87 42 88 39 89 20 90 21 91 22 92 23 94
REMARK SMILES IDX 24 95 25 96 29 97 26 98 28 99 27 100 30 101 31 102 32 103
REMARK SMILES IDX 33 104 37 105 34 106 36 107 35 108
REMARK H PARENT 99 29 67 40 22 93
REMARK Flexibility Score: inf
ROOT
ATOM      1  C   UNL A   1      33.452  30.718  27.172  1.00  0.00     0.188 C 
ENDROOT
BRANCH   1   2
ATOM      2  C   UNL A   1      34.617  31.563  27.703  1.00  0.00     0.188 C 
BRANCH   2   3
ATOM      3  O   UNL A   1      34.550  32.280  28.913  1.00  0.00    -0.377 OA
BRANCH   3   4
ATOM      4  C   UNL A   1      35.240  33.509  28.963  1.00  0.00     0.188 C 
BRANCH   4   5
ATOM      5  C   UNL A   1      34.730  34.575  28.006  1.00  0.00     0.188 C 
BRANCH   5   6
ATOM      6  O   UNL A   1      34.299  35.742  28.717  1.00  0.00    -0.376 OA
BRANCH   6   7
ATOM      7  C   UNL A   1      32.948  35.704  29.188  1.00  0.00     0.202 C 
BRANCH   7   8
ATOM      8  C   UNL A   1      32.528  36.876  30.076  1.00  0.00     0.261 C 
BRANCH   8   9
ATOM      9  O   UNL A   1      32.742  36.654  31.478  1.00  0.00    -0.460 OA
BRANCH   9  10
ATOM     10  C   UNL A   1      32.812  35.484  32.154  1.00  0.00     0.338 C 
ATOM     11  O   UNL A   1      31.785  35.094  32.729  1.00  0.00    -0.246 OA
BRANCH  10  12
ATOM     12  C   UNL A   1      34.055  34.664  32.338  1.00  0.00     0.060 A 
ATOM     13  C   UNL A   1      34.096  33.328  32.737  1.00  0.00     0.016 A 
ATOM     14  C   UNL A   1      35.282  35.284  32.031  1.00  0.00     0.016 A 
ATOM     15  C   UNL A   1      35.276  32.614  32.812  1.00  0.00     0.010 A 
ATOM     16  C   UNL A   1      36.493  34.597  32.167  1.00  0.00     0.010 A 
ATOM     17  C   UNL A   1      36.480  33.264  32.584  1.00  0.00    -0.014 A 
BRANCH  17  18
ATOM     18  C   UNL A   1      37.665  32.587  33.120  1.00  0.00     0.031 A 
ATOM     19  C   UNL A   1      38.330  31.595  32.215  1.00  0.00     0.074 A 
ATOM     20  C   UNL A   1      38.242  33.035  34.245  1.00  0.00     0.049 A 
ATOM     21  N   UNL A   1      39.378  30.849  32.423  1.00  0.00    -0.248 NA
ATOM     22  C   UNL A   1      37.749  31.450  30.865  1.00  0.00     0.031 C 
ATOM     23  C   UNL A   1      37.757  34.159  35.051  1.00  0.00     0.029 A 
ATOM     24  N   UNL A   1      39.381  32.631  34.880  1.00  0.00    -0.354 N 
ATOM     25  C   UNL A   1      39.556  30.126  31.251  1.00  0.00     0.074 A 
ATOM     26  C   UNL A   1      38.525  30.526  30.326  1.00  0.00     0.031 C 
ATOM     27  C   UNL A   1      38.597  34.349  36.081  1.00  0.00     0.029 A 
ATOM     28  C   UNL A   1      39.629  33.318  36.042  1.00  0.00     0.049 A 
ATOM     29  H   UNL A   1      39.967  31.917  34.538  1.00  0.00     0.167 HD
ATOM     30  C   UNL A   1      40.497  29.192  30.992  1.00  0.00     0.037 A 
ATOM     31  C   UNL A   1      40.562  33.083  36.981  1.00  0.00     0.037 A 
ATOM     32  C   UNL A   1      41.497  28.823  31.954  1.00  0.00     0.049 A 
ATOM     33  C   UNL A   1      41.508  31.935  36.738  1.00  0.00     0.074 A 
ATOM     34  C   UNL A   1      42.449  27.828  31.882  1.00  0.00     0.029 A 
ATOM     35  N   UNL A   1      41.656  29.454  33.183  1.00  0.00    -0.354 N 
ATOM     36  N   UNL A   1      41.615  31.160  35.682  1.00  0.00    -0.248 NA
ATOM     37  C   UNL A   1      42.446  31.611  37.817  1.00  0.00     0.031 C 
ATOM     38  C   UNL A   1      43.149  27.822  33.094  1.00  0.00     0.029 A 
ATOM     39  C   UNL A   1      42.679  28.855  33.893  1.00  0.00     0.049 A 
ATOM     40  H   UNL A   1      41.120  30.216  33.501  1.00  0.00     0.167 HD
ATOM     41  C   UNL A   1      42.642  30.271  35.958  1.00  0.00     0.074 A 
ATOM     42  C   UNL A   1      43.139  30.618  37.277  1.00  0.00     0.031 C 
ATOM     43  C   UNL A   1      43.135  29.257  35.202  1.00  0.00     0.037 A 
BRANCH  30  44
ATOM     44  C   UNL A   1      40.392  28.461  29.688  1.00  0.00     0.064 A 
ATOM     45  C   UNL A   1      39.633  27.289  29.542  1.00  0.00     0.173 A 
ATOM     46  C   UNL A   1      41.126  28.905  28.578  1.00  0.00     0.173 A 
ATOM     47  F   UNL A   1      38.946  26.795  30.583  1.00  0.00    -0.203 F 
ATOM     48  C   UNL A   1      39.643  26.573  28.346  1.00  0.00     0.198 A 
ATOM     49  C   UNL A   1      41.111  28.204  27.375  1.00  0.00     0.198 A 
ATOM     50  F   UNL A   1      41.885  30.008  28.667  1.00  0.00    -0.203 F 
ATOM     51  F   UNL A   1      38.969  25.417  28.253  1.00  0.00    -0.200 F 
ATOM     52  C   UNL A   1      40.378  27.032  27.263  1.00  0.00     0.200 A 
ATOM     53  F   UNL A   1      41.825  28.649  26.333  1.00  0.00    -0.200 F 
ATOM     54  F   UNL A   1      40.396  26.335  26.119  1.00  0.00    -0.200 F 
ENDBRANCH  30  44
BRANCH  31  55
ATOM     55  C   UNL A   1      40.589  33.877  38.240  1.00  0.00     0.064 A 
ATOM     56  C   UNL A   1      39.763  33.560  39.325  1.00  0.00     0.173 A 
ATOM     57  C   UNL A   1      41.431  34.994  38.374  1.00  0.00     0.173 A 
ATOM     58  F   UNL A   1      38.923  32.517  39.245  1.00  0.00    -0.203 F 
ATOM     59  C   UNL A   1      39.761  34.338  40.484  1.00  0.00     0.198 A 
ATOM     60  C   UNL A   1      41.454  35.751  39.544  1.00  0.00     0.198 A 
ATOM     61  F   UNL A   1      42.241  35.352  37.366  1.00  0.00    -0.203 F 
ATOM     62  F   UNL A   1      38.922  34.043  41.486  1.00  0.00    -0.200 F 
ATOM     63  C   UNL A   1      40.611  35.428  40.594  1.00  0.00     0.200 A 
ATOM     64  F   UNL A   1      42.287  36.796  39.647  1.00  0.00    -0.200 F 
ATOM     65  F   UNL A   1      40.608  36.176  41.707  1.00  0.00    -0.200 F 
ENDBRANCH  31  55
BRANCH  43  66
ATOM     66  C   UNL A   1      44.289  28.491  35.772  1.00  0.00     0.064 A 
ATOM     67  C   UNL A   1      45.615  28.881  35.542  1.00  0.00     0.173 A 
ATOM     68  C   UNL A   1      44.054  27.391  36.610  1.00  0.00     0.173 A 
ATOM     69  F   UNL A   1      45.885  29.919  34.735  1.00  0.00    -0.203 F 
ATOM     70  C   UNL A   1      46.670  28.180  36.115  1.00  0.00     0.198 A 
ATOM     71  C   UNL A   1      45.110  26.716  37.210  1.00  0.00     0.198 A 
ATOM     72  F   UNL A   1      42.800  26.990  36.866  1.00  0.00    -0.203 F 
ATOM     73  F   UNL A   1      47.934  28.537  35.846  1.00  0.00    -0.200 F 
ATOM     74  C   UNL A   1      46.417  27.105  36.956  1.00  0.00     0.200 A 
ATOM     75  F   UNL A   1      44.863  25.692  38.038  1.00  0.00    -0.200 F 
ATOM     76  F   UNL A   1      47.435  26.442  37.520  1.00  0.00    -0.200 F 
ENDBRANCH  43  66
ENDBRANCH  17  18
ENDBRANCH  10  12
ENDBRANCH   9  10
ENDBRANCH   8   9
ENDBRANCH   7   8
ENDBRANCH   6   7
ENDBRANCH   5   6
ENDBRANCH   4   5
ENDBRANCH   3   4
ENDBRANCH   2   3
ENDBRANCH   1   2
BRANCH   1  77
ATOM     77  O   UNL A   1      33.510  29.309  27.151  1.00  0.00    -0.376 OA
BRANCH  77  78
ATOM     78  C   UNL A   1      32.604  28.544  27.926  1.00  0.00     0.202 C 
BRANCH  78  79
ATOM     79  C   UNL A   1      31.379  27.845  27.300  1.00  0.00     0.261 C 
BRANCH  79  80
ATOM     80  O   UNL A   1      31.604  26.526  26.758  1.00  0.00    -0.463 OA
BRANCH  80  81
ATOM     81  C   UNL A   1      30.696  26.062  25.881  1.00  0.00     0.310 C 
ATOM     82  O   UNL A   1      29.614  25.575  26.229  1.00  0.00    -0.252 OA
BRANCH  81  83
ATOM     83  C   UNL A   1      30.959  26.326  24.393  1.00  0.00     0.119 C 
ATOM     84  C   UNL A   1      31.716  25.106  23.834  1.00  0.00     0.100 C 
ATOM     85  C   UNL A   1      31.702  27.490  23.662  1.00  0.00     0.027 C 
ATOM     86  C   UNL A   1      32.788  25.712  22.886  1.00  0.00     0.025 C 
ATOM     87  C   UNL A   1      33.108  27.608  24.173  1.00  0.00    -0.027 C 
ATOM     88  C   UNL A   1      32.059  26.895  22.284  1.00  0.00     0.017 C 
ATOM     89  C   UNL A   1      33.767  26.531  23.715  1.00  0.00    -0.027 C 
BRANCH  84  90
ATOM     90  C   UNL A   1      30.826  24.044  23.212  1.00  0.00     0.224 C 
ATOM     91  O   UNL A   1      29.613  24.271  23.125  1.00  0.00    -0.275 OA
ATOM     92  N   UNL A   1      31.244  22.831  22.780  1.00  0.00    -0.352 N 
ATOM     93  H   UNL A   1      30.496  22.257  22.496  1.00  0.00     0.163 HD
BRANCH  92  94
ATOM     94  C   UNL A   1      32.534  22.171  22.633  1.00  0.00     0.155 C 
BRANCH  94  95
ATOM     95  C   UNL A   1      32.768  21.048  23.596  1.00  0.00     0.013 A 
ATOM     96  C   UNL A   1      32.528  19.753  23.062  1.00  0.00     0.009 A 
ATOM     97  C   UNL A   1      33.014  21.175  24.972  1.00  0.00     0.124 A 
ATOM     98  C   UNL A   1      32.514  18.613  23.854  1.00  0.00     0.001 A 
ATOM     99  C   UNL A   1      32.991  20.003  25.754  1.00  0.00     0.047 A 
ATOM    100  C   UNL A   1      32.737  18.742  25.211  1.00  0.00     0.004 A 
BRANCH  97 101
ATOM    101  O   UNL A   1      33.291  22.258  25.758  1.00  0.00    -0.489 OA
BRANCH 101 102
ATOM    102  C   UNL A   1      34.310  23.237  25.548  1.00  0.00     0.265 C 
BRANCH 102 103
ATOM    103  C   UNL A   1      35.729  22.739  25.731  1.00  0.00    -0.011 A 
ATOM    104  C   UNL A   1      36.734  23.645  26.121  1.00  0.00     0.007 A 
ATOM    105  C   UNL A   1      36.089  21.433  25.382  1.00  0.00     0.007 A 
ATOM    106  C   UNL A   1      38.077  23.304  25.976  1.00  0.00     0.000 A 
ATOM    107  C   UNL A   1      37.434  21.084  25.276  1.00  0.00     0.000 A 
ATOM    108  C   UNL A   1      38.426  22.030  25.534  1.00  0.00     0.000 A 
ENDBRANCH 102 103
ENDBRANCH 101 102
ENDBRANCH  97 101
ENDBRANCH  94  95
ENDBRANCH  92  94
ENDBRANCH  84  90
ENDBRANCH  81  83
ENDBRANCH  80  81
ENDBRANCH  79  80
ENDBRANCH  78  79
ENDBRANCH  77  78
ENDBRANCH   1  77
TORSDOF 26
ENDMDL
