MODEL 1
REMARK VINA RESULT:     -10.7      0.000      0.000
REMARK SMILES CC[C@](C)(NC(=O)c1cccc2ncccc12)C(=O)OCCOCCOCCOCCOC(=O)c1ccc(-c2c3nc(c(-c4c(F)c(F)c(F)c(F)c4F)c4ccc([nH]4)c(-c4c(F)c(F)c(F)c(F)c4F)c4nc(c(-c5c(F)c(F)c(F)c(F)c5F)c5ccc2[nH]5)C=C4)C=C3)cc1
REMARK SMILES IDX 26 1 25 2 24 3 23 4 22 5 21 6 20 7 18 8 19 9 3 10 4 11 2 12
REMARK SMILES IDX 1 13 5 14 6 15 7 17 8 18 9 19 17 20 10 21 12 22 16 23 11 24
REMARK SMILES IDX 13 25 15 26 14 27 27 28 28 29 29 30 30 31 31 32 32 33 33 34
REMARK SMILES IDX 34 35 35 36 36 37 97 38 37 39 96 40 38 41 39 42 40 43 90 44
REMARK SMILES IDX 41 45 95 46 89 47 91 48 42 49 94 50 88 51 87 52 43 54 75 55
REMARK SMILES IDX 55 56 74 57 56 58 59 59 73 60 92 61 57 62 58 63 72 65 93 66
REMARK SMILES IDX 60 67 44 68 45 69 53 70 46 71 47 72 51 73 54 74 48 75 49 76
REMARK SMILES IDX 52 77 50 78 76 79 77 80 85 81 78 82 79 83 83 84 86 85 80 86
REMARK SMILES IDX 81 87 84 88 82 89 61 90 62 91 70 92 63 93 64 94 68 95 71 96
REMARK SMILES IDX 65 97 66 98 69 99 67 100
REMARK H PARENT 5 16 91 53 59 64
REMARK Flexibility Score: inf
ROOT
ATOM      1  O   UNL A   1      39.797  27.707  28.950  1.00  0.00    -0.377 OA
ENDROOT
BRANCH   1   2
ATOM      2  C   UNL A   1      39.050  29.167  28.996  1.00  0.00     0.188 C 
BRANCH   2   3
ATOM      3  C   UNL A   1      37.743  29.809  29.979  1.00  0.00     0.188 C 
BRANCH   3   4
ATOM      4  O   UNL A   1      36.491  30.325  29.501  1.00  0.00    -0.376 OA
BRANCH   4   5
ATOM      5  C   UNL A   1      35.696  31.303  30.215  1.00  0.00     0.202 C 
BRANCH   5   6
ATOM      6  C   UNL A   1      35.037  32.553  29.554  1.00  0.00     0.261 C 
BRANCH   6   7
ATOM      7  O   UNL A   1      34.060  33.183  30.365  1.00  0.00    -0.462 OA
BRANCH   7   8
ATOM      8  C   UNL A   1      34.071  34.527  30.431  1.00  0.00     0.331 C 
ATOM      9  O   UNL A   1      33.755  35.267  29.510  1.00  0.00    -0.249 OA
BRANCH   8  10
ATOM     10  C   UNL A   1      34.504  34.975  31.853  1.00  0.00     0.135 C 
ATOM     11  C   UNL A   1      33.963  33.878  32.842  1.00  0.00     0.047 C 
BRANCH  10  12
ATOM     12  C   UNL A   1      33.803  36.335  32.156  1.00  0.00     0.037 C 
ATOM     13  C   UNL A   1      34.000  36.887  33.579  1.00  0.00     0.007 C 
ENDBRANCH  10  12
BRANCH  10  14
ATOM     14  N   UNL A   1      36.036  35.095  32.054  1.00  0.00    -0.336 N 
ATOM     15  C   UNL A   1      37.139  34.217  31.960  1.00  0.00     0.252 C 
ATOM     16  H   UNL A   1      36.307  36.005  32.312  1.00  0.00     0.165 HD
ATOM     17  O   UNL A   1      37.914  34.434  31.019  1.00  0.00    -0.269 OA
BRANCH  15  18
ATOM     18  C   UNL A   1      37.542  33.051  33.001  1.00  0.00     0.049 A 
ATOM     19  C   UNL A   1      38.696  32.443  32.439  1.00  0.00     0.014 A 
ATOM     20  C   UNL A   1      37.213  32.805  34.554  1.00  0.00     0.013 A 
ATOM     21  C   UNL A   1      39.396  31.377  33.007  1.00  0.00     0.003 A 
ATOM     22  C   UNL A   1      38.149  31.394  35.048  1.00  0.00     0.071 A 
ATOM     23  C   UNL A   1      36.542  33.791  36.073  1.00  0.00     0.013 A 
ATOM     24  C   UNL A   1      39.017  30.777  34.197  1.00  0.00     0.029 A 
ATOM     25  N   UNL A   1      38.505  30.981  36.595  1.00  0.00    -0.256 NA
ATOM     26  C   UNL A   1      37.123  33.241  37.774  1.00  0.00     0.021 A 
ATOM     27  C   UNL A   1      38.027  31.835  37.885  1.00  0.00     0.112 A 
ENDBRANCH  15  18
ENDBRANCH  10  14
ENDBRANCH   8  10
ENDBRANCH   7   8
ENDBRANCH   6   7
ENDBRANCH   5   6
ENDBRANCH   4   5
ENDBRANCH   3   4
ENDBRANCH   2   3
ENDBRANCH   1   2
BRANCH   1  28
ATOM     28  C   UNL A   1      40.045  26.558  27.696  1.00  0.00     0.188 C 
BRANCH  28  29
ATOM     29  C   UNL A   1      39.436  24.716  27.782  1.00  0.00     0.188 C 
BRANCH  29  30
ATOM     30  O   UNL A   1      40.532  23.397  26.631  1.00  0.00    -0.376 OA
BRANCH  30  31
ATOM     31  C   UNL A   1      42.064  22.544  27.168  1.00  0.00     0.202 C 
BRANCH  31  32
ATOM     32  C   UNL A   1      43.586  22.331  26.102  1.00  0.00     0.261 C 
BRANCH  32  33
ATOM     33  O   UNL A   1      44.910  23.266  26.253  1.00  0.00    -0.460 OA
BRANCH  33  34
ATOM     34  C   UNL A   1      45.253  24.400  25.521  1.00  0.00     0.338 C 
ATOM     35  O   UNL A   1      45.525  24.354  24.327  1.00  0.00    -0.246 OA
BRANCH  34  36
ATOM     36  C   UNL A   1      44.841  25.772  26.157  1.00  0.00     0.060 A 
ATOM     37  C   UNL A   1      45.805  26.474  26.923  1.00  0.00     0.016 A 
ATOM     38  C   UNL A   1      43.580  26.378  26.108  1.00  0.00     0.016 A 
ATOM     39  C   UNL A   1      45.592  27.773  27.469  1.00  0.00     0.010 A 
ATOM     40  C   UNL A   1      43.321  27.640  26.767  1.00  0.00     0.010 A 
ATOM     41  C   UNL A   1      44.325  28.365  27.454  1.00  0.00    -0.014 A 
BRANCH  41  42
ATOM     42  C   UNL A   1      44.033  29.443  28.494  1.00  0.00     0.031 A 
ATOM     43  C   UNL A   1      43.818  28.946  29.916  1.00  0.00     0.074 A 
ATOM     44  C   UNL A   1      44.051  30.789  28.314  1.00  0.00     0.049 A 
ATOM     45  N   UNL A   1      43.581  29.599  31.029  1.00  0.00    -0.248 NA
ATOM     46  C   UNL A   1      43.908  27.488  30.095  1.00  0.00     0.031 C 
ATOM     47  C   UNL A   1      44.347  31.492  27.069  1.00  0.00     0.029 A 
ATOM     48  N   UNL A   1      43.823  31.824  29.215  1.00  0.00    -0.354 N 
ATOM     49  C   UNL A   1      43.493  28.631  32.026  1.00  0.00     0.074 A 
ATOM     50  C   UNL A   1      43.695  27.351  31.390  1.00  0.00     0.031 C 
ATOM     51  C   UNL A   1      44.274  32.824  27.278  1.00  0.00     0.029 A 
ATOM     52  C   UNL A   1      43.898  33.091  28.670  1.00  0.00     0.049 A 
ATOM     53  H   UNL A   1      43.624  31.665  30.166  1.00  0.00     0.167 HD
ATOM     54  C   UNL A   1      43.261  28.770  33.354  1.00  0.00     0.037 A 
ATOM     55  C   UNL A   1      43.679  34.315  29.213  1.00  0.00     0.037 A 
ATOM     56  C   UNL A   1      43.031  30.021  34.021  1.00  0.00     0.049 A 
ATOM     57  C   UNL A   1      43.297  34.445  30.678  1.00  0.00     0.074 A 
ATOM     58  C   UNL A   1      42.760  30.246  35.360  1.00  0.00     0.029 A 
ATOM     59  N   UNL A   1      43.028  31.258  33.400  1.00  0.00    -0.354 N 
ATOM     60  N   UNL A   1      43.206  33.518  31.600  1.00  0.00    -0.248 NA
ATOM     61  C   UNL A   1      42.989  35.799  31.178  1.00  0.00     0.031 C 
ATOM     62  C   UNL A   1      42.527  31.613  35.537  1.00  0.00     0.029 A 
ATOM     63  C   UNL A   1      42.733  32.248  34.324  1.00  0.00     0.049 A 
ATOM     64  H   UNL A   1      43.211  31.412  32.444  1.00  0.00     0.167 HD
ATOM     65  C   UNL A   1      42.875  34.175  32.784  1.00  0.00     0.074 A 
ATOM     66  C   UNL A   1      42.791  35.583  32.470  1.00  0.00     0.031 C 
ATOM     67  C   UNL A   1      42.667  33.655  34.020  1.00  0.00     0.037 A 
BRANCH  54  68
ATOM     68  C   UNL A   1      43.165  27.506  34.164  1.00  0.00     0.064 A 
ATOM     69  C   UNL A   1      41.935  26.889  34.439  1.00  0.00     0.173 A 
ATOM     70  C   UNL A   1      44.326  26.918  34.688  1.00  0.00     0.173 A 
ATOM     71  F   UNL A   1      40.792  27.425  33.986  1.00  0.00    -0.203 F 
ATOM     72  C   UNL A   1      41.870  25.751  35.241  1.00  0.00     0.198 A 
ATOM     73  C   UNL A   1      44.260  25.760  35.456  1.00  0.00     0.198 A 
ATOM     74  F   UNL A   1      45.527  27.468  34.456  1.00  0.00    -0.203 F 
ATOM     75  F   UNL A   1      40.679  25.219  35.550  1.00  0.00    -0.200 F 
ATOM     76  C   UNL A   1      43.032  25.184  35.743  1.00  0.00     0.200 A 
ATOM     77  F   UNL A   1      45.385  25.208  35.930  1.00  0.00    -0.200 F 
ATOM     78  F   UNL A   1      42.968  24.091  36.515  1.00  0.00    -0.200 F 
ENDBRANCH  54  68
BRANCH  55  79
ATOM     79  C   UNL A   1      43.772  35.562  28.381  1.00  0.00     0.064 A 
ATOM     80  C   UNL A   1      44.989  36.243  28.202  1.00  0.00     0.173 A 
ATOM     81  C   UNL A   1      42.625  36.154  27.829  1.00  0.00     0.173 A 
ATOM     82  F   UNL A   1      46.112  35.763  28.756  1.00  0.00    -0.203 F 
ATOM     83  C   UNL A   1      45.052  37.460  27.517  1.00  0.00     0.198 A 
ATOM     84  C   UNL A   1      42.694  37.354  27.116  1.00  0.00     0.198 A 
ATOM     85  F   UNL A   1      41.426  35.578  27.997  1.00  0.00    -0.203 F 
ATOM     86  F   UNL A   1      46.217  38.115  27.419  1.00  0.00    -0.200 F 
ATOM     87  C   UNL A   1      43.906  38.010  26.967  1.00  0.00     0.200 A 
ATOM     88  F   UNL A   1      41.581  37.884  26.590  1.00  0.00    -0.200 F 
ATOM     89  F   UNL A   1      43.964  39.178  26.312  1.00  0.00    -0.200 F 
ENDBRANCH  55  79
BRANCH  67  90
ATOM     90  C   UNL A   1      42.395  34.606  35.155  1.00  0.00     0.064 A 
ATOM     91  C   UNL A   1      43.426  35.237  35.867  1.00  0.00     0.173 A 
ATOM     92  C   UNL A   1      41.071  34.925  35.506  1.00  0.00     0.173 A 
ATOM     93  F   UNL A   1      44.708  34.970  35.579  1.00  0.00    -0.203 F 
ATOM     94  C   UNL A   1      43.144  36.119  36.910  1.00  0.00     0.198 A 
ATOM     95  C   UNL A   1      40.794  35.834  36.523  1.00  0.00     0.198 A 
ATOM     96  F   UNL A   1      40.045  34.364  34.849  1.00  0.00    -0.203 F 
ATOM     97  F   UNL A   1      44.145  36.665  37.613  1.00  0.00    -0.200 F 
ATOM     98  C   UNL A   1      41.829  36.421  37.233  1.00  0.00     0.200 A 
ATOM     99  F   UNL A   1      39.522  36.141  36.817  1.00  0.00    -0.200 F 
ATOM    100  F   UNL A   1      41.560  37.273  38.232  1.00  0.00    -0.200 F 
ENDBRANCH  67  90
ENDBRANCH  41  42
ENDBRANCH  34  36
ENDBRANCH  33  34
ENDBRANCH  32  33
ENDBRANCH  31  32
ENDBRANCH  30  31
ENDBRANCH  29  30
ENDBRANCH  28  29
ENDBRANCH   1  28
TORSDOF 23
ENDMDL
MODEL 2
REMARK VINA RESULT:     -10.3      4.569     10.246
REMARK SMILES CC[C@](C)(NC(=O)c1cccc2ncccc12)C(=O)OCCOCCOCCOCCOC(=O)c1ccc(-c2c3nc(c(-c4c(F)c(F)c(F)c(F)c4F)c4ccc([nH]4)c(-c4c(F)c(F)c(F)c(F)c4F)c4nc(c(-c5c(F)c(F)c(F)c(F)c5F)c5ccc2[nH]5)C=C4)C=C3)cc1
REMARK SMILES IDX 26 1 25 2 24 3 23 4 22 5 21 6 20 7 18 8 19 9 3 10 4 11 2 12
REMARK SMILES IDX 1 13 5 14 6 15 7 17 8 18 9 19 17 20 10 21 12 22 16 23 11 24
REMARK SMILES IDX 13 25 15 26 14 27 27 28 28 29 29 30 30 31 31 32 32 33 33 34
REMARK SMILES IDX 34 35 35 36 36 37 97 38 37 39 96 40 38 41 39 42 40 43 90 44
REMARK SMILES IDX 41 45 95 46 89 47 91 48 42 49 94 50 88 51 87 52 43 54 75 55
REMARK SMILES IDX 55 56 74 57 56 58 59 59 73 60 92 61 57 62 58 63 72 65 93 66
REMARK SMILES IDX 60 67 44 68 45 69 53 70 46 71 47 72 51 73 54 74 48 75 49 76
REMARK SMILES IDX 52 77 50 78 76 79 77 80 85 81 78 82 79 83 83 84 86 85 80 86
REMARK SMILES IDX 81 87 84 88 82 89 61 90 62 91 70 92 63 93 64 94 68 95 71 96
REMARK SMILES IDX 65 97 66 98 69 99 67 100
REMARK H PARENT 5 16 91 53 59 64
REMARK Flexibility Score: inf
ROOT
ATOM      1  O   UNL A   1      39.153  27.373  28.350  1.00  0.00    -0.377 OA
ENDROOT
BRANCH   1   2
ATOM      2  C   UNL A   1      39.547  26.157  27.324  1.00  0.00     0.188 C 
BRANCH   2   3
ATOM      3  C   UNL A   1      38.955  24.513  27.137  1.00  0.00     0.188 C 
BRANCH   3   4
ATOM      4  O   UNL A   1      37.719  24.116  26.526  1.00  0.00    -0.376 OA
BRANCH   4   5
ATOM      5  C   UNL A   1      37.598  23.018  25.588  1.00  0.00     0.202 C 
BRANCH   5   6
ATOM      6  C   UNL A   1      36.586  21.840  25.740  1.00  0.00     0.261 C 
BRANCH   6   7
ATOM      7  O   UNL A   1      35.685  21.715  24.653  1.00  0.00    -0.462 OA
BRANCH   7   8
ATOM      8  C   UNL A   1      34.437  21.287  24.920  1.00  0.00     0.331 C 
ATOM      9  O   UNL A   1      34.165  20.176  25.355  1.00  0.00    -0.249 OA
BRANCH   8  10
ATOM     10  C   UNL A   1      33.422  22.427  24.631  1.00  0.00     0.135 C 
ATOM     11  C   UNL A   1      32.051  21.724  24.322  1.00  0.00     0.047 C 
BRANCH  10  12
ATOM     12  C   UNL A   1      33.912  23.187  23.360  1.00  0.00     0.037 C 
ATOM     13  C   UNL A   1      33.119  22.913  22.070  1.00  0.00     0.007 C 
ENDBRANCH  10  12
BRANCH  10  14
ATOM     14  N   UNL A   1      33.207  23.413  25.807  1.00  0.00    -0.336 N 
ATOM     15  C   UNL A   1      32.180  24.296  26.208  1.00  0.00     0.252 C 
ATOM     16  H   UNL A   1      33.973  23.429  26.424  1.00  0.00     0.165 HD
ATOM     17  O   UNL A   1      31.572  23.975  27.238  1.00  0.00    -0.269 OA
BRANCH  15  18
ATOM     18  C   UNL A   1      31.801  25.713  25.534  1.00  0.00     0.049 A 
ATOM     19  C   UNL A   1      30.531  25.505  24.934  1.00  0.00     0.014 A 
ATOM     20  C   UNL A   1      32.301  27.218  25.790  1.00  0.00     0.013 A 
ATOM     21  C   UNL A   1      29.808  26.471  24.233  1.00  0.00     0.003 A 
ATOM     22  C   UNL A   1      31.302  28.259  24.774  1.00  0.00     0.071 A 
ATOM     23  C   UNL A   1      33.254  28.226  27.134  1.00  0.00     0.013 A 
ATOM     24  C   UNL A   1      30.276  27.759  24.029  1.00  0.00     0.029 A 
ATOM     25  N   UNL A   1      31.108  29.876  24.967  1.00  0.00    -0.256 NA
ATOM     26  C   UNL A   1      32.844  30.055  27.283  1.00  0.00     0.021 A 
ATOM     27  C   UNL A   1      31.828  30.733  26.136  1.00  0.00     0.112 A 
ENDBRANCH  15  18
ENDBRANCH  10  14
ENDBRANCH   8  10
ENDBRANCH   7   8
ENDBRANCH   6   7
ENDBRANCH   5   6
ENDBRANCH   4   5
ENDBRANCH   3   4
ENDBRANCH   2   3
ENDBRANCH   1   2
BRANCH   1  28
ATOM     28  C   UNL A   1      38.653  28.999  28.103  1.00  0.00     0.188 C 
BRANCH  28  29
ATOM     29  C   UNL A   1      36.804  29.534  27.851  1.00  0.00     0.188 C 
BRANCH  29  30
ATOM     30  O   UNL A   1      36.265  31.256  28.855  1.00  0.00    -0.376 OA
BRANCH  30  31
ATOM     31  C   UNL A   1      35.635  32.788  28.067  1.00  0.00     0.202 C 
BRANCH  31  32
ATOM     32  C   UNL A   1      33.857  33.364  28.143  1.00  0.00     0.261 C 
BRANCH  32  33
ATOM     33  O   UNL A   1      33.398  34.719  28.921  1.00  0.00    -0.460 OA
BRANCH  33  34
ATOM     34  C   UNL A   1      33.268  34.923  30.292  1.00  0.00     0.338 C 
ATOM     35  O   UNL A   1      32.205  35.243  30.811  1.00  0.00    -0.246 OA
BRANCH  34  36
ATOM     36  C   UNL A   1      34.395  34.297  31.184  1.00  0.00     0.060 A 
ATOM     37  C   UNL A   1      35.501  35.109  31.539  1.00  0.00     0.016 A 
ATOM     38  C   UNL A   1      34.471  32.975  31.638  1.00  0.00     0.016 A 
ATOM     39  C   UNL A   1      36.539  34.694  32.424  1.00  0.00     0.010 A 
ATOM     40  C   UNL A   1      35.587  32.512  32.435  1.00  0.00     0.010 A 
ATOM     41  C   UNL A   1      36.638  33.366  32.849  1.00  0.00    -0.014 A 
BRANCH  41  42
ATOM     42  C   UNL A   1      38.006  32.868  33.308  1.00  0.00     0.031 A 
ATOM     43  C   UNL A   1      38.318  33.064  34.784  1.00  0.00     0.074 A 
ATOM     44  C   UNL A   1      38.920  32.179  32.578  1.00  0.00     0.049 A 
ATOM     45  N   UNL A   1      39.370  32.730  35.493  1.00  0.00    -0.248 NA
ATOM     46  C   UNL A   1      37.262  33.722  35.570  1.00  0.00     0.031 C 
ATOM     47  C   UNL A   1      38.786  31.777  31.181  1.00  0.00     0.029 A 
ATOM     48  N   UNL A   1      40.165  31.673  32.934  1.00  0.00    -0.354 N 
ATOM     49  C   UNL A   1      39.097  33.139  36.795  1.00  0.00     0.074 A 
ATOM     50  C   UNL A   1      37.789  33.750  36.780  1.00  0.00     0.031 C 
ATOM     51  C   UNL A   1      39.893  31.104  30.799  1.00  0.00     0.029 A 
ATOM     52  C   UNL A   1      40.845  31.040  31.911  1.00  0.00     0.049 A 
ATOM     53  H   UNL A   1      40.533  31.759  33.843  1.00  0.00     0.167 HD
ATOM     54  C   UNL A   1      39.852  33.034  37.916  1.00  0.00     0.037 A 
ATOM     55  C   UNL A   1      42.085  30.489  31.865  1.00  0.00     0.037 A 
ATOM     56  C   UNL A   1      41.166  32.456  37.970  1.00  0.00     0.049 A 
ATOM     57  C   UNL A   1      42.969  30.489  33.102  1.00  0.00     0.074 A 
ATOM     58  C   UNL A   1      42.010  32.336  39.061  1.00  0.00     0.029 A 
ATOM     59  N   UNL A   1      41.836  31.917  36.885  1.00  0.00    -0.354 N 
ATOM     60  N   UNL A   1      42.698  30.894  34.319  1.00  0.00    -0.248 NA
ATOM     61  C   UNL A   1      44.336  29.952  32.955  1.00  0.00     0.031 C 
ATOM     62  C   UNL A   1      43.217  31.784  38.623  1.00  0.00     0.029 A 
ATOM     63  C   UNL A   1      43.095  31.487  37.276  1.00  0.00     0.049 A 
ATOM     64  H   UNL A   1      41.472  31.848  35.973  1.00  0.00     0.167 HD
ATOM     65  C   UNL A   1      43.832  30.622  35.082  1.00  0.00     0.074 A 
ATOM     66  C   UNL A   1      44.795  30.009  34.196  1.00  0.00     0.031 C 
ATOM     67  C   UNL A   1      44.050  30.857  36.401  1.00  0.00     0.037 A 
BRANCH  54  68
ATOM     68  C   UNL A   1      39.290  33.637  39.174  1.00  0.00     0.064 A 
ATOM     69  C   UNL A   1      38.393  32.941  39.999  1.00  0.00     0.173 A 
ATOM     70  C   UNL A   1      39.644  34.944  39.545  1.00  0.00     0.173 A 
ATOM     71  F   UNL A   1      38.001  31.700  39.676  1.00  0.00    -0.203 F 
ATOM     72  C   UNL A   1      37.843  33.546  41.127  1.00  0.00     0.198 A 
ATOM     73  C   UNL A   1      39.121  35.530  40.693  1.00  0.00     0.198 A 
ATOM     74  F   UNL A   1      40.496  35.654  38.791  1.00  0.00    -0.203 F 
ATOM     75  F   UNL A   1      36.934  32.889  41.861  1.00  0.00    -0.200 F 
ATOM     76  C   UNL A   1      38.213  34.837  41.477  1.00  0.00     0.200 A 
ATOM     77  F   UNL A   1      39.489  36.773  41.035  1.00  0.00    -0.200 F 
ATOM     78  F   UNL A   1      37.681  35.417  42.562  1.00  0.00    -0.200 F 
ENDBRANCH  54  68
BRANCH  55  79
ATOM     79  C   UNL A   1      42.627  29.901  30.595  1.00  0.00     0.064 A 
ATOM     80  C   UNL A   1      43.231  30.700  29.608  1.00  0.00     0.173 A 
ATOM     81  C   UNL A   1      42.463  28.539  30.296  1.00  0.00     0.173 A 
ATOM     82  F   UNL A   1      43.363  32.021  29.804  1.00  0.00    -0.203 F 
ATOM     83  C   UNL A   1      43.637  30.166  28.381  1.00  0.00     0.198 A 
ATOM     84  C   UNL A   1      42.899  27.999  29.084  1.00  0.00     0.198 A 
ATOM     85  F   UNL A   1      41.858  27.729  31.177  1.00  0.00    -0.203 F 
ATOM     86  F   UNL A   1      44.151  30.968  27.438  1.00  0.00    -0.200 F 
ATOM     87  C   UNL A   1      43.479  28.814  28.124  1.00  0.00     0.200 A 
ATOM     88  F   UNL A   1      42.739  26.692  28.838  1.00  0.00    -0.200 F 
ATOM     89  F   UNL A   1      43.865  28.301  26.948  1.00  0.00    -0.200 F 
ENDBRANCH  55  79
BRANCH  67  90
ATOM     90  C   UNL A   1      45.351  30.393  37.001  1.00  0.00     0.064 A 
ATOM     91  C   UNL A   1      46.468  31.234  37.109  1.00  0.00     0.173 A 
ATOM     92  C   UNL A   1      45.463  29.091  37.519  1.00  0.00     0.173 A 
ATOM     93  F   UNL A   1      46.420  32.485  36.631  1.00  0.00    -0.203 F 
ATOM     94  C   UNL A   1      47.658  30.779  37.676  1.00  0.00     0.198 A 
ATOM     95  C   UNL A   1      46.641  28.652  38.118  1.00  0.00     0.198 A 
ATOM     96  F   UNL A   1      44.423  28.247  37.458  1.00  0.00    -0.203 F 
ATOM     97  F   UNL A   1      48.730  31.582  37.716  1.00  0.00    -0.200 F 
ATOM     98  C   UNL A   1      47.742  29.492  38.185  1.00  0.00     0.200 A 
ATOM     99  F   UNL A   1      46.711  27.414  38.629  1.00  0.00    -0.200 F 
ATOM    100  F   UNL A   1      48.885  29.058  38.735  1.00  0.00    -0.200 F 
ENDBRANCH  67  90
ENDBRANCH  41  42
ENDBRANCH  34  36
ENDBRANCH  33  34
ENDBRANCH  32  33
ENDBRANCH  31  32
ENDBRANCH  30  31
ENDBRANCH  29  30
ENDBRANCH  28  29
ENDBRANCH   1  28
TORSDOF 23
ENDMDL
MODEL 3
REMARK VINA RESULT:     -10.1      4.818     11.884
REMARK SMILES CC[C@](C)(NC(=O)c1cccc2ncccc12)C(=O)OCCOCCOCCOCCOC(=O)c1ccc(-c2c3nc(c(-c4c(F)c(F)c(F)c(F)c4F)c4ccc([nH]4)c(-c4c(F)c(F)c(F)c(F)c4F)c4nc(c(-c5c(F)c(F)c(F)c(F)c5F)c5ccc2[nH]5)C=C4)C=C3)cc1
REMARK SMILES IDX 26 1 25 2 24 3 23 4 22 5 21 6 20 7 18 8 19 9 3 10 4 11 2 12
REMARK SMILES IDX 1 13 5 14 6 15 7 17 8 18 9 19 17 20 10 21 12 22 16 23 11 24
REMARK SMILES IDX 13 25 15 26 14 27 27 28 28 29 29 30 30 31 31 32 32 33 33 34
REMARK SMILES IDX 34 35 35 36 36 37 97 38 37 39 96 40 38 41 39 42 40 43 90 44
REMARK SMILES IDX 41 45 95 46 89 47 91 48 42 49 94 50 88 51 87 52 43 54 75 55
REMARK SMILES IDX 55 56 74 57 56 58 59 59 73 60 92 61 57 62 58 63 72 65 93 66
REMARK SMILES IDX 60 67 44 68 45 69 53 70 46 71 47 72 51 73 54 74 48 75 49 76
REMARK SMILES IDX 52 77 50 78 76 79 77 80 85 81 78 82 79 83 83 84 86 85 80 86
REMARK SMILES IDX 81 87 84 88 82 89 61 90 62 91 70 92 63 93 64 94 68 95 71 96
REMARK SMILES IDX 65 97 66 98 69 99 67 100
REMARK H PARENT 5 16 91 53 59 64
REMARK Flexibility Score: inf
ROOT
ATOM      1  O   UNL A   1      39.758  25.705  28.498  1.00  0.00    -0.377 OA
ENDROOT
BRANCH   1   2
ATOM      2  C   UNL A   1      39.597  25.127  26.972  1.00  0.00     0.188 C 
BRANCH   2   3
ATOM      3  C   UNL A   1      38.401  24.091  26.207  1.00  0.00     0.188 C 
BRANCH   3   4
ATOM      4  O   UNL A   1      38.188  22.697  26.471  1.00  0.00    -0.376 OA
BRANCH   4   5
ATOM      5  C   UNL A   1      38.213  21.669  25.451  1.00  0.00     0.202 C 
BRANCH   5   6
ATOM      6  C   UNL A   1      36.940  21.013  24.831  1.00  0.00     0.261 C 
BRANCH   6   7
ATOM      7  O   UNL A   1      35.777  21.819  24.924  1.00  0.00    -0.462 OA
BRANCH   7   8
ATOM      8  C   UNL A   1      34.588  21.195  25.012  1.00  0.00     0.331 C 
ATOM      9  O   UNL A   1      34.447  20.010  25.282  1.00  0.00    -0.249 OA
BRANCH   8  10
ATOM     10  C   UNL A   1      33.445  22.215  24.760  1.00  0.00     0.135 C 
ATOM     11  C   UNL A   1      32.130  21.368  24.601  1.00  0.00     0.047 C 
BRANCH  10  12
ATOM     12  C   UNL A   1      33.752  22.950  23.418  1.00  0.00     0.037 C 
ATOM     13  C   UNL A   1      32.535  23.243  22.522  1.00  0.00     0.007 C 
ENDBRANCH  10  12
BRANCH  10  14
ATOM     14  N   UNL A   1      33.227  23.237  25.903  1.00  0.00    -0.336 N 
ATOM     15  C   UNL A   1      32.198  24.129  26.277  1.00  0.00     0.252 C 
ATOM     16  H   UNL A   1      33.994  23.275  26.519  1.00  0.00     0.165 HD
ATOM     17  O   UNL A   1      31.591  23.839  27.317  1.00  0.00    -0.269 OA
BRANCH  15  18
ATOM     18  C   UNL A   1      31.814  25.524  25.559  1.00  0.00     0.049 A 
ATOM     19  C   UNL A   1      30.540  25.295  24.975  1.00  0.00     0.014 A 
ATOM     20  C   UNL A   1      32.315  27.036  25.762  1.00  0.00     0.013 A 
ATOM     21  C   UNL A   1      29.813  26.238  24.246  1.00  0.00     0.003 A 
ATOM     22  C   UNL A   1      31.311  28.042  24.718  1.00  0.00     0.071 A 
ATOM     23  C   UNL A   1      33.277  28.088  27.065  1.00  0.00     0.013 A 
ATOM     24  C   UNL A   1      30.280  27.518  23.997  1.00  0.00     0.029 A 
ATOM     25  N   UNL A   1      31.118  29.665  24.859  1.00  0.00    -0.256 NA
ATOM     26  C   UNL A   1      32.869  29.920  27.156  1.00  0.00     0.021 A 
ATOM     27  C   UNL A   1      31.846  30.561  25.994  1.00  0.00     0.112 A 
ENDBRANCH  15  18
ENDBRANCH  10  14
ENDBRANCH   8  10
ENDBRANCH   7   8
ENDBRANCH   6   7
ENDBRANCH   5   6
ENDBRANCH   4   5
ENDBRANCH   3   4
ENDBRANCH   2   3
ENDBRANCH   1   2
BRANCH   1  28
ATOM     28  C   UNL A   1      39.619  27.278  29.176  1.00  0.00     0.188 C 
BRANCH  28  29
ATOM     29  C   UNL A   1      38.325  28.599  28.584  1.00  0.00     0.188 C 
BRANCH  29  30
ATOM     30  O   UNL A   1      38.820  30.551  29.045  1.00  0.00    -0.376 OA
BRANCH  30  31
ATOM     31  C   UNL A   1      37.640  31.951  29.127  1.00  0.00     0.202 C 
BRANCH  31  32
ATOM     32  C   UNL A   1      36.000  31.904  30.027  1.00  0.00     0.261 C 
BRANCH  32  33
ATOM     33  O   UNL A   1      35.753  32.645  31.456  1.00  0.00    -0.460 OA
BRANCH  33  34
ATOM     34  C   UNL A   1      36.229  32.278  32.712  1.00  0.00     0.338 C 
ATOM     35  O   UNL A   1      35.534  32.335  33.720  1.00  0.00    -0.246 OA
BRANCH  34  36
ATOM     36  C   UNL A   1      37.510  31.374  32.717  1.00  0.00     0.060 A 
ATOM     37  C   UNL A   1      38.741  31.956  33.111  1.00  0.00     0.016 A 
ATOM     38  C   UNL A   1      37.598  30.037  32.312  1.00  0.00     0.016 A 
ATOM     39  C   UNL A   1      39.955  31.222  33.256  1.00  0.00     0.010 A 
ATOM     40  C   UNL A   1      38.855  29.321  32.338  1.00  0.00     0.010 A 
ATOM     41  C   UNL A   1      40.056  29.898  32.818  1.00  0.00    -0.014 A 
BRANCH  41  42
ATOM     42  C   UNL A   1      41.447  29.365  32.486  1.00  0.00     0.031 A 
ATOM     43  C   UNL A   1      42.219  30.148  31.434  1.00  0.00     0.074 A 
ATOM     44  C   UNL A   1      42.107  28.347  33.096  1.00  0.00     0.049 A 
ATOM     45  N   UNL A   1      43.427  29.979  30.950  1.00  0.00    -0.248 NA
ATOM     46  C   UNL A   1      41.513  31.309  30.868  1.00  0.00     0.031 C 
ATOM     47  C   UNL A   1      41.612  27.535  34.203  1.00  0.00     0.029 A 
ATOM     48  N   UNL A   1      43.377  27.829  32.866  1.00  0.00    -0.354 N 
ATOM     49  C   UNL A   1      43.613  31.005  30.028  1.00  0.00     0.074 A 
ATOM     50  C   UNL A   1      42.400  31.787  30.015  1.00  0.00     0.031 C 
ATOM     51  C   UNL A   1      42.549  26.625  34.546  1.00  0.00     0.029 A 
ATOM     52  C   UNL A   1      43.717  26.758  33.670  1.00  0.00     0.049 A 
ATOM     53  H   UNL A   1      43.985  28.196  32.185  1.00  0.00     0.167 HD
ATOM     54  C   UNL A   1      44.685  31.288  29.248  1.00  0.00     0.037 A 
ATOM     55  C   UNL A   1      44.822  25.969  33.693  1.00  0.00     0.037 A 
ATOM     56  C   UNL A   1      45.900  30.523  29.213  1.00  0.00     0.049 A 
ATOM     57  C   UNL A   1      45.965  26.225  32.726  1.00  0.00     0.074 A 
ATOM     58  C   UNL A   1      47.024  30.726  28.429  1.00  0.00     0.029 A 
ATOM     59  N   UNL A   1      46.147  29.398  29.981  1.00  0.00    -0.354 N 
ATOM     60  N   UNL A   1      46.117  27.191  31.853  1.00  0.00    -0.248 NA
ATOM     61  C   UNL A   1      47.095  25.275  32.749  1.00  0.00     0.031 C 
ATOM     62  C   UNL A   1      47.924  29.686  28.675  1.00  0.00     0.029 A 
ATOM     63  C   UNL A   1      47.395  28.881  29.670  1.00  0.00     0.049 A 
ATOM     64  H   UNL A   1      45.529  29.023  30.650  1.00  0.00     0.167 HD
ATOM     65  C   UNL A   1      47.363  26.991  31.262  1.00  0.00     0.074 A 
ATOM     66  C   UNL A   1      47.935  25.818  31.880  1.00  0.00     0.031 C 
ATOM     67  C   UNL A   1      47.978  27.722  30.298  1.00  0.00     0.037 A 
BRANCH  54  68
ATOM     68  C   UNL A   1      44.549  32.447  28.300  1.00  0.00     0.064 A 
ATOM     69  C   UNL A   1      44.780  33.772  28.703  1.00  0.00     0.173 A 
ATOM     70  C   UNL A   1      44.162  32.225  26.969  1.00  0.00     0.173 A 
ATOM     71  F   UNL A   1      45.124  34.043  29.971  1.00  0.00    -0.203 F 
ATOM     72  C   UNL A   1      44.589  34.832  27.819  1.00  0.00     0.198 A 
ATOM     73  C   UNL A   1      44.010  33.284  26.079  1.00  0.00     0.198 A 
ATOM     74  F   UNL A   1      43.928  30.979  26.532  1.00  0.00    -0.203 F 
ATOM     75  F   UNL A   1      44.745  36.093  28.245  1.00  0.00    -0.200 F 
ATOM     76  C   UNL A   1      44.211  34.586  26.507  1.00  0.00     0.200 A 
ATOM     77  F   UNL A   1      43.657  33.043  24.809  1.00  0.00    -0.200 F 
ATOM     78  F   UNL A   1      44.028  35.607  25.658  1.00  0.00    -0.200 F 
ENDBRANCH  54  68
BRANCH  55  79
ATOM     79  C   UNL A   1      44.929  24.811  34.644  1.00  0.00     0.064 A 
ATOM     80  C   UNL A   1      45.462  24.962  35.936  1.00  0.00     0.173 A 
ATOM     81  C   UNL A   1      44.594  23.508  34.242  1.00  0.00     0.173 A 
ATOM     82  F   UNL A   1      45.860  26.171  36.360  1.00  0.00    -0.203 F 
ATOM     83  C   UNL A   1      45.660  23.864  36.779  1.00  0.00     0.198 A 
ATOM     84  C   UNL A   1      44.761  22.416  35.097  1.00  0.00     0.198 A 
ATOM     85  F   UNL A   1      44.119  23.289  33.008  1.00  0.00    -0.203 F 
ATOM     86  F   UNL A   1      46.228  24.035  37.980  1.00  0.00    -0.200 F 
ATOM     87  C   UNL A   1      45.301  22.593  36.362  1.00  0.00     0.200 A 
ATOM     88  F   UNL A   1      44.417  21.187  34.687  1.00  0.00    -0.200 F 
ATOM     89  F   UNL A   1      45.492  21.538  37.166  1.00  0.00    -0.200 F 
ENDBRANCH  55  79
BRANCH  67  90
ATOM     90  C   UNL A   1      49.372  27.328  29.887  1.00  0.00     0.064 A 
ATOM     91  C   UNL A   1      50.512  27.830  30.531  1.00  0.00     0.173 A 
ATOM     92  C   UNL A   1      49.565  26.393  28.855  1.00  0.00     0.173 A 
ATOM     93  F   UNL A   1      50.390  28.727  31.520  1.00  0.00    -0.203 F 
ATOM     94  C   UNL A   1      51.792  27.443  30.133  1.00  0.00     0.198 A 
ATOM     95  C   UNL A   1      50.843  25.980  28.486  1.00  0.00     0.198 A 
ATOM     96  F   UNL A   1      48.511  25.867  28.214  1.00  0.00    -0.203 F 
ATOM     97  F   UNL A   1      52.867  27.980  30.725  1.00  0.00    -0.200 F 
ATOM     98  C   UNL A   1      51.955  26.514  29.116  1.00  0.00     0.200 A 
ATOM     99  F   UNL A   1      50.996  25.066  27.517  1.00  0.00    -0.200 F 
ATOM    100  F   UNL A   1      53.186  26.139  28.739  1.00  0.00    -0.200 F 
ENDBRANCH  67  90
ENDBRANCH  41  42
ENDBRANCH  34  36
ENDBRANCH  33  34
ENDBRANCH  32  33
ENDBRANCH  31  32
ENDBRANCH  30  31
ENDBRANCH  29  30
ENDBRANCH  28  29
ENDBRANCH   1  28
TORSDOF 23
ENDMDL
