MODEL 1
REMARK VINA RESULT:     -11.0      0.000      0.000
REMARK SMILES COc1cc2c(CC(=O)OCCOCCOCCOCCOC(=O)c3ccc(-c4c5nc(c(-c6c(F)c(F)c(F)c(F)c6F)c6ccc([nH]6)c(-c6c(F)c(F)c(F)c(F)c6F)c6nc(c(-c7c(F)c(F)c(F)c(F)c7F)c7ccc4[nH]7)C=C6)C=C5)cc3)c(C)n(C(=O)c3ccc(Cl)cc3)c2cc1Cl
REMARK SMILES IDX 15 1 14 2 13 3 12 4 11 5 10 6 8 7 9 8 7 9 6 10 3 11 4 12
REMARK SMILES IDX 102 13 5 14 101 15 103 16 100 17 88 18 90 19 89 20 2 21 1 22
REMARK SMILES IDX 91 23 92 24 93 25 94 26 99 27 95 28 98 29 96 30 97 31 16 32
REMARK SMILES IDX 17 33 18 34 19 35 20 36 21 37 22 38 23 39 24 40 25 41 26 42
REMARK SMILES IDX 87 43 27 44 86 45 28 46 29 47 30 48 80 49 31 50 85 51 79 52
REMARK SMILES IDX 81 53 32 54 84 55 78 56 77 57 33 59 65 60 45 61 64 62 46 63
REMARK SMILES IDX 49 64 63 65 82 66 47 67 48 68 62 70 83 71 50 72 34 73 35 74
REMARK SMILES IDX 43 75 36 76 37 77 41 78 44 79 38 80 39 81 42 82 40 83 66 84
REMARK SMILES IDX 67 85 75 86 68 87 69 88 73 89 76 90 70 91 71 92 74 93 72 94
REMARK SMILES IDX 51 95 52 96 60 97 53 98 54 99 58 100 61 101 55 102 56 103
REMARK SMILES IDX 59 104 57 105
REMARK H PARENT 81 58 49 69
REMARK Flexibility Score: inf
ROOT
ATOM      1  C   UNL A   1      38.038  21.542  25.758  1.00  0.00     0.188 C 
ENDROOT
BRANCH   1   2
ATOM      2  C   UNL A   1      37.427  22.180  24.516  1.00  0.00     0.188 C 
BRANCH   2   3
ATOM      3  O   UNL A   1      36.177  22.803  24.745  1.00  0.00    -0.376 OA
BRANCH   3   4
ATOM      4  C   UNL A   1      36.032  23.626  25.890  1.00  0.00     0.202 C 
BRANCH   4   5
ATOM      5  C   UNL A   1      34.872  23.379  26.879  1.00  0.00     0.261 C 
BRANCH   5   6
ATOM      6  O   UNL A   1      33.556  23.129  26.342  1.00  0.00    -0.463 OA
BRANCH   6   7
ATOM      7  C   UNL A   1      32.495  23.231  27.177  1.00  0.00     0.310 C 
ATOM      8  O   UNL A   1      32.424  22.611  28.235  1.00  0.00    -0.252 OA
BRANCH   7   9
ATOM      9  C   UNL A   1      31.405  24.224  26.761  1.00  0.00     0.160 C 
BRANCH   9  10
ATOM     10  C   UNL A   1      31.658  25.271  25.683  1.00  0.00    -0.008 A 
ATOM     11  C   UNL A   1      32.461  23.847  22.176  1.00  0.00     0.138 A 
ATOM     12  C   UNL A   1      32.296  23.836  23.578  1.00  0.00     0.058 A 
ATOM     13  C   UNL A   1      32.543  25.076  21.536  1.00  0.00     0.085 A 
ATOM     14  C   UNL A   1      32.055  25.020  24.326  1.00  0.00     0.008 A 
ATOM     15  C   UNL A   1      32.416  26.262  22.275  1.00  0.00     0.051 A 
ATOM     16  Cl  UNL A   1      32.846  25.306  19.846  1.00  0.00    -0.080 Cl
ATOM     17  C   UNL A   1      32.140  26.243  23.661  1.00  0.00     0.058 A 
ATOM     18  C   UNL A   1      31.662  26.655  25.839  1.00  0.00     0.028 A 
ATOM     19  N   UNL A   1      31.925  27.269  24.598  1.00  0.00    -0.280 N 
ATOM     20  C   UNL A   1      31.419  27.400  27.115  1.00  0.00     0.065 C 
BRANCH  11  21
ATOM     21  O   UNL A   1      32.509  22.585  21.648  1.00  0.00    -0.495 OA
ATOM     22  C   UNL A   1      32.372  21.459  22.505  1.00  0.00     0.278 C 
ENDBRANCH  11  21
BRANCH  19  23
ATOM     23  C   UNL A   1      31.976  28.675  24.328  1.00  0.00     0.262 C 
ATOM     24  O   UNL A   1      32.996  29.307  24.593  1.00  0.00    -0.268 OA
BRANCH  23  25
ATOM     25  C   UNL A   1      30.876  29.465  23.743  1.00  0.00     0.040 A 
ATOM     26  C   UNL A   1      30.455  29.196  22.435  1.00  0.00     0.015 A 
ATOM     27  C   UNL A   1      30.303  30.509  24.480  1.00  0.00     0.015 A 
ATOM     28  C   UNL A   1      29.499  30.022  21.838  1.00  0.00     0.021 A 
ATOM     29  C   UNL A   1      29.342  31.327  23.877  1.00  0.00     0.021 A 
ATOM     30  C   UNL A   1      28.956  31.090  22.556  1.00  0.00     0.041 A 
ATOM     31  Cl  UNL A   1      27.817  32.134  21.800  1.00  0.00    -0.084 Cl
ENDBRANCH  23  25
ENDBRANCH  19  23
ENDBRANCH   9  10
ENDBRANCH   7   9
ENDBRANCH   6   7
ENDBRANCH   5   6
ENDBRANCH   4   5
ENDBRANCH   3   4
ENDBRANCH   2   3
ENDBRANCH   1   2
BRANCH   1  32
ATOM     32  O   UNL A   1      39.159  22.053  26.436  1.00  0.00    -0.377 OA
BRANCH  32  33
ATOM     33  C   UNL A   1      40.432  21.610  26.056  1.00  0.00     0.188 C 
BRANCH  33  34
ATOM     34  C   UNL A   1      41.355  21.216  27.214  1.00  0.00     0.188 C 
BRANCH  34  35
ATOM     35  O   UNL A   1      42.289  20.144  27.112  1.00  0.00    -0.376 OA
BRANCH  35  36
ATOM     36  C   UNL A   1      42.315  19.299  25.973  1.00  0.00     0.202 C 
BRANCH  36  37
ATOM     37  C   UNL A   1      43.665  18.862  25.371  1.00  0.00     0.261 C 
BRANCH  37  38
ATOM     38  O   UNL A   1      44.673  19.872  25.400  1.00  0.00    -0.460 OA
BRANCH  38  39
ATOM     39  C   UNL A   1      44.738  20.739  24.354  1.00  0.00     0.338 C 
ATOM     40  O   UNL A   1      44.570  20.513  23.182  1.00  0.00    -0.246 OA
BRANCH  39  41
ATOM     41  C   UNL A   1      44.723  22.081  24.981  1.00  0.00     0.060 A 
ATOM     42  C   UNL A   1      45.447  22.330  26.151  1.00  0.00     0.016 A 
ATOM     43  C   UNL A   1      43.688  22.934  24.576  1.00  0.00     0.016 A 
ATOM     44  C   UNL A   1      45.013  23.346  26.999  1.00  0.00     0.010 A 
ATOM     45  C   UNL A   1      43.247  23.938  25.436  1.00  0.00     0.010 A 
ATOM     46  C   UNL A   1      43.876  24.112  26.671  1.00  0.00    -0.014 A 
BRANCH  46  47
ATOM     47  C   UNL A   1      43.592  25.287  27.506  1.00  0.00     0.031 A 
ATOM     48  C   UNL A   1      44.655  26.314  27.350  1.00  0.00     0.074 A 
ATOM     49  C   UNL A   1      42.466  25.576  28.194  1.00  0.00     0.049 A 
ATOM     50  N   UNL A   1      45.384  26.865  28.265  1.00  0.00    -0.248 NA
ATOM     51  C   UNL A   1      45.031  26.670  25.968  1.00  0.00     0.031 C 
ATOM     52  C   UNL A   1      41.207  24.834  28.179  1.00  0.00     0.029 A 
ATOM     53  N   UNL A   1      42.171  26.675  28.970  1.00  0.00    -0.354 N 
ATOM     54  C   UNL A   1      46.202  27.756  27.578  1.00  0.00     0.074 A 
ATOM     55  C   UNL A   1      46.064  27.481  26.174  1.00  0.00     0.031 C 
ATOM     56  C   UNL A   1      40.234  25.600  28.725  1.00  0.00     0.029 A 
ATOM     57  C   UNL A   1      40.813  26.841  29.219  1.00  0.00     0.049 A 
ATOM     58  H   UNL A   1      42.859  27.288  29.317  1.00  0.00     0.167 HD
ATOM     59  C   UNL A   1      46.720  28.855  28.178  1.00  0.00     0.037 A 
ATOM     60  C   UNL A   1      40.191  27.939  29.722  1.00  0.00     0.037 A 
ATOM     61  C   UNL A   1      46.681  28.789  29.607  1.00  0.00     0.049 A 
ATOM     62  C   UNL A   1      41.182  28.771  30.447  1.00  0.00     0.074 A 
ATOM     63  C   UNL A   1      47.468  28.270  30.608  1.00  0.00     0.029 A 
ATOM     64  N   UNL A   1      45.467  29.087  30.152  1.00  0.00    -0.354 N 
ATOM     65  N   UNL A   1      41.750  28.431  31.568  1.00  0.00    -0.248 NA
ATOM     66  C   UNL A   1      41.741  29.956  29.796  1.00  0.00     0.031 C 
ATOM     67  C   UNL A   1      46.644  28.185  31.771  1.00  0.00     0.029 A 
ATOM     68  C   UNL A   1      45.375  28.650  31.447  1.00  0.00     0.049 A 
ATOM     69  H   UNL A   1      44.746  29.560  29.676  1.00  0.00     0.167 HD
ATOM     70  C   UNL A   1      42.960  29.090  31.548  1.00  0.00     0.074 A 
ATOM     71  C   UNL A   1      42.826  30.138  30.551  1.00  0.00     0.031 C 
ATOM     72  C   UNL A   1      44.077  28.510  32.062  1.00  0.00     0.037 A 
BRANCH  59  73
ATOM     73  C   UNL A   1      46.831  30.163  27.452  1.00  0.00     0.064 A 
ATOM     74  C   UNL A   1      48.057  30.836  27.384  1.00  0.00     0.173 A 
ATOM     75  C   UNL A   1      45.691  30.899  27.050  1.00  0.00     0.173 A 
ATOM     76  F   UNL A   1      49.181  30.244  27.814  1.00  0.00    -0.203 F 
ATOM     77  C   UNL A   1      48.138  32.156  26.929  1.00  0.00     0.198 A 
ATOM     78  C   UNL A   1      45.781  32.188  26.540  1.00  0.00     0.198 A 
ATOM     79  F   UNL A   1      44.450  30.425  27.237  1.00  0.00    -0.203 F 
ATOM     80  F   UNL A   1      49.313  32.797  26.955  1.00  0.00    -0.200 F 
ATOM     81  C   UNL A   1      47.004  32.825  26.495  1.00  0.00     0.200 A 
ATOM     82  F   UNL A   1      44.666  32.828  26.159  1.00  0.00    -0.200 F 
ATOM     83  F   UNL A   1      47.079  34.096  26.082  1.00  0.00    -0.200 F 
ENDBRANCH  59  73
BRANCH  60  84
ATOM     84  C   UNL A   1      38.811  28.445  29.476  1.00  0.00     0.064 A 
ATOM     85  C   UNL A   1      37.931  28.701  30.545  1.00  0.00     0.173 A 
ATOM     86  C   UNL A   1      38.420  28.949  28.222  1.00  0.00     0.173 A 
ATOM     87  F   UNL A   1      38.231  28.292  31.786  1.00  0.00    -0.203 F 
ATOM     88  C   UNL A   1      36.761  29.451  30.376  1.00  0.00     0.198 A 
ATOM     89  C   UNL A   1      37.242  29.680  28.051  1.00  0.00     0.198 A 
ATOM     90  F   UNL A   1      39.217  28.830  27.151  1.00  0.00    -0.203 F 
ATOM     91  F   UNL A   1      35.994  29.741  31.438  1.00  0.00    -0.200 F 
ATOM     92  C   UNL A   1      36.424  29.949  29.131  1.00  0.00     0.200 A 
ATOM     93  F   UNL A   1      36.943  30.179  26.844  1.00  0.00    -0.200 F 
ATOM     94  F   UNL A   1      35.339  30.720  28.979  1.00  0.00    -0.200 F 
ENDBRANCH  60  84
BRANCH  72  95
ATOM     95  C   UNL A   1      43.901  27.536  33.178  1.00  0.00     0.064 A 
ATOM     96  C   UNL A   1      43.644  27.895  34.509  1.00  0.00     0.173 A 
ATOM     97  C   UNL A   1      43.941  26.170  32.863  1.00  0.00     0.173 A 
ATOM     98  F   UNL A   1      43.520  29.181  34.866  1.00  0.00    -0.203 F 
ATOM     99  C   UNL A   1      43.470  26.920  35.488  1.00  0.00     0.198 A 
ATOM    100  C   UNL A   1      43.732  25.201  33.836  1.00  0.00     0.198 A 
ATOM    101  F   UNL A   1      44.151  25.777  31.597  1.00  0.00    -0.203 F 
ATOM    102  F   UNL A   1      43.241  27.282  36.759  1.00  0.00    -0.200 F 
ATOM    103  C   UNL A   1      43.506  25.575  35.151  1.00  0.00     0.200 A 
ATOM    104  F   UNL A   1      43.729  23.904  33.496  1.00  0.00    -0.200 F 
ATOM    105  F   UNL A   1      43.303  24.639  36.088  1.00  0.00    -0.200 F 
ENDBRANCH  72  95
ENDBRANCH  46  47
ENDBRANCH  39  41
ENDBRANCH  38  39
ENDBRANCH  37  38
ENDBRANCH  36  37
ENDBRANCH  35  36
ENDBRANCH  34  35
ENDBRANCH  33  34
ENDBRANCH  32  33
ENDBRANCH   1  32
TORSDOF 24
ENDMDL
MODEL 2
REMARK VINA RESULT:     -10.4      1.581      2.360
REMARK SMILES COc1cc2c(CC(=O)OCCOCCOCCOCCOC(=O)c3ccc(-c4c5nc(c(-c6c(F)c(F)c(F)c(F)c6F)c6ccc([nH]6)c(-c6c(F)c(F)c(F)c(F)c6F)c6nc(c(-c7c(F)c(F)c(F)c(F)c7F)c7ccc4[nH]7)C=C6)C=C5)cc3)c(C)n(C(=O)c3ccc(Cl)cc3)c2cc1Cl
REMARK SMILES IDX 15 1 14 2 13 3 12 4 11 5 10 6 8 7 9 8 7 9 6 10 3 11 4 12
REMARK SMILES IDX 102 13 5 14 101 15 103 16 100 17 88 18 90 19 89 20 2 21 1 22
REMARK SMILES IDX 91 23 92 24 93 25 94 26 99 27 95 28 98 29 96 30 97 31 16 32
REMARK SMILES IDX 17 33 18 34 19 35 20 36 21 37 22 38 23 39 24 40 25 41 26 42
REMARK SMILES IDX 87 43 27 44 86 45 28 46 29 47 30 48 80 49 31 50 85 51 79 52
REMARK SMILES IDX 81 53 32 54 84 55 78 56 77 57 33 59 65 60 45 61 64 62 46 63
REMARK SMILES IDX 49 64 63 65 82 66 47 67 48 68 62 70 83 71 50 72 34 73 35 74
REMARK SMILES IDX 43 75 36 76 37 77 41 78 44 79 38 80 39 81 42 82 40 83 66 84
REMARK SMILES IDX 67 85 75 86 68 87 69 88 73 89 76 90 70 91 71 92 74 93 72 94
REMARK SMILES IDX 51 95 52 96 60 97 53 98 54 99 58 100 61 101 55 102 56 103
REMARK SMILES IDX 59 104 57 105
REMARK H PARENT 81 58 49 69
REMARK Flexibility Score: inf
ROOT
ATOM      1  C   UNL A   1      40.037  22.205  26.761  1.00  0.00     0.188 C 
ENDROOT
BRANCH   1   2
ATOM      2  C   UNL A   1      39.189  21.428  25.762  1.00  0.00     0.188 C 
BRANCH   2   3
ATOM      3  O   UNL A   1      37.831  21.826  25.727  1.00  0.00    -0.376 OA
BRANCH   3   4
ATOM      4  C   UNL A   1      37.030  21.404  24.637  1.00  0.00     0.202 C 
BRANCH   4   5
ATOM      5  C   UNL A   1      35.689  22.110  24.343  1.00  0.00     0.261 C 
BRANCH   5   6
ATOM      6  O   UNL A   1      35.709  23.521  24.041  1.00  0.00    -0.463 OA
BRANCH   6   7
ATOM      7  C   UNL A   1      34.828  23.993  23.129  1.00  0.00     0.310 C 
ATOM      8  O   UNL A   1      34.514  23.360  22.123  1.00  0.00    -0.252 OA
BRANCH   7   9
ATOM      9  C   UNL A   1      34.180  25.342  23.453  1.00  0.00     0.160 C 
BRANCH   9  10
ATOM     10  C   UNL A   1      32.712  25.441  23.851  1.00  0.00    -0.008 A 
ATOM     11  C   UNL A   1      31.605  22.992  26.635  1.00  0.00     0.138 A 
ATOM     12  C   UNL A   1      32.430  23.517  25.617  1.00  0.00     0.058 A 
ATOM     13  C   UNL A   1      30.299  23.452  26.722  1.00  0.00     0.085 A 
ATOM     14  C   UNL A   1      32.025  24.600  24.791  1.00  0.00     0.008 A 
ATOM     15  C   UNL A   1      29.845  24.447  25.842  1.00  0.00     0.051 A 
ATOM     16  Cl  UNL A   1      29.102  22.865  27.827  1.00  0.00    -0.080 Cl
ATOM     17  C   UNL A   1      30.708  25.048  24.897  1.00  0.00     0.058 A 
ATOM     18  C   UNL A   1      31.746  26.280  23.302  1.00  0.00     0.028 A 
ATOM     19  N   UNL A   1      30.515  26.074  23.956  1.00  0.00    -0.280 N 
ATOM     20  C   UNL A   1      31.958  27.264  22.194  1.00  0.00     0.065 C 
BRANCH  11  21
ATOM     21  O   UNL A   1      32.259  22.076  27.414  1.00  0.00    -0.495 OA
ATOM     22  C   UNL A   1      33.678  22.118  27.507  1.00  0.00     0.278 C 
ENDBRANCH  11  21
BRANCH  19  23
ATOM     23  C   UNL A   1      29.285  26.767  23.713  1.00  0.00     0.262 C 
ATOM     24  O   UNL A   1      28.232  26.135  23.662  1.00  0.00    -0.268 OA
BRANCH  23  25
ATOM     25  C   UNL A   1      29.159  28.222  23.506  1.00  0.00     0.040 A 
ATOM     26  C   UNL A   1      30.158  29.075  23.990  1.00  0.00     0.015 A 
ATOM     27  C   UNL A   1      28.019  28.737  22.877  1.00  0.00     0.015 A 
ATOM     28  C   UNL A   1      29.980  30.459  23.902  1.00  0.00     0.021 A 
ATOM     29  C   UNL A   1      27.852  30.123  22.787  1.00  0.00     0.021 A 
ATOM     30  C   UNL A   1      28.825  30.976  23.313  1.00  0.00     0.041 A 
ATOM     31  Cl  UNL A   1      28.588  32.679  23.252  1.00  0.00    -0.084 Cl
ENDBRANCH  23  25
ENDBRANCH  19  23
ENDBRANCH   9  10
ENDBRANCH   7   9
ENDBRANCH   6   7
ENDBRANCH   5   6
ENDBRANCH   4   5
ENDBRANCH   3   4
ENDBRANCH   2   3
ENDBRANCH   1   2
BRANCH   1  32
ATOM     32  O   UNL A   1      40.800  21.606  27.780  1.00  0.00    -0.377 OA
BRANCH  32  33
ATOM     33  C   UNL A   1      42.036  21.039  27.446  1.00  0.00     0.188 C 
BRANCH  33  34
ATOM     34  C   UNL A   1      41.972  19.592  26.945  1.00  0.00     0.188 C 
BRANCH  34  35
ATOM     35  O   UNL A   1      42.405  19.218  25.640  1.00  0.00    -0.376 OA
BRANCH  35  36
ATOM     36  C   UNL A   1      43.696  18.671  25.424  1.00  0.00     0.202 C 
BRANCH  36  37
ATOM     37  C   UNL A   1      44.587  19.227  24.296  1.00  0.00     0.261 C 
BRANCH  37  38
ATOM     38  O   UNL A   1      44.414  20.622  24.048  1.00  0.00    -0.460 OA
BRANCH  38  39
ATOM     39  C   UNL A   1      45.403  21.468  24.443  1.00  0.00     0.338 C 
ATOM     40  O   UNL A   1      46.500  21.614  23.965  1.00  0.00    -0.246 OA
BRANCH  39  41
ATOM     41  C   UNL A   1      44.736  22.412  25.370  1.00  0.00     0.060 A 
ATOM     42  C   UNL A   1      43.749  23.289  24.909  1.00  0.00     0.016 A 
ATOM     43  C   UNL A   1      45.392  22.638  26.589  1.00  0.00     0.016 A 
ATOM     44  C   UNL A   1      43.544  24.482  25.597  1.00  0.00     0.010 A 
ATOM     45  C   UNL A   1      45.194  23.840  27.264  1.00  0.00     0.010 A 
ATOM     46  C   UNL A   1      44.308  24.786  26.742  1.00  0.00    -0.014 A 
BRANCH  46  47
ATOM     47  C   UNL A   1      43.907  25.961  27.526  1.00  0.00     0.031 A 
ATOM     48  C   UNL A   1      44.847  27.091  27.303  1.00  0.00     0.074 A 
ATOM     49  C   UNL A   1      42.766  26.158  28.221  1.00  0.00     0.049 A 
ATOM     50  N   UNL A   1      45.522  27.763  28.177  1.00  0.00    -0.248 NA
ATOM     51  C   UNL A   1      45.162  27.419  25.899  1.00  0.00     0.031 C 
ATOM     52  C   UNL A   1      41.596  25.281  28.265  1.00  0.00     0.029 A 
ATOM     53  N   UNL A   1      42.360  27.253  28.951  1.00  0.00    -0.354 N 
ATOM     54  C   UNL A   1      46.227  28.704  27.434  1.00  0.00     0.074 A 
ATOM     55  C   UNL A   1      46.101  28.348  26.047  1.00  0.00     0.031 C 
ATOM     56  C   UNL A   1      40.552  25.960  28.793  1.00  0.00     0.029 A 
ATOM     57  C   UNL A   1      40.996  27.280  29.218  1.00  0.00     0.049 A 
ATOM     58  H   UNL A   1      42.981  27.954  29.256  1.00  0.00     0.167 HD
ATOM     59  C   UNL A   1      46.628  29.881  27.972  1.00  0.00     0.037 A 
ATOM     60  C   UNL A   1      40.262  28.326  29.681  1.00  0.00     0.037 A 
ATOM     61  C   UNL A   1      46.616  29.881  29.403  1.00  0.00     0.049 A 
ATOM     62  C   UNL A   1      41.165  29.296  30.347  1.00  0.00     0.074 A 
ATOM     63  C   UNL A   1      47.469  29.501  30.413  1.00  0.00     0.029 A 
ATOM     64  N   UNL A   1      45.383  30.069  29.957  1.00  0.00    -0.354 N 
ATOM     65  N   UNL A   1      41.782  29.075  31.473  1.00  0.00    -0.248 NA
ATOM     66  C   UNL A   1      41.580  30.503  29.632  1.00  0.00     0.031 C 
ATOM     67  C   UNL A   1      46.676  29.381  31.593  1.00  0.00     0.029 A 
ATOM     68  C   UNL A   1      45.359  29.687  31.272  1.00  0.00     0.049 A 
ATOM     69  H   UNL A   1      44.609  30.435  29.473  1.00  0.00     0.167 HD
ATOM     70  C   UNL A   1      42.911  29.862  31.398  1.00  0.00     0.074 A 
ATOM     71  C   UNL A   1      42.648  30.840  30.356  1.00  0.00     0.031 C 
ATOM     72  C   UNL A   1      44.093  29.435  31.918  1.00  0.00     0.037 A 
BRANCH  59  73
ATOM     73  C   UNL A   1      46.582  31.157  27.185  1.00  0.00     0.064 A 
ATOM     74  C   UNL A   1      47.725  31.957  27.061  1.00  0.00     0.173 A 
ATOM     75  C   UNL A   1      45.362  31.742  26.771  1.00  0.00     0.173 A 
ATOM     76  F   UNL A   1      48.914  31.514  27.496  1.00  0.00    -0.203 F 
ATOM     77  C   UNL A   1      47.652  33.254  26.544  1.00  0.00     0.198 A 
ATOM     78  C   UNL A   1      45.301  33.008  26.200  1.00  0.00     0.198 A 
ATOM     79  F   UNL A   1      44.184  31.144  27.004  1.00  0.00    -0.203 F 
ATOM     80  F   UNL A   1      48.749  34.022  26.517  1.00  0.00    -0.200 F 
ATOM     81  C   UNL A   1      46.445  33.772  26.102  1.00  0.00     0.200 A 
ATOM     82  F   UNL A   1      44.117  33.502  25.811  1.00  0.00    -0.200 F 
ATOM     83  F   UNL A   1      46.373  35.023  25.628  1.00  0.00    -0.200 F 
ENDBRANCH  59  73
BRANCH  60  84
ATOM     84  C   UNL A   1      38.832  28.664  29.438  1.00  0.00     0.064 A 
ATOM     85  C   UNL A   1      37.939  28.855  30.511  1.00  0.00     0.173 A 
ATOM     86  C   UNL A   1      38.373  29.077  28.174  1.00  0.00     0.173 A 
ATOM     87  F   UNL A   1      38.297  28.525  31.760  1.00  0.00    -0.203 F 
ATOM     88  C   UNL A   1      36.691  29.462  30.334  1.00  0.00     0.198 A 
ATOM     89  C   UNL A   1      37.119  29.664  27.995  1.00  0.00     0.198 A 
ATOM     90  F   UNL A   1      39.167  29.012  27.096  1.00  0.00    -0.203 F 
ATOM     91  F   UNL A   1      35.906  29.700  31.396  1.00  0.00    -0.200 F 
ATOM     92  C   UNL A   1      36.286  29.875  29.077  1.00  0.00     0.200 A 
ATOM     93  F   UNL A   1      36.752  30.084  26.777  1.00  0.00    -0.200 F 
ATOM     94  F   UNL A   1      35.119  30.513  28.915  1.00  0.00    -0.200 F 
ENDBRANCH  60  84
BRANCH  72  95
ATOM     95  C   UNL A   1      44.042  28.502  33.081  1.00  0.00     0.064 A 
ATOM     96  C   UNL A   1      43.949  28.911  34.419  1.00  0.00     0.173 A 
ATOM     97  C   UNL A   1      44.030  27.126  32.813  1.00  0.00     0.173 A 
ATOM     98  F   UNL A   1      43.881  30.210  34.743  1.00  0.00    -0.203 F 
ATOM     99  C   UNL A   1      43.883  27.973  35.446  1.00  0.00     0.198 A 
ATOM    100  C   UNL A   1      43.929  26.194  33.838  1.00  0.00     0.198 A 
ATOM    101  F   UNL A   1      44.084  26.686  31.545  1.00  0.00    -0.203 F 
ATOM    102  F   UNL A   1      43.812  28.381  36.722  1.00  0.00    -0.200 F 
ATOM    103  C   UNL A   1      43.866  26.616  35.156  1.00  0.00     0.200 A 
ATOM    104  F   UNL A   1      43.873  24.886  33.548  1.00  0.00    -0.200 F 
ATOM    105  F   UNL A   1      43.767  25.716  36.143  1.00  0.00    -0.200 F 
ENDBRANCH  72  95
ENDBRANCH  46  47
ENDBRANCH  39  41
ENDBRANCH  38  39
ENDBRANCH  37  38
ENDBRANCH  36  37
ENDBRANCH  35  36
ENDBRANCH  34  35
ENDBRANCH  33  34
ENDBRANCH  32  33
ENDBRANCH   1  32
TORSDOF 24
ENDMDL
MODEL 3
REMARK VINA RESULT:     -10.3      2.292      3.524
REMARK SMILES COc1cc2c(CC(=O)OCCOCCOCCOCCOC(=O)c3ccc(-c4c5nc(c(-c6c(F)c(F)c(F)c(F)c6F)c6ccc([nH]6)c(-c6c(F)c(F)c(F)c(F)c6F)c6nc(c(-c7c(F)c(F)c(F)c(F)c7F)c7ccc4[nH]7)C=C6)C=C5)cc3)c(C)n(C(=O)c3ccc(Cl)cc3)c2cc1Cl
REMARK SMILES IDX 15 1 14 2 13 3 12 4 11 5 10 6 8 7 9 8 7 9 6 10 3 11 4 12
REMARK SMILES IDX 102 13 5 14 101 15 103 16 100 17 88 18 90 19 89 20 2 21 1 22
REMARK SMILES IDX 91 23 92 24 93 25 94 26 99 27 95 28 98 29 96 30 97 31 16 32
REMARK SMILES IDX 17 33 18 34 19 35 20 36 21 37 22 38 23 39 24 40 25 41 26 42
REMARK SMILES IDX 87 43 27 44 86 45 28 46 29 47 30 48 80 49 31 50 85 51 79 52
REMARK SMILES IDX 81 53 32 54 84 55 78 56 77 57 33 59 65 60 45 61 64 62 46 63
REMARK SMILES IDX 49 64 63 65 82 66 47 67 48 68 62 70 83 71 50 72 34 73 35 74
REMARK SMILES IDX 43 75 36 76 37 77 41 78 44 79 38 80 39 81 42 82 40 83 66 84
REMARK SMILES IDX 67 85 75 86 68 87 69 88 73 89 76 90 70 91 71 92 74 93 72 94
REMARK SMILES IDX 51 95 52 96 60 97 53 98 54 99 58 100 61 101 55 102 56 103
REMARK SMILES IDX 59 104 57 105
REMARK H PARENT 81 58 49 69
REMARK Flexibility Score: inf
ROOT
ATOM      1  C   UNL A   1      40.221  21.306  26.530  1.00  0.00     0.188 C 
ENDROOT
BRANCH   1   2
ATOM      2  C   UNL A   1      39.115  20.726  25.658  1.00  0.00     0.188 C 
BRANCH   2   3
ATOM      3  O   UNL A   1      38.002  21.584  25.492  1.00  0.00    -0.376 OA
BRANCH   3   4
ATOM      4  C   UNL A   1      36.749  21.011  25.159  1.00  0.00     0.202 C 
BRANCH   4   5
ATOM      5  C   UNL A   1      35.446  21.621  25.719  1.00  0.00     0.261 C 
BRANCH   5   6
ATOM      6  O   UNL A   1      35.251  23.047  25.602  1.00  0.00    -0.463 OA
BRANCH   6   7
ATOM      7  C   UNL A   1      34.002  23.502  25.344  1.00  0.00     0.310 C 
ATOM      8  O   UNL A   1      33.010  23.087  25.939  1.00  0.00    -0.252 OA
BRANCH   7   9
ATOM      9  C   UNL A   1      33.896  24.623  24.306  1.00  0.00     0.160 C 
BRANCH   9  10
ATOM     10  C   UNL A   1      32.825  25.703  24.415  1.00  0.00    -0.008 A 
ATOM     11  C   UNL A   1      33.894  28.878  26.351  1.00  0.00     0.138 A 
ATOM     12  C   UNL A   1      33.960  27.538  25.913  1.00  0.00     0.058 A 
ATOM     13  C   UNL A   1      32.711  29.575  26.151  1.00  0.00     0.085 A 
ATOM     14  C   UNL A   1      32.928  26.936  25.144  1.00  0.00     0.008 A 
ATOM     15  C   UNL A   1      31.638  28.961  25.488  1.00  0.00     0.051 A 
ATOM     16  Cl  UNL A   1      32.393  31.186  26.703  1.00  0.00    -0.080 Cl
ATOM     17  C   UNL A   1      31.748  27.656  24.954  1.00  0.00     0.058 A 
ATOM     18  C   UNL A   1      31.522  25.647  23.928  1.00  0.00     0.028 A 
ATOM     19  N   UNL A   1      30.855  26.853  24.223  1.00  0.00    -0.280 N 
ATOM     20  C   UNL A   1      30.902  24.499  23.194  1.00  0.00     0.065 C 
BRANCH  11  21
ATOM     21  O   UNL A   1      35.066  29.297  26.922  1.00  0.00    -0.495 OA
ATOM     22  C   UNL A   1      35.208  29.269  28.337  1.00  0.00     0.278 C 
ENDBRANCH  11  21
BRANCH  19  23
ATOM     23  C   UNL A   1      29.516  27.207  23.859  1.00  0.00     0.262 C 
ATOM     24  O   UNL A   1      28.584  26.478  24.194  1.00  0.00    -0.268 OA
BRANCH  23  25
ATOM     25  C   UNL A   1      29.135  28.407  23.090  1.00  0.00     0.040 A 
ATOM     26  C   UNL A   1      27.805  28.842  23.108  1.00  0.00     0.015 A 
ATOM     27  C   UNL A   1      30.094  29.064  22.310  1.00  0.00     0.015 A 
ATOM     28  C   UNL A   1      27.419  29.905  22.285  1.00  0.00     0.021 A 
ATOM     29  C   UNL A   1      29.701  30.131  21.494  1.00  0.00     0.021 A 
ATOM     30  C   UNL A   1      28.365  30.535  21.474  1.00  0.00     0.041 A 
ATOM     31  Cl  UNL A   1      27.875  31.809  20.426  1.00  0.00    -0.084 Cl
ENDBRANCH  23  25
ENDBRANCH  19  23
ENDBRANCH   9  10
ENDBRANCH   7   9
ENDBRANCH   6   7
ENDBRANCH   5   6
ENDBRANCH   4   5
ENDBRANCH   3   4
ENDBRANCH   2   3
ENDBRANCH   1   2
BRANCH   1  32
ATOM     32  O   UNL A   1      40.776  20.648  27.643  1.00  0.00    -0.377 OA
BRANCH  32  33
ATOM     33  C   UNL A   1      41.928  19.873  27.457  1.00  0.00     0.188 C 
BRANCH  33  34
ATOM     34  C   UNL A   1      42.091  19.278  26.054  1.00  0.00     0.188 C 
BRANCH  34  35
ATOM     35  O   UNL A   1      42.978  19.837  25.090  1.00  0.00    -0.376 OA
BRANCH  35  36
ATOM     36  C   UNL A   1      44.342  20.078  25.399  1.00  0.00     0.202 C 
BRANCH  36  37
ATOM     37  C   UNL A   1      44.854  21.525  25.537  1.00  0.00     0.261 C 
BRANCH  37  38
ATOM     38  O   UNL A   1      43.946  22.406  26.199  1.00  0.00    -0.460 OA
BRANCH  38  39
ATOM     39  C   UNL A   1      43.239  23.283  25.438  1.00  0.00     0.338 C 
ATOM     40  O   UNL A   1      42.861  23.153  24.301  1.00  0.00    -0.246 OA
BRANCH  39  41
ATOM     41  C   UNL A   1      42.737  24.291  26.401  1.00  0.00     0.060 A 
ATOM     42  C   UNL A   1      41.739  25.198  26.031  1.00  0.00     0.016 A 
ATOM     43  C   UNL A   1      43.551  24.528  27.518  1.00  0.00     0.016 A 
ATOM     44  C   UNL A   1      41.675  26.424  26.689  1.00  0.00     0.010 A 
ATOM     45  C   UNL A   1      43.493  25.762  28.162  1.00  0.00     0.010 A 
ATOM     46  C   UNL A   1      42.591  26.731  27.715  1.00  0.00    -0.014 A 
BRANCH  46  47
ATOM     47  C   UNL A   1      42.345  27.951  28.495  1.00  0.00     0.031 A 
ATOM     48  C   UNL A   1      43.390  28.973  28.221  1.00  0.00     0.074 A 
ATOM     49  C   UNL A   1      41.256  28.276  29.225  1.00  0.00     0.049 A 
ATOM     50  N   UNL A   1      44.163  29.580  29.060  1.00  0.00    -0.248 NA
ATOM     51  C   UNL A   1      43.687  29.248  26.802  1.00  0.00     0.031 C 
ATOM     52  C   UNL A   1      40.003  27.529  29.324  1.00  0.00     0.029 A 
ATOM     53  N   UNL A   1      40.996  29.417  29.951  1.00  0.00    -0.354 N 
ATOM     54  C   UNL A   1      44.936  30.431  28.278  1.00  0.00     0.074 A 
ATOM     55  C   UNL A   1      44.724  30.074  26.902  1.00  0.00     0.031 C 
ATOM     56  C   UNL A   1      39.057  28.321  29.876  1.00  0.00     0.029 A 
ATOM     57  C   UNL A   1      39.652  29.592  30.264  1.00  0.00     0.049 A 
ATOM     58  H   UNL A   1      41.698  30.052  30.223  1.00  0.00     0.167 HD
ATOM     59  C   UNL A   1      45.478  31.566  28.783  1.00  0.00     0.037 A 
ATOM     60  C   UNL A   1      39.050  30.715  30.736  1.00  0.00     0.037 A 
ATOM     61  C   UNL A   1      45.518  31.585  30.213  1.00  0.00     0.049 A 
ATOM     62  C   UNL A   1      40.073  31.592  31.355  1.00  0.00     0.074 A 
ATOM     63  C   UNL A   1      46.363  31.128  31.199  1.00  0.00     0.029 A 
ATOM     64  N   UNL A   1      44.333  31.909  30.807  1.00  0.00    -0.354 N 
ATOM     65  N   UNL A   1      40.704  31.321  32.461  1.00  0.00    -0.248 NA
ATOM     66  C   UNL A   1      40.587  32.739  30.606  1.00  0.00     0.031 C 
ATOM     67  C   UNL A   1      45.604  31.108  32.408  1.00  0.00     0.029 A 
ATOM     68  C   UNL A   1      44.316  31.548  32.128  1.00  0.00     0.049 A 
ATOM     69  H   UNL A   1      43.584  32.349  30.343  1.00  0.00     0.167 HD
ATOM     70  C   UNL A   1      41.906  31.983  32.336  1.00  0.00     0.074 A 
ATOM     71  C   UNL A   1      41.710  32.970  31.288  1.00  0.00     0.031 C 
ATOM     72  C   UNL A   1      43.055  31.439  32.821  1.00  0.00     0.037 A 
BRANCH  59  73
ATOM     73  C   UNL A   1      45.539  32.829  27.977  1.00  0.00     0.064 A 
ATOM     74  C   UNL A   1      46.767  33.459  27.734  1.00  0.00     0.173 A 
ATOM     75  C   UNL A   1      44.380  33.579  27.664  1.00  0.00     0.173 A 
ATOM     76  F   UNL A   1      47.917  32.855  28.068  1.00  0.00    -0.203 F 
ATOM     77  C   UNL A   1      46.829  34.750  27.199  1.00  0.00     0.198 A 
ATOM     78  C   UNL A   1      44.444  34.836  27.076  1.00  0.00     0.198 A 
ATOM     79  F   UNL A   1      43.156  33.155  28.015  1.00  0.00    -0.203 F 
ATOM     80  F   UNL A   1      48.015  35.354  27.057  1.00  0.00    -0.200 F 
ATOM     81  C   UNL A   1      45.670  35.430  26.858  1.00  0.00     0.200 A 
ATOM     82  F   UNL A   1      43.310  35.489  26.786  1.00  0.00    -0.200 F 
ATOM     83  F   UNL A   1      45.730  36.675  26.368  1.00  0.00    -0.200 F 
ENDBRANCH  59  73
BRANCH  60  84
ATOM     84  C   UNL A   1      37.656  31.200  30.537  1.00  0.00     0.064 A 
ATOM     85  C   UNL A   1      36.772  31.335  31.626  1.00  0.00     0.173 A 
ATOM     86  C   UNL A   1      37.245  31.800  29.333  1.00  0.00     0.173 A 
ATOM     87  F   UNL A   1      37.089  30.827  32.825  1.00  0.00    -0.203 F 
ATOM     88  C   UNL A   1      35.580  32.061  31.525  1.00  0.00     0.198 A 
ATOM     89  C   UNL A   1      36.046  32.508  29.228  1.00  0.00     0.198 A 
ATOM     90  F   UNL A   1      38.040  31.799  28.254  1.00  0.00    -0.203 F 
ATOM     91  F   UNL A   1      34.809  32.235  32.609  1.00  0.00    -0.200 F 
ATOM     92  C   UNL A   1      35.224  32.657  30.328  1.00  0.00     0.200 A 
ATOM     93  F   UNL A   1      35.727  33.103  28.070  1.00  0.00    -0.200 F 
ATOM     94  F   UNL A   1      34.116  33.406  30.246  1.00  0.00    -0.200 F 
ENDBRANCH  60  84
BRANCH  72  95
ATOM     95  C   UNL A   1      42.947  30.532  33.999  1.00  0.00     0.064 A 
ATOM     96  C   UNL A   1      42.971  30.962  35.334  1.00  0.00     0.173 A 
ATOM     97  C   UNL A   1      42.754  29.165  33.754  1.00  0.00     0.173 A 
ATOM     98  F   UNL A   1      43.080  32.263  35.640  1.00  0.00    -0.203 F 
ATOM     99  C   UNL A   1      42.842  30.049  36.378  1.00  0.00     0.198 A 
ATOM    100  C   UNL A   1      42.590  28.262  34.798  1.00  0.00     0.198 A 
ATOM    101  F   UNL A   1      42.690  28.709  32.493  1.00  0.00    -0.203 F 
ATOM    102  F   UNL A   1      42.885  30.476  37.649  1.00  0.00    -0.200 F 
ATOM    103  C   UNL A   1      42.645  28.703  36.110  1.00  0.00     0.200 A 
ATOM    104  F   UNL A   1      42.361  26.969  34.532  1.00  0.00    -0.200 F 
ATOM    105  F   UNL A   1      42.486  27.831  37.116  1.00  0.00    -0.200 F 
ENDBRANCH  72  95
ENDBRANCH  46  47
ENDBRANCH  39  41
ENDBRANCH  38  39
ENDBRANCH  37  38
ENDBRANCH  36  37
ENDBRANCH  35  36
ENDBRANCH  34  35
ENDBRANCH  33  34
ENDBRANCH  32  33
ENDBRANCH   1  32
TORSDOF 24
ENDMDL
