MODEL 1
REMARK VINA RESULT:     -10.8      0.000      0.000
REMARK SMILES O=C(C[C@H](C1CCCCC1)N1Cc2ccccc2C1=O)OCCOCCOCCOCCOC(=O)c1ccc(-c2c3nc(c(-c4c(F)c(F)c(F)c(F)c4F)c4ccc([nH]4)c(-c4c(F)c(F)c(F)c(F)c4F)c4nc(c(-c5c(F)c(F)c(F)c(F)c5F)c5ccc2[nH]5)C=C4)C=C3)cc1
REMARK SMILES IDX 27 1 26 2 25 3 24 4 23 5 22 6 21 7 2 8 1 9 3 10 4 11 11 12
REMARK SMILES IDX 12 13 19 14 13 15 18 16 20 17 14 18 17 19 15 20 16 21 5 22
REMARK SMILES IDX 6 23 10 24 7 25 9 26 8 27 28 28 29 29 30 30 31 31 32 32
REMARK SMILES IDX 33 33 34 34 35 35 36 36 37 37 98 38 38 39 97 40 39 41 40 42
REMARK SMILES IDX 41 43 91 44 42 45 96 46 90 47 92 48 43 49 95 50 89 51 88 52
REMARK SMILES IDX 44 54 76 55 56 56 75 57 57 58 60 59 74 60 93 61 58 62 59 63
REMARK SMILES IDX 73 65 94 66 61 67 45 68 46 69 54 70 47 71 48 72 52 73 55 74
REMARK SMILES IDX 49 75 50 76 53 77 51 78 77 79 78 80 86 81 79 82 80 83 84 84
REMARK SMILES IDX 87 85 81 86 82 87 85 88 83 89 62 90 63 91 71 92 64 93 65 94
REMARK SMILES IDX 69 95 72 96 66 97 67 98 70 99 68 100
REMARK H PARENT 92 53 60 64
REMARK Flexibility Score: inf
ROOT
ATOM      1  O   UNL A   1      32.368  28.157  26.268  1.00  0.00    -0.377 OA
ENDROOT
BRANCH   1   2
ATOM      2  C   UNL A   1      31.513  27.204  26.869  1.00  0.00     0.188 C 
BRANCH   2   3
ATOM      3  C   UNL A   1      30.506  26.452  25.972  1.00  0.00     0.188 C 
BRANCH   3   4
ATOM      4  O   UNL A   1      30.621  25.083  25.630  1.00  0.00    -0.376 OA
BRANCH   4   5
ATOM      5  C   UNL A   1      30.301  23.921  26.353  1.00  0.00     0.202 C 
BRANCH   5   6
ATOM      6  C   UNL A   1      31.285  22.952  26.975  1.00  0.00     0.261 C 
BRANCH   6   7
ATOM      7  O   UNL A   1      32.529  23.488  27.400  1.00  0.00    -0.463 OA
BRANCH   7   8
ATOM      8  C   UNL A   1      33.701  22.830  27.361  1.00  0.00     0.307 C 
ATOM      9  O   UNL A   1      33.953  21.985  28.217  1.00  0.00    -0.252 OA
BRANCH   8  10
ATOM     10  C   UNL A   1      34.727  23.253  26.359  1.00  0.00     0.148 C 
BRANCH  10  11
ATOM     11  C   UNL A   1      34.557  22.887  24.870  1.00  0.00     0.100 C 
BRANCH  11  12
ATOM     12  N   UNL A   1      34.277  21.425  24.818  1.00  0.00    -0.330 N 
ATOM     13  C   UNL A   1      32.937  20.895  24.497  1.00  0.00     0.156 C 
ATOM     14  C   UNL A   1      35.192  20.392  24.979  1.00  0.00     0.254 C 
ATOM     15  C   UNL A   1      33.200  19.450  24.250  1.00  0.00    -0.016 A 
ATOM     16  C   UNL A   1      34.533  19.169  24.524  1.00  0.00     0.045 A 
ATOM     17  O   UNL A   1      36.334  20.410  25.376  1.00  0.00    -0.269 OA
ATOM     18  C   UNL A   1      32.370  18.458  23.757  1.00  0.00     0.006 A 
ATOM     19  C   UNL A   1      35.110  17.939  24.285  1.00  0.00     0.014 A 
ATOM     20  C   UNL A   1      32.927  17.194  23.518  1.00  0.00     0.000 A 
ATOM     21  C   UNL A   1      34.289  16.942  23.767  1.00  0.00     0.001 A 
ENDBRANCH  11  12
BRANCH  11  22
ATOM     22  C   UNL A   1      33.574  23.813  24.047  1.00  0.00     0.012 C 
ATOM     23  C   UNL A   1      33.744  25.311  24.384  1.00  0.00     0.006 C 
ATOM     24  C   UNL A   1      33.611  23.516  22.525  1.00  0.00     0.006 C 
ATOM     25  C   UNL A   1      33.099  26.271  23.392  1.00  0.00     0.000 C 
ATOM     26  C   UNL A   1      32.926  24.537  21.633  1.00  0.00     0.000 C 
ATOM     27  C   UNL A   1      33.450  25.926  21.954  1.00  0.00     0.000 C 
ENDBRANCH  11  22
ENDBRANCH  10  11
ENDBRANCH   8  10
ENDBRANCH   7   8
ENDBRANCH   6   7
ENDBRANCH   5   6
ENDBRANCH   4   5
ENDBRANCH   3   4
ENDBRANCH   2   3
ENDBRANCH   1   2
BRANCH   1  28
ATOM     28  C   UNL A   1      33.230  28.828  27.169  1.00  0.00     0.188 C 
BRANCH  28  29
ATOM     29  C   UNL A   1      33.317  30.328  26.861  1.00  0.00     0.188 C 
BRANCH  29  30
ATOM     30  O   UNL A   1      32.185  30.913  26.265  1.00  0.00    -0.376 OA
BRANCH  30  31
ATOM     31  C   UNL A   1      31.559  32.032  26.876  1.00  0.00     0.202 C 
BRANCH  31  32
ATOM     32  C   UNL A   1      32.153  33.458  27.036  1.00  0.00     0.261 C 
BRANCH  32  33
ATOM     33  O   UNL A   1      32.639  33.910  28.306  1.00  0.00    -0.460 OA
BRANCH  33  34
ATOM     34  C   UNL A   1      33.818  34.567  28.356  1.00  0.00     0.338 C 
ATOM     35  O   UNL A   1      34.002  35.765  28.264  1.00  0.00    -0.246 OA
BRANCH  34  36
ATOM     36  C   UNL A   1      34.837  33.574  28.785  1.00  0.00     0.060 A 
ATOM     37  C   UNL A   1      34.431  32.358  29.362  1.00  0.00     0.016 A 
ATOM     38  C   UNL A   1      36.191  33.821  28.561  1.00  0.00     0.016 A 
ATOM     39  C   UNL A   1      35.374  31.395  29.726  1.00  0.00     0.010 A 
ATOM     40  C   UNL A   1      37.138  32.880  28.970  1.00  0.00     0.010 A 
ATOM     41  C   UNL A   1      36.736  31.676  29.579  1.00  0.00    -0.014 A 
BRANCH  41  42
ATOM     42  C   UNL A   1      37.751  30.855  30.282  1.00  0.00     0.031 A 
ATOM     43  C   UNL A   1      38.011  31.173  31.729  1.00  0.00     0.074 A 
ATOM     44  C   UNL A   1      38.460  29.897  29.658  1.00  0.00     0.049 A 
ATOM     45  N   UNL A   1      38.964  30.752  32.518  1.00  0.00    -0.248 NA
ATOM     46  C   UNL A   1      37.067  32.107  32.368  1.00  0.00     0.031 C 
ATOM     47  C   UNL A   1      38.262  29.457  28.280  1.00  0.00     0.029 A 
ATOM     48  N   UNL A   1      39.519  29.145  30.107  1.00  0.00    -0.354 N 
ATOM     49  C   UNL A   1      38.756  31.397  33.730  1.00  0.00     0.074 A 
ATOM     50  C   UNL A   1      37.589  32.235  33.578  1.00  0.00     0.031 C 
ATOM     51  C   UNL A   1      39.201  28.542  27.979  1.00  0.00     0.029 A 
ATOM     52  C   UNL A   1      40.092  28.370  29.127  1.00  0.00     0.049 A 
ATOM     53  H   UNL A   1      39.837  29.160  31.038  1.00  0.00     0.167 HD
ATOM     54  C   UNL A   1      39.483  31.302  34.866  1.00  0.00     0.037 A 
ATOM     55  C   UNL A   1      41.235  27.653  29.144  1.00  0.00     0.037 A 
ATOM     56  C   UNL A   1      40.637  30.457  35.014  1.00  0.00     0.049 A 
ATOM     57  C   UNL A   1      42.072  27.626  30.403  1.00  0.00     0.074 A 
ATOM     58  C   UNL A   1      41.410  30.249  36.141  1.00  0.00     0.029 A 
ATOM     59  N   UNL A   1      41.191  29.696  33.997  1.00  0.00    -0.354 N 
ATOM     60  N   UNL A   1      41.851  28.200  31.561  1.00  0.00    -0.248 NA
ATOM     61  C   UNL A   1      43.326  26.858  30.352  1.00  0.00     0.031 C 
ATOM     62  C   UNL A   1      42.476  29.417  35.788  1.00  0.00     0.029 A 
ATOM     63  C   UNL A   1      42.327  29.053  34.460  1.00  0.00     0.049 A 
ATOM     64  H   UNL A   1      40.832  29.624  33.084  1.00  0.00     0.167 HD
ATOM     65  C   UNL A   1      42.918  27.842  32.379  1.00  0.00     0.074 A 
ATOM     66  C   UNL A   1      43.778  26.986  31.592  1.00  0.00     0.031 C 
ATOM     67  C   UNL A   1      43.165  28.193  33.665  1.00  0.00     0.037 A 
BRANCH  54  68
ATOM     68  C   UNL A   1      39.089  32.164  36.028  1.00  0.00     0.064 A 
ATOM     69  C   UNL A   1      38.237  31.704  37.040  1.00  0.00     0.173 A 
ATOM     70  C   UNL A   1      39.630  33.453  36.157  1.00  0.00     0.173 A 
ATOM     71  F   UNL A   1      37.679  30.486  36.954  1.00  0.00    -0.203 F 
ATOM     72  C   UNL A   1      37.930  32.507  38.135  1.00  0.00     0.198 A 
ATOM     73  C   UNL A   1      39.346  34.241  37.268  1.00  0.00     0.198 A 
ATOM     74  F   UNL A   1      40.451  33.940  35.215  1.00  0.00    -0.203 F 
ATOM     75  F   UNL A   1      37.085  32.061  39.075  1.00  0.00    -0.200 F 
ATOM     76  C   UNL A   1      38.494  33.769  38.254  1.00  0.00     0.200 A 
ATOM     77  F   UNL A   1      39.903  35.454  37.386  1.00  0.00    -0.200 F 
ATOM     78  F   UNL A   1      38.214  34.533  39.319  1.00  0.00    -0.200 F 
ENDBRANCH  54  68
BRANCH  55  79
ATOM     79  C   UNL A   1      41.703  26.949  27.917  1.00  0.00     0.064 A 
ATOM     80  C   UNL A   1      41.337  25.620  27.658  1.00  0.00     0.173 A 
ATOM     81  C   UNL A   1      42.576  27.569  27.010  1.00  0.00     0.173 A 
ATOM     82  F   UNL A   1      40.531  24.970  28.511  1.00  0.00    -0.203 F 
ATOM     83  C   UNL A   1      41.848  24.932  26.558  1.00  0.00     0.198 A 
ATOM     84  C   UNL A   1      43.058  26.891  25.891  1.00  0.00     0.198 A 
ATOM     85  F   UNL A   1      42.967  28.836  27.212  1.00  0.00    -0.203 F 
ATOM     86  F   UNL A   1      41.534  23.642  26.374  1.00  0.00    -0.200 F 
ATOM     87  C   UNL A   1      42.704  25.569  25.673  1.00  0.00     0.200 A 
ATOM     88  F   UNL A   1      43.876  27.516  25.033  1.00  0.00    -0.200 F 
ATOM     89  F   UNL A   1      43.199  24.906  24.620  1.00  0.00    -0.200 F 
ENDBRANCH  55  79
BRANCH  67  90
ATOM     90  C   UNL A   1      44.394  27.630  34.321  1.00  0.00     0.064 A 
ATOM     91  C   UNL A   1      44.385  26.377  34.951  1.00  0.00     0.173 A 
ATOM     92  C   UNL A   1      45.615  28.319  34.248  1.00  0.00     0.173 A 
ATOM     93  F   UNL A   1      43.241  25.684  35.058  1.00  0.00    -0.203 F 
ATOM     94  C   UNL A   1      45.548  25.844  35.499  1.00  0.00     0.198 A 
ATOM     95  C   UNL A   1      46.783  27.767  34.767  1.00  0.00     0.198 A 
ATOM     96  F   UNL A   1      45.682  29.517  33.647  1.00  0.00    -0.203 F 
ATOM     97  F   UNL A   1      45.508  24.662  36.132  1.00  0.00    -0.200 F 
ATOM     98  C   UNL A   1      46.747  26.533  35.397  1.00  0.00     0.200 A 
ATOM     99  F   UNL A   1      47.944  28.426  34.649  1.00  0.00    -0.200 F 
ATOM    100  F   UNL A   1      47.869  26.008  35.908  1.00  0.00    -0.200 F 
ENDBRANCH  67  90
ENDBRANCH  41  42
ENDBRANCH  34  36
ENDBRANCH  33  34
ENDBRANCH  32  33
ENDBRANCH  31  32
ENDBRANCH  30  31
ENDBRANCH  29  30
ENDBRANCH  28  29
ENDBRANCH   1  28
TORSDOF 23
ENDMDL
MODEL 2
REMARK VINA RESULT:     -10.3      3.116      9.135
REMARK SMILES O=C(C[C@H](C1CCCCC1)N1Cc2ccccc2C1=O)OCCOCCOCCOCCOC(=O)c1ccc(-c2c3nc(c(-c4c(F)c(F)c(F)c(F)c4F)c4ccc([nH]4)c(-c4c(F)c(F)c(F)c(F)c4F)c4nc(c(-c5c(F)c(F)c(F)c(F)c5F)c5ccc2[nH]5)C=C4)C=C3)cc1
REMARK SMILES IDX 27 1 26 2 25 3 24 4 23 5 22 6 21 7 2 8 1 9 3 10 4 11 11 12
REMARK SMILES IDX 12 13 19 14 13 15 18 16 20 17 14 18 17 19 15 20 16 21 5 22
REMARK SMILES IDX 6 23 10 24 7 25 9 26 8 27 28 28 29 29 30 30 31 31 32 32
REMARK SMILES IDX 33 33 34 34 35 35 36 36 37 37 98 38 38 39 97 40 39 41 40 42
REMARK SMILES IDX 41 43 91 44 42 45 96 46 90 47 92 48 43 49 95 50 89 51 88 52
REMARK SMILES IDX 44 54 76 55 56 56 75 57 57 58 60 59 74 60 93 61 58 62 59 63
REMARK SMILES IDX 73 65 94 66 61 67 45 68 46 69 54 70 47 71 48 72 52 73 55 74
REMARK SMILES IDX 49 75 50 76 53 77 51 78 77 79 78 80 86 81 79 82 80 83 84 84
REMARK SMILES IDX 87 85 81 86 82 87 85 88 83 89 62 90 63 91 71 92 64 93 65 94
REMARK SMILES IDX 69 95 72 96 66 97 67 98 70 99 68 100
REMARK H PARENT 92 53 60 64
REMARK Flexibility Score: inf
ROOT
ATOM      1  O   UNL A   1      41.968  20.226  26.336  1.00  0.00    -0.377 OA
ENDROOT
BRANCH   1   2
ATOM      2  C   UNL A   1      40.621  20.618  26.513  1.00  0.00     0.188 C 
BRANCH   2   3
ATOM      3  C   UNL A   1      40.315  22.114  26.746  1.00  0.00     0.188 C 
BRANCH   3   4
ATOM      4  O   UNL A   1      39.044  22.702  26.540  1.00  0.00    -0.376 OA
BRANCH   4   5
ATOM      5  C   UNL A   1      38.054  22.445  25.575  1.00  0.00     0.202 C 
BRANCH   5   6
ATOM      6  C   UNL A   1      36.561  22.624  25.754  1.00  0.00     0.261 C 
BRANCH   6   7
ATOM      7  O   UNL A   1      35.968  23.743  25.112  1.00  0.00    -0.463 OA
BRANCH   7   8
ATOM      8  C   UNL A   1      35.482  23.739  23.858  1.00  0.00     0.307 C 
ATOM      9  O   UNL A   1      36.099  23.156  22.969  1.00  0.00    -0.252 OA
BRANCH   8  10
ATOM     10  C   UNL A   1      34.278  24.571  23.553  1.00  0.00     0.148 C 
BRANCH  10  11
ATOM     11  C   UNL A   1      32.975  24.376  24.354  1.00  0.00     0.100 C 
BRANCH  11  12
ATOM     12  N   UNL A   1      32.159  25.606  24.151  1.00  0.00    -0.330 N 
ATOM     13  C   UNL A   1      32.647  26.746  23.350  1.00  0.00     0.156 C 
ATOM     14  C   UNL A   1      30.862  25.831  24.593  1.00  0.00     0.254 C 
ATOM     15  C   UNL A   1      31.421  27.571  23.163  1.00  0.00    -0.016 A 
ATOM     16  C   UNL A   1      30.375  27.015  23.888  1.00  0.00     0.045 A 
ATOM     17  O   UNL A   1      30.180  25.209  25.376  1.00  0.00    -0.269 OA
ATOM     18  C   UNL A   1      31.201  28.683  22.369  1.00  0.00     0.006 A 
ATOM     19  C   UNL A   1      29.080  27.488  23.829  1.00  0.00     0.014 A 
ATOM     20  C   UNL A   1      29.897  29.193  22.300  1.00  0.00     0.000 A 
ATOM     21  C   UNL A   1      28.843  28.592  23.015  1.00  0.00     0.001 A 
ENDBRANCH  11  12
BRANCH  11  22
ATOM     22  C   UNL A   1      32.229  23.001  24.120  1.00  0.00     0.012 C 
ATOM     23  C   UNL A   1      32.510  22.400  22.725  1.00  0.00     0.006 C 
ATOM     24  C   UNL A   1      32.452  21.997  25.281  1.00  0.00     0.006 C 
ATOM     25  C   UNL A   1      32.125  20.934  22.567  1.00  0.00     0.000 C 
ATOM     26  C   UNL A   1      32.019  20.566  25.013  1.00  0.00     0.000 C 
ATOM     27  C   UNL A   1      32.640  20.081  23.715  1.00  0.00     0.000 C 
ENDBRANCH  11  22
ENDBRANCH  10  11
ENDBRANCH   8  10
ENDBRANCH   7   8
ENDBRANCH   6   7
ENDBRANCH   5   6
ENDBRANCH   4   5
ENDBRANCH   3   4
ENDBRANCH   2   3
ENDBRANCH   1   2
BRANCH   1  28
ATOM     28  C   UNL A   1      42.797  21.210  25.743  1.00  0.00     0.188 C 
BRANCH  28  29
ATOM     29  C   UNL A   1      44.134  20.619  25.278  1.00  0.00     0.188 C 
BRANCH  29  30
ATOM     30  O   UNL A   1      44.683  21.160  24.100  1.00  0.00    -0.376 OA
BRANCH  30  31
ATOM     31  C   UNL A   1      44.527  22.543  23.814  1.00  0.00     0.202 C 
BRANCH  31  32
ATOM     32  C   UNL A   1      45.026  23.733  24.677  1.00  0.00     0.261 C 
BRANCH  32  33
ATOM     33  O   UNL A   1      44.306  24.972  24.701  1.00  0.00    -0.460 OA
BRANCH  33  34
ATOM     34  C   UNL A   1      44.929  26.080  25.156  1.00  0.00     0.338 C 
ATOM     35  O   UNL A   1      45.877  26.654  24.655  1.00  0.00    -0.246 OA
BRANCH  34  36
ATOM     36  C   UNL A   1      44.093  26.612  26.263  1.00  0.00     0.060 A 
ATOM     37  C   UNL A   1      44.222  27.957  26.653  1.00  0.00     0.016 A 
ATOM     38  C   UNL A   1      43.142  25.797  26.876  1.00  0.00     0.016 A 
ATOM     39  C   UNL A   1      43.410  28.485  27.659  1.00  0.00     0.010 A 
ATOM     40  C   UNL A   1      42.365  26.310  27.916  1.00  0.00     0.010 A 
ATOM     41  C   UNL A   1      42.515  27.648  28.330  1.00  0.00    -0.014 A 
BRANCH  41  42
ATOM     42  C   UNL A   1      41.920  28.067  29.623  1.00  0.00     0.031 A 
ATOM     43  C   UNL A   1      40.628  28.833  29.570  1.00  0.00     0.074 A 
ATOM     44  C   UNL A   1      42.522  27.829  30.802  1.00  0.00     0.049 A 
ATOM     45  N   UNL A   1      40.000  29.478  30.517  1.00  0.00    -0.248 NA
ATOM     46  C   UNL A   1      39.958  28.887  28.258  1.00  0.00     0.031 C 
ATOM     47  C   UNL A   1      43.742  27.050  30.990  1.00  0.00     0.029 A 
ATOM     48  N   UNL A   1      42.193  28.257  32.067  1.00  0.00    -0.354 N 
ATOM     49  C   UNL A   1      38.886  30.043  29.909  1.00  0.00     0.074 A 
ATOM     50  C   UNL A   1      38.920  29.667  28.515  1.00  0.00     0.031 C 
ATOM     51  C   UNL A   1      44.087  27.092  32.290  1.00  0.00     0.029 A 
ATOM     52  C   UNL A   1      43.139  27.940  33.013  1.00  0.00     0.049 A 
ATOM     53  H   UNL A   1      41.363  28.742  32.274  1.00  0.00     0.167 HD
ATOM     54  C   UNL A   1      37.927  30.816  30.468  1.00  0.00     0.037 A 
ATOM     55  C   UNL A   1      43.250  28.339  34.297  1.00  0.00     0.037 A 
ATOM     56  C   UNL A   1      37.895  31.177  31.859  1.00  0.00     0.049 A 
ATOM     57  C   UNL A   1      42.206  29.267  34.876  1.00  0.00     0.074 A 
ATOM     58  C   UNL A   1      36.936  31.910  32.534  1.00  0.00     0.029 A 
ATOM     59  N   UNL A   1      38.874  30.845  32.782  1.00  0.00    -0.354 N 
ATOM     60  N   UNL A   1      41.131  29.763  34.313  1.00  0.00    -0.248 NA
ATOM     61  C   UNL A   1      42.398  29.698  36.270  1.00  0.00     0.031 C 
ATOM     62  C   UNL A   1      37.370  32.084  33.850  1.00  0.00     0.029 A 
ATOM     63  C   UNL A   1      38.565  31.401  34.012  1.00  0.00     0.049 A 
ATOM     64  H   UNL A   1      39.669  30.298  32.592  1.00  0.00     0.167 HD
ATOM     65  C   UNL A   1      40.509  30.539  35.286  1.00  0.00     0.074 A 
ATOM     66  C   UNL A   1      41.315  30.433  36.481  1.00  0.00     0.031 C 
ATOM     67  C   UNL A   1      39.374  31.275  35.196  1.00  0.00     0.037 A 
BRANCH  54  68
ATOM     68  C   UNL A   1      36.857  31.365  29.573  1.00  0.00     0.064 A 
ATOM     69  C   UNL A   1      35.825  30.564  29.069  1.00  0.00     0.173 A 
ATOM     70  C   UNL A   1      36.835  32.736  29.271  1.00  0.00     0.173 A 
ATOM     71  F   UNL A   1      35.811  29.244  29.314  1.00  0.00    -0.203 F 
ATOM     72  C   UNL A   1      34.814  31.112  28.283  1.00  0.00     0.198 A 
ATOM     73  C   UNL A   1      35.807  33.286  28.512  1.00  0.00     0.198 A 
ATOM     74  F   UNL A   1      37.802  33.546  29.729  1.00  0.00    -0.203 F 
ATOM     75  F   UNL A   1      33.854  30.322  27.782  1.00  0.00    -0.200 F 
ATOM     76  C   UNL A   1      34.799  32.473  28.016  1.00  0.00     0.200 A 
ATOM     77  F   UNL A   1      35.789  34.604  28.267  1.00  0.00    -0.200 F 
ATOM     78  F   UNL A   1      33.814  33.003  27.277  1.00  0.00    -0.200 F 
ENDBRANCH  54  68
BRANCH  55  79
ATOM     79  C   UNL A   1      44.422  27.925  35.117  1.00  0.00     0.064 A 
ATOM     80  C   UNL A   1      45.588  28.702  35.165  1.00  0.00     0.173 A 
ATOM     81  C   UNL A   1      44.425  26.711  35.823  1.00  0.00     0.173 A 
ATOM     82  F   UNL A   1      45.651  29.855  34.482  1.00  0.00    -0.203 F 
ATOM     83  C   UNL A   1      46.717  28.270  35.858  1.00  0.00     0.198 A 
ATOM     84  C   UNL A   1      45.542  26.296  36.546  1.00  0.00     0.198 A 
ATOM     85  F   UNL A   1      43.340  25.922  35.806  1.00  0.00    -0.203 F 
ATOM     86  F   UNL A   1      47.840  29.001  35.828  1.00  0.00    -0.200 F 
ATOM     87  C   UNL A   1      46.692  27.070  36.553  1.00  0.00     0.200 A 
ATOM     88  F   UNL A   1      45.507  25.141  37.223  1.00  0.00    -0.200 F 
ATOM     89  F   UNL A   1      47.779  26.652  37.214  1.00  0.00    -0.200 F 
ENDBRANCH  55  79
BRANCH  67  90
ATOM     90  C   UNL A   1      38.910  32.000  36.428  1.00  0.00     0.064 A 
ATOM     91  C   UNL A   1      39.272  33.332  36.680  1.00  0.00     0.173 A 
ATOM     92  C   UNL A   1      38.029  31.378  37.327  1.00  0.00     0.173 A 
ATOM     93  F   UNL A   1      40.120  33.967  35.858  1.00  0.00    -0.203 F 
ATOM     94  C   UNL A   1      38.783  34.007  37.795  1.00  0.00     0.198 A 
ATOM     95  C   UNL A   1      37.515  32.068  38.422  1.00  0.00     0.198 A 
ATOM     96  F   UNL A   1      37.643  30.109  37.127  1.00  0.00    -0.203 F 
ATOM     97  F   UNL A   1      39.173  35.266  38.037  1.00  0.00    -0.200 F 
ATOM     98  C   UNL A   1      37.897  33.379  38.658  1.00  0.00     0.200 A 
ATOM     99  F   UNL A   1      36.644  31.465  39.243  1.00  0.00    -0.200 F 
ATOM    100  F   UNL A   1      37.412  34.038  39.719  1.00  0.00    -0.200 F 
ENDBRANCH  67  90
ENDBRANCH  41  42
ENDBRANCH  34  36
ENDBRANCH  33  34
ENDBRANCH  32  33
ENDBRANCH  31  32
ENDBRANCH  30  31
ENDBRANCH  29  30
ENDBRANCH  28  29
ENDBRANCH   1  28
TORSDOF 23
ENDMDL
MODEL 3
REMARK VINA RESULT:     -10.3      3.200      8.728
REMARK SMILES O=C(C[C@H](C1CCCCC1)N1Cc2ccccc2C1=O)OCCOCCOCCOCCOC(=O)c1ccc(-c2c3nc(c(-c4c(F)c(F)c(F)c(F)c4F)c4ccc([nH]4)c(-c4c(F)c(F)c(F)c(F)c4F)c4nc(c(-c5c(F)c(F)c(F)c(F)c5F)c5ccc2[nH]5)C=C4)C=C3)cc1
REMARK SMILES IDX 27 1 26 2 25 3 24 4 23 5 22 6 21 7 2 8 1 9 3 10 4 11 11 12
REMARK SMILES IDX 12 13 19 14 13 15 18 16 20 17 14 18 17 19 15 20 16 21 5 22
REMARK SMILES IDX 6 23 10 24 7 25 9 26 8 27 28 28 29 29 30 30 31 31 32 32
REMARK SMILES IDX 33 33 34 34 35 35 36 36 37 37 98 38 38 39 97 40 39 41 40 42
REMARK SMILES IDX 41 43 91 44 42 45 96 46 90 47 92 48 43 49 95 50 89 51 88 52
REMARK SMILES IDX 44 54 76 55 56 56 75 57 57 58 60 59 74 60 93 61 58 62 59 63
REMARK SMILES IDX 73 65 94 66 61 67 45 68 46 69 54 70 47 71 48 72 52 73 55 74
REMARK SMILES IDX 49 75 50 76 53 77 51 78 77 79 78 80 86 81 79 82 80 83 84 84
REMARK SMILES IDX 87 85 81 86 82 87 85 88 83 89 62 90 63 91 71 92 64 93 65 94
REMARK SMILES IDX 69 95 72 96 66 97 67 98 70 99 68 100
REMARK H PARENT 92 53 60 64
REMARK Flexibility Score: inf
ROOT
ATOM      1  O   UNL A   1      42.360  19.720  26.292  1.00  0.00    -0.377 OA
ENDROOT
BRANCH   1   2
ATOM      2  C   UNL A   1      41.065  19.985  26.794  1.00  0.00     0.188 C 
BRANCH   2   3
ATOM      3  C   UNL A   1      40.833  21.297  27.575  1.00  0.00     0.188 C 
BRANCH   3   4
ATOM      4  O   UNL A   1      39.820  22.234  27.261  1.00  0.00    -0.376 OA
BRANCH   4   5
ATOM      5  C   UNL A   1      39.120  22.471  26.066  1.00  0.00     0.202 C 
BRANCH   5   6
ATOM      6  C   UNL A   1      37.841  21.789  25.626  1.00  0.00     0.261 C 
BRANCH   6   7
ATOM      7  O   UNL A   1      36.628  22.484  25.872  1.00  0.00    -0.463 OA
BRANCH   7   8
ATOM      8  C   UNL A   1      35.901  23.115  24.933  1.00  0.00     0.307 C 
ATOM      9  O   UNL A   1      36.236  23.040  23.753  1.00  0.00    -0.252 OA
BRANCH   8  10
ATOM     10  C   UNL A   1      34.788  24.012  25.371  1.00  0.00     0.148 C 
BRANCH  10  11
ATOM     11  C   UNL A   1      33.432  23.984  24.636  1.00  0.00     0.100 C 
BRANCH  11  12
ATOM     12  N   UNL A   1      32.993  22.560  24.602  1.00  0.00    -0.330 N 
ATOM     13  C   UNL A   1      32.616  21.887  23.344  1.00  0.00     0.156 C 
ATOM     14  C   UNL A   1      32.946  21.674  25.671  1.00  0.00     0.254 C 
ATOM     15  C   UNL A   1      32.566  20.450  23.736  1.00  0.00    -0.016 A 
ATOM     16  C   UNL A   1      32.775  20.338  25.105  1.00  0.00     0.045 A 
ATOM     17  O   UNL A   1      33.049  21.872  26.860  1.00  0.00    -0.269 OA
ATOM     18  C   UNL A   1      32.421  19.314  22.960  1.00  0.00     0.006 A 
ATOM     19  C   UNL A   1      32.898  19.126  25.752  1.00  0.00     0.014 A 
ATOM     20  C   UNL A   1      32.528  18.068  23.595  1.00  0.00     0.000 A 
ATOM     21  C   UNL A   1      32.777  17.976  24.977  1.00  0.00     0.001 A 
ENDBRANCH  11  12
BRANCH  11  22
ATOM     22  C   UNL A   1      32.359  25.030  25.140  1.00  0.00     0.012 C 
ATOM     23  C   UNL A   1      32.947  26.053  26.137  1.00  0.00     0.006 C 
ATOM     24  C   UNL A   1      31.573  25.686  23.975  1.00  0.00     0.006 C 
ATOM     25  C   UNL A   1      32.081  27.283  26.382  1.00  0.00     0.000 C 
ATOM     26  C   UNL A   1      30.735  26.899  24.340  1.00  0.00     0.000 C 
ATOM     27  C   UNL A   1      31.595  27.907  25.084  1.00  0.00     0.000 C 
ENDBRANCH  11  22
ENDBRANCH  10  11
ENDBRANCH   8  10
ENDBRANCH   7   8
ENDBRANCH   6   7
ENDBRANCH   5   6
ENDBRANCH   4   5
ENDBRANCH   3   4
ENDBRANCH   2   3
ENDBRANCH   1   2
BRANCH   1  28
ATOM     28  C   UNL A   1      43.019  20.843  25.734  1.00  0.00     0.188 C 
BRANCH  28  29
ATOM     29  C   UNL A   1      44.430  20.489  25.248  1.00  0.00     0.188 C 
BRANCH  29  30
ATOM     30  O   UNL A   1      44.856  21.103  24.056  1.00  0.00    -0.376 OA
BRANCH  30  31
ATOM     31  C   UNL A   1      44.555  22.471  23.814  1.00  0.00     0.202 C 
BRANCH  31  32
ATOM     32  C   UNL A   1      45.061  23.693  24.629  1.00  0.00     0.261 C 
BRANCH  32  33
ATOM     33  O   UNL A   1      44.227  24.843  24.815  1.00  0.00    -0.460 OA
BRANCH  33  34
ATOM     34  C   UNL A   1      44.799  26.009  25.187  1.00  0.00     0.338 C 
ATOM     35  O   UNL A   1      45.692  26.608  24.621  1.00  0.00    -0.246 OA
BRANCH  34  36
ATOM     36  C   UNL A   1      43.971  26.551  26.296  1.00  0.00     0.060 A 
ATOM     37  C   UNL A   1      44.140  27.886  26.705  1.00  0.00     0.016 A 
ATOM     38  C   UNL A   1      42.990  25.759  26.889  1.00  0.00     0.016 A 
ATOM     39  C   UNL A   1      43.338  28.426  27.713  1.00  0.00     0.010 A 
ATOM     40  C   UNL A   1      42.221  26.282  27.931  1.00  0.00     0.010 A 
ATOM     41  C   UNL A   1      42.410  27.608  28.366  1.00  0.00    -0.014 A 
BRANCH  41  42
ATOM     42  C   UNL A   1      41.819  28.028  29.660  1.00  0.00     0.031 A 
ATOM     43  C   UNL A   1      40.515  28.775  29.611  1.00  0.00     0.074 A 
ATOM     44  C   UNL A   1      42.433  27.806  30.836  1.00  0.00     0.049 A 
ATOM     45  N   UNL A   1      39.885  29.418  30.558  1.00  0.00    -0.248 NA
ATOM     46  C   UNL A   1      39.836  28.810  28.304  1.00  0.00     0.031 C 
ATOM     47  C   UNL A   1      43.666  27.046  31.020  1.00  0.00     0.029 A 
ATOM     48  N   UNL A   1      42.108  28.238  32.100  1.00  0.00    -0.354 N 
ATOM     49  C   UNL A   1      38.759  29.962  29.955  1.00  0.00     0.074 A 
ATOM     50  C   UNL A   1      38.788  29.577  28.563  1.00  0.00     0.031 C 
ATOM     51  C   UNL A   1      44.020  27.102  32.317  1.00  0.00     0.029 A 
ATOM     52  C   UNL A   1      43.064  27.942  33.041  1.00  0.00     0.049 A 
ATOM     53  H   UNL A   1      41.272  28.713  32.310  1.00  0.00     0.167 HD
ATOM     54  C   UNL A   1      37.793  30.725  30.515  1.00  0.00     0.037 A 
ATOM     55  C   UNL A   1      43.180  28.351  34.321  1.00  0.00     0.037 A 
ATOM     56  C   UNL A   1      37.766  31.095  31.903  1.00  0.00     0.049 A 
ATOM     57  C   UNL A   1      42.126  29.268  34.902  1.00  0.00     0.074 A 
ATOM     58  C   UNL A   1      36.801  31.819  32.581  1.00  0.00     0.029 A 
ATOM     59  N   UNL A   1      38.756  30.784  32.821  1.00  0.00    -0.354 N 
ATOM     60  N   UNL A   1      41.040  29.745  34.343  1.00  0.00    -0.248 NA
ATOM     61  C   UNL A   1      42.321  29.712  36.291  1.00  0.00     0.031 C 
ATOM     62  C   UNL A   1      37.243  32.008  33.892  1.00  0.00     0.029 A 
ATOM     63  C   UNL A   1      38.448  31.344  34.050  1.00  0.00     0.049 A 
ATOM     64  H   UNL A   1      39.558  30.247  32.629  1.00  0.00     0.167 HD
ATOM     65  C   UNL A   1      40.414  30.518  35.315  1.00  0.00     0.074 A 
ATOM     66  C   UNL A   1      41.230  30.433  36.506  1.00  0.00     0.031 C 
ATOM     67  C   UNL A   1      39.268  31.238  35.229  1.00  0.00     0.037 A 
BRANCH  54  68
ATOM     68  C   UNL A   1      36.709  31.253  29.624  1.00  0.00     0.064 A 
ATOM     69  C   UNL A   1      36.663  32.594  29.223  1.00  0.00     0.173 A 
ATOM     70  C   UNL A   1      35.735  30.379  29.116  1.00  0.00     0.173 A 
ATOM     71  F   UNL A   1      37.560  33.473  29.696  1.00  0.00    -0.203 F 
ATOM     72  C   UNL A   1      35.675  33.045  28.351  1.00  0.00     0.198 A 
ATOM     73  C   UNL A   1      34.768  30.826  28.222  1.00  0.00     0.198 A 
ATOM     74  F   UNL A   1      35.735  29.085  29.471  1.00  0.00    -0.203 F 
ATOM     75  F   UNL A   1      35.629  34.339  28.006  1.00  0.00    -0.200 F 
ATOM     76  C   UNL A   1      34.737  32.159  27.843  1.00  0.00     0.200 A 
ATOM     77  F   UNL A   1      33.871  29.964  27.721  1.00  0.00    -0.200 F 
ATOM     78  F   UNL A   1      33.799  32.591  26.988  1.00  0.00    -0.200 F 
ENDBRANCH  54  68
BRANCH  55  79
ATOM     79  C   UNL A   1      44.363  27.960  35.136  1.00  0.00     0.064 A 
ATOM     80  C   UNL A   1      44.340  26.818  35.950  1.00  0.00     0.173 A 
ATOM     81  C   UNL A   1      45.522  28.753  35.166  1.00  0.00     0.173 A 
ATOM     82  F   UNL A   1      43.246  26.044  35.984  1.00  0.00    -0.203 F 
ATOM     83  C   UNL A   1      45.414  26.502  36.781  1.00  0.00     0.198 A 
ATOM     84  C   UNL A   1      46.608  28.416  35.970  1.00  0.00     0.198 A 
ATOM     85  F   UNL A   1      45.596  29.861  34.414  1.00  0.00    -0.203 F 
ATOM     86  F   UNL A   1      45.335  25.443  37.599  1.00  0.00    -0.200 F 
ATOM     87  C   UNL A   1      46.549  27.298  36.787  1.00  0.00     0.200 A 
ATOM     88  F   UNL A   1      47.707  29.183  35.964  1.00  0.00    -0.200 F 
ATOM     89  F   UNL A   1      47.577  26.997  37.591  1.00  0.00    -0.200 F 
ENDBRANCH  55  79
BRANCH  67  90
ATOM     90  C   UNL A   1      38.803  31.965  36.460  1.00  0.00     0.064 A 
ATOM     91  C   UNL A   1      39.170  33.294  36.713  1.00  0.00     0.173 A 
ATOM     92  C   UNL A   1      37.915  31.346  37.355  1.00  0.00     0.173 A 
ATOM     93  F   UNL A   1      40.024  33.926  35.895  1.00  0.00    -0.203 F 
ATOM     94  C   UNL A   1      38.679  33.972  37.826  1.00  0.00     0.198 A 
ATOM     95  C   UNL A   1      37.400  32.038  38.448  1.00  0.00     0.198 A 
ATOM     96  F   UNL A   1      37.524  30.079  37.153  1.00  0.00    -0.203 F 
ATOM     97  F   UNL A   1      39.074  35.229  38.070  1.00  0.00    -0.200 F 
ATOM     98  C   UNL A   1      37.787  33.347  38.686  1.00  0.00     0.200 A 
ATOM     99  F   UNL A   1      36.523  31.439  39.265  1.00  0.00    -0.200 F 
ATOM    100  F   UNL A   1      37.301  34.009  39.745  1.00  0.00    -0.200 F 
ENDBRANCH  67  90
ENDBRANCH  41  42
ENDBRANCH  34  36
ENDBRANCH  33  34
ENDBRANCH  32  33
ENDBRANCH  31  32
ENDBRANCH  30  31
ENDBRANCH  29  30
ENDBRANCH  28  29
ENDBRANCH   1  28
TORSDOF 23
ENDMDL
