MODEL 1
REMARK VINA RESULT:     -10.1      0.000      0.000
REMARK SMILES O=C(OCCOCCOCCOCCOC(=O)[C@H](Cc1ccccn1)c1ccc(F)cc1)c1ccc(-c2c3nc(c(-c4c(F)c(F)c(F)c(F)c4F)c4ccc([nH]4)c(-c4c(F)c(F)c(F)c(F)c4F)c4nc(c(-c5c(F)c(F)c(F)c(F)c5F)c5ccc2[nH]5)C=C4)C=C3)cc1
REMARK SMILES IDX 9 1 8 2 7 3 6 4 5 5 4 6 3 7 2 8 1 9 33 10 34 11 95 12 35 13
REMARK SMILES IDX 94 14 36 15 37 16 38 17 88 18 39 19 93 20 87 21 89 22 40 23
REMARK SMILES IDX 92 24 86 25 85 26 41 28 73 29 53 30 72 31 54 32 57 33 71 34
REMARK SMILES IDX 90 35 55 36 56 37 70 39 91 40 58 41 42 42 43 43 51 44 44 45
REMARK SMILES IDX 45 46 49 47 52 48 46 49 47 50 50 51 48 52 74 53 75 54 83 55
REMARK SMILES IDX 76 56 77 57 81 58 84 59 78 60 79 61 82 62 80 63 59 64 60 65
REMARK SMILES IDX 68 66 61 67 62 68 66 69 69 70 63 71 64 72 67 73 65 74 10 75
REMARK SMILES IDX 11 76 12 77 13 78 14 79 15 80 16 81 17 82 18 83 26 84 27 85
REMARK SMILES IDX 32 86 28 87 31 88 29 89 30 90 19 91 20 92 21 93 25 94 22 95
REMARK SMILES IDX 24 96 23 97
REMARK H PARENT 89 27 57 38
REMARK Flexibility Score: inf
ROOT
ATOM      1  O   UNL A   1      33.379  31.511  27.981  1.00  0.00    -0.377 OA
ENDROOT
BRANCH   1   2
ATOM      2  C   UNL A   1      34.675  31.983  28.293  1.00  0.00     0.188 C 
BRANCH   2   3
ATOM      3  C   UNL A   1      34.688  33.287  29.075  1.00  0.00     0.188 C 
BRANCH   3   4
ATOM      4  O   UNL A   1      35.152  33.105  30.408  1.00  0.00    -0.376 OA
BRANCH   4   5
ATOM      5  C   UNL A   1      34.359  33.600  31.478  1.00  0.00     0.202 C 
BRANCH   5   6
ATOM      6  C   UNL A   1      34.802  33.181  32.876  1.00  0.00     0.261 C 
BRANCH   6   7
ATOM      7  O   UNL A   1      36.221  33.130  33.093  1.00  0.00    -0.460 OA
BRANCH   7   8
ATOM      8  C   UNL A   1      37.054  32.163  33.548  1.00  0.00     0.338 C 
ATOM      9  O   UNL A   1      37.033  31.912  34.744  1.00  0.00    -0.246 OA
BRANCH   8  10
ATOM     10  C   UNL A   1      38.019  31.387  32.706  1.00  0.00     0.060 A 
ATOM     11  C   UNL A   1      39.054  30.581  33.169  1.00  0.00     0.016 A 
ATOM     12  C   UNL A   1      37.818  31.445  31.313  1.00  0.00     0.016 A 
ATOM     13  C   UNL A   1      39.917  29.925  32.311  1.00  0.00     0.010 A 
ATOM     14  C   UNL A   1      38.687  30.800  30.429  1.00  0.00     0.010 A 
ATOM     15  C   UNL A   1      39.777  30.091  30.941  1.00  0.00    -0.014 A 
BRANCH  15  16
ATOM     16  C   UNL A   1      40.967  29.796  30.129  1.00  0.00     0.031 A 
ATOM     17  C   UNL A   1      41.000  28.462  29.443  1.00  0.00     0.074 A 
ATOM     18  C   UNL A   1      41.843  30.771  29.839  1.00  0.00     0.049 A 
ATOM     19  N   UNL A   1      41.934  27.925  28.710  1.00  0.00    -0.248 NA
ATOM     20  C   UNL A   1      39.796  27.620  29.588  1.00  0.00     0.031 C 
ATOM     21  C   UNL A   1      41.747  32.155  30.308  1.00  0.00     0.029 A 
ATOM     22  N   UNL A   1      42.951  30.763  29.038  1.00  0.00    -0.354 N 
ATOM     23  C   UNL A   1      41.450  26.673  28.352  1.00  0.00     0.074 A 
ATOM     24  C   UNL A   1      40.146  26.519  28.946  1.00  0.00     0.031 C 
ATOM     25  C   UNL A   1      42.743  32.871  29.763  1.00  0.00     0.029 A 
ATOM     26  C   UNL A   1      43.591  31.975  28.983  1.00  0.00     0.049 A 
ATOM     27  H   UNL A   1      43.259  29.966  28.549  1.00  0.00     0.167 HD
ATOM     28  C   UNL A   1      42.061  25.739  27.591  1.00  0.00     0.037 A 
ATOM     29  C   UNL A   1      44.759  32.297  28.397  1.00  0.00     0.037 A 
ATOM     30  C   UNL A   1      43.354  25.951  27.005  1.00  0.00     0.049 A 
ATOM     31  C   UNL A   1      45.486  31.203  27.662  1.00  0.00     0.074 A 
ATOM     32  C   UNL A   1      44.143  25.069  26.298  1.00  0.00     0.029 A 
ATOM     33  N   UNL A   1      44.042  27.159  27.064  1.00  0.00    -0.354 N 
ATOM     34  N   UNL A   1      45.103  29.967  27.437  1.00  0.00    -0.248 NA
ATOM     35  C   UNL A   1      46.807  31.533  27.120  1.00  0.00     0.031 C 
ATOM     36  C   UNL A   1      45.332  25.728  25.972  1.00  0.00     0.029 A 
ATOM     37  C   UNL A   1      45.256  27.042  26.416  1.00  0.00     0.049 A 
ATOM     38  H   UNL A   1      43.713  27.977  27.502  1.00  0.00     0.167 HD
ATOM     39  C   UNL A   1      46.125  29.372  26.714  1.00  0.00     0.074 A 
ATOM     40  C   UNL A   1      47.140  30.394  26.526  1.00  0.00     0.031 C 
ATOM     41  C   UNL A   1      46.225  28.101  26.249  1.00  0.00     0.037 A 
BRANCH  28  42
ATOM     42  C   UNL A   1      41.372  24.414  27.442  1.00  0.00     0.064 A 
ATOM     43  C   UNL A   1      40.220  24.311  26.648  1.00  0.00     0.173 A 
ATOM     44  C   UNL A   1      41.864  23.241  28.036  1.00  0.00     0.173 A 
ATOM     45  F   UNL A   1      39.717  25.396  26.042  1.00  0.00    -0.203 F 
ATOM     46  C   UNL A   1      39.586  23.085  26.457  1.00  0.00     0.198 A 
ATOM     47  C   UNL A   1      41.245  22.012  27.816  1.00  0.00     0.198 A 
ATOM     48  F   UNL A   1      42.985  23.275  28.773  1.00  0.00    -0.203 F 
ATOM     49  F   UNL A   1      38.483  23.017  25.698  1.00  0.00    -0.200 F 
ATOM     50  C   UNL A   1      40.103  21.936  27.033  1.00  0.00     0.200 A 
ATOM     51  F   UNL A   1      41.771  20.895  28.339  1.00  0.00    -0.200 F 
ATOM     52  F   UNL A   1      39.511  20.753  26.819  1.00  0.00    -0.200 F 
ENDBRANCH  28  42
BRANCH  29  53
ATOM     53  C   UNL A   1      45.303  33.674  28.536  1.00  0.00     0.064 A 
ATOM     54  C   UNL A   1      46.169  34.008  29.592  1.00  0.00     0.173 A 
ATOM     55  C   UNL A   1      44.939  34.697  27.653  1.00  0.00     0.173 A 
ATOM     56  F   UNL A   1      46.556  33.068  30.468  1.00  0.00    -0.203 F 
ATOM     57  C   UNL A   1      46.618  35.314  29.778  1.00  0.00     0.198 A 
ATOM     58  C   UNL A   1      45.414  35.998  27.820  1.00  0.00     0.198 A 
ATOM     59  F   UNL A   1      44.132  34.430  26.616  1.00  0.00    -0.203 F 
ATOM     60  F   UNL A   1      47.405  35.609  30.822  1.00  0.00    -0.200 F 
ATOM     61  C   UNL A   1      46.243  36.308  28.889  1.00  0.00     0.200 A 
ATOM     62  F   UNL A   1      45.070  36.952  26.945  1.00  0.00    -0.200 F 
ATOM     63  F   UNL A   1      46.682  37.562  29.059  1.00  0.00    -0.200 F 
ENDBRANCH  29  53
BRANCH  41  64
ATOM     64  C   UNL A   1      47.453  27.756  25.465  1.00  0.00     0.064 A 
ATOM     65  C   UNL A   1      47.420  27.785  24.063  1.00  0.00     0.173 A 
ATOM     66  C   UNL A   1      48.620  27.303  26.093  1.00  0.00     0.173 A 
ATOM     67  F   UNL A   1      46.317  28.199  23.421  1.00  0.00    -0.203 F 
ATOM     68  C   UNL A   1      48.507  27.348  23.317  1.00  0.00     0.198 A 
ATOM     69  C   UNL A   1      49.719  26.901  25.343  1.00  0.00     0.198 A 
ATOM     70  F   UNL A   1      48.698  27.269  27.433  1.00  0.00    -0.203 F 
ATOM     71  F   UNL A   1      48.436  27.336  21.978  1.00  0.00    -0.200 F 
ATOM     72  C   UNL A   1      49.657  26.911  23.956  1.00  0.00     0.200 A 
ATOM     73  F   UNL A   1      50.839  26.501  25.960  1.00  0.00    -0.200 F 
ATOM     74  F   UNL A   1      50.707  26.498  23.235  1.00  0.00    -0.200 F 
ENDBRANCH  41  64
ENDBRANCH  15  16
ENDBRANCH   8  10
ENDBRANCH   7   8
ENDBRANCH   6   7
ENDBRANCH   5   6
ENDBRANCH   4   5
ENDBRANCH   3   4
ENDBRANCH   2   3
ENDBRANCH   1   2
BRANCH   1  75
ATOM     75  C   UNL A   1      33.290  30.549  26.939  1.00  0.00     0.188 C 
BRANCH  75  76
ATOM     76  C   UNL A   1      34.398  29.471  26.799  1.00  0.00     0.188 C 
BRANCH  76  77
ATOM     77  O   UNL A   1      33.915  28.213  26.377  1.00  0.00    -0.376 OA
BRANCH  77  78
ATOM     78  C   UNL A   1      32.664  27.820  26.924  1.00  0.00     0.202 C 
BRANCH  78  79
ATOM     79  C   UNL A   1      32.087  26.471  26.442  1.00  0.00     0.261 C 
BRANCH  79  80
ATOM     80  O   UNL A   1      33.016  25.404  26.073  1.00  0.00    -0.463 OA
BRANCH  80  81
ATOM     81  C   UNL A   1      32.527  24.173  25.779  1.00  0.00     0.313 C 
ATOM     82  O   UNL A   1      31.826  23.551  26.570  1.00  0.00    -0.252 OA
BRANCH  81  83
ATOM     83  C   UNL A   1      32.915  23.658  24.343  1.00  0.00     0.135 C 
BRANCH  83  84
ATOM     84  C   UNL A   1      33.364  22.205  24.525  1.00  0.00    -0.033 A 
ATOM     85  C   UNL A   1      32.434  21.198  24.188  1.00  0.00     0.007 A 
ATOM     86  C   UNL A   1      34.658  21.813  24.891  1.00  0.00     0.007 A 
ATOM     87  C   UNL A   1      32.803  19.857  24.171  1.00  0.00     0.039 A 
ATOM     88  C   UNL A   1      35.007  20.465  24.943  1.00  0.00     0.039 A 
ATOM     89  C   UNL A   1      34.084  19.502  24.563  1.00  0.00     0.123 A 
ATOM     90  F   UNL A   1      34.442  18.213  24.559  1.00  0.00    -0.207 F 
ENDBRANCH  83  84
BRANCH  83  91
ATOM     91  C   UNL A   1      31.783  23.945  23.307  1.00  0.00     0.076 C 
BRANCH  91  92
ATOM     92  C   UNL A   1      31.038  25.263  23.215  1.00  0.00     0.042 A 
ATOM     93  C   UNL A   1      31.627  26.330  22.519  1.00  0.00     0.024 A 
ATOM     94  N   UNL A   1      29.846  25.386  23.833  1.00  0.00    -0.261 NA
ATOM     95  C   UNL A   1      31.018  27.581  22.538  1.00  0.00     0.003 A 
ATOM     96  C   UNL A   1      29.277  26.616  23.837  1.00  0.00     0.111 A 
ATOM     97  C   UNL A   1      29.824  27.735  23.227  1.00  0.00     0.020 A 
ENDBRANCH  91  92
ENDBRANCH  83  91
ENDBRANCH  81  83
ENDBRANCH  80  81
ENDBRANCH  79  80
ENDBRANCH  78  79
ENDBRANCH  77  78
ENDBRANCH  76  77
ENDBRANCH  75  76
ENDBRANCH   1  75
TORSDOF 23
ENDMDL
MODEL 2
REMARK VINA RESULT:     -10.1      4.916      9.686
REMARK SMILES O=C(OCCOCCOCCOCCOC(=O)[C@H](Cc1ccccn1)c1ccc(F)cc1)c1ccc(-c2c3nc(c(-c4c(F)c(F)c(F)c(F)c4F)c4ccc([nH]4)c(-c4c(F)c(F)c(F)c(F)c4F)c4nc(c(-c5c(F)c(F)c(F)c(F)c5F)c5ccc2[nH]5)C=C4)C=C3)cc1
REMARK SMILES IDX 9 1 8 2 7 3 6 4 5 5 4 6 3 7 2 8 1 9 33 10 34 11 95 12 35 13
REMARK SMILES IDX 94 14 36 15 37 16 38 17 88 18 39 19 93 20 87 21 89 22 40 23
REMARK SMILES IDX 92 24 86 25 85 26 41 28 73 29 53 30 72 31 54 32 57 33 71 34
REMARK SMILES IDX 90 35 55 36 56 37 70 39 91 40 58 41 42 42 43 43 51 44 44 45
REMARK SMILES IDX 45 46 49 47 52 48 46 49 47 50 50 51 48 52 74 53 75 54 83 55
REMARK SMILES IDX 76 56 77 57 81 58 84 59 78 60 79 61 82 62 80 63 59 64 60 65
REMARK SMILES IDX 68 66 61 67 62 68 66 69 69 70 63 71 64 72 67 73 65 74 10 75
REMARK SMILES IDX 11 76 12 77 13 78 14 79 15 80 16 81 17 82 18 83 26 84 27 85
REMARK SMILES IDX 32 86 28 87 31 88 29 89 30 90 19 91 20 92 21 93 25 94 22 95
REMARK SMILES IDX 24 96 23 97
REMARK H PARENT 89 27 57 38
REMARK Flexibility Score: inf
ROOT
ATOM      1  O   UNL A   1      33.261  29.768  25.453  1.00  0.00    -0.377 OA
ENDROOT
BRANCH   1   2
ATOM      2  C   UNL A   1      32.911  30.016  26.800  1.00  0.00     0.188 C 
BRANCH   2   3
ATOM      3  C   UNL A   1      33.941  30.828  27.569  1.00  0.00     0.188 C 
BRANCH   3   4
ATOM      4  O   UNL A   1      33.399  32.047  28.065  1.00  0.00    -0.376 OA
BRANCH   4   5
ATOM      5  C   UNL A   1      34.223  33.204  28.076  1.00  0.00     0.202 C 
BRANCH   5   6
ATOM      6  C   UNL A   1      33.487  34.539  28.101  1.00  0.00     0.261 C 
BRANCH   6   7
ATOM      7  O   UNL A   1      32.655  34.772  29.250  1.00  0.00    -0.460 OA
BRANCH   7   8
ATOM      8  C   UNL A   1      32.924  35.123  30.531  1.00  0.00     0.338 C 
ATOM      9  O   UNL A   1      32.174  35.924  31.069  1.00  0.00    -0.246 OA
BRANCH   8  10
ATOM     10  C   UNL A   1      34.081  34.625  31.340  1.00  0.00     0.060 A 
ATOM     11  C   UNL A   1      35.278  35.297  31.568  1.00  0.00     0.016 A 
ATOM     12  C   UNL A   1      33.912  33.375  31.966  1.00  0.00     0.016 A 
ATOM     13  C   UNL A   1      36.307  34.741  32.305  1.00  0.00     0.010 A 
ATOM     14  C   UNL A   1      34.944  32.790  32.705  1.00  0.00     0.010 A 
ATOM     15  C   UNL A   1      36.166  33.458  32.814  1.00  0.00    -0.014 A 
BRANCH  15  16
ATOM     16  C   UNL A   1      37.415  32.752  33.141  1.00  0.00     0.031 A 
ATOM     17  C   UNL A   1      37.967  32.965  34.519  1.00  0.00     0.074 A 
ATOM     18  C   UNL A   1      37.881  31.794  32.324  1.00  0.00     0.049 A 
ATOM     19  N   UNL A   1      39.064  32.511  35.057  1.00  0.00    -0.248 NA
ATOM     20  C   UNL A   1      37.155  33.795  35.431  1.00  0.00     0.031 C 
ATOM     21  C   UNL A   1      37.261  31.392  31.060  1.00  0.00     0.029 A 
ATOM     22  N   UNL A   1      38.946  30.949  32.460  1.00  0.00    -0.354 N 
ATOM     23  C   UNL A   1      39.093  33.037  36.342  1.00  0.00     0.074 A 
ATOM     24  C   UNL A   1      37.914  33.849  36.512  1.00  0.00     0.031 C 
ATOM     25  C   UNL A   1      37.944  30.356  30.549  1.00  0.00     0.029 A 
ATOM     26  C   UNL A   1      39.095  30.087  31.404  1.00  0.00     0.049 A 
ATOM     27  H   UNL A   1      39.547  30.958  33.240  1.00  0.00     0.167 HD
ATOM     28  C   UNL A   1      40.037  32.850  37.290  1.00  0.00     0.037 A 
ATOM     29  C   UNL A   1      40.085  29.211  31.150  1.00  0.00     0.037 A 
ATOM     30  C   UNL A   1      41.184  32.014  37.076  1.00  0.00     0.049 A 
ATOM     31  C   UNL A   1      41.195  29.115  32.162  1.00  0.00     0.074 A 
ATOM     32  C   UNL A   1      42.272  31.806  37.897  1.00  0.00     0.029 A 
ATOM     33  N   UNL A   1      41.374  31.236  35.939  1.00  0.00    -0.354 N 
ATOM     34  N   UNL A   1      41.306  29.718  33.323  1.00  0.00    -0.248 NA
ATOM     35  C   UNL A   1      42.323  28.240  31.827  1.00  0.00     0.031 C 
ATOM     36  C   UNL A   1      43.147  30.940  37.233  1.00  0.00     0.029 A 
ATOM     37  C   UNL A   1      42.572  30.554  36.029  1.00  0.00     0.049 A 
ATOM     38  H   UNL A   1      40.748  31.178  35.182  1.00  0.00     0.167 HD
ATOM     39  C   UNL A   1      42.505  29.288  33.869  1.00  0.00     0.074 A 
ATOM     40  C   UNL A   1      43.078  28.357  32.912  1.00  0.00     0.031 C 
ATOM     41  C   UNL A   1      43.087  29.628  35.047  1.00  0.00     0.037 A 
BRANCH  28  42
ATOM     42  C   UNL A   1      39.894  33.624  38.568  1.00  0.00     0.064 A 
ATOM     43  C   UNL A   1      39.103  33.113  39.609  1.00  0.00     0.173 A 
ATOM     44  C   UNL A   1      40.563  34.836  38.791  1.00  0.00     0.173 A 
ATOM     45  F   UNL A   1      38.455  31.949  39.457  1.00  0.00    -0.203 F 
ATOM     46  C   UNL A   1      38.987  33.789  40.822  1.00  0.00     0.198 A 
ATOM     47  C   UNL A   1      40.471  35.493  40.016  1.00  0.00     0.198 A 
ATOM     48  F   UNL A   1      41.365  35.350  37.845  1.00  0.00    -0.203 F 
ATOM     49  F   UNL A   1      38.220  33.281  41.796  1.00  0.00    -0.200 F 
ATOM     50  C   UNL A   1      39.677  34.973  41.028  1.00  0.00     0.200 A 
ATOM     51  F   UNL A   1      41.173  36.615  40.229  1.00  0.00    -0.200 F 
ATOM     52  F   UNL A   1      39.592  35.602  42.208  1.00  0.00    -0.200 F 
ENDBRANCH  28  42
BRANCH  29  53
ATOM     53  C   UNL A   1      40.076  28.428  29.886  1.00  0.00     0.064 A 
ATOM     54  C   UNL A   1      39.433  27.181  29.810  1.00  0.00     0.173 A 
ATOM     55  C   UNL A   1      40.745  28.879  28.742  1.00  0.00     0.173 A 
ATOM     56  F   UNL A   1      38.772  26.698  30.874  1.00  0.00    -0.203 F 
ATOM     57  C   UNL A   1      39.489  26.403  28.656  1.00  0.00     0.198 A 
ATOM     58  C   UNL A   1      40.775  28.115  27.575  1.00  0.00     0.198 A 
ATOM     59  F   UNL A   1      41.358  30.071  28.752  1.00  0.00    -0.203 F 
ATOM     60  F   UNL A   1      38.905  25.197  28.631  1.00  0.00    -0.200 F 
ATOM     61  C   UNL A   1      40.158  26.873  27.536  1.00  0.00     0.200 A 
ATOM     62  F   UNL A   1      41.401  28.582  26.487  1.00  0.00    -0.200 F 
ATOM     63  F   UNL A   1      40.204  26.132  26.422  1.00  0.00    -0.200 F 
ENDBRANCH  29  53
BRANCH  41  64
ATOM     64  C   UNL A   1      44.388  28.966  35.380  1.00  0.00     0.064 A 
ATOM     65  C   UNL A   1      45.592  29.509  34.908  1.00  0.00     0.173 A 
ATOM     66  C   UNL A   1      44.434  27.749  36.073  1.00  0.00     0.173 A 
ATOM     67  F   UNL A   1      45.592  30.666  34.228  1.00  0.00    -0.203 F 
ATOM     68  C   UNL A   1      46.796  28.842  35.098  1.00  0.00     0.198 A 
ATOM     69  C   UNL A   1      45.646  27.103  36.293  1.00  0.00     0.198 A 
ATOM     70  F   UNL A   1      43.307  27.199  36.550  1.00  0.00    -0.203 F 
ATOM     71  F   UNL A   1      47.929  29.354  34.595  1.00  0.00    -0.200 F 
ATOM     72  C   UNL A   1      46.823  27.644  35.794  1.00  0.00     0.200 A 
ATOM     73  F   UNL A   1      45.675  25.957  36.985  1.00  0.00    -0.200 F 
ATOM     74  F   UNL A   1      47.986  27.006  35.984  1.00  0.00    -0.200 F 
ENDBRANCH  41  64
ENDBRANCH  15  16
ENDBRANCH   8  10
ENDBRANCH   7   8
ENDBRANCH   6   7
ENDBRANCH   5   6
ENDBRANCH   4   5
ENDBRANCH   3   4
ENDBRANCH   2   3
ENDBRANCH   1   2
BRANCH   1  75
ATOM     75  C   UNL A   1      32.930  28.486  24.939  1.00  0.00     0.188 C 
BRANCH  75  76
ATOM     76  C   UNL A   1      32.104  27.503  25.813  1.00  0.00     0.188 C 
BRANCH  76  77
ATOM     77  O   UNL A   1      30.908  27.070  25.202  1.00  0.00    -0.376 OA
BRANCH  77  78
ATOM     78  C   UNL A   1      30.429  25.799  25.618  1.00  0.00     0.202 C 
BRANCH  78  79
ATOM     79  C   UNL A   1      31.465  24.654  25.689  1.00  0.00     0.261 C 
BRANCH  79  80
ATOM     80  O   UNL A   1      31.362  23.557  24.728  1.00  0.00    -0.463 OA
BRANCH  80  81
ATOM     81  C   UNL A   1      32.199  23.533  23.661  1.00  0.00     0.313 C 
ATOM     82  O   UNL A   1      32.187  24.416  22.810  1.00  0.00    -0.252 OA
BRANCH  81  83
ATOM     83  C   UNL A   1      33.181  22.302  23.647  1.00  0.00     0.135 C 
BRANCH  83  84
ATOM     84  C   UNL A   1      34.523  22.831  24.162  1.00  0.00    -0.033 A 
ATOM     85  C   UNL A   1      34.609  23.135  25.538  1.00  0.00     0.007 A 
ATOM     86  C   UNL A   1      35.690  22.924  23.391  1.00  0.00     0.007 A 
ATOM     87  C   UNL A   1      35.826  23.469  26.123  1.00  0.00     0.039 A 
ATOM     88  C   UNL A   1      36.893  23.329  23.965  1.00  0.00     0.039 A 
ATOM     89  C   UNL A   1      36.955  23.577  25.328  1.00  0.00     0.123 A 
ATOM     90  F   UNL A   1      38.125  23.908  25.883  1.00  0.00    -0.207 F 
ENDBRANCH  83  84
BRANCH  83  91
ATOM     91  C   UNL A   1      32.560  21.067  24.372  1.00  0.00     0.076 C 
BRANCH  91  92
ATOM     92  C   UNL A   1      32.889  19.629  24.019  1.00  0.00     0.042 A 
ATOM     93  C   UNL A   1      33.972  19.003  24.655  1.00  0.00     0.024 A 
ATOM     94  N   UNL A   1      32.154  19.001  23.079  1.00  0.00    -0.261 NA
ATOM     95  C   UNL A   1      34.366  17.732  24.247  1.00  0.00     0.003 A 
ATOM     96  C   UNL A   1      32.562  17.766  22.700  1.00  0.00     0.111 A 
ATOM     97  C   UNL A   1      33.658  17.104  23.234  1.00  0.00     0.020 A 
ENDBRANCH  91  92
ENDBRANCH  83  91
ENDBRANCH  81  83
ENDBRANCH  80  81
ENDBRANCH  79  80
ENDBRANCH  78  79
ENDBRANCH  77  78
ENDBRANCH  76  77
ENDBRANCH  75  76
ENDBRANCH   1  75
TORSDOF 23
ENDMDL
MODEL 3
REMARK VINA RESULT:     -10.0      5.166      9.911
REMARK SMILES O=C(OCCOCCOCCOCCOC(=O)[C@H](Cc1ccccn1)c1ccc(F)cc1)c1ccc(-c2c3nc(c(-c4c(F)c(F)c(F)c(F)c4F)c4ccc([nH]4)c(-c4c(F)c(F)c(F)c(F)c4F)c4nc(c(-c5c(F)c(F)c(F)c(F)c5F)c5ccc2[nH]5)C=C4)C=C3)cc1
REMARK SMILES IDX 9 1 8 2 7 3 6 4 5 5 4 6 3 7 2 8 1 9 33 10 34 11 95 12 35 13
REMARK SMILES IDX 94 14 36 15 37 16 38 17 88 18 39 19 93 20 87 21 89 22 40 23
REMARK SMILES IDX 92 24 86 25 85 26 41 28 73 29 53 30 72 31 54 32 57 33 71 34
REMARK SMILES IDX 90 35 55 36 56 37 70 39 91 40 58 41 42 42 43 43 51 44 44 45
REMARK SMILES IDX 45 46 49 47 52 48 46 49 47 50 50 51 48 52 74 53 75 54 83 55
REMARK SMILES IDX 76 56 77 57 81 58 84 59 78 60 79 61 82 62 80 63 59 64 60 65
REMARK SMILES IDX 68 66 61 67 62 68 66 69 69 70 63 71 64 72 67 73 65 74 10 75
REMARK SMILES IDX 11 76 12 77 13 78 14 79 15 80 16 81 17 82 18 83 26 84 27 85
REMARK SMILES IDX 32 86 28 87 31 88 29 89 30 90 19 91 20 92 21 93 25 94 22 95
REMARK SMILES IDX 24 96 23 97
REMARK H PARENT 89 27 57 38
REMARK Flexibility Score: inf
ROOT
ATOM      1  O   UNL A   1      33.213  30.425  25.921  1.00  0.00    -0.377 OA
ENDROOT
BRANCH   1   2
ATOM      2  C   UNL A   1      33.054  30.827  27.267  1.00  0.00     0.188 C 
BRANCH   2   3
ATOM      3  C   UNL A   1      34.144  31.761  27.768  1.00  0.00     0.188 C 
BRANCH   3   4
ATOM      4  O   UNL A   1      33.616  32.827  28.548  1.00  0.00    -0.376 OA
BRANCH   4   5
ATOM      5  C   UNL A   1      34.156  34.130  28.374  1.00  0.00     0.202 C 
BRANCH   5   6
ATOM      6  C   UNL A   1      33.277  35.279  28.857  1.00  0.00     0.261 C 
BRANCH   6   7
ATOM      7  O   UNL A   1      32.537  35.034  30.065  1.00  0.00    -0.460 OA
BRANCH   7   8
ATOM      8  C   UNL A   1      32.788  35.287  31.372  1.00  0.00     0.338 C 
ATOM      9  O   UNL A   1      31.971  35.957  31.987  1.00  0.00    -0.246 OA
BRANCH   8  10
ATOM     10  C   UNL A   1      34.000  34.831  32.124  1.00  0.00     0.060 A 
ATOM     11  C   UNL A   1      35.225  35.488  32.189  1.00  0.00     0.016 A 
ATOM     12  C   UNL A   1      33.860  33.648  32.873  1.00  0.00     0.016 A 
ATOM     13  C   UNL A   1      36.301  34.972  32.886  1.00  0.00     0.010 A 
ATOM     14  C   UNL A   1      34.939  33.103  33.574  1.00  0.00     0.010 A 
ATOM     15  C   UNL A   1      36.180  33.744  33.520  1.00  0.00    -0.014 A 
BRANCH  15  16
ATOM     16  C   UNL A   1      37.437  33.036  33.804  1.00  0.00     0.031 A 
ATOM     17  C   UNL A   1      38.012  33.212  35.179  1.00  0.00     0.074 A 
ATOM     18  C   UNL A   1      37.894  32.105  32.953  1.00  0.00     0.049 A 
ATOM     19  N   UNL A   1      39.120  32.748  35.685  1.00  0.00    -0.248 NA
ATOM     20  C   UNL A   1      37.210  34.009  36.129  1.00  0.00     0.031 C 
ATOM     21  C   UNL A   1      37.255  31.737  31.688  1.00  0.00     0.029 A 
ATOM     22  N   UNL A   1      38.966  31.262  33.046  1.00  0.00    -0.354 N 
ATOM     23  C   UNL A   1      39.167  33.236  36.984  1.00  0.00     0.074 A 
ATOM     24  C   UNL A   1      37.987  34.036  37.198  1.00  0.00     0.031 C 
ATOM     25  C   UNL A   1      37.934  30.720  31.135  1.00  0.00     0.029 A 
ATOM     26  C   UNL A   1      39.101  30.432  31.962  1.00  0.00     0.049 A 
ATOM     27  H   UNL A   1      39.580  31.252  33.815  1.00  0.00     0.167 HD
ATOM     28  C   UNL A   1      40.129  33.027  37.910  1.00  0.00     0.037 A 
ATOM     29  C   UNL A   1      40.091  29.570  31.666  1.00  0.00     0.037 A 
ATOM     30  C   UNL A   1      41.276  32.203  37.653  1.00  0.00     0.049 A 
ATOM     31  C   UNL A   1      41.219  29.450  32.656  1.00  0.00     0.074 A 
ATOM     32  C   UNL A   1      42.379  31.978  38.449  1.00  0.00     0.029 A 
ATOM     33  N   UNL A   1      41.450  31.460  36.490  1.00  0.00    -0.354 N 
ATOM     34  N   UNL A   1      41.346  30.019  33.832  1.00  0.00    -0.248 NA
ATOM     35  C   UNL A   1      42.345  28.592  32.276  1.00  0.00     0.031 C 
ATOM     36  C   UNL A   1      43.247  31.136  37.745  1.00  0.00     0.029 A 
ATOM     37  C   UNL A   1      42.654  30.783  36.539  1.00  0.00     0.049 A 
ATOM     38  H   UNL A   1      40.812  31.422  35.742  1.00  0.00     0.167 HD
ATOM     39  C   UNL A   1      42.556  29.580  34.345  1.00  0.00     0.074 A 
ATOM     40  C   UNL A   1      43.118  28.681  33.352  1.00  0.00     0.031 C 
ATOM     41  C   UNL A   1      43.157  29.889  35.522  1.00  0.00     0.037 A 
BRANCH  28  42
ATOM     42  C   UNL A   1      40.003  33.762  39.212  1.00  0.00     0.064 A 
ATOM     43  C   UNL A   1      40.636  35.004  39.378  1.00  0.00     0.173 A 
ATOM     44  C   UNL A   1      39.228  33.277  40.277  1.00  0.00     0.173 A 
ATOM     45  F   UNL A   1      41.375  35.524  38.387  1.00  0.00    -0.203 F 
ATOM     46  C   UNL A   1      40.501  35.728  40.561  1.00  0.00     0.198 A 
ATOM     47  C   UNL A   1      39.069  34.019  41.446  1.00  0.00     0.198 A 
ATOM     48  F   UNL A   1      38.568  32.114  40.158  1.00  0.00    -0.203 F 
ATOM     49  F   UNL A   1      41.122  36.907  40.695  1.00  0.00    -0.200 F 
ATOM     50  C   UNL A   1      39.710  35.240  41.590  1.00  0.00     0.200 A 
ATOM     51  F   UNL A   1      38.270  33.565  42.422  1.00  0.00    -0.200 F 
ATOM     52  F   UNL A   1      39.553  35.954  42.712  1.00  0.00    -0.200 F 
ENDBRANCH  28  42
BRANCH  29  53
ATOM     53  C   UNL A   1      40.065  28.825  30.380  1.00  0.00     0.064 A 
ATOM     54  C   UNL A   1      39.418  27.581  30.276  1.00  0.00     0.173 A 
ATOM     55  C   UNL A   1      40.720  29.308  29.241  1.00  0.00     0.173 A 
ATOM     56  F   UNL A   1      38.770  27.068  31.333  1.00  0.00    -0.203 F 
ATOM     57  C   UNL A   1      39.459  26.838  29.098  1.00  0.00     0.198 A 
ATOM     58  C   UNL A   1      40.734  28.578  28.052  1.00  0.00     0.198 A 
ATOM     59  F   UNL A   1      41.335  30.498  29.278  1.00  0.00    -0.203 F 
ATOM     60  F   UNL A   1      38.872  25.634  29.046  1.00  0.00    -0.200 F 
ATOM     61  C   UNL A   1      40.114  27.339  27.985  1.00  0.00     0.200 A 
ATOM     62  F   UNL A   1      41.347  29.076  26.970  1.00  0.00    -0.200 F 
ATOM     63  F   UNL A   1      40.145  26.630  26.848  1.00  0.00    -0.200 F 
ENDBRANCH  29  53
BRANCH  41  64
ATOM     64  C   UNL A   1      44.467  29.225  35.814  1.00  0.00     0.064 A 
ATOM     65  C   UNL A   1      45.661  29.799  35.355  1.00  0.00     0.173 A 
ATOM     66  C   UNL A   1      44.530  27.979  36.452  1.00  0.00     0.173 A 
ATOM     67  F   UNL A   1      45.644  30.985  34.727  1.00  0.00    -0.203 F 
ATOM     68  C   UNL A   1      46.873  29.136  35.505  1.00  0.00     0.198 A 
ATOM     69  C   UNL A   1      45.749  27.335  36.632  1.00  0.00     0.198 A 
ATOM     70  F   UNL A   1      43.412  27.398  36.915  1.00  0.00    -0.203 F 
ATOM     71  F   UNL A   1      47.996  29.679  35.015  1.00  0.00    -0.200 F 
ATOM     72  C   UNL A   1      46.917  27.908  36.147  1.00  0.00     0.200 A 
ATOM     73  F   UNL A   1      45.795  26.160  37.273  1.00  0.00    -0.200 F 
ATOM     74  F   UNL A   1      48.087  27.273  36.297  1.00  0.00    -0.200 F 
ENDBRANCH  41  64
ENDBRANCH  15  16
ENDBRANCH   8  10
ENDBRANCH   7   8
ENDBRANCH   6   7
ENDBRANCH   5   6
ENDBRANCH   4   5
ENDBRANCH   3   4
ENDBRANCH   2   3
ENDBRANCH   1   2
BRANCH   1  75
ATOM     75  C   UNL A   1      32.845  29.088  25.611  1.00  0.00     0.188 C 
BRANCH  75  76
ATOM     76  C   UNL A   1      32.381  28.738  24.172  1.00  0.00     0.188 C 
BRANCH  76  77
ATOM     77  O   UNL A   1      33.437  28.661  23.239  1.00  0.00    -0.376 OA
BRANCH  77  78
ATOM     78  C   UNL A   1      33.516  27.453  22.497  1.00  0.00     0.202 C 
BRANCH  78  79
ATOM     79  C   UNL A   1      33.069  26.162  23.219  1.00  0.00     0.261 C 
BRANCH  79  80
ATOM     80  O   UNL A   1      34.091  25.302  23.814  1.00  0.00    -0.463 OA
BRANCH  80  81
ATOM     81  C   UNL A   1      33.809  24.637  24.962  1.00  0.00     0.313 C 
ATOM     82  O   UNL A   1      32.883  24.974  25.693  1.00  0.00    -0.252 OA
BRANCH  81  83
ATOM     83  C   UNL A   1      34.747  23.403  25.232  1.00  0.00     0.135 C 
BRANCH  83  84
ATOM     84  C   UNL A   1      34.041  22.195  24.611  1.00  0.00    -0.033 A 
ATOM     85  C   UNL A   1      34.305  20.931  25.183  1.00  0.00     0.007 A 
ATOM     86  C   UNL A   1      33.075  22.272  23.598  1.00  0.00     0.007 A 
ATOM     87  C   UNL A   1      33.593  19.803  24.789  1.00  0.00     0.039 A 
ATOM     88  C   UNL A   1      32.414  21.128  23.154  1.00  0.00     0.039 A 
ATOM     89  C   UNL A   1      32.664  19.910  23.768  1.00  0.00     0.123 A 
ATOM     90  F   UNL A   1      31.983  18.826  23.377  1.00  0.00    -0.207 F 
ENDBRANCH  83  84
BRANCH  83  91
ATOM     91  C   UNL A   1      36.216  23.694  24.790  1.00  0.00     0.076 C 
BRANCH  91  92
ATOM     92  C   UNL A   1      37.436  23.113  25.480  1.00  0.00     0.042 A 
ATOM     93  C   UNL A   1      38.183  23.930  26.342  1.00  0.00     0.024 A 
ATOM     94  N   UNL A   1      37.789  21.838  25.220  1.00  0.00    -0.261 NA
ATOM     95  C   UNL A   1      39.375  23.452  26.878  1.00  0.00     0.003 A 
ATOM     96  C   UNL A   1      38.957  21.401  25.753  1.00  0.00     0.111 A 
ATOM     97  C   UNL A   1      39.783  22.164  26.563  1.00  0.00     0.020 A 
ENDBRANCH  91  92
ENDBRANCH  83  91
ENDBRANCH  81  83
ENDBRANCH  80  81
ENDBRANCH  79  80
ENDBRANCH  78  79
ENDBRANCH  77  78
ENDBRANCH  76  77
ENDBRANCH  75  76
ENDBRANCH   1  75
TORSDOF 23
ENDMDL
