MODEL 1
REMARK VINA RESULT:     -11.1      0.000      0.000
REMARK SMILES Cc1cc(Cl)c(C)c2c1O[C@H](C(F)(F)F)C(C(=O)OCCOCCOCCOCCOC(=O)c1ccc(-c3c4nc(c(-c5c(F)c(F)c(F)c(F)c5F)c5ccc([nH]5)c(-c5c(F)c(F)c(F)c(F)c5F)c5nc(c(-c6c(F)c(F)c(F)c(F)c6F)c6ccc3[nH]6)C=C5)C=C4)cc1)=C2
REMARK SMILES IDX 26 1 25 2 24 3 23 4 22 5 21 6 20 7 19 8 17 9 18 10 16 11
REMARK SMILES IDX 1 12 2 13 3 14 9 15 4 16 8 17 10 18 5 19 6 20 97 21 11 22
REMARK SMILES IDX 7 23 12 24 13 25 14 26 15 27 27 28 28 29 29 30 30 31 31 32
REMARK SMILES IDX 32 33 33 34 34 35 35 36 96 37 36 38 95 39 37 40 38 41 39 42
REMARK SMILES IDX 89 43 40 44 94 45 88 46 90 47 41 48 93 49 87 50 86 51 42 53
REMARK SMILES IDX 74 54 54 55 73 56 55 57 58 58 72 59 91 60 56 61 57 62 71 64
REMARK SMILES IDX 92 65 59 66 43 67 44 68 52 69 45 70 46 71 50 72 53 73 47 74
REMARK SMILES IDX 48 75 51 76 49 77 75 78 76 79 84 80 77 81 78 82 82 83 85 84
REMARK SMILES IDX 79 85 80 86 83 87 81 88 60 89 61 90 69 91 62 92 63 93 67 94
REMARK SMILES IDX 70 95 64 96 65 97 68 98 66 99
REMARK H PARENT 90 52 58 63
REMARK Flexibility Score: inf
ROOT
ATOM      1  C   UNL A   1      40.326  20.659  26.296  1.00  0.00     0.188 C 
ENDROOT
BRANCH   1   2
ATOM      2  O   UNL A   1      39.575  21.856  26.518  1.00  0.00    -0.377 OA
BRANCH   2   3
ATOM      3  C   UNL A   1      38.381  22.046  25.775  1.00  0.00     0.188 C 
BRANCH   3   4
ATOM      4  C   UNL A   1      37.708  20.727  25.342  1.00  0.00     0.188 C 
BRANCH   4   5
ATOM      5  O   UNL A   1      36.308  20.860  25.160  1.00  0.00    -0.376 OA
BRANCH   5   6
ATOM      6  C   UNL A   1      35.585  21.850  25.870  1.00  0.00     0.202 C 
BRANCH   6   7
ATOM      7  C   UNL A   1      34.175  21.594  26.433  1.00  0.00     0.261 C 
BRANCH   7   8
ATOM      8  O   UNL A   1      33.419  22.738  26.835  1.00  0.00    -0.460 OA
BRANCH   8   9
ATOM      9  C   UNL A   1      32.370  23.097  26.071  1.00  0.00     0.338 C 
ATOM     10  O   UNL A   1      31.293  22.536  26.002  1.00  0.00    -0.246 OA
BRANCH   9  11
ATOM     11  C   UNL A   1      32.692  24.405  25.456  1.00  0.00     0.087 C 
ATOM     12  C   UNL A   1      34.041  28.164  22.264  1.00  0.00     0.048 C 
ATOM     13  C   UNL A   1      33.388  28.086  23.615  1.00  0.00    -0.007 A 
ATOM     14  C   UNL A   1      32.845  29.247  24.174  1.00  0.00     0.028 A 
ATOM     15  C   UNL A   1      33.217  26.868  24.290  1.00  0.00     0.131 A 
ATOM     16  C   UNL A   1      32.207  29.216  25.417  1.00  0.00     0.045 A 
ATOM     17  C   UNL A   1      32.522  26.814  25.511  1.00  0.00     0.022 A 
ATOM     18  O   UNL A   1      33.757  25.772  23.678  1.00  0.00    -0.475 OA
ATOM     19  Cl  UNL A   1      31.595  30.722  26.008  1.00  0.00    -0.084 Cl
ATOM     20  C   UNL A   1      32.057  28.007  26.121  1.00  0.00    -0.021 A 
ATOM     21  C   UNL A   1      32.234  25.497  26.079  1.00  0.00     0.027 C 
ATOM     22  C   UNL A   1      33.571  24.450  24.239  1.00  0.00     0.316 C 
ATOM     23  C   UNL A   1      31.441  27.970  27.499  1.00  0.00     0.047 C 
BRANCH  22  24
ATOM     24  C   UNL A   1      33.065  23.537  23.114  1.00  0.00     0.430 C 
ATOM     25  F   UNL A   1      33.543  23.933  21.908  1.00  0.00    -0.167 F 
ATOM     26  F   UNL A   1      33.458  22.253  23.281  1.00  0.00    -0.167 F 
ATOM     27  F   UNL A   1      31.715  23.539  23.035  1.00  0.00    -0.167 F 
ENDBRANCH  22  24
ENDBRANCH   9  11
ENDBRANCH   8   9
ENDBRANCH   7   8
ENDBRANCH   6   7
ENDBRANCH   5   6
ENDBRANCH   4   5
ENDBRANCH   3   4
ENDBRANCH   2   3
ENDBRANCH   1   2
BRANCH   1  28
ATOM     28  C   UNL A   1      41.856  20.576  26.530  1.00  0.00     0.188 C 
BRANCH  28  29
ATOM     29  O   UNL A   1      42.642  20.831  25.375  1.00  0.00    -0.376 OA
BRANCH  29  30
ATOM     30  C   UNL A   1      43.988  20.385  25.373  1.00  0.00     0.202 C 
BRANCH  30  31
ATOM     31  C   UNL A   1      45.053  21.488  25.422  1.00  0.00     0.261 C 
BRANCH  31  32
ATOM     32  O   UNL A   1      44.689  22.671  26.148  1.00  0.00    -0.460 OA
BRANCH  32  33
ATOM     33  C   UNL A   1      44.434  23.787  25.431  1.00  0.00     0.338 C 
ATOM     34  O   UNL A   1      44.611  23.957  24.237  1.00  0.00    -0.246 OA
BRANCH  33  35
ATOM     35  C   UNL A   1      43.712  24.724  26.315  1.00  0.00     0.060 A 
ATOM     36  C   UNL A   1      44.056  26.082  26.298  1.00  0.00     0.016 A 
ATOM     37  C   UNL A   1      42.686  24.262  27.143  1.00  0.00     0.016 A 
ATOM     38  C   UNL A   1      43.394  26.979  27.136  1.00  0.00     0.010 A 
ATOM     39  C   UNL A   1      42.042  25.156  28.001  1.00  0.00     0.010 A 
ATOM     40  C   UNL A   1      42.417  26.512  28.025  1.00  0.00    -0.014 A 
BRANCH  40  41
ATOM     41  C   UNL A   1      41.954  27.387  29.128  1.00  0.00     0.031 A 
ATOM     42  C   UNL A   1      42.727  27.359  30.418  1.00  0.00     0.074 A 
ATOM     43  C   UNL A   1      40.899  28.209  28.986  1.00  0.00     0.049 A 
ATOM     44  N   UNL A   1      42.498  27.994  31.540  1.00  0.00    -0.248 NA
ATOM     45  C   UNL A   1      43.923  26.500  30.447  1.00  0.00     0.031 C 
ATOM     46  C   UNL A   1      40.107  28.365  27.768  1.00  0.00     0.029 A 
ATOM     47  N   UNL A   1      40.313  29.067  29.883  1.00  0.00    -0.354 N 
ATOM     48  C   UNL A   1      43.520  27.613  32.400  1.00  0.00     0.074 A 
ATOM     49  C   UNL A   1      44.351  26.669  31.688  1.00  0.00     0.031 C 
ATOM     50  C   UNL A   1      39.131  29.263  27.998  1.00  0.00     0.029 A 
ATOM     51  C   UNL A   1      39.211  29.718  29.386  1.00  0.00     0.049 A 
ATOM     52  H   UNL A   1      40.652  29.204  30.797  1.00  0.00     0.167 HD
ATOM     53  C   UNL A   1      43.751  28.029  33.665  1.00  0.00     0.037 A 
ATOM     54  C   UNL A   1      38.355  30.565  29.993  1.00  0.00     0.037 A 
ATOM     55  C   UNL A   1      42.925  28.969  34.371  1.00  0.00     0.049 A 
ATOM     56  C   UNL A   1      38.581  30.935  31.438  1.00  0.00     0.074 A 
ATOM     57  C   UNL A   1      43.080  29.453  35.658  1.00  0.00     0.029 A 
ATOM     58  N   UNL A   1      41.786  29.565  33.851  1.00  0.00    -0.354 N 
ATOM     59  N   UNL A   1      39.557  30.584  32.241  1.00  0.00    -0.248 NA
ATOM     60  C   UNL A   1      37.586  31.819  32.064  1.00  0.00     0.031 C 
ATOM     61  C   UNL A   1      42.005  30.300  35.936  1.00  0.00     0.029 A 
ATOM     62  C   UNL A   1      41.214  30.391  34.802  1.00  0.00     0.049 A 
ATOM     63  H   UNL A   1      41.437  29.422  32.941  1.00  0.00     0.167 HD
ATOM     64  C   UNL A   1      39.309  31.223  33.451  1.00  0.00     0.074 A 
ATOM     65  C   UNL A   1      38.100  31.998  33.273  1.00  0.00     0.031 C 
ATOM     66  C   UNL A   1      40.017  31.169  34.606  1.00  0.00     0.037 A 
BRANCH  53  67
ATOM     67  C   UNL A   1      44.943  27.468  34.382  1.00  0.00     0.064 A 
ATOM     68  C   UNL A   1      44.869  26.258  35.089  1.00  0.00     0.173 A 
ATOM     69  C   UNL A   1      46.190  28.102  34.290  1.00  0.00     0.173 A 
ATOM     70  F   UNL A   1      43.695  25.623  35.220  1.00  0.00    -0.203 F 
ATOM     71  C   UNL A   1      46.002  25.706  35.680  1.00  0.00     0.198 A 
ATOM     72  C   UNL A   1      47.326  27.532  34.858  1.00  0.00     0.198 A 
ATOM     73  F   UNL A   1      46.313  29.261  33.625  1.00  0.00    -0.203 F 
ATOM     74  F   UNL A   1      45.905  24.563  36.372  1.00  0.00    -0.200 F 
ATOM     75  C   UNL A   1      47.232  26.336  35.553  1.00  0.00     0.200 A 
ATOM     76  F   UNL A   1      48.515  28.136  34.722  1.00  0.00    -0.200 F 
ATOM     77  F   UNL A   1      48.326  25.790  36.099  1.00  0.00    -0.200 F 
ENDBRANCH  53  67
BRANCH  54  78
ATOM     78  C   UNL A   1      37.196  31.122  29.242  1.00  0.00     0.064 A 
ATOM     79  C   UNL A   1      37.185  32.458  28.816  1.00  0.00     0.173 A 
ATOM     80  C   UNL A   1      36.066  30.340  28.960  1.00  0.00     0.173 A 
ATOM     81  F   UNL A   1      38.227  33.256  29.087  1.00  0.00    -0.203 F 
ATOM     82  C   UNL A   1      36.083  32.993  28.149  1.00  0.00     0.198 A 
ATOM     83  C   UNL A   1      34.978  30.867  28.266  1.00  0.00     0.198 A 
ATOM     84  F   UNL A   1      36.019  29.059  29.353  1.00  0.00    -0.203 F 
ATOM     85  F   UNL A   1      36.080  34.286  27.797  1.00  0.00    -0.200 F 
ATOM     86  C   UNL A   1      34.984  32.196  27.868  1.00  0.00     0.200 A 
ATOM     87  F   UNL A   1      33.923  30.091  27.989  1.00  0.00    -0.200 F 
ATOM     88  F   UNL A   1      33.928  32.709  27.225  1.00  0.00    -0.200 F 
ENDBRANCH  54  78
BRANCH  66  89
ATOM     89  C   UNL A   1      39.530  31.986  35.770  1.00  0.00     0.064 A 
ATOM     90  C   UNL A   1      39.939  33.313  35.957  1.00  0.00     0.173 A 
ATOM     91  C   UNL A   1      38.572  31.462  36.653  1.00  0.00     0.173 A 
ATOM     92  F   UNL A   1      40.858  33.857  35.147  1.00  0.00    -0.203 F 
ATOM     93  C   UNL A   1      39.417  34.082  36.994  1.00  0.00     0.198 A 
ATOM     94  C   UNL A   1      38.028  32.244  37.667  1.00  0.00     0.198 A 
ATOM     95  F   UNL A   1      38.136  30.201  36.509  1.00  0.00    -0.203 F 
ATOM     96  F   UNL A   1      39.848  35.339  37.175  1.00  0.00    -0.200 F 
ATOM     97  C   UNL A   1      38.454  33.552  37.841  1.00  0.00     0.200 A 
ATOM     98  F   UNL A   1      37.082  31.736  38.470  1.00  0.00    -0.200 F 
ATOM     99  F   UNL A   1      37.938  34.302  38.824  1.00  0.00    -0.200 F 
ENDBRANCH  66  89
ENDBRANCH  40  41
ENDBRANCH  33  35
ENDBRANCH  32  33
ENDBRANCH  31  32
ENDBRANCH  30  31
ENDBRANCH  29  30
ENDBRANCH  28  29
ENDBRANCH   1  28
TORSDOF 21
ENDMDL
MODEL 2
REMARK VINA RESULT:     -11.0      1.344      2.797
REMARK SMILES Cc1cc(Cl)c(C)c2c1O[C@H](C(F)(F)F)C(C(=O)OCCOCCOCCOCCOC(=O)c1ccc(-c3c4nc(c(-c5c(F)c(F)c(F)c(F)c5F)c5ccc([nH]5)c(-c5c(F)c(F)c(F)c(F)c5F)c5nc(c(-c6c(F)c(F)c(F)c(F)c6F)c6ccc3[nH]6)C=C5)C=C4)cc1)=C2
REMARK SMILES IDX 26 1 25 2 24 3 23 4 22 5 21 6 20 7 19 8 17 9 18 10 16 11
REMARK SMILES IDX 1 12 2 13 3 14 9 15 4 16 8 17 10 18 5 19 6 20 97 21 11 22
REMARK SMILES IDX 7 23 12 24 13 25 14 26 15 27 27 28 28 29 29 30 30 31 31 32
REMARK SMILES IDX 32 33 33 34 34 35 35 36 96 37 36 38 95 39 37 40 38 41 39 42
REMARK SMILES IDX 89 43 40 44 94 45 88 46 90 47 41 48 93 49 87 50 86 51 42 53
REMARK SMILES IDX 74 54 54 55 73 56 55 57 58 58 72 59 91 60 56 61 57 62 71 64
REMARK SMILES IDX 92 65 59 66 43 67 44 68 52 69 45 70 46 71 50 72 53 73 47 74
REMARK SMILES IDX 48 75 51 76 49 77 75 78 76 79 84 80 77 81 78 82 82 83 85 84
REMARK SMILES IDX 79 85 80 86 83 87 81 88 60 89 61 90 69 91 62 92 63 93 67 94
REMARK SMILES IDX 70 95 64 96 65 97 68 98 66 99
REMARK H PARENT 90 52 58 63
REMARK Flexibility Score: inf
ROOT
ATOM      1  C   UNL A   1      43.840  19.086  25.352  1.00  0.00     0.188 C 
ENDROOT
BRANCH   1   2
ATOM      2  O   UNL A   1      42.503  19.530  25.105  1.00  0.00    -0.377 OA
BRANCH   2   3
ATOM      3  C   UNL A   1      41.536  19.346  26.127  1.00  0.00     0.188 C 
BRANCH   3   4
ATOM      4  C   UNL A   1      40.975  20.669  26.689  1.00  0.00     0.188 C 
BRANCH   4   5
ATOM      5  O   UNL A   1      39.795  21.091  26.025  1.00  0.00    -0.376 OA
BRANCH   5   6
ATOM      6  C   UNL A   1      39.317  22.415  26.189  1.00  0.00     0.202 C 
BRANCH   6   7
ATOM      7  C   UNL A   1      37.821  22.766  26.101  1.00  0.00     0.261 C 
BRANCH   7   8
ATOM      8  O   UNL A   1      37.426  23.670  25.066  1.00  0.00    -0.460 OA
BRANCH   8   9
ATOM      9  C   UNL A   1      36.600  23.206  24.110  1.00  0.00     0.338 C 
ATOM     10  O   UNL A   1      36.915  22.576  23.117  1.00  0.00    -0.246 OA
BRANCH   9  11
ATOM     11  C   UNL A   1      35.212  23.442  24.566  1.00  0.00     0.087 C 
ATOM     12  C   UNL A   1      30.435  22.942  26.320  1.00  0.00     0.048 C 
ATOM     13  C   UNL A   1      31.374  24.090  26.075  1.00  0.00    -0.007 A 
ATOM     14  C   UNL A   1      31.021  25.364  26.531  1.00  0.00     0.028 A 
ATOM     15  C   UNL A   1      32.637  23.907  25.494  1.00  0.00     0.131 A 
ATOM     16  C   UNL A   1      31.874  26.455  26.347  1.00  0.00     0.045 A 
ATOM     17  C   UNL A   1      33.531  24.985  25.360  1.00  0.00     0.022 A 
ATOM     18  O   UNL A   1      32.923  22.634  25.088  1.00  0.00    -0.475 OA
ATOM     19  Cl  UNL A   1      31.314  27.981  26.939  1.00  0.00    -0.084 Cl
ATOM     20  C   UNL A   1      33.131  26.293  25.736  1.00  0.00    -0.021 A 
ATOM     21  C   UNL A   1      34.889  24.697  24.900  1.00  0.00     0.027 C 
ATOM     22  C   UNL A   1      34.228  22.308  24.550  1.00  0.00     0.316 C 
ATOM     23  C   UNL A   1      34.030  27.475  25.459  1.00  0.00     0.047 C 
BRANCH  22  24
ATOM     24  C   UNL A   1      34.742  21.072  25.300  1.00  0.00     0.430 C 
ATOM     25  F   UNL A   1      35.757  20.476  24.627  1.00  0.00    -0.167 F 
ATOM     26  F   UNL A   1      35.222  21.380  26.527  1.00  0.00    -0.167 F 
ATOM     27  F   UNL A   1      33.770  20.147  25.467  1.00  0.00    -0.167 F 
ENDBRANCH  22  24
ENDBRANCH   9  11
ENDBRANCH   8   9
ENDBRANCH   7   8
ENDBRANCH   6   7
ENDBRANCH   5   6
ENDBRANCH   4   5
ENDBRANCH   3   4
ENDBRANCH   2   3
ENDBRANCH   1   2
BRANCH   1  28
ATOM     28  C   UNL A   1      45.002  19.340  24.358  1.00  0.00     0.188 C 
BRANCH  28  29
ATOM     29  O   UNL A   1      45.990  20.247  24.828  1.00  0.00    -0.376 OA
BRANCH  29  30
ATOM     30  C   UNL A   1      45.560  21.496  25.340  1.00  0.00     0.202 C 
BRANCH  30  31
ATOM     31  C   UNL A   1      45.450  22.633  24.317  1.00  0.00     0.261 C 
BRANCH  31  32
ATOM     32  O   UNL A   1      44.773  23.815  24.770  1.00  0.00    -0.460 OA
BRANCH  32  33
ATOM     33  C   UNL A   1      43.469  23.695  25.103  1.00  0.00     0.338 C 
ATOM     34  O   UNL A   1      42.652  22.922  24.633  1.00  0.00    -0.246 OA
BRANCH  33  35
ATOM     35  C   UNL A   1      43.239  24.539  26.292  1.00  0.00     0.060 A 
ATOM     36  C   UNL A   1      42.494  24.025  27.362  1.00  0.00     0.016 A 
ATOM     37  C   UNL A   1      43.773  25.829  26.355  1.00  0.00     0.016 A 
ATOM     38  C   UNL A   1      42.255  24.813  28.487  1.00  0.00     0.010 A 
ATOM     39  C   UNL A   1      43.510  26.627  27.471  1.00  0.00     0.010 A 
ATOM     40  C   UNL A   1      42.721  26.133  28.526  1.00  0.00    -0.014 A 
BRANCH  40  41
ATOM     41  C   UNL A   1      42.197  27.064  29.554  1.00  0.00     0.031 A 
ATOM     42  C   UNL A   1      42.922  27.137  30.870  1.00  0.00     0.074 A 
ATOM     43  C   UNL A   1      41.129  27.847  29.322  1.00  0.00     0.049 A 
ATOM     44  N   UNL A   1      42.637  27.835  31.940  1.00  0.00    -0.248 NA
ATOM     45  C   UNL A   1      44.136  26.313  30.996  1.00  0.00     0.031 C 
ATOM     46  C   UNL A   1      40.379  27.906  28.070  1.00  0.00     0.029 A 
ATOM     47  N   UNL A   1      40.490  28.745  30.141  1.00  0.00    -0.354 N 
ATOM     48  C   UNL A   1      43.635  27.536  32.858  1.00  0.00     0.074 A 
ATOM     49  C   UNL A   1      44.514  26.571  32.239  1.00  0.00     0.031 C 
ATOM     50  C   UNL A   1      39.375  28.791  28.207  1.00  0.00     0.029 A 
ATOM     51  C   UNL A   1      39.392  29.334  29.565  1.00  0.00     0.049 A 
ATOM     52  H   UNL A   1      40.792  28.948  31.056  1.00  0.00     0.167 HD
ATOM     53  C   UNL A   1      43.809  28.037  34.102  1.00  0.00     0.037 A 
ATOM     54  C   UNL A   1      38.494  30.196  30.086  1.00  0.00     0.037 A 
ATOM     55  C   UNL A   1      42.936  28.998  34.717  1.00  0.00     0.049 A 
ATOM     56  C   UNL A   1      38.658  30.662  31.512  1.00  0.00     0.074 A 
ATOM     57  C   UNL A   1      43.031  29.565  35.974  1.00  0.00     0.029 A 
ATOM     58  N   UNL A   1      41.803  29.530  34.120  1.00  0.00    -0.354 N 
ATOM     59  N   UNL A   1      39.611  30.387  32.370  1.00  0.00    -0.248 NA
ATOM     60  C   UNL A   1      37.620  31.557  32.044  1.00  0.00     0.031 C 
ATOM     61  C   UNL A   1      41.927  30.400  36.160  1.00  0.00     0.029 A 
ATOM     62  C   UNL A   1      41.176  30.399  34.995  1.00  0.00     0.049 A 
ATOM     63  H   UNL A   1      41.492  29.321  33.209  1.00  0.00     0.167 HD
ATOM     64  C   UNL A   1      39.304  31.094  33.526  1.00  0.00     0.074 A 
ATOM     65  C   UNL A   1      38.084  31.825  33.256  1.00  0.00     0.031 C 
ATOM     66  C   UNL A   1      39.970  31.132  34.707  1.00  0.00     0.037 A 
BRANCH  53  67
ATOM     67  C   UNL A   1      44.986  27.553  34.895  1.00  0.00     0.064 A 
ATOM     68  C   UNL A   1      46.250  28.147  34.765  1.00  0.00     0.173 A 
ATOM     69  C   UNL A   1      44.830  26.541  35.853  1.00  0.00     0.173 A 
ATOM     70  F   UNL A   1      46.456  29.105  33.850  1.00  0.00    -0.203 F 
ATOM     71  C   UNL A   1      47.315  27.743  35.567  1.00  0.00     0.198 A 
ATOM     72  C   UNL A   1      45.888  26.160  36.672  1.00  0.00     0.198 A 
ATOM     73  F   UNL A   1      43.640  25.941  36.015  1.00  0.00    -0.203 F 
ATOM     74  F   UNL A   1      48.521  28.307  35.410  1.00  0.00    -0.200 F 
ATOM     75  C   UNL A   1      47.130  26.760  36.528  1.00  0.00     0.200 A 
ATOM     76  F   UNL A   1      45.703  25.220  37.609  1.00  0.00    -0.200 F 
ATOM     77  F   UNL A   1      48.148  26.392  37.316  1.00  0.00    -0.200 F 
ENDBRANCH  53  67
BRANCH  54  78
ATOM     78  C   UNL A   1      37.351  30.674  29.261  1.00  0.00     0.064 A 
ATOM     79  C   UNL A   1      37.316  31.985  28.764  1.00  0.00     0.173 A 
ATOM     80  C   UNL A   1      36.259  29.841  28.974  1.00  0.00     0.173 A 
ATOM     81  F   UNL A   1      38.320  32.831  29.035  1.00  0.00    -0.203 F 
ATOM     82  C   UNL A   1      36.227  32.448  28.026  1.00  0.00     0.198 A 
ATOM     83  C   UNL A   1      35.185  30.295  28.210  1.00  0.00     0.198 A 
ATOM     84  F   UNL A   1      36.236  28.581  29.432  1.00  0.00    -0.203 F 
ATOM     85  F   UNL A   1      36.198  33.720  27.607  1.00  0.00    -0.200 F 
ATOM     86  C   UNL A   1      35.167  31.601  27.744  1.00  0.00     0.200 A 
ATOM     87  F   UNL A   1      34.168  29.470  27.932  1.00  0.00    -0.200 F 
ATOM     88  F   UNL A   1      34.123  32.044  27.031  1.00  0.00    -0.200 F 
ENDBRANCH  54  78
BRANCH  66  89
ATOM     89  C   UNL A   1      39.420  32.007  35.798  1.00  0.00     0.064 A 
ATOM     90  C   UNL A   1      38.462  31.534  36.706  1.00  0.00     0.173 A 
ATOM     91  C   UNL A   1      39.928  33.302  35.993  1.00  0.00     0.173 A 
ATOM     92  F   UNL A   1      37.940  30.308  36.558  1.00  0.00    -0.203 F 
ATOM     93  C   UNL A   1      38.022  32.330  37.760  1.00  0.00     0.198 A 
ATOM     94  C   UNL A   1      39.510  34.081  37.067  1.00  0.00     0.198 A 
ATOM     95  F   UNL A   1      40.856  33.797  35.161  1.00  0.00    -0.203 F 
ATOM     96  F   UNL A   1      37.080  31.870  38.596  1.00  0.00    -0.200 F 
ATOM     97  C   UNL A   1      38.553  33.598  37.947  1.00  0.00     0.200 A 
ATOM     98  F   UNL A   1      40.041  35.297  37.258  1.00  0.00    -0.200 F 
ATOM     99  F   UNL A   1      38.144  34.353  38.975  1.00  0.00    -0.200 F 
ENDBRANCH  66  89
ENDBRANCH  40  41
ENDBRANCH  33  35
ENDBRANCH  32  33
ENDBRANCH  31  32
ENDBRANCH  30  31
ENDBRANCH  29  30
ENDBRANCH  28  29
ENDBRANCH   1  28
TORSDOF 21
ENDMDL
MODEL 3
REMARK VINA RESULT:     -10.7      3.273      9.011
REMARK SMILES Cc1cc(Cl)c(C)c2c1O[C@H](C(F)(F)F)C(C(=O)OCCOCCOCCOCCOC(=O)c1ccc(-c3c4nc(c(-c5c(F)c(F)c(F)c(F)c5F)c5ccc([nH]5)c(-c5c(F)c(F)c(F)c(F)c5F)c5nc(c(-c6c(F)c(F)c(F)c(F)c6F)c6ccc3[nH]6)C=C5)C=C4)cc1)=C2
REMARK SMILES IDX 26 1 25 2 24 3 23 4 22 5 21 6 20 7 19 8 17 9 18 10 16 11
REMARK SMILES IDX 1 12 2 13 3 14 9 15 4 16 8 17 10 18 5 19 6 20 97 21 11 22
REMARK SMILES IDX 7 23 12 24 13 25 14 26 15 27 27 28 28 29 29 30 30 31 31 32
REMARK SMILES IDX 32 33 33 34 34 35 35 36 96 37 36 38 95 39 37 40 38 41 39 42
REMARK SMILES IDX 89 43 40 44 94 45 88 46 90 47 41 48 93 49 87 50 86 51 42 53
REMARK SMILES IDX 74 54 54 55 73 56 55 57 58 58 72 59 91 60 56 61 57 62 71 64
REMARK SMILES IDX 92 65 59 66 43 67 44 68 52 69 45 70 46 71 50 72 53 73 47 74
REMARK SMILES IDX 48 75 51 76 49 77 75 78 76 79 84 80 77 81 78 82 82 83 85 84
REMARK SMILES IDX 79 85 80 86 83 87 81 88 60 89 61 90 69 91 62 92 63 93 67 94
REMARK SMILES IDX 70 95 64 96 65 97 68 98 66 99
REMARK H PARENT 90 52 58 63
REMARK Flexibility Score: inf
ROOT
ATOM      1  C   UNL A   1      27.676  31.241  23.557  1.00  0.00     0.188 C 
ENDROOT
BRANCH   1   2
ATOM      2  O   UNL A   1      27.512  30.047  22.787  1.00  0.00    -0.377 OA
BRANCH   2   3
ATOM      3  C   UNL A   1      28.537  29.694  21.871  1.00  0.00     0.188 C 
BRANCH   3   4
ATOM      4  C   UNL A   1      29.564  28.699  22.450  1.00  0.00     0.188 C 
BRANCH   4   5
ATOM      5  O   UNL A   1      29.014  27.867  23.458  1.00  0.00    -0.376 OA
BRANCH   5   6
ATOM      6  C   UNL A   1      29.831  26.925  24.132  1.00  0.00     0.202 C 
BRANCH   6   7
ATOM      7  C   UNL A   1      31.256  27.263  24.606  1.00  0.00     0.261 C 
BRANCH   7   8
ATOM      8  O   UNL A   1      32.118  26.163  24.907  1.00  0.00    -0.460 OA
BRANCH   8   9
ATOM      9  C   UNL A   1      33.168  25.948  24.093  1.00  0.00     0.338 C 
ATOM     10  O   UNL A   1      33.706  26.763  23.366  1.00  0.00    -0.246 OA
BRANCH   9  11
ATOM     11  C   UNL A   1      33.673  24.583  24.365  1.00  0.00     0.087 C 
ATOM     12  C   UNL A   1      34.356  19.521  24.587  1.00  0.00     0.048 C 
ATOM     13  C   UNL A   1      35.185  20.732  24.913  1.00  0.00    -0.007 A 
ATOM     14  C   UNL A   1      36.537  20.563  25.228  1.00  0.00     0.028 A 
ATOM     15  C   UNL A   1      34.673  22.034  24.815  1.00  0.00     0.131 A 
ATOM     16  C   UNL A   1      37.351  21.662  25.514  1.00  0.00     0.045 A 
ATOM     17  C   UNL A   1      35.498  23.150  25.039  1.00  0.00     0.022 A 
ATOM     18  O   UNL A   1      33.349  22.125  24.486  1.00  0.00    -0.475 OA
ATOM     19  Cl  UNL A   1      39.001  21.318  25.908  1.00  0.00    -0.084 Cl
ATOM     20  C   UNL A   1      36.843  22.972  25.452  1.00  0.00    -0.021 A 
ATOM     21  C   UNL A   1      34.948  24.476  24.759  1.00  0.00     0.027 C 
ATOM     22  C   UNL A   1      32.731  23.418  24.274  1.00  0.00     0.316 C 
ATOM     23  C   UNL A   1      37.688  24.163  25.835  1.00  0.00     0.047 C 
BRANCH  22  24
ATOM     24  C   UNL A   1      31.991  23.362  22.931  1.00  0.00     0.430 C 
ATOM     25  F   UNL A   1      32.775  23.810  21.919  1.00  0.00    -0.167 F 
ATOM     26  F   UNL A   1      31.619  22.104  22.602  1.00  0.00    -0.167 F 
ATOM     27  F   UNL A   1      30.873  24.124  22.944  1.00  0.00    -0.167 F 
ENDBRANCH  22  24
ENDBRANCH   9  11
ENDBRANCH   8   9
ENDBRANCH   7   8
ENDBRANCH   6   7
ENDBRANCH   5   6
ENDBRANCH   4   5
ENDBRANCH   3   4
ENDBRANCH   2   3
ENDBRANCH   1   2
BRANCH   1  28
ATOM     28  C   UNL A   1      29.050  31.932  23.744  1.00  0.00     0.188 C 
BRANCH  28  29
ATOM     29  O   UNL A   1      29.901  31.304  24.693  1.00  0.00    -0.376 OA
BRANCH  29  30
ATOM     30  C   UNL A   1      30.657  32.131  25.562  1.00  0.00     0.202 C 
BRANCH  30  31
ATOM     31  C   UNL A   1      31.386  31.407  26.700  1.00  0.00     0.261 C 
BRANCH  31  32
ATOM     32  O   UNL A   1      32.818  31.507  26.683  1.00  0.00    -0.460 OA
BRANCH  32  33
ATOM     33  C   UNL A   1      33.381  32.499  27.407  1.00  0.00     0.338 C 
ATOM     34  O   UNL A   1      32.884  33.570  27.708  1.00  0.00    -0.246 OA
BRANCH  33  35
ATOM     35  C   UNL A   1      34.654  31.982  27.948  1.00  0.00     0.060 A 
ATOM     36  C   UNL A   1      34.750  30.626  28.291  1.00  0.00     0.016 A 
ATOM     37  C   UNL A   1      35.752  32.831  28.100  1.00  0.00     0.016 A 
ATOM     38  C   UNL A   1      35.940  30.123  28.816  1.00  0.00     0.010 A 
ATOM     39  C   UNL A   1      36.935  32.333  28.651  1.00  0.00     0.010 A 
ATOM     40  C   UNL A   1      37.022  30.985  29.042  1.00  0.00    -0.014 A 
BRANCH  40  41
ATOM     41  C   UNL A   1      38.150  30.533  29.891  1.00  0.00     0.031 A 
ATOM     42  C   UNL A   1      39.131  29.560  29.296  1.00  0.00     0.074 A 
ATOM     43  C   UNL A   1      38.324  30.994  31.142  1.00  0.00     0.049 A 
ATOM     44  N   UNL A   1      40.170  28.985  29.845  1.00  0.00    -0.248 NA
ATOM     45  C   UNL A   1      38.912  29.188  27.888  1.00  0.00     0.031 C 
ATOM     46  C   UNL A   1      37.474  31.978  31.807  1.00  0.00     0.029 A 
ATOM     47  N   UNL A   1      39.281  30.686  32.078  1.00  0.00    -0.354 N 
ATOM     48  C   UNL A   1      40.726  28.190  28.851  1.00  0.00     0.074 A 
ATOM     49  C   UNL A   1      39.895  28.326  27.677  1.00  0.00     0.031 C 
ATOM     50  C   UNL A   1      37.945  32.189  33.050  1.00  0.00     0.029 A 
ATOM     51  C   UNL A   1      39.107  31.331  33.278  1.00  0.00     0.049 A 
ATOM     52  H   UNL A   1      40.022  30.061  31.905  1.00  0.00     0.167 HD
ATOM     53  C   UNL A   1      41.840  27.426  28.911  1.00  0.00     0.037 A 
ATOM     54  C   UNL A   1      39.798  31.221  34.431  1.00  0.00     0.037 A 
ATOM     55  C   UNL A   1      42.666  27.292  30.079  1.00  0.00     0.049 A 
ATOM     56  C   UNL A   1      40.979  30.284  34.500  1.00  0.00     0.074 A 
ATOM     57  C   UNL A   1      43.817  26.541  30.237  1.00  0.00     0.029 A 
ATOM     58  N   UNL A   1      42.427  27.920  31.292  1.00  0.00    -0.354 N 
ATOM     59  N   UNL A   1      41.508  29.546  33.553  1.00  0.00    -0.248 NA
ATOM     60  C   UNL A   1      41.660  30.163  35.797  1.00  0.00     0.031 C 
ATOM     61  C   UNL A   1      44.245  26.672  31.559  1.00  0.00     0.029 A 
ATOM     62  C   UNL A   1      43.395  27.552  32.210  1.00  0.00     0.049 A 
ATOM     63  H   UNL A   1      41.680  28.537  31.473  1.00  0.00     0.167 HD
ATOM     64  C   UNL A   1      42.595  28.900  34.131  1.00  0.00     0.074 A 
ATOM     65  C   UNL A   1      42.661  29.344  35.506  1.00  0.00     0.031 C 
ATOM     66  C   UNL A   1      43.457  28.014  33.573  1.00  0.00     0.037 A 
BRANCH  53  67
ATOM     67  C   UNL A   1      42.236  26.664  27.682  1.00  0.00     0.064 A 
ATOM     68  C   UNL A   1      43.205  27.157  26.796  1.00  0.00     0.173 A 
ATOM     69  C   UNL A   1      41.702  25.391  27.433  1.00  0.00     0.173 A 
ATOM     70  F   UNL A   1      43.732  28.376  26.981  1.00  0.00    -0.203 F 
ATOM     71  C   UNL A   1      43.624  26.402  25.703  1.00  0.00     0.198 A 
ATOM     72  C   UNL A   1      42.143  24.628  26.356  1.00  0.00     0.198 A 
ATOM     73  F   UNL A   1      40.771  24.876  28.251  1.00  0.00    -0.203 F 
ATOM     74  F   UNL A   1      44.533  26.901  24.855  1.00  0.00    -0.200 F 
ATOM     75  C   UNL A   1      43.102  25.134  25.492  1.00  0.00     0.200 A 
ATOM     76  F   UNL A   1      41.649  23.398  26.162  1.00  0.00    -0.200 F 
ATOM     77  F   UNL A   1      43.525  24.398  24.456  1.00  0.00    -0.200 F 
ENDBRANCH  53  67
BRANCH  54  78
ATOM     78  C   UNL A   1      39.390  32.012  35.625  1.00  0.00     0.064 A 
ATOM     79  C   UNL A   1      38.449  31.512  36.536  1.00  0.00     0.173 A 
ATOM     80  C   UNL A   1      39.911  33.293  35.864  1.00  0.00     0.173 A 
ATOM     81  F   UNL A   1      37.898  30.307  36.337  1.00  0.00    -0.203 F 
ATOM     82  C   UNL A   1      38.035  32.269  37.632  1.00  0.00     0.198 A 
ATOM     83  C   UNL A   1      39.519  34.035  36.977  1.00  0.00     0.198 A 
ATOM     84  F   UNL A   1      40.807  33.823  35.019  1.00  0.00    -0.203 F 
ATOM     85  F   UNL A   1      37.097  31.786  38.459  1.00  0.00    -0.200 F 
ATOM     86  C   UNL A   1      38.575  33.526  37.856  1.00  0.00     0.200 A 
ATOM     87  F   UNL A   1      40.051  35.245  37.193  1.00  0.00    -0.200 F 
ATOM     88  F   UNL A   1      38.180  34.251  38.910  1.00  0.00    -0.200 F 
ENDBRANCH  54  78
BRANCH  66  89
ATOM     89  C   UNL A   1      44.568  27.477  34.430  1.00  0.00     0.064 A 
ATOM     90  C   UNL A   1      45.797  28.143  34.541  1.00  0.00     0.173 A 
ATOM     91  C   UNL A   1      44.366  26.334  35.221  1.00  0.00     0.173 A 
ATOM     92  F   UNL A   1      46.042  29.234  33.801  1.00  0.00    -0.203 F 
ATOM     93  C   UNL A   1      46.787  27.677  35.401  1.00  0.00     0.198 A 
ATOM     94  C   UNL A   1      45.346  25.891  36.104  1.00  0.00     0.198 A 
ATOM     95  F   UNL A   1      43.203  25.668  35.163  1.00  0.00    -0.203 F 
ATOM     96  F   UNL A   1      47.967  28.310  35.466  1.00  0.00    -0.200 F 
ATOM     97  C   UNL A   1      46.558  26.559  36.190  1.00  0.00     0.200 A 
ATOM     98  F   UNL A   1      45.113  24.823  36.881  1.00  0.00    -0.200 F 
ATOM     99  F   UNL A   1      47.505  26.126  37.033  1.00  0.00    -0.200 F 
ENDBRANCH  66  89
ENDBRANCH  40  41
ENDBRANCH  33  35
ENDBRANCH  32  33
ENDBRANCH  31  32
ENDBRANCH  30  31
ENDBRANCH  29  30
ENDBRANCH  28  29
ENDBRANCH   1  28
TORSDOF 21
ENDMDL
