MODEL 1
REMARK VINA RESULT:     -11.6      0.000      0.000
REMARK SMILES Cc1cc2c(=O)c3ccccc3oc2c(C(=O)OCCOCCOCCOCCOC(=O)c2ccc(-c3c4nc(c(-c5c(F)c(F)c(F)c(F)c5F)c5ccc([nH]5)c(-c5c(F)c(F)c(F)c(F)c5F)c5nc(c(-c6c(F)c(F)c(F)c(F)c6F)c6ccc3[nH]6)C=C5)C=C4)cc2)c1C
REMARK SMILES IDX 25 1 24 2 23 3 22 4 21 5 20 6 19 7 18 8 16 9 17 10 15 11
REMARK SMILES IDX 1 12 2 13 3 14 96 15 4 16 97 17 5 18 14 19 6 20 7 21 13 22
REMARK SMILES IDX 8 23 12 24 9 25 11 26 10 27 26 28 27 29 28 30 29 31 30 32
REMARK SMILES IDX 31 33 32 34 33 35 34 36 95 37 35 38 94 39 36 40 37 41 38 42
REMARK SMILES IDX 88 43 39 44 93 45 87 46 89 47 40 48 92 49 86 50 85 51 41 53
REMARK SMILES IDX 73 54 53 55 72 56 54 57 57 58 71 59 90 60 55 61 56 62 70 64
REMARK SMILES IDX 91 65 58 66 42 67 43 68 51 69 44 70 45 71 49 72 52 73 46 74
REMARK SMILES IDX 47 75 50 76 48 77 74 78 75 79 83 80 76 81 77 82 81 83 84 84
REMARK SMILES IDX 78 85 79 86 82 87 80 88 59 89 60 90 68 91 61 92 62 93 66 94
REMARK SMILES IDX 69 95 63 96 64 97 67 98 65 99
REMARK H PARENT 89 52 57 63
REMARK Flexibility Score: inf
ROOT
ATOM      1  C   UNL A   1      43.918  19.242  25.517  1.00  0.00     0.188 C 
ENDROOT
BRANCH   1   2
ATOM      2  O   UNL A   1      42.601  19.463  25.042  1.00  0.00    -0.377 OA
BRANCH   2   3
ATOM      3  C   UNL A   1      41.561  19.621  26.001  1.00  0.00     0.188 C 
BRANCH   3   4
ATOM      4  C   UNL A   1      41.604  20.669  27.139  1.00  0.00     0.188 C 
BRANCH   4   5
ATOM      5  O   UNL A   1      40.373  21.339  27.407  1.00  0.00    -0.376 OA
BRANCH   5   6
ATOM      6  C   UNL A   1      39.811  22.089  26.338  1.00  0.00     0.202 C 
BRANCH   6   7
ATOM      7  C   UNL A   1      38.467  21.525  25.886  1.00  0.00     0.261 C 
BRANCH   7   8
ATOM      8  O   UNL A   1      37.388  22.436  26.133  1.00  0.00    -0.460 OA
BRANCH   8   9
ATOM      9  C   UNL A   1      36.580  22.719  25.088  1.00  0.00     0.342 C 
ATOM     10  O   UNL A   1      36.939  23.155  24.008  1.00  0.00    -0.246 OA
BRANCH   9  11
ATOM     11  C   UNL A   1      35.181  22.320  25.419  1.00  0.00     0.106 A 
ATOM     12  C   UNL A   1      32.878  19.252  25.775  1.00  0.00     0.044 C 
ATOM     13  C   UNL A   1      33.430  20.654  25.797  1.00  0.00    -0.046 A 
ATOM     14  C   UNL A   1      32.578  21.686  26.215  1.00  0.00     0.019 A 
ATOM     15  C   UNL A   1      34.747  20.963  25.380  1.00  0.00    -0.030 A 
ATOM     16  C   UNL A   1      32.997  23.016  26.178  1.00  0.00     0.067 A 
ATOM     17  C   UNL A   1      35.634  19.881  24.807  1.00  0.00     0.046 C 
ATOM     18  C   UNL A   1      32.059  24.089  26.547  1.00  0.00     0.200 A 
ATOM     19  C   UNL A   1      34.281  23.349  25.757  1.00  0.00     0.153 A 
ATOM     20  O   UNL A   1      30.961  23.843  27.030  1.00  0.00    -0.288 OA
ATOM     21  C   UNL A   1      32.487  25.463  26.267  1.00  0.00     0.065 A 
ATOM     22  O   UNL A   1      34.683  24.656  25.581  1.00  0.00    -0.455 OA
ATOM     23  C   UNL A   1      31.618  26.539  26.472  1.00  0.00     0.016 A 
ATOM     24  C   UNL A   1      33.765  25.662  25.754  1.00  0.00     0.138 A 
ATOM     25  C   UNL A   1      32.028  27.827  26.130  1.00  0.00     0.001 A 
ATOM     26  C   UNL A   1      34.165  26.952  25.399  1.00  0.00     0.048 A 
ATOM     27  C   UNL A   1      33.295  28.032  25.581  1.00  0.00     0.004 A 
ENDBRANCH   9  11
ENDBRANCH   8   9
ENDBRANCH   7   8
ENDBRANCH   6   7
ENDBRANCH   5   6
ENDBRANCH   4   5
ENDBRANCH   3   4
ENDBRANCH   2   3
ENDBRANCH   1   2
BRANCH   1  28
ATOM     28  C   UNL A   1      44.997  19.773  24.561  1.00  0.00     0.188 C 
BRANCH  28  29
ATOM     29  O   UNL A   1      45.636  20.943  25.064  1.00  0.00    -0.376 OA
BRANCH  29  30
ATOM     30  C   UNL A   1      44.791  21.976  25.555  1.00  0.00     0.202 C 
BRANCH  30  31
ATOM     31  C   UNL A   1      43.859  22.695  24.567  1.00  0.00     0.261 C 
BRANCH  31  32
ATOM     32  O   UNL A   1      43.347  23.974  24.970  1.00  0.00    -0.460 OA
BRANCH  32  33
ATOM     33  C   UNL A   1      44.210  24.979  25.226  1.00  0.00     0.338 C 
ATOM     34  O   UNL A   1      45.206  25.286  24.596  1.00  0.00    -0.246 OA
BRANCH  33  35
ATOM     35  C   UNL A   1      43.600  25.777  26.314  1.00  0.00     0.060 A 
ATOM     36  C   UNL A   1      42.679  25.185  27.183  1.00  0.00     0.016 A 
ATOM     37  C   UNL A   1      43.878  27.147  26.404  1.00  0.00     0.016 A 
ATOM     38  C   UNL A   1      42.044  25.962  28.153  1.00  0.00     0.010 A 
ATOM     39  C   UNL A   1      43.227  27.927  27.364  1.00  0.00     0.010 A 
ATOM     40  C   UNL A   1      42.318  27.335  28.255  1.00  0.00    -0.014 A 
BRANCH  40  41
ATOM     41  C   UNL A   1      41.791  28.105  29.407  1.00  0.00     0.031 A 
ATOM     42  C   UNL A   1      40.558  28.950  29.312  1.00  0.00     0.074 A 
ATOM     43  C   UNL A   1      42.463  28.014  30.570  1.00  0.00     0.049 A 
ATOM     44  N   UNL A   1      39.949  29.619  30.259  1.00  0.00    -0.248 NA
ATOM     45  C   UNL A   1      39.930  29.066  27.991  1.00  0.00     0.031 C 
ATOM     46  C   UNL A   1      43.681  27.227  30.769  1.00  0.00     0.029 A 
ATOM     47  N   UNL A   1      42.221  28.577  31.795  1.00  0.00    -0.354 N 
ATOM     48  C   UNL A   1      38.850  30.216  29.658  1.00  0.00     0.074 A 
ATOM     49  C   UNL A   1      38.901  29.866  28.253  1.00  0.00     0.031 C 
ATOM     50  C   UNL A   1      44.074  27.348  32.044  1.00  0.00     0.029 A 
ATOM     51  C   UNL A   1      43.148  28.232  32.746  1.00  0.00     0.049 A 
ATOM     52  H   UNL A   1      41.457  29.172  31.976  1.00  0.00     0.167 HD
ATOM     53  C   UNL A   1      37.884  30.971  30.237  1.00  0.00     0.037 A 
ATOM     54  C   UNL A   1      43.240  28.582  34.041  1.00  0.00     0.037 A 
ATOM     55  C   UNL A   1      37.856  31.335  31.634  1.00  0.00     0.049 A 
ATOM     56  C   UNL A   1      42.184  29.462  34.641  1.00  0.00     0.074 A 
ATOM     57  C   UNL A   1      36.901  32.072  32.315  1.00  0.00     0.029 A 
ATOM     58  N   UNL A   1      38.832  31.001  32.562  1.00  0.00    -0.354 N 
ATOM     59  N   UNL A   1      41.113  29.968  34.080  1.00  0.00    -0.248 NA
ATOM     60  C   UNL A   1      42.342  29.812  36.059  1.00  0.00     0.031 C 
ATOM     61  C   UNL A   1      37.324  32.227  33.639  1.00  0.00     0.029 A 
ATOM     62  C   UNL A   1      38.516  31.541  33.801  1.00  0.00     0.049 A 
ATOM     63  H   UNL A   1      39.633  30.460  32.369  1.00  0.00     0.167 HD
ATOM     64  C   UNL A   1      40.458  30.676  35.076  1.00  0.00     0.074 A 
ATOM     65  C   UNL A   1      41.244  30.520  36.283  1.00  0.00     0.031 C 
ATOM     66  C   UNL A   1      39.309  31.390  34.995  1.00  0.00     0.037 A 
BRANCH  53  67
ATOM     67  C   UNL A   1      36.757  31.458  29.371  1.00  0.00     0.064 A 
ATOM     68  C   UNL A   1      35.707  30.607  28.998  1.00  0.00     0.173 A 
ATOM     69  C   UNL A   1      36.672  32.808  28.996  1.00  0.00     0.173 A 
ATOM     70  F   UNL A   1      35.741  29.307  29.327  1.00  0.00    -0.203 F 
ATOM     71  C   UNL A   1      34.618  31.086  28.272  1.00  0.00     0.198 A 
ATOM     72  C   UNL A   1      35.570  33.289  28.292  1.00  0.00     0.198 A 
ATOM     73  F   UNL A   1      37.643  33.668  29.337  1.00  0.00    -0.203 F 
ATOM     74  F   UNL A   1      33.638  30.249  27.906  1.00  0.00    -0.200 F 
ATOM     75  C   UNL A   1      34.546  32.428  27.929  1.00  0.00     0.200 A 
ATOM     76  F   UNL A   1      35.494  34.589  27.974  1.00  0.00    -0.200 F 
ATOM     77  F   UNL A   1      33.488  32.891  27.247  1.00  0.00    -0.200 F 
ENDBRANCH  53  67
BRANCH  54  78
ATOM     78  C   UNL A   1      44.360  28.053  34.857  1.00  0.00     0.064 A 
ATOM     79  C   UNL A   1      45.568  28.755  34.956  1.00  0.00     0.173 A 
ATOM     80  C   UNL A   1      44.231  26.862  35.587  1.00  0.00     0.173 A 
ATOM     81  F   UNL A   1      45.741  29.891  34.264  1.00  0.00    -0.203 F 
ATOM     82  C   UNL A   1      46.611  28.280  35.749  1.00  0.00     0.198 A 
ATOM     83  C   UNL A   1      45.264  26.402  36.398  1.00  0.00     0.198 A 
ATOM     84  F   UNL A   1      43.090  26.161  35.529  1.00  0.00    -0.203 F 
ATOM     85  F   UNL A   1      47.766  28.955  35.804  1.00  0.00    -0.200 F 
ATOM     86  C   UNL A   1      46.454  27.109  36.475  1.00  0.00     0.200 A 
ATOM     87  F   UNL A   1      45.103  25.280  37.113  1.00  0.00    -0.200 F 
ATOM     88  F   UNL A   1      47.453  26.661  37.249  1.00  0.00    -0.200 F 
ENDBRANCH  54  78
BRANCH  66  89
ATOM     89  C   UNL A   1      38.822  32.052  36.252  1.00  0.00     0.064 A 
ATOM     90  C   UNL A   1      39.105  33.398  36.528  1.00  0.00     0.173 A 
ATOM     91  C   UNL A   1      38.036  31.344  37.174  1.00  0.00     0.173 A 
ATOM     92  F   UNL A   1      39.866  34.115  35.687  1.00  0.00    -0.203 F 
ATOM     93  C   UNL A   1      38.637  34.004  37.692  1.00  0.00     0.198 A 
ATOM     94  C   UNL A   1      37.546  31.961  38.321  1.00  0.00     0.198 A 
ATOM     95  F   UNL A   1      37.733  30.056  36.955  1.00  0.00    -0.203 F 
ATOM     96  F   UNL A   1      38.958  35.278  37.956  1.00  0.00    -0.200 F 
ATOM     97  C   UNL A   1      37.852  33.288  38.583  1.00  0.00     0.200 A 
ATOM     98  F   UNL A   1      36.777  31.271  39.175  1.00  0.00    -0.200 F 
ATOM     99  F   UNL A   1      37.398  33.876  39.698  1.00  0.00    -0.200 F 
ENDBRANCH  66  89
ENDBRANCH  40  41
ENDBRANCH  33  35
ENDBRANCH  32  33
ENDBRANCH  31  32
ENDBRANCH  30  31
ENDBRANCH  29  30
ENDBRANCH  28  29
ENDBRANCH   1  28
TORSDOF 20
ENDMDL
MODEL 2
REMARK VINA RESULT:     -10.9      4.438      9.229
REMARK SMILES Cc1cc2c(=O)c3ccccc3oc2c(C(=O)OCCOCCOCCOCCOC(=O)c2ccc(-c3c4nc(c(-c5c(F)c(F)c(F)c(F)c5F)c5ccc([nH]5)c(-c5c(F)c(F)c(F)c(F)c5F)c5nc(c(-c6c(F)c(F)c(F)c(F)c6F)c6ccc3[nH]6)C=C5)C=C4)cc2)c1C
REMARK SMILES IDX 25 1 24 2 23 3 22 4 21 5 20 6 19 7 18 8 16 9 17 10 15 11
REMARK SMILES IDX 1 12 2 13 3 14 96 15 4 16 97 17 5 18 14 19 6 20 7 21 13 22
REMARK SMILES IDX 8 23 12 24 9 25 11 26 10 27 26 28 27 29 28 30 29 31 30 32
REMARK SMILES IDX 31 33 32 34 33 35 34 36 95 37 35 38 94 39 36 40 37 41 38 42
REMARK SMILES IDX 88 43 39 44 93 45 87 46 89 47 40 48 92 49 86 50 85 51 41 53
REMARK SMILES IDX 73 54 53 55 72 56 54 57 57 58 71 59 90 60 55 61 56 62 70 64
REMARK SMILES IDX 91 65 58 66 42 67 43 68 51 69 44 70 45 71 49 72 52 73 46 74
REMARK SMILES IDX 47 75 50 76 48 77 74 78 75 79 83 80 76 81 77 82 81 83 84 84
REMARK SMILES IDX 78 85 79 86 82 87 80 88 59 89 60 90 68 91 61 92 62 93 66 94
REMARK SMILES IDX 69 95 63 96 64 97 67 98 65 99
REMARK H PARENT 89 52 57 63
REMARK Flexibility Score: inf
ROOT
ATOM      1  C   UNL A   1      37.931  24.013  26.152  1.00  0.00     0.188 C 
ENDROOT
BRANCH   1   2
ATOM      2  O   UNL A   1      37.182  23.651  25.005  1.00  0.00    -0.377 OA
BRANCH   2   3
ATOM      3  C   UNL A   1      35.859  23.163  25.196  1.00  0.00     0.188 C 
BRANCH   3   4
ATOM      4  C   UNL A   1      35.541  21.709  25.623  1.00  0.00     0.188 C 
BRANCH   4   5
ATOM      5  O   UNL A   1      35.063  21.550  26.959  1.00  0.00    -0.376 OA
BRANCH   5   6
ATOM      6  C   UNL A   1      33.689  21.215  27.107  1.00  0.00     0.202 C 
BRANCH   6   7
ATOM      7  C   UNL A   1      32.900  22.324  27.795  1.00  0.00     0.261 C 
BRANCH   7   8
ATOM      8  O   UNL A   1      32.671  23.443  26.928  1.00  0.00    -0.460 OA
BRANCH   8   9
ATOM      9  C   UNL A   1      31.627  23.348  26.077  1.00  0.00     0.342 C 
ATOM     10  O   UNL A   1      30.544  22.852  26.332  1.00  0.00    -0.246 OA
BRANCH   9  11
ATOM     11  C   UNL A   1      31.965  24.037  24.797  1.00  0.00     0.106 A 
ATOM     12  C   UNL A   1      33.014  23.372  21.150  1.00  0.00     0.044 C 
ATOM     13  C   UNL A   1      32.577  24.040  22.428  1.00  0.00    -0.046 A 
ATOM     14  C   UNL A   1      32.418  25.433  22.418  1.00  0.00     0.019 A 
ATOM     15  C   UNL A   1      32.362  23.322  23.630  1.00  0.00    -0.030 A 
ATOM     16  C   UNL A   1      32.099  26.123  23.588  1.00  0.00     0.067 A 
ATOM     17  C   UNL A   1      32.653  21.840  23.689  1.00  0.00     0.046 C 
ATOM     18  C   UNL A   1      32.014  27.592  23.570  1.00  0.00     0.200 A 
ATOM     19  C   UNL A   1      31.898  25.444  24.786  1.00  0.00     0.153 A 
ATOM     20  O   UNL A   1      32.070  28.225  22.524  1.00  0.00    -0.288 OA
ATOM     21  C   UNL A   1      31.903  28.261  24.870  1.00  0.00     0.065 A 
ATOM     22  O   UNL A   1      31.714  26.101  25.984  1.00  0.00    -0.455 OA
ATOM     23  C   UNL A   1      31.938  29.657  24.962  1.00  0.00     0.016 A 
ATOM     24  C   UNL A   1      31.806  27.471  26.011  1.00  0.00     0.138 A 
ATOM     25  C   UNL A   1      31.901  30.263  26.216  1.00  0.00     0.001 A 
ATOM     26  C   UNL A   1      31.786  28.082  27.265  1.00  0.00     0.048 A 
ATOM     27  C   UNL A   1      31.840  29.476  27.368  1.00  0.00     0.004 A 
ENDBRANCH   9  11
ENDBRANCH   8   9
ENDBRANCH   7   8
ENDBRANCH   6   7
ENDBRANCH   5   6
ENDBRANCH   4   5
ENDBRANCH   3   4
ENDBRANCH   2   3
ENDBRANCH   1   2
BRANCH   1  28
ATOM     28  C   UNL A   1      39.038  23.001  26.489  1.00  0.00     0.188 C 
BRANCH  28  29
ATOM     29  O   UNL A   1      39.089  21.926  25.555  1.00  0.00    -0.376 OA
BRANCH  29  30
ATOM     30  C   UNL A   1      39.004  20.610  26.086  1.00  0.00     0.202 C 
BRANCH  30  31
ATOM     31  C   UNL A   1      39.921  19.522  25.504  1.00  0.00     0.261 C 
BRANCH  31  32
ATOM     32  O   UNL A   1      40.940  19.000  26.371  1.00  0.00    -0.460 OA
BRANCH  32  33
ATOM     33  C   UNL A   1      42.237  19.188  26.052  1.00  0.00     0.338 C 
ATOM     34  O   UNL A   1      42.963  18.451  25.412  1.00  0.00    -0.246 OA
BRANCH  33  35
ATOM     35  C   UNL A   1      42.562  20.574  26.459  1.00  0.00     0.060 A 
ATOM     36  C   UNL A   1      42.361  20.980  27.782  1.00  0.00     0.016 A 
ATOM     37  C   UNL A   1      42.977  21.499  25.491  1.00  0.00     0.016 A 
ATOM     38  C   UNL A   1      42.589  22.309  28.141  1.00  0.00     0.010 A 
ATOM     39  C   UNL A   1      43.187  22.833  25.849  1.00  0.00     0.010 A 
ATOM     40  C   UNL A   1      43.008  23.243  27.180  1.00  0.00    -0.014 A 
BRANCH  40  41
ATOM     41  C   UNL A   1      43.434  24.596  27.609  1.00  0.00     0.031 A 
ATOM     42  C   UNL A   1      44.875  24.993  27.703  1.00  0.00     0.074 A 
ATOM     43  C   UNL A   1      42.467  25.481  27.913  1.00  0.00     0.049 A 
ATOM     44  N   UNL A   1      45.385  26.163  27.997  1.00  0.00    -0.248 NA
ATOM     45  C   UNL A   1      45.872  23.948  27.438  1.00  0.00     0.031 C 
ATOM     46  C   UNL A   1      41.032  25.196  27.866  1.00  0.00     0.029 A 
ATOM     47  N   UNL A   1      42.537  26.790  28.313  1.00  0.00    -0.354 N 
ATOM     48  C   UNL A   1      46.763  26.007  27.929  1.00  0.00     0.074 A 
ATOM     49  C   UNL A   1      47.009  24.615  27.608  1.00  0.00     0.031 C 
ATOM     50  C   UNL A   1      40.356  26.300  28.212  1.00  0.00     0.029 A 
ATOM     51  C   UNL A   1      41.308  27.363  28.521  1.00  0.00     0.049 A 
ATOM     52  H   UNL A   1      43.387  27.271  28.440  1.00  0.00     0.167 HD
ATOM     53  C   UNL A   1      47.724  26.948  28.103  1.00  0.00     0.037 A 
ATOM     54  C   UNL A   1      40.981  28.608  28.911  1.00  0.00     0.037 A 
ATOM     55  C   UNL A   1      47.468  28.325  28.447  1.00  0.00     0.049 A 
ATOM     56  C   UNL A   1      42.070  29.613  29.148  1.00  0.00     0.074 A 
ATOM     57  C   UNL A   1      48.377  29.357  28.615  1.00  0.00     0.029 A 
ATOM     58  N   UNL A   1      46.212  28.864  28.690  1.00  0.00    -0.354 N 
ATOM     59  N   UNL A   1      43.367  29.473  29.017  1.00  0.00    -0.248 NA
ATOM     60  C   UNL A   1      41.650  30.954  29.576  1.00  0.00     0.031 C 
ATOM     61  C   UNL A   1      47.678  30.503  29.008  1.00  0.00     0.029 A 
ATOM     62  C   UNL A   1      46.326  30.204  29.032  1.00  0.00     0.049 A 
ATOM     63  H   UNL A   1      45.363  28.368  28.627  1.00  0.00     0.167 HD
ATOM     64  C   UNL A   1      43.917  30.709  29.323  1.00  0.00     0.074 A 
ATOM     65  C   UNL A   1      42.810  31.592  29.631  1.00  0.00     0.031 C 
ATOM     66  C   UNL A   1      45.221  31.075  29.347  1.00  0.00     0.037 A 
BRANCH  53  67
ATOM     67  C   UNL A   1      49.156  26.534  27.918  1.00  0.00     0.064 A 
ATOM     68  C   UNL A   1      49.737  26.476  26.642  1.00  0.00     0.173 A 
ATOM     69  C   UNL A   1      49.983  26.292  29.026  1.00  0.00     0.173 A 
ATOM     70  F   UNL A   1      48.991  26.696  25.550  1.00  0.00    -0.203 F 
ATOM     71  C   UNL A   1      51.089  26.182  26.482  1.00  0.00     0.198 A 
ATOM     72  C   UNL A   1      51.340  26.022  28.864  1.00  0.00     0.198 A 
ATOM     73  F   UNL A   1      49.481  26.344  30.269  1.00  0.00    -0.203 F 
ATOM     74  F   UNL A   1      51.617  26.110  25.253  1.00  0.00    -0.200 F 
ATOM     75  C   UNL A   1      51.891  25.965  27.593  1.00  0.00     0.200 A 
ATOM     76  F   UNL A   1      52.117  25.827  29.939  1.00  0.00    -0.200 F 
ATOM     77  F   UNL A   1      53.196  25.701  27.438  1.00  0.00    -0.200 F 
ENDBRANCH  53  67
BRANCH  54  78
ATOM     78  C   UNL A   1      39.550  28.971  29.056  1.00  0.00     0.064 A 
ATOM     79  C   UNL A   1      38.801  29.386  27.948  1.00  0.00     0.173 A 
ATOM     80  C   UNL A   1      38.895  28.869  30.292  1.00  0.00     0.173 A 
ATOM     81  F   UNL A   1      39.391  29.512  26.750  1.00  0.00    -0.203 F 
ATOM     82  C   UNL A   1      37.449  29.695  28.072  1.00  0.00     0.198 A 
ATOM     83  C   UNL A   1      37.537  29.154  30.409  1.00  0.00     0.198 A 
ATOM     84  F   UNL A   1      39.570  28.468  31.379  1.00  0.00    -0.203 F 
ATOM     85  F   UNL A   1      36.761  30.117  27.003  1.00  0.00    -0.200 F 
ATOM     86  C   UNL A   1      36.817  29.571  29.300  1.00  0.00     0.200 A 
ATOM     87  F   UNL A   1      36.925  29.016  31.593  1.00  0.00    -0.200 F 
ATOM     88  F   UNL A   1      35.512  29.854  29.415  1.00  0.00    -0.200 F 
ENDBRANCH  54  78
BRANCH  66  89
ATOM     89  C   UNL A   1      45.528  32.499  29.708  1.00  0.00     0.064 A 
ATOM     90  C   UNL A   1      45.797  32.878  31.032  1.00  0.00     0.173 A 
ATOM     91  C   UNL A   1      45.587  33.491  28.717  1.00  0.00     0.173 A 
ATOM     92  F   UNL A   1      45.737  31.972  32.019  1.00  0.00    -0.203 F 
ATOM     93  C   UNL A   1      46.092  34.201  31.352  1.00  0.00     0.198 A 
ATOM     94  C   UNL A   1      45.911  34.806  29.037  1.00  0.00     0.198 A 
ATOM     95  F   UNL A   1      45.343  33.180  27.435  1.00  0.00    -0.203 F 
ATOM     96  F   UNL A   1      46.300  34.548  32.630  1.00  0.00    -0.200 F 
ATOM     97  C   UNL A   1      46.156  35.162  30.355  1.00  0.00     0.200 A 
ATOM     98  F   UNL A   1      45.986  35.731  28.069  1.00  0.00    -0.200 F 
ATOM     99  F   UNL A   1      46.447  36.433  30.665  1.00  0.00    -0.200 F 
ENDBRANCH  66  89
ENDBRANCH  40  41
ENDBRANCH  33  35
ENDBRANCH  32  33
ENDBRANCH  31  32
ENDBRANCH  30  31
ENDBRANCH  29  30
ENDBRANCH  28  29
ENDBRANCH   1  28
TORSDOF 20
ENDMDL
MODEL 3
REMARK VINA RESULT:     -10.8      8.429     13.619
REMARK SMILES Cc1cc2c(=O)c3ccccc3oc2c(C(=O)OCCOCCOCCOCCOC(=O)c2ccc(-c3c4nc(c(-c5c(F)c(F)c(F)c(F)c5F)c5ccc([nH]5)c(-c5c(F)c(F)c(F)c(F)c5F)c5nc(c(-c6c(F)c(F)c(F)c(F)c6F)c6ccc3[nH]6)C=C5)C=C4)cc2)c1C
REMARK SMILES IDX 25 1 24 2 23 3 22 4 21 5 20 6 19 7 18 8 16 9 17 10 15 11
REMARK SMILES IDX 1 12 2 13 3 14 96 15 4 16 97 17 5 18 14 19 6 20 7 21 13 22
REMARK SMILES IDX 8 23 12 24 9 25 11 26 10 27 26 28 27 29 28 30 29 31 30 32
REMARK SMILES IDX 31 33 32 34 33 35 34 36 95 37 35 38 94 39 36 40 37 41 38 42
REMARK SMILES IDX 88 43 39 44 93 45 87 46 89 47 40 48 92 49 86 50 85 51 41 53
REMARK SMILES IDX 73 54 53 55 72 56 54 57 57 58 71 59 90 60 55 61 56 62 70 64
REMARK SMILES IDX 91 65 58 66 42 67 43 68 51 69 44 70 45 71 49 72 52 73 46 74
REMARK SMILES IDX 47 75 50 76 48 77 74 78 75 79 83 80 76 81 77 82 81 83 84 84
REMARK SMILES IDX 78 85 79 86 82 87 80 88 59 89 60 90 68 91 61 92 62 93 66 94
REMARK SMILES IDX 69 95 63 96 64 97 67 98 65 99
REMARK H PARENT 89 52 57 63
REMARK Flexibility Score: inf
ROOT
ATOM      1  C   UNL A   1      47.690  19.570  38.378  1.00  0.00     0.188 C 
ENDROOT
BRANCH   1   2
ATOM      2  O   UNL A   1      46.665  18.604  38.531  1.00  0.00    -0.377 OA
BRANCH   2   3
ATOM      3  C   UNL A   1      46.697  17.770  39.685  1.00  0.00     0.188 C 
BRANCH   3   4
ATOM      4  C   UNL A   1      45.523  16.853  40.106  1.00  0.00     0.188 C 
BRANCH   4   5
ATOM      5  O   UNL A   1      44.302  17.051  39.394  1.00  0.00    -0.376 OA
BRANCH   5   6
ATOM      6  C   UNL A   1      43.403  15.950  39.354  1.00  0.00     0.202 C 
BRANCH   6   7
ATOM      7  C   UNL A   1      42.492  15.909  40.578  1.00  0.00     0.261 C 
BRANCH   7   8
ATOM      8  O   UNL A   1      42.551  14.646  41.254  1.00  0.00    -0.460 OA
BRANCH   8   9
ATOM      9  C   UNL A   1      42.212  14.640  42.561  1.00  0.00     0.342 C 
ATOM     10  O   UNL A   1      41.432  15.408  43.098  1.00  0.00    -0.246 OA
BRANCH   9  11
ATOM     11  C   UNL A   1      42.863  13.481  43.238  1.00  0.00     0.106 A 
ATOM     12  C   UNL A   1      42.428   9.723  43.966  1.00  0.00     0.044 C 
ATOM     13  C   UNL A   1      42.987  11.119  43.862  1.00  0.00    -0.046 A 
ATOM     14  C   UNL A   1      44.260  11.356  44.400  1.00  0.00     0.019 A 
ATOM     15  C   UNL A   1      42.265  12.189  43.281  1.00  0.00    -0.030 A 
ATOM     16  C   UNL A   1      44.799  12.643  44.414  1.00  0.00     0.067 A 
ATOM     17  C   UNL A   1      40.843  11.978  42.813  1.00  0.00     0.046 C 
ATOM     18  C   UNL A   1      46.102  12.882  45.055  1.00  0.00     0.200 A 
ATOM     19  C   UNL A   1      44.104  13.715  43.864  1.00  0.00     0.153 A 
ATOM     20  O   UNL A   1      46.803  11.958  45.450  1.00  0.00    -0.288 OA
ATOM     21  C   UNL A   1      46.501  14.281  45.235  1.00  0.00     0.065 A 
ATOM     22  O   UNL A   1      44.545  15.016  43.979  1.00  0.00    -0.455 OA
ATOM     23  C   UNL A   1      47.664  14.609  45.940  1.00  0.00     0.016 A 
ATOM     24  C   UNL A   1      45.670  15.273  44.724  1.00  0.00     0.138 A 
ATOM     25  C   UNL A   1      47.980  15.949  46.156  1.00  0.00     0.001 A 
ATOM     26  C   UNL A   1      45.982  16.613  44.957  1.00  0.00     0.048 A 
ATOM     27  C   UNL A   1      47.133  16.950  45.678  1.00  0.00     0.004 A 
ENDBRANCH   9  11
ENDBRANCH   8   9
ENDBRANCH   7   8
ENDBRANCH   6   7
ENDBRANCH   5   6
ENDBRANCH   4   5
ENDBRANCH   3   4
ENDBRANCH   2   3
ENDBRANCH   1   2
BRANCH   1  28
ATOM     28  C   UNL A   1      47.634  20.295  37.024  1.00  0.00     0.188 C 
BRANCH  28  29
ATOM     29  O   UNL A   1      46.401  20.983  36.830  1.00  0.00    -0.376 OA
BRANCH  29  30
ATOM     30  C   UNL A   1      46.469  22.259  36.208  1.00  0.00     0.202 C 
BRANCH  30  31
ATOM     31  C   UNL A   1      47.236  23.385  36.921  1.00  0.00     0.261 C 
BRANCH  31  32
ATOM     32  O   UNL A   1      46.470  24.516  37.361  1.00  0.00    -0.460 OA
BRANCH  32  33
ATOM     33  C   UNL A   1      46.912  25.760  37.084  1.00  0.00     0.338 C 
ATOM     34  O   UNL A   1      47.993  26.246  37.358  1.00  0.00    -0.246 OA
BRANCH  33  35
ATOM     35  C   UNL A   1      45.896  26.367  36.193  1.00  0.00     0.060 A 
ATOM     36  C   UNL A   1      44.657  25.743  36.018  1.00  0.00     0.016 A 
ATOM     37  C   UNL A   1      46.221  27.513  35.455  1.00  0.00     0.016 A 
ATOM     38  C   UNL A   1      43.737  26.274  35.113  1.00  0.00     0.010 A 
ATOM     39  C   UNL A   1      45.305  28.031  34.536  1.00  0.00     0.010 A 
ATOM     40  C   UNL A   1      44.051  27.424  34.371  1.00  0.00    -0.014 A 
BRANCH  40  41
ATOM     41  C   UNL A   1      42.998  28.086  33.565  1.00  0.00     0.031 A 
ATOM     42  C   UNL A   1      42.813  27.814  32.104  1.00  0.00     0.074 A 
ATOM     43  C   UNL A   1      42.190  28.956  34.200  1.00  0.00     0.049 A 
ATOM     44  N   UNL A   1      41.890  28.271  31.296  1.00  0.00    -0.248 NA
ATOM     45  C   UNL A   1      43.787  26.920  31.465  1.00  0.00     0.031 C 
ATOM     46  C   UNL A   1      42.289  29.302  35.619  1.00  0.00     0.029 A 
ATOM     47  N   UNL A   1      41.131  29.697  33.745  1.00  0.00    -0.354 N 
ATOM     48  C   UNL A   1      42.151  27.704  30.057  1.00  0.00     0.074 A 
ATOM     49  C   UNL A   1      43.348  26.901  30.211  1.00  0.00     0.031 C 
ATOM     50  C   UNL A   1      41.324  30.181  35.922  1.00  0.00     0.029 A 
ATOM     51  C   UNL A   1      40.550  30.471  34.718  1.00  0.00     0.049 A 
ATOM     52  H   UNL A   1      40.819  29.678  32.812  1.00  0.00     0.167 HD
ATOM     53  C   UNL A   1      41.442  27.832  28.908  1.00  0.00     0.037 A 
ATOM     54  C   UNL A   1      39.506  31.316  34.651  1.00  0.00     0.037 A 
ATOM     55  C   UNL A   1      40.266  28.654  28.760  1.00  0.00     0.049 A 
ATOM     56  C   UNL A   1      38.773  31.478  33.352  1.00  0.00     0.074 A 
ATOM     57  C   UNL A   1      39.466  28.823  27.642  1.00  0.00     0.029 A 
ATOM     58  N   UNL A   1      39.726  29.457  29.756  1.00  0.00    -0.354 N 
ATOM     59  N   UNL A   1      38.989  30.885  32.203  1.00  0.00    -0.248 NA
ATOM     60  C   UNL A   1      37.644  32.418  33.343  1.00  0.00     0.031 C 
ATOM     61  C   UNL A   1      38.475  29.764  27.945  1.00  0.00     0.029 A 
ATOM     62  C   UNL A   1      38.622  30.142  29.269  1.00  0.00     0.049 A 
ATOM     63  H   UNL A   1      40.075  29.529  30.674  1.00  0.00     0.167 HD
ATOM     64  C   UNL A   1      38.013  31.361  31.340  1.00  0.00     0.074 A 
ATOM     65  C   UNL A   1      37.193  32.279  32.104  1.00  0.00     0.031 C 
ATOM     66  C   UNL A   1      37.817  31.062  30.033  1.00  0.00     0.037 A 
BRANCH  53  67
ATOM     67  C   UNL A   1      41.906  27.061  27.706  1.00  0.00     0.064 A 
ATOM     68  C   UNL A   1      42.735  27.650  26.740  1.00  0.00     0.173 A 
ATOM     69  C   UNL A   1      41.605  25.697  27.567  1.00  0.00     0.173 A 
ATOM     70  F   UNL A   1      43.051  28.951  26.822  1.00  0.00    -0.203 F 
ATOM     71  C   UNL A   1      43.238  26.905  25.674  1.00  0.00     0.198 A 
ATOM     72  C   UNL A   1      42.129  24.949  26.515  1.00  0.00     0.198 A 
ATOM     73  F   UNL A   1      40.825  25.082  28.468  1.00  0.00    -0.203 F 
ATOM     74  F   UNL A   1      44.009  27.495  24.751  1.00  0.00    -0.200 F 
ATOM     75  C   UNL A   1      42.942  25.554  25.569  1.00  0.00     0.200 A 
ATOM     76  F   UNL A   1      41.855  23.640  26.422  1.00  0.00    -0.200 F 
ATOM     77  F   UNL A   1      43.443  24.835  24.554  1.00  0.00    -0.200 F 
ENDBRANCH  53  67
BRANCH  54  78
ATOM     78  C   UNL A   1      39.075  32.035  35.876  1.00  0.00     0.064 A 
ATOM     79  C   UNL A   1      39.494  33.349  36.119  1.00  0.00     0.173 A 
ATOM     80  C   UNL A   1      38.207  31.439  36.802  1.00  0.00     0.173 A 
ATOM     81  F   UNL A   1      40.336  33.952  35.267  1.00  0.00    -0.203 F 
ATOM     82  C   UNL A   1      39.064  34.041  37.249  1.00  0.00     0.198 A 
ATOM     83  C   UNL A   1      37.758  32.141  37.917  1.00  0.00     0.198 A 
ATOM     84  F   UNL A   1      37.774  30.186  36.606  1.00  0.00    -0.203 F 
ATOM     85  F   UNL A   1      39.501  35.286  37.474  1.00  0.00    -0.200 F 
ATOM     86  C   UNL A   1      38.191  33.438  38.143  1.00  0.00     0.200 A 
ATOM     87  F   UNL A   1      36.900  31.562  38.770  1.00  0.00    -0.200 F 
ATOM     88  F   UNL A   1      37.767  34.110  39.222  1.00  0.00    -0.200 F 
ENDBRANCH  54  78
BRANCH  66  89
ATOM     89  C   UNL A   1      36.661  31.727  29.342  1.00  0.00     0.064 A 
ATOM     90  C   UNL A   1      35.522  31.004  28.959  1.00  0.00     0.173 A 
ATOM     91  C   UNL A   1      36.678  33.108  29.090  1.00  0.00     0.173 A 
ATOM     92  F   UNL A   1      35.462  29.679  29.163  1.00  0.00    -0.203 F 
ATOM     93  C   UNL A   1      34.451  31.635  28.330  1.00  0.00     0.198 A 
ATOM     94  C   UNL A   1      35.594  33.739  28.487  1.00  0.00     0.198 A 
ATOM     95  F   UNL A   1      37.741  33.845  29.440  1.00  0.00    -0.203 F 
ATOM     96  F   UNL A   1      33.392  30.915  27.932  1.00  0.00    -0.200 F 
ATOM     97  C   UNL A   1      34.484  33.002  28.101  1.00  0.00     0.200 A 
ATOM     98  F   UNL A   1      35.623  35.063  28.278  1.00  0.00    -0.200 F 
ATOM     99  F   UNL A   1      33.451  33.607  27.501  1.00  0.00    -0.200 F 
ENDBRANCH  66  89
ENDBRANCH  40  41
ENDBRANCH  33  35
ENDBRANCH  32  33
ENDBRANCH  31  32
ENDBRANCH  30  31
ENDBRANCH  29  30
ENDBRANCH  28  29
ENDBRANCH   1  28
TORSDOF 20
ENDMDL
