MODEL 1
REMARK VINA RESULT:     -14.3      0.000      0.000
REMARK SMILES Cc1ccc(S(=O)(=O)N2c3ccc(C(=O)OCCOCCOCCOCCOC(=O)c4ccc(-c5c6nc(c(-c7c(F)c(F)c(F)c(F)c7F)c7ccc([nH]7)c(-c7c(F)c(F)c(F)c(F)c7F)c7nc(c(-c8c(F)c(F)c(F)c(F)c8F)c8ccc5[nH]8)C=C7)C=C6)cc4)cc3C[C@H]2C)cc1
REMARK SMILES IDX 22 1 21 2 20 3 19 4 18 5 17 6 16 7 14 8 15 9 13 10 9 11
REMARK SMILES IDX 10 12 97 13 11 14 95 15 96 16 98 17 12 18 94 19 6 20 7 21
REMARK SMILES IDX 8 22 5 23 1 24 2 25 3 26 100 27 4 28 99 29 23 30 24 31 25 32
REMARK SMILES IDX 26 33 27 34 28 35 29 36 30 37 31 38 32 39 93 40 33 41 92 42
REMARK SMILES IDX 34 43 35 44 36 45 86 46 37 47 91 48 85 49 87 50 38 51 90 52
REMARK SMILES IDX 84 53 83 54 39 56 71 57 51 58 70 59 52 60 55 61 69 62 88 63
REMARK SMILES IDX 53 64 54 65 68 67 89 68 56 69 40 70 41 71 49 72 42 73 43 74
REMARK SMILES IDX 47 75 50 76 44 77 45 78 48 79 46 80 72 81 73 82 81 83 74 84
REMARK SMILES IDX 75 85 79 86 82 87 76 88 77 89 80 90 78 91 57 92 58 93 66 94
REMARK SMILES IDX 59 95 60 96 64 97 67 98 61 99 62 100 65 101 63 102
REMARK H PARENT 87 55 55 66
REMARK Flexibility Score: inf
ROOT
ATOM      1  O   UNL A   1      33.266  34.776  30.659  1.00  0.00    -0.377 OA
ENDROOT
BRANCH   1   2
ATOM      2  C   UNL A   1      33.265  34.934  29.232  1.00  0.00     0.188 C 
BRANCH   2   3
ATOM      3  C   UNL A   1      33.310  33.830  27.979  1.00  0.00     0.188 C 
BRANCH   3   4
ATOM      4  O   UNL A   1      33.224  32.074  27.747  1.00  0.00    -0.376 OA
BRANCH   4   5
ATOM      5  C   UNL A   1      32.321  30.954  26.752  1.00  0.00     0.202 C 
BRANCH   5   6
ATOM      6  C   UNL A   1      30.783  31.285  25.723  1.00  0.00     0.261 C 
BRANCH   6   7
ATOM      7  O   UNL A   1      30.340  30.376  24.189  1.00  0.00    -0.460 OA
BRANCH   7   8
ATOM      8  C   UNL A   1      29.911  29.068  23.557  1.00  0.00     0.338 C 
ATOM      9  O   UNL A   1      29.063  28.993  22.656  1.00  0.00    -0.246 OA
BRANCH   8  10
ATOM     10  C   UNL A   1      30.417  27.576  23.883  1.00  0.00     0.060 A 
ATOM     11  N   UNL A   1      32.372  23.845  24.658  1.00  0.00    -0.263 N 
ATOM     12  C   UNL A   1      31.626  25.029  24.346  1.00  0.00     0.055 A 
ATOM     13  C   UNL A   1      33.059  24.220  25.938  1.00  0.00     0.101 C 
ATOM     14  C   UNL A   1      30.477  25.074  23.639  1.00  0.00     0.028 A 
ATOM     15  C   UNL A   1      32.089  26.168  24.986  1.00  0.00    -0.021 A 
ATOM     16  C   UNL A   1      33.112  25.774  25.997  1.00  0.00     0.063 C 
ATOM     17  C   UNL A   1      32.160  23.615  27.040  1.00  0.00     0.032 C 
ATOM     18  C   UNL A   1      29.841  26.316  23.603  1.00  0.00     0.018 A 
ATOM     19  C   UNL A   1      31.570  27.441  24.688  1.00  0.00     0.021 A 
BRANCH  11  20
ATOM     20  S   UNL A   1      33.312  23.365  23.299  1.00  0.00     0.264 S 
ATOM     21  O   UNL A   1      33.720  24.571  22.605  1.00  0.00    -0.201 OA
ATOM     22  O   UNL A   1      32.576  22.323  22.608  1.00  0.00    -0.201 OA
BRANCH  20  23
ATOM     23  C   UNL A   1      34.825  22.597  23.842  1.00  0.00     0.088 A 
ATOM     24  C   UNL A   1      38.549  21.446  25.661  1.00  0.00     0.044 C 
ATOM     25  C   UNL A   1      37.263  21.806  24.978  1.00  0.00    -0.051 A 
ATOM     26  C   UNL A   1      37.221  22.885  24.090  1.00  0.00     0.005 A 
ATOM     27  C   UNL A   1      36.094  21.071  25.212  1.00  0.00     0.005 A 
ATOM     28  C   UNL A   1      36.006  23.288  23.534  1.00  0.00     0.022 A 
ATOM     29  C   UNL A   1      34.883  21.449  24.624  1.00  0.00     0.022 A 
ENDBRANCH  20  23
ENDBRANCH  11  20
ENDBRANCH   8  10
ENDBRANCH   7   8
ENDBRANCH   6   7
ENDBRANCH   5   6
ENDBRANCH   4   5
ENDBRANCH   3   4
ENDBRANCH   2   3
ENDBRANCH   1   2
BRANCH   1  30
ATOM     30  C   UNL A   1      33.633  35.735  31.633  1.00  0.00     0.188 C 
BRANCH  30  31
ATOM     31  C   UNL A   1      34.246  35.340  32.950  1.00  0.00     0.188 C 
BRANCH  31  32
ATOM     32  O   UNL A   1      34.439  33.943  32.973  1.00  0.00    -0.376 OA
BRANCH  32  33
ATOM     33  C   UNL A   1      35.795  33.557  33.122  1.00  0.00     0.202 C 
BRANCH  33  34
ATOM     34  C   UNL A   1      36.009  32.045  32.948  1.00  0.00     0.261 C 
BRANCH  34  35
ATOM     35  O   UNL A   1      36.705  31.778  31.709  1.00  0.00    -0.460 OA
BRANCH  35  36
ATOM     36  C   UNL A   1      35.922  31.529  30.604  1.00  0.00     0.338 C 
ATOM     37  O   UNL A   1      34.870  32.063  30.353  1.00  0.00    -0.246 OA
BRANCH  36  38
ATOM     38  C   UNL A   1      36.418  30.272  29.959  1.00  0.00     0.060 A 
ATOM     39  C   UNL A   1      37.030  29.228  30.648  1.00  0.00     0.016 A 
ATOM     40  C   UNL A   1      36.611  30.278  28.625  1.00  0.00     0.016 A 
ATOM     41  C   UNL A   1      38.157  28.501  30.093  1.00  0.00     0.010 A 
ATOM     42  C   UNL A   1      37.746  29.613  28.165  1.00  0.00     0.010 A 
ATOM     43  C   UNL A   1      38.793  28.880  28.906  1.00  0.00    -0.014 A 
BRANCH  43  44
ATOM     44  C   UNL A   1      40.546  28.429  28.440  1.00  0.00     0.031 A 
ATOM     45  C   UNL A   1      41.010  26.787  27.394  1.00  0.00     0.074 A 
ATOM     46  C   UNL A   1      41.456  29.282  29.222  1.00  0.00     0.049 A 
ATOM     47  N   UNL A   1      41.618  25.715  27.980  1.00  0.00    -0.248 NA
ATOM     48  C   UNL A   1      40.452  25.900  26.151  1.00  0.00     0.031 C 
ATOM     49  C   UNL A   1      42.964  29.298  29.531  1.00  0.00     0.029 A 
ATOM     50  N   UNL A   1      41.162  30.393  30.075  1.00  0.00    -0.354 N 
ATOM     51  C   UNL A   1      41.793  24.542  27.360  1.00  0.00     0.074 A 
ATOM     52  C   UNL A   1      40.861  24.622  26.302  1.00  0.00     0.031 C 
ATOM     53  C   UNL A   1      43.407  30.251  30.337  1.00  0.00     0.029 A 
ATOM     54  C   UNL A   1      42.234  30.655  30.973  1.00  0.00     0.049 A 
ATOM     55  H   UNL A   1      40.323  30.909  30.046  1.00  0.00     0.167 HD
ATOM     56  C   UNL A   1      42.732  23.651  27.793  1.00  0.00     0.037 A 
ATOM     57  C   UNL A   1      42.186  30.458  32.310  1.00  0.00     0.037 A 
ATOM     58  C   UNL A   1      43.727  24.224  28.734  1.00  0.00     0.049 A 
ATOM     59  C   UNL A   1      42.920  29.142  32.706  1.00  0.00     0.074 A 
ATOM     60  C   UNL A   1      44.901  24.920  28.473  1.00  0.00     0.029 A 
ATOM     61  N   UNL A   1      43.484  24.455  30.100  1.00  0.00    -0.354 N 
ATOM     62  N   UNL A   1      42.968  28.020  31.996  1.00  0.00    -0.248 NA
ATOM     63  C   UNL A   1      43.899  29.129  33.789  1.00  0.00     0.031 C 
ATOM     64  C   UNL A   1      45.193  25.764  29.588  1.00  0.00     0.029 A 
ATOM     65  C   UNL A   1      44.284  25.506  30.610  1.00  0.00     0.049 A 
ATOM     66  H   UNL A   1      42.835  23.945  30.638  1.00  0.00     0.167 HD
ATOM     67  C   UNL A   1      43.945  27.165  32.491  1.00  0.00     0.074 A 
ATOM     68  C   UNL A   1      44.499  27.937  33.609  1.00  0.00     0.031 C 
ATOM     69  C   UNL A   1      44.332  25.910  32.037  1.00  0.00     0.037 A 
BRANCH  56  70
ATOM     70  C   UNL A   1      42.889  22.452  26.903  1.00  0.00     0.064 A 
ATOM     71  C   UNL A   1      42.192  21.257  27.130  1.00  0.00     0.173 A 
ATOM     72  C   UNL A   1      43.920  22.405  25.939  1.00  0.00     0.173 A 
ATOM     73  F   UNL A   1      41.172  21.204  27.996  1.00  0.00    -0.203 F 
ATOM     74  C   UNL A   1      42.574  20.061  26.512  1.00  0.00     0.198 A 
ATOM     75  C   UNL A   1      44.322  21.204  25.350  1.00  0.00     0.198 A 
ATOM     76  F   UNL A   1      44.612  23.516  25.634  1.00  0.00    -0.203 F 
ATOM     77  F   UNL A   1      41.917  18.927  26.789  1.00  0.00    -0.200 F 
ATOM     78  C   UNL A   1      43.659  20.028  25.652  1.00  0.00     0.200 A 
ATOM     79  F   UNL A   1      45.390  21.178  24.540  1.00  0.00    -0.200 F 
ATOM     80  F   UNL A   1      44.076  18.865  25.132  1.00  0.00    -0.200 F 
ENDBRANCH  56  70
BRANCH  57  81
ATOM     81  C   UNL A   1      41.087  31.314  32.816  1.00  0.00     0.064 A 
ATOM     82  C   UNL A   1      39.935  30.602  33.290  1.00  0.00     0.173 A 
ATOM     83  C   UNL A   1      41.311  32.577  33.344  1.00  0.00     0.173 A 
ATOM     84  F   UNL A   1      39.657  29.377  32.807  1.00  0.00    -0.203 F 
ATOM     85  C   UNL A   1      39.240  31.013  34.421  1.00  0.00     0.198 A 
ATOM     86  C   UNL A   1      40.536  33.031  34.420  1.00  0.00     0.198 A 
ATOM     87  F   UNL A   1      42.384  33.283  32.966  1.00  0.00    -0.203 F 
ATOM     88  F   UNL A   1      38.377  30.179  35.022  1.00  0.00    -0.200 F 
ATOM     89  C   UNL A   1      39.558  32.221  34.998  1.00  0.00     0.200 A 
ATOM     90  F   UNL A   1      40.853  34.189  35.016  1.00  0.00    -0.200 F 
ATOM     91  F   UNL A   1      38.996  32.566  36.166  1.00  0.00    -0.200 F 
ENDBRANCH  57  81
BRANCH  69  92
ATOM     92  C   UNL A   1      45.010  24.908  32.971  1.00  0.00     0.064 A 
ATOM     93  C   UNL A   1      46.409  24.819  33.095  1.00  0.00     0.173 A 
ATOM     94  C   UNL A   1      44.274  24.153  33.921  1.00  0.00     0.173 A 
ATOM     95  F   UNL A   1      47.226  25.573  32.347  1.00  0.00    -0.203 F 
ATOM     96  C   UNL A   1      47.019  23.993  34.039  1.00  0.00     0.198 A 
ATOM     97  C   UNL A   1      44.890  23.395  34.915  1.00  0.00     0.198 A 
ATOM     98  F   UNL A   1      42.935  24.153  33.952  1.00  0.00    -0.203 F 
ATOM     99  F   UNL A   1      48.356  23.907  34.071  1.00  0.00    -0.200 F 
ATOM    100  C   UNL A   1      46.262  23.299  34.961  1.00  0.00     0.200 A 
ATOM    101  F   UNL A   1      44.141  22.783  35.843  1.00  0.00    -0.200 F 
ATOM    102  F   UNL A   1      46.856  22.563  35.909  1.00  0.00    -0.200 F 
ENDBRANCH  69  92
ENDBRANCH  43  44
ENDBRANCH  36  38
ENDBRANCH  35  36
ENDBRANCH  34  35
ENDBRANCH  33  34
ENDBRANCH  32  33
ENDBRANCH  31  32
ENDBRANCH  30  31
ENDBRANCH   1  30
TORSDOF 22
ENDMDL
MODEL 2
REMARK VINA RESULT:     -13.5      1.587      2.465
REMARK SMILES Cc1ccc(S(=O)(=O)N2c3ccc(C(=O)OCCOCCOCCOCCOC(=O)c4ccc(-c5c6nc(c(-c7c(F)c(F)c(F)c(F)c7F)c7ccc([nH]7)c(-c7c(F)c(F)c(F)c(F)c7F)c7nc(c(-c8c(F)c(F)c(F)c(F)c8F)c8ccc5[nH]8)C=C7)C=C6)cc4)cc3C[C@H]2C)cc1
REMARK SMILES IDX 22 1 21 2 20 3 19 4 18 5 17 6 16 7 14 8 15 9 13 10 9 11
REMARK SMILES IDX 10 12 97 13 11 14 95 15 96 16 98 17 12 18 94 19 6 20 7 21
REMARK SMILES IDX 8 22 5 23 1 24 2 25 3 26 100 27 4 28 99 29 23 30 24 31 25 32
REMARK SMILES IDX 26 33 27 34 28 35 29 36 30 37 31 38 32 39 93 40 33 41 92 42
REMARK SMILES IDX 34 43 35 44 36 45 86 46 37 47 91 48 85 49 87 50 38 51 90 52
REMARK SMILES IDX 84 53 83 54 39 56 71 57 51 58 70 59 52 60 55 61 69 62 88 63
REMARK SMILES IDX 53 64 54 65 68 67 89 68 56 69 40 70 41 71 49 72 42 73 43 74
REMARK SMILES IDX 47 75 50 76 44 77 45 78 48 79 46 80 72 81 73 82 81 83 74 84
REMARK SMILES IDX 75 85 79 86 82 87 76 88 77 89 80 90 78 91 57 92 58 93 66 94
REMARK SMILES IDX 59 95 60 96 64 97 67 98 61 99 62 100 65 101 63 102
REMARK H PARENT 87 55 55 66
REMARK Flexibility Score: inf
ROOT
ATOM      1  O   UNL A   1      32.939  34.941  30.163  1.00  0.00    -0.377 OA
ENDROOT
BRANCH   1   2
ATOM      2  C   UNL A   1      33.019  34.591  28.774  1.00  0.00     0.188 C 
BRANCH   2   3
ATOM      3  C   UNL A   1      33.893  33.425  27.958  1.00  0.00     0.188 C 
BRANCH   3   4
ATOM      4  O   UNL A   1      33.871  31.669  27.715  1.00  0.00    -0.376 OA
BRANCH   4   5
ATOM      5  C   UNL A   1      32.740  30.468  27.132  1.00  0.00     0.202 C 
BRANCH   5   6
ATOM      6  C   UNL A   1      31.468  30.633  25.758  1.00  0.00     0.261 C 
BRANCH   6   7
ATOM      7  O   UNL A   1      30.831  29.232  24.754  1.00  0.00    -0.460 OA
BRANCH   7   8
ATOM      8  C   UNL A   1      31.149  28.002  23.930  1.00  0.00     0.338 C 
ATOM      9  O   UNL A   1      30.661  27.788  22.810  1.00  0.00    -0.246 OA
BRANCH   8  10
ATOM     10  C   UNL A   1      32.123  26.772  24.286  1.00  0.00     0.060 A 
ATOM     11  N   UNL A   1      34.299  23.131  24.877  1.00  0.00    -0.263 N 
ATOM     12  C   UNL A   1      33.602  24.381  24.795  1.00  0.00     0.055 A 
ATOM     13  C   UNL A   1      34.764  22.922  23.466  1.00  0.00     0.101 C 
ATOM     14  C   UNL A   1      33.448  25.267  25.803  1.00  0.00     0.028 A 
ATOM     15  C   UNL A   1      33.216  24.724  23.509  1.00  0.00    -0.021 A 
ATOM     16  C   UNL A   1      33.843  23.774  22.545  1.00  0.00     0.063 C 
ATOM     17  C   UNL A   1      36.225  23.425  23.473  1.00  0.00     0.032 C 
ATOM     18  C   UNL A   1      32.879  26.490  25.447  1.00  0.00     0.018 A 
ATOM     19  C   UNL A   1      32.400  25.842  23.260  1.00  0.00     0.021 A 
BRANCH  11  20
ATOM     20  S   UNL A   1      33.298  21.947  25.625  1.00  0.00     0.264 S 
ATOM     21  O   UNL A   1      31.919  22.344  25.410  1.00  0.00    -0.201 OA
ATOM     22  O   UNL A   1      33.808  21.730  26.966  1.00  0.00    -0.201 OA
BRANCH  20  23
ATOM     23  C   UNL A   1      33.474  20.382  24.792  1.00  0.00     0.088 A 
ATOM     24  C   UNL A   1      33.972  16.282  23.588  1.00  0.00     0.044 C 
ATOM     25  C   UNL A   1      33.816  17.730  23.948  1.00  0.00    -0.051 A 
ATOM     26  C   UNL A   1      34.888  18.431  24.509  1.00  0.00     0.005 A 
ATOM     27  C   UNL A   1      32.607  18.401  23.725  1.00  0.00     0.005 A 
ATOM     28  C   UNL A   1      34.716  19.746  24.941  1.00  0.00     0.022 A 
ATOM     29  C   UNL A   1      32.444  19.731  24.121  1.00  0.00     0.022 A 
ENDBRANCH  20  23
ENDBRANCH  11  20
ENDBRANCH   8  10
ENDBRANCH   7   8
ENDBRANCH   6   7
ENDBRANCH   5   6
ENDBRANCH   4   5
ENDBRANCH   3   4
ENDBRANCH   2   3
ENDBRANCH   1   2
BRANCH   1  30
ATOM     30  C   UNL A   1      32.920  36.240  30.727  1.00  0.00     0.188 C 
BRANCH  30  31
ATOM     31  C   UNL A   1      33.578  36.548  32.045  1.00  0.00     0.188 C 
BRANCH  31  32
ATOM     32  O   UNL A   1      34.146  35.367  32.568  1.00  0.00    -0.376 OA
BRANCH  32  33
ATOM     33  C   UNL A   1      35.558  35.317  32.459  1.00  0.00     0.202 C 
BRANCH  33  34
ATOM     34  C   UNL A   1      36.161  34.041  33.067  1.00  0.00     0.261 C 
BRANCH  34  35
ATOM     35  O   UNL A   1      36.468  33.087  32.026  1.00  0.00    -0.460 OA
BRANCH  35  36
ATOM     36  C   UNL A   1      35.458  32.225  31.661  1.00  0.00     0.338 C 
ATOM     37  O   UNL A   1      34.322  32.264  32.064  1.00  0.00    -0.246 OA
BRANCH  36  38
ATOM     38  C   UNL A   1      36.077  31.055  30.960  1.00  0.00     0.060 A 
ATOM     39  C   UNL A   1      36.766  30.032  31.606  1.00  0.00     0.016 A 
ATOM     40  C   UNL A   1      36.296  31.155  29.635  1.00  0.00     0.016 A 
ATOM     41  C   UNL A   1      37.965  29.440  31.041  1.00  0.00     0.010 A 
ATOM     42  C   UNL A   1      37.495  30.620  29.167  1.00  0.00     0.010 A 
ATOM     43  C   UNL A   1      38.588  29.942  29.892  1.00  0.00    -0.014 A 
BRANCH  43  44
ATOM     44  C   UNL A   1      40.384  29.674  29.448  1.00  0.00     0.031 A 
ATOM     45  C   UNL A   1      40.993  28.262  28.168  1.00  0.00     0.074 A 
ATOM     46  C   UNL A   1      41.206  30.432  30.405  1.00  0.00     0.049 A 
ATOM     47  N   UNL A   1      41.644  27.142  28.596  1.00  0.00    -0.248 NA
ATOM     48  C   UNL A   1      40.543  27.568  26.767  1.00  0.00     0.031 C 
ATOM     49  C   UNL A   1      42.696  30.480  30.789  1.00  0.00     0.029 A 
ATOM     50  N   UNL A   1      40.807  31.364  31.416  1.00  0.00    -0.354 N 
ATOM     51  C   UNL A   1      41.918  26.102  27.799  1.00  0.00     0.074 A 
ATOM     52  C   UNL A   1      41.026  26.308  26.724  1.00  0.00     0.031 C 
ATOM     53  C   UNL A   1      43.045  31.306  31.764  1.00  0.00     0.029 A 
ATOM     54  C   UNL A   1      41.824  31.531  32.397  1.00  0.00     0.049 A 
ATOM     55  H   UNL A   1      39.939  31.830  31.430  1.00  0.00     0.167 HD
ATOM     56  C   UNL A   1      42.894  25.205  28.124  1.00  0.00     0.037 A 
ATOM     57  C   UNL A   1      41.734  31.108  33.678  1.00  0.00     0.037 A 
ATOM     58  C   UNL A   1      43.811  25.664  29.197  1.00  0.00     0.049 A 
ATOM     59  C   UNL A   1      42.534  29.787  33.886  1.00  0.00     0.074 A 
ATOM     60  C   UNL A   1      44.948  26.459  29.115  1.00  0.00     0.029 A 
ATOM     61  N   UNL A   1      43.499  25.647  30.569  1.00  0.00    -0.354 N 
ATOM     62  N   UNL A   1      42.682  28.805  33.003  1.00  0.00    -0.248 NA
ATOM     63  C   UNL A   1      43.467  29.645  35.001  1.00  0.00     0.031 C 
ATOM     64  C   UNL A   1      45.141  27.117  30.368  1.00  0.00     0.029 A 
ATOM     65  C   UNL A   1      44.209  26.640  31.286  1.00  0.00     0.049 A 
ATOM     66  H   UNL A   1      42.862  25.018  30.980  1.00  0.00     0.167 HD
ATOM     67  C   UNL A   1      43.689  27.935  33.398  1.00  0.00     0.074 A 
ATOM     68  C   UNL A   1      44.148  28.537  34.655  1.00  0.00     0.031 C 
ATOM     69  C   UNL A   1      44.174  26.798  32.761  1.00  0.00     0.037 A 
BRANCH  56  70
ATOM     70  C   UNL A   1      43.162  24.184  27.056  1.00  0.00     0.064 A 
ATOM     71  C   UNL A   1      42.763  22.846  27.184  1.00  0.00     0.173 A 
ATOM     72  C   UNL A   1      44.032  24.481  25.984  1.00  0.00     0.173 A 
ATOM     73  F   UNL A   1      41.909  22.467  28.143  1.00  0.00    -0.203 F 
ATOM     74  C   UNL A   1      43.287  21.847  26.358  1.00  0.00     0.198 A 
ATOM     75  C   UNL A   1      44.582  23.477  25.184  1.00  0.00     0.198 A 
ATOM     76  F   UNL A   1      44.433  25.745  25.769  1.00  0.00    -0.203 F 
ATOM     77  F   UNL A   1      42.921  20.570  26.539  1.00  0.00    -0.200 F 
ATOM     78  C   UNL A   1      44.222  22.156  25.384  1.00  0.00     0.200 A 
ATOM     79  F   UNL A   1      45.506  23.784  24.262  1.00  0.00    -0.200 F 
ATOM     80  F   UNL A   1      44.788  21.184  24.654  1.00  0.00    -0.200 F 
ENDBRANCH  56  70
BRANCH  57  81
ATOM     81  C   UNL A   1      40.563  31.802  34.265  1.00  0.00     0.064 A 
ATOM     82  C   UNL A   1      39.497  30.940  34.687  1.00  0.00     0.173 A 
ATOM     83  C   UNL A   1      40.667  33.035  34.894  1.00  0.00     0.173 A 
ATOM     84  F   UNL A   1      39.336  29.737  34.107  1.00  0.00    -0.203 F 
ATOM     85  C   UNL A   1      38.784  31.184  35.854  1.00  0.00     0.198 A 
ATOM     86  C   UNL A   1      39.869  33.318  36.010  1.00  0.00     0.198 A 
ATOM     87  F   UNL A   1      41.657  33.875  34.566  1.00  0.00    -0.203 F 
ATOM     88  F   UNL A   1      38.020  30.220  36.392  1.00  0.00    -0.200 F 
ATOM     89  C   UNL A   1      38.988  32.368  36.528  1.00  0.00     0.200 A 
ATOM     90  F   UNL A   1      40.079  34.448  36.698  1.00  0.00    -0.200 F 
ATOM     91  F   UNL A   1      38.414  32.556  37.725  1.00  0.00    -0.200 F 
ENDBRANCH  57  81
BRANCH  69  92
ATOM     92  C   UNL A   1      44.876  25.692  33.548  1.00  0.00     0.064 A 
ATOM     93  C   UNL A   1      44.182  24.595  34.089  1.00  0.00     0.173 A 
ATOM     94  C   UNL A   1      46.291  25.593  33.601  1.00  0.00     0.173 A 
ATOM     95  F   UNL A   1      42.849  24.496  33.996  1.00  0.00    -0.203 F 
ATOM     96  C   UNL A   1      44.841  23.526  34.697  1.00  0.00     0.198 A 
ATOM     97  C   UNL A   1      46.945  24.484  34.134  1.00  0.00     0.198 A 
ATOM     98  F   UNL A   1      47.094  26.543  33.103  1.00  0.00    -0.203 F 
ATOM     99  F   UNL A   1      44.123  22.536  35.246  1.00  0.00    -0.200 F 
ATOM    100  C   UNL A   1      46.220  23.459  34.700  1.00  0.00     0.200 A 
ATOM    101  F   UNL A   1      48.281  24.405  34.068  1.00  0.00    -0.200 F 
ATOM    102  F   UNL A   1      46.846  22.397  35.222  1.00  0.00    -0.200 F 
ENDBRANCH  69  92
ENDBRANCH  43  44
ENDBRANCH  36  38
ENDBRANCH  35  36
ENDBRANCH  34  35
ENDBRANCH  33  34
ENDBRANCH  32  33
ENDBRANCH  31  32
ENDBRANCH  30  31
ENDBRANCH   1  30
TORSDOF 22
ENDMDL
MODEL 3
REMARK VINA RESULT:     -12.5      1.963      3.360
REMARK SMILES Cc1ccc(S(=O)(=O)N2c3ccc(C(=O)OCCOCCOCCOCCOC(=O)c4ccc(-c5c6nc(c(-c7c(F)c(F)c(F)c(F)c7F)c7ccc([nH]7)c(-c7c(F)c(F)c(F)c(F)c7F)c7nc(c(-c8c(F)c(F)c(F)c(F)c8F)c8ccc5[nH]8)C=C7)C=C6)cc4)cc3C[C@H]2C)cc1
REMARK SMILES IDX 22 1 21 2 20 3 19 4 18 5 17 6 16 7 14 8 15 9 13 10 9 11
REMARK SMILES IDX 10 12 97 13 11 14 95 15 96 16 98 17 12 18 94 19 6 20 7 21
REMARK SMILES IDX 8 22 5 23 1 24 2 25 3 26 100 27 4 28 99 29 23 30 24 31 25 32
REMARK SMILES IDX 26 33 27 34 28 35 29 36 30 37 31 38 32 39 93 40 33 41 92 42
REMARK SMILES IDX 34 43 35 44 36 45 86 46 37 47 91 48 85 49 87 50 38 51 90 52
REMARK SMILES IDX 84 53 83 54 39 56 71 57 51 58 70 59 52 60 55 61 69 62 88 63
REMARK SMILES IDX 53 64 54 65 68 67 89 68 56 69 40 70 41 71 49 72 42 73 43 74
REMARK SMILES IDX 47 75 50 76 44 77 45 78 48 79 46 80 72 81 73 82 81 83 74 84
REMARK SMILES IDX 75 85 79 86 82 87 76 88 77 89 80 90 78 91 57 92 58 93 66 94
REMARK SMILES IDX 59 95 60 96 64 97 67 98 61 99 62 100 65 101 63 102
REMARK H PARENT 87 55 55 66
REMARK Flexibility Score: inf
ROOT
ATOM      1  O   UNL A   1      33.358  35.158  29.233  1.00  0.00    -0.377 OA
ENDROOT
BRANCH   1   2
ATOM      2  C   UNL A   1      34.547  35.180  28.430  1.00  0.00     0.188 C 
BRANCH   2   3
ATOM      3  C   UNL A   1      35.505  33.962  27.808  1.00  0.00     0.188 C 
BRANCH   3   4
ATOM      4  O   UNL A   1      36.142  32.383  28.303  1.00  0.00    -0.376 OA
BRANCH   4   5
ATOM      5  C   UNL A   1      35.846  30.702  27.919  1.00  0.00     0.202 C 
BRANCH   5   6
ATOM      6  C   UNL A   1      34.499  29.973  26.828  1.00  0.00     0.261 C 
BRANCH   6   7
ATOM      7  O   UNL A   1      33.002  29.114  27.456  1.00  0.00    -0.460 OA
BRANCH   7   8
ATOM      8  C   UNL A   1      32.112  27.889  27.398  1.00  0.00     0.338 C 
ATOM      9  O   UNL A   1      30.984  27.843  27.912  1.00  0.00    -0.246 OA
BRANCH   8  10
ATOM     10  C   UNL A   1      32.400  26.464  26.710  1.00  0.00     0.060 A 
ATOM     11  N   UNL A   1      33.444  23.020  24.389  1.00  0.00    -0.263 N 
ATOM     12  C   UNL A   1      32.992  24.112  25.200  1.00  0.00     0.055 A 
ATOM     13  C   UNL A   1      34.936  23.118  24.511  1.00  0.00     0.101 C 
ATOM     14  C   UNL A   1      31.810  24.177  25.850  1.00  0.00     0.028 A 
ATOM     15  C   UNL A   1      33.958  25.080  25.426  1.00  0.00    -0.021 A 
ATOM     16  C   UNL A   1      35.271  24.580  24.927  1.00  0.00     0.063 C 
ATOM     17  C   UNL A   1      35.292  22.092  25.611  1.00  0.00     0.032 C 
ATOM     18  C   UNL A   1      31.656  25.263  26.713  1.00  0.00     0.018 A 
ATOM     19  C   UNL A   1      33.650  26.288  26.077  1.00  0.00     0.021 A 
BRANCH  11  20
ATOM     20  S   UNL A   1      32.713  23.099  22.834  1.00  0.00     0.264 S 
ATOM     21  O   UNL A   1      31.635  22.129  22.810  1.00  0.00    -0.201 OA
ATOM     22  O   UNL A   1      33.778  23.051  21.849  1.00  0.00    -0.201 OA
BRANCH  20  23
ATOM     23  C   UNL A   1      31.929  24.682  22.605  1.00  0.00     0.088 A 
ATOM     24  C   UNL A   1      30.062  28.545  22.924  1.00  0.00     0.044 C 
ATOM     25  C   UNL A   1      30.688  27.192  22.753  1.00  0.00    -0.051 A 
ATOM     26  C   UNL A   1      30.006  26.048  23.177  1.00  0.00     0.005 A 
ATOM     27  C   UNL A   1      31.952  27.054  22.166  1.00  0.00     0.005 A 
ATOM     28  C   UNL A   1      30.627  24.799  23.115  1.00  0.00     0.022 A 
ATOM     29  C   UNL A   1      32.560  25.799  22.068  1.00  0.00     0.022 A 
ENDBRANCH  20  23
ENDBRANCH  11  20
ENDBRANCH   8  10
ENDBRANCH   7   8
ENDBRANCH   6   7
ENDBRANCH   5   6
ENDBRANCH   4   5
ENDBRANCH   3   4
ENDBRANCH   2   3
ENDBRANCH   1   2
BRANCH   1  30
ATOM     30  C   UNL A   1      33.270  35.186  30.647  1.00  0.00     0.188 C 
BRANCH  30  31
ATOM     31  C   UNL A   1      32.717  36.372  31.388  1.00  0.00     0.188 C 
BRANCH  31  32
ATOM     32  O   UNL A   1      33.245  36.391  32.697  1.00  0.00    -0.376 OA
BRANCH  32  33
ATOM     33  C   UNL A   1      34.642  36.161  32.751  1.00  0.00     0.202 C 
BRANCH  33  34
ATOM     34  C   UNL A   1      35.040  35.145  33.833  1.00  0.00     0.261 C 
BRANCH  34  35
ATOM     35  O   UNL A   1      36.277  34.489  33.471  1.00  0.00    -0.460 OA
BRANCH  35  36
ATOM     36  C   UNL A   1      36.318  33.121  33.625  1.00  0.00     0.338 C 
ATOM     37  O   UNL A   1      36.312  32.532  34.677  1.00  0.00    -0.246 OA
BRANCH  36  38
ATOM     38  C   UNL A   1      36.706  32.518  32.310  1.00  0.00     0.060 A 
ATOM     39  C   UNL A   1      36.945  31.160  32.114  1.00  0.00     0.016 A 
ATOM     40  C   UNL A   1      37.191  33.336  31.357  1.00  0.00     0.016 A 
ATOM     41  C   UNL A   1      38.015  30.688  31.253  1.00  0.00     0.010 A 
ATOM     42  C   UNL A   1      38.258  32.844  30.608  1.00  0.00     0.010 A 
ATOM     43  C   UNL A   1      38.960  31.546  30.678  1.00  0.00    -0.014 A 
BRANCH  43  44
ATOM     44  C   UNL A   1      40.659  31.028  30.096  1.00  0.00     0.031 A 
ATOM     45  C   UNL A   1      40.954  29.639  28.687  1.00  0.00     0.074 A 
ATOM     46  C   UNL A   1      41.646  31.569  31.045  1.00  0.00     0.049 A 
ATOM     47  N   UNL A   1      41.433  28.400  28.995  1.00  0.00    -0.248 NA
ATOM     48  C   UNL A   1      40.318  29.136  27.277  1.00  0.00     0.031 C 
ATOM     49  C   UNL A   1      43.143  31.347  31.328  1.00  0.00     0.029 A 
ATOM     50  N   UNL A   1      41.464  32.472  32.139  1.00  0.00    -0.354 N 
ATOM     51  C   UNL A   1      41.487  27.394  28.114  1.00  0.00     0.074 A 
ATOM     52  C   UNL A   1      40.583  27.822  27.117  1.00  0.00     0.031 C 
ATOM     53  C   UNL A   1      43.678  32.030  32.330  1.00  0.00     0.029 A 
ATOM     54  C   UNL A   1      42.548  32.398  33.059  1.00  0.00     0.049 A 
ATOM     55  H   UNL A   1      40.687  33.069  32.243  1.00  0.00     0.167 HD
ATOM     56  C   UNL A   1      42.318  26.329  28.312  1.00  0.00     0.037 A 
ATOM     57  C   UNL A   1      42.461  31.898  34.312  1.00  0.00     0.037 A 
ATOM     58  C   UNL A   1      43.358  26.551  29.348  1.00  0.00     0.049 A 
ATOM     59  C   UNL A   1      43.043  30.453  34.377  1.00  0.00     0.074 A 
ATOM     60  C   UNL A   1      44.604  27.157  29.242  1.00  0.00     0.029 A 
ATOM     61  N   UNL A   1      43.124  26.479  30.733  1.00  0.00    -0.354 N 
ATOM     62  N   UNL A   1      42.977  29.532  33.422  1.00  0.00    -0.248 NA
ATOM     63  C   UNL A   1      44.001  30.079  35.414  1.00  0.00     0.031 C 
ATOM     64  C   UNL A   1      44.972  27.678  30.520  1.00  0.00     0.029 A 
ATOM     65  C   UNL A   1      44.027  27.287  31.466  1.00  0.00     0.049 A 
ATOM     66  H   UNL A   1      42.416  25.931  31.144  1.00  0.00     0.167 HD
ATOM     67  C   UNL A   1      43.848  28.483  33.689  1.00  0.00     0.074 A 
ATOM     68  C   UNL A   1      44.469  28.905  34.949  1.00  0.00     0.031 C 
ATOM     69  C   UNL A   1      44.102  27.335  32.946  1.00  0.00     0.037 A 
BRANCH  56  70
ATOM     70  C   UNL A   1      42.354  25.364  27.162  1.00  0.00     0.064 A 
ATOM     71  C   UNL A   1      41.569  24.202  27.137  1.00  0.00     0.173 A 
ATOM     72  C   UNL A   1      43.353  25.468  26.169  1.00  0.00     0.173 A 
ATOM     73  F   UNL A   1      40.570  24.023  28.010  1.00  0.00    -0.203 F 
ATOM     74  C   UNL A   1      41.836  23.161  26.242  1.00  0.00     0.198 A 
ATOM     75  C   UNL A   1      43.641  24.412  25.302  1.00  0.00     0.198 A 
ATOM     76  F   UNL A   1      44.125  26.565  26.101  1.00  0.00    -0.203 F 
ATOM     77  F   UNL A   1      41.096  22.044  26.278  1.00  0.00    -0.200 F 
ATOM     78  C   UNL A   1      42.893  23.250  25.352  1.00  0.00     0.200 A 
ATOM     79  F   UNL A   1      44.684  24.499  24.463  1.00  0.00    -0.200 F 
ATOM     80  F   UNL A   1      43.200  22.214  24.559  1.00  0.00    -0.200 F 
ENDBRANCH  56  70
BRANCH  57  81
ATOM     81  C   UNL A   1      41.456  32.724  35.021  1.00  0.00     0.064 A 
ATOM     82  C   UNL A   1      40.173  32.105  35.190  1.00  0.00     0.173 A 
ATOM     83  C   UNL A   1      41.811  33.704  35.938  1.00  0.00     0.173 A 
ATOM     84  F   UNL A   1      39.766  31.157  34.326  1.00  0.00    -0.203 F 
ATOM     85  C   UNL A   1      39.442  32.253  36.362  1.00  0.00     0.198 A 
ATOM     86  C   UNL A   1      41.013  33.923  37.068  1.00  0.00     0.198 A 
ATOM     87  F   UNL A   1      43.006  34.301  35.853  1.00  0.00    -0.203 F 
ATOM     88  F   UNL A   1      38.415  31.430  36.625  1.00  0.00    -0.200 F 
ATOM     89  C   UNL A   1      39.877  33.149  37.312  1.00  0.00     0.200 A 
ATOM     90  F   UNL A   1      41.438  34.766  38.019  1.00  0.00    -0.200 F 
ATOM     91  F   UNL A   1      39.264  33.201  38.504  1.00  0.00    -0.200 F 
ENDBRANCH  57  81
BRANCH  69  92
ATOM     92  C   UNL A   1      44.655  26.074  33.609  1.00  0.00     0.064 A 
ATOM     93  C   UNL A   1      46.024  25.752  33.593  1.00  0.00     0.173 A 
ATOM     94  C   UNL A   1      43.856  25.262  34.456  1.00  0.00     0.173 A 
ATOM     95  F   UNL A   1      46.913  26.509  32.936  1.00  0.00    -0.203 F 
ATOM     96  C   UNL A   1      46.540  24.668  34.304  1.00  0.00     0.198 A 
ATOM     97  C   UNL A   1      44.391  24.233  35.229  1.00  0.00     0.198 A 
ATOM     98  F   UNL A   1      42.539  25.458  34.602  1.00  0.00    -0.203 F 
ATOM     99  F   UNL A   1      47.844  24.377  34.205  1.00  0.00    -0.200 F 
ATOM    100  C   UNL A   1      45.730  23.924  35.138  1.00  0.00     0.200 A 
ATOM    101  F   UNL A   1      43.603  23.565  36.083  1.00  0.00    -0.200 F 
ATOM    102  F   UNL A   1      46.244  22.930  35.872  1.00  0.00    -0.200 F 
ENDBRANCH  69  92
ENDBRANCH  43  44
ENDBRANCH  36  38
ENDBRANCH  35  36
ENDBRANCH  34  35
ENDBRANCH  33  34
ENDBRANCH  32  33
ENDBRANCH  31  32
ENDBRANCH  30  31
ENDBRANCH   1  30
TORSDOF 22
ENDMDL
