MODEL 1
REMARK VINA RESULT:     -10.7      0.000      0.000
REMARK SMILES C[C@@H]1[C@@H](C(=O)OCCOCCOCCOCCOC(=O)c2ccc(-c3c4nc(c(-c5c(F)c(F)c(F)c(F)c5F)c5ccc([nH]5)c(-c5c(F)c(F)c(F)c(F)c5F)c5nc(c(-c6c(F)c(F)c(F)c(F)c6F)c6ccc3[nH]6)C=C5)C=C4)cc2)CCN1C(=O)Nc1nccs1
REMARK SMILES IDX 12 1 11 2 10 3 9 4 8 5 7 6 6 7 4 8 5 9 3 10 1 11 2 12 86 13
REMARK SMILES IDX 84 14 85 15 87 16 88 17 89 18 90 20 91 21 94 22 92 23 93 24
REMARK SMILES IDX 13 25 14 26 15 27 16 28 17 29 18 30 19 31 20 32 21 33 22 34
REMARK SMILES IDX 83 35 23 36 82 37 24 38 25 39 26 40 76 41 27 42 81 43 75 44
REMARK SMILES IDX 77 45 28 46 80 47 74 48 73 49 29 51 61 52 41 53 60 54 42 55
REMARK SMILES IDX 45 56 59 57 78 58 43 59 44 60 58 62 79 63 46 64 30 65 31 66
REMARK SMILES IDX 39 67 32 68 33 69 37 70 40 71 34 72 35 73 38 74 36 75 62 76
REMARK SMILES IDX 63 77 71 78 64 79 65 80 69 81 72 82 66 83 67 84 70 85 68 86
REMARK SMILES IDX 47 87 48 88 56 89 49 90 50 91 54 92 57 93 51 94 52 95 55 96
REMARK SMILES IDX 53 97
REMARK H PARENT 89 19 77 50 45 61
REMARK Flexibility Score: inf
ROOT
ATOM      1  O   UNL A   1      32.681  29.313  24.255  1.00  0.00    -0.377 OA
ENDROOT
BRANCH   1   2
ATOM      2  C   UNL A   1      31.279  29.178  24.372  1.00  0.00     0.188 C 
BRANCH   2   3
ATOM      3  C   UNL A   1      30.661  28.263  23.302  1.00  0.00     0.188 C 
BRANCH   3   4
ATOM      4  O   UNL A   1      30.095  27.023  23.681  1.00  0.00    -0.376 OA
BRANCH   4   5
ATOM      5  C   UNL A   1      30.710  25.760  23.483  1.00  0.00     0.202 C 
BRANCH   5   6
ATOM      6  C   UNL A   1      32.107  25.466  22.903  1.00  0.00     0.261 C 
BRANCH   6   7
ATOM      7  O   UNL A   1      33.142  25.108  23.808  1.00  0.00    -0.463 OA
BRANCH   7   8
ATOM      8  C   UNL A   1      33.813  23.982  23.475  1.00  0.00     0.311 C 
ATOM      9  O   UNL A   1      34.195  23.718  22.343  1.00  0.00    -0.252 OA
BRANCH   8  10
ATOM     10  C   UNL A   1      34.083  23.154  24.721  1.00  0.00     0.123 C 
ATOM     11  C   UNL A   1      35.050  20.892  25.355  1.00  0.00     0.032 C 
ATOM     12  C   UNL A   1      34.272  21.694  24.305  1.00  0.00     0.098 C 
ATOM     13  N   UNL A   1      32.894  21.215  24.177  1.00  0.00    -0.321 N 
ATOM     14  C   UNL A   1      32.875  23.112  25.634  1.00  0.00     0.039 C 
ATOM     15  C   UNL A   1      31.998  22.056  24.973  1.00  0.00     0.122 C 
BRANCH  13  16
ATOM     16  C   UNL A   1      32.330  20.484  23.164  1.00  0.00     0.323 C 
ATOM     17  O   UNL A   1      31.801  21.062  22.204  1.00  0.00    -0.248 OA
ATOM     18  N   UNL A   1      32.446  19.146  23.051  1.00  0.00    -0.283 N 
ATOM     19  H   UNL A   1      32.370  18.818  22.126  1.00  0.00     0.174 HD
BRANCH  18  20
ATOM     20  C   UNL A   1      32.650  18.161  23.966  1.00  0.00     0.190 A 
ATOM     21  N   UNL A   1      32.163  18.002  25.170  1.00  0.00    -0.228 NA
ATOM     22  S   UNL A   1      33.710  16.931  23.423  1.00  0.00    -0.105 S 
ATOM     23  C   UNL A   1      32.718  16.880  25.751  1.00  0.00     0.125 A 
ATOM     24  C   UNL A   1      33.617  16.191  24.968  1.00  0.00     0.088 A 
ENDBRANCH  18  20
ENDBRANCH  13  16
ENDBRANCH   8  10
ENDBRANCH   7   8
ENDBRANCH   6   7
ENDBRANCH   5   6
ENDBRANCH   4   5
ENDBRANCH   3   4
ENDBRANCH   2   3
ENDBRANCH   1   2
BRANCH   1  25
ATOM     25  C   UNL A   1      33.487  28.426  25.021  1.00  0.00     0.188 C 
BRANCH  25  26
ATOM     26  C   UNL A   1      33.708  28.673  26.532  1.00  0.00     0.188 C 
BRANCH  26  27
ATOM     27  O   UNL A   1      34.115  29.992  26.864  1.00  0.00    -0.376 OA
BRANCH  27  28
ATOM     28  C   UNL A   1      33.120  30.949  27.184  1.00  0.00     0.202 C 
BRANCH  28  29
ATOM     29  C   UNL A   1      33.580  32.182  27.978  1.00  0.00     0.261 C 
BRANCH  29  30
ATOM     30  O   UNL A   1      32.952  33.424  27.625  1.00  0.00    -0.460 OA
BRANCH  30  31
ATOM     31  C   UNL A   1      33.201  34.489  28.414  1.00  0.00     0.338 C 
ATOM     32  O   UNL A   1      32.526  35.501  28.522  1.00  0.00    -0.246 OA
BRANCH  31  33
ATOM     33  C   UNL A   1      34.340  34.150  29.289  1.00  0.00     0.060 A 
ATOM     34  C   UNL A   1      35.643  34.304  28.798  1.00  0.00     0.016 A 
ATOM     35  C   UNL A   1      34.125  33.688  30.591  1.00  0.00     0.016 A 
ATOM     36  C   UNL A   1      36.735  33.956  29.591  1.00  0.00     0.010 A 
ATOM     37  C   UNL A   1      35.220  33.316  31.376  1.00  0.00     0.010 A 
ATOM     38  C   UNL A   1      36.528  33.413  30.866  1.00  0.00    -0.014 A 
BRANCH  38  39
ATOM     39  C   UNL A   1      37.651  32.752  31.574  1.00  0.00     0.031 A 
ATOM     40  C   UNL A   1      38.320  31.581  30.907  1.00  0.00     0.074 A 
ATOM     41  C   UNL A   1      38.087  33.190  32.767  1.00  0.00     0.049 A 
ATOM     42  N   UNL A   1      39.280  30.808  31.344  1.00  0.00    -0.248 NA
ATOM     43  C   UNL A   1      37.835  31.236  29.561  1.00  0.00     0.031 C 
ATOM     44  C   UNL A   1      37.554  34.341  33.493  1.00  0.00     0.029 A 
ATOM     45  N   UNL A   1      39.079  32.705  33.584  1.00  0.00    -0.354 N 
ATOM     46  C   UNL A   1      39.506  29.882  30.333  1.00  0.00     0.074 A 
ATOM     47  C   UNL A   1      38.562  30.167  29.276  1.00  0.00     0.031 C 
ATOM     48  C   UNL A   1      38.218  34.466  34.656  1.00  0.00     0.029 A 
ATOM     49  C   UNL A   1      39.194  33.383  34.772  1.00  0.00     0.049 A 
ATOM     50  H   UNL A   1      39.652  31.943  33.341  1.00  0.00     0.167 HD
ATOM     51  C   UNL A   1      40.425  28.889  30.287  1.00  0.00     0.037 A 
ATOM     52  C   UNL A   1      39.979  33.137  35.840  1.00  0.00     0.037 A 
ATOM     53  C   UNL A   1      41.360  28.606  31.343  1.00  0.00     0.049 A 
ATOM     54  C   UNL A   1      40.936  31.970  35.800  1.00  0.00     0.074 A 
ATOM     55  C   UNL A   1      42.341  27.632  31.389  1.00  0.00     0.029 A 
ATOM     56  N   UNL A   1      41.423  29.292  32.547  1.00  0.00    -0.354 N 
ATOM     57  N   UNL A   1      41.163  31.113  34.832  1.00  0.00    -0.248 NA
ATOM     58  C   UNL A   1      41.750  31.739  37.002  1.00  0.00     0.031 C 
ATOM     59  C   UNL A   1      42.953  27.685  32.645  1.00  0.00     0.029 A 
ATOM     60  C   UNL A   1      42.405  28.742  33.355  1.00  0.00     0.049 A 
ATOM     61  H   UNL A   1      40.853  30.058  32.792  1.00  0.00     0.167 HD
ATOM     62  C   UNL A   1      42.166  30.268  35.294  1.00  0.00     0.074 A 
ATOM     63  C   UNL A   1      42.513  30.724  36.624  1.00  0.00     0.031 C 
ATOM     64  C   UNL A   1      42.749  29.213  34.673  1.00  0.00     0.037 A 
BRANCH  51  65
ATOM     65  C   UNL A   1      40.440  28.013  29.068  1.00  0.00     0.064 A 
ATOM     66  C   UNL A   1      41.243  28.305  27.954  1.00  0.00     0.173 A 
ATOM     67  C   UNL A   1      39.661  26.847  29.025  1.00  0.00     0.173 A 
ATOM     68  F   UNL A   1      41.995  29.417  27.936  1.00  0.00    -0.203 F 
ATOM     69  C   UNL A   1      41.243  27.478  26.834  1.00  0.00     0.198 A 
ATOM     70  C   UNL A   1      39.690  26.003  27.917  1.00  0.00     0.198 A 
ATOM     71  F   UNL A   1      38.876  26.518  30.062  1.00  0.00    -0.203 F 
ATOM     72  F   UNL A   1      41.977  27.806  25.761  1.00  0.00    -0.200 F 
ATOM     73  C   UNL A   1      40.474  26.324  26.819  1.00  0.00     0.200 A 
ATOM     74  F   UNL A   1      38.957  24.882  27.912  1.00  0.00    -0.200 F 
ATOM     75  F   UNL A   1      40.481  25.525  25.744  1.00  0.00    -0.200 F 
ENDBRANCH  51  65
BRANCH  52  76
ATOM     76  C   UNL A   1      39.888  33.998  37.050  1.00  0.00     0.064 A 
ATOM     77  C   UNL A   1      40.689  35.140  37.189  1.00  0.00     0.173 A 
ATOM     78  C   UNL A   1      39.024  33.678  38.108  1.00  0.00     0.173 A 
ATOM     79  F   UNL A   1      41.554  35.474  36.219  1.00  0.00    -0.203 F 
ATOM     80  C   UNL A   1      40.648  35.913  38.349  1.00  0.00     0.198 A 
ATOM     81  C   UNL A   1      38.958  34.471  39.251  1.00  0.00     0.198 A 
ATOM     82  F   UNL A   1      38.238  32.594  38.029  1.00  0.00    -0.203 F 
ATOM     83  F   UNL A   1      41.467  36.965  38.478  1.00  0.00    -0.200 F 
ATOM     84  C   UNL A   1      39.778  35.581  39.375  1.00  0.00     0.200 A 
ATOM     85  F   UNL A   1      38.107  34.152  40.236  1.00  0.00    -0.200 F 
ATOM     86  F   UNL A   1      39.738  36.325  40.489  1.00  0.00    -0.200 F 
ENDBRANCH  52  76
BRANCH  64  87
ATOM     87  C   UNL A   1      43.859  28.503  35.399  1.00  0.00     0.064 A 
ATOM     88  C   UNL A   1      45.205  28.861  35.231  1.00  0.00     0.173 A 
ATOM     89  C   UNL A   1      43.565  27.476  36.310  1.00  0.00     0.173 A 
ATOM     90  F   UNL A   1      45.542  29.828  34.365  1.00  0.00    -0.203 F 
ATOM     91  C   UNL A   1      46.214  28.198  35.924  1.00  0.00     0.198 A 
ATOM     92  C   UNL A   1      44.573  26.840  37.028  1.00  0.00     0.198 A 
ATOM     93  F   UNL A   1      42.294  27.099  36.518  1.00  0.00    -0.203 F 
ATOM     94  F   UNL A   1      47.497  28.521  35.706  1.00  0.00    -0.200 F 
ATOM     95  C   UNL A   1      45.898  27.195  36.827  1.00  0.00     0.200 A 
ATOM     96  F   UNL A   1      44.263  25.885  37.916  1.00  0.00    -0.200 F 
ATOM     97  F   UNL A   1      46.871  26.565  37.500  1.00  0.00    -0.200 F 
ENDBRANCH  64  87
ENDBRANCH  38  39
ENDBRANCH  31  33
ENDBRANCH  30  31
ENDBRANCH  29  30
ENDBRANCH  28  29
ENDBRANCH  27  28
ENDBRANCH  26  27
ENDBRANCH  25  26
ENDBRANCH   1  25
TORSDOF 22
ENDMDL
MODEL 2
REMARK VINA RESULT:     -10.7      0.837      7.253
REMARK SMILES C[C@@H]1[C@@H](C(=O)OCCOCCOCCOCCOC(=O)c2ccc(-c3c4nc(c(-c5c(F)c(F)c(F)c(F)c5F)c5ccc([nH]5)c(-c5c(F)c(F)c(F)c(F)c5F)c5nc(c(-c6c(F)c(F)c(F)c(F)c6F)c6ccc3[nH]6)C=C5)C=C4)cc2)CCN1C(=O)Nc1nccs1
REMARK SMILES IDX 12 1 11 2 10 3 9 4 8 5 7 6 6 7 4 8 5 9 3 10 1 11 2 12 86 13
REMARK SMILES IDX 84 14 85 15 87 16 88 17 89 18 90 20 91 21 94 22 92 23 93 24
REMARK SMILES IDX 13 25 14 26 15 27 16 28 17 29 18 30 19 31 20 32 21 33 22 34
REMARK SMILES IDX 83 35 23 36 82 37 24 38 25 39 26 40 76 41 27 42 81 43 75 44
REMARK SMILES IDX 77 45 28 46 80 47 74 48 73 49 29 51 61 52 41 53 60 54 42 55
REMARK SMILES IDX 45 56 59 57 78 58 43 59 44 60 58 62 79 63 46 64 30 65 31 66
REMARK SMILES IDX 39 67 32 68 33 69 37 70 40 71 34 72 35 73 38 74 36 75 62 76
REMARK SMILES IDX 63 77 71 78 64 79 65 80 69 81 72 82 66 83 67 84 70 85 68 86
REMARK SMILES IDX 47 87 48 88 56 89 49 90 50 91 54 92 57 93 51 94 52 95 55 96
REMARK SMILES IDX 53 97
REMARK H PARENT 89 19 77 50 45 61
REMARK Flexibility Score: inf
ROOT
ATOM      1  O   UNL A   1      33.789  29.247  25.223  1.00  0.00    -0.377 OA
ENDROOT
BRANCH   1   2
ATOM      2  C   UNL A   1      32.396  29.192  24.995  1.00  0.00     0.188 C 
BRANCH   2   3
ATOM      3  C   UNL A   1      31.871  27.768  24.748  1.00  0.00     0.188 C 
BRANCH   3   4
ATOM      4  O   UNL A   1      30.797  27.271  25.522  1.00  0.00    -0.376 OA
BRANCH   4   5
ATOM      5  C   UNL A   1      30.732  25.964  26.070  1.00  0.00     0.202 C 
BRANCH   5   6
ATOM      6  C   UNL A   1      31.495  24.706  25.615  1.00  0.00     0.261 C 
BRANCH   6   7
ATOM      7  O   UNL A   1      32.871  24.602  25.954  1.00  0.00    -0.463 OA
BRANCH   7   8
ATOM      8  C   UNL A   1      33.639  24.014  25.009  1.00  0.00     0.311 C 
ATOM      9  O   UNL A   1      33.681  24.367  23.838  1.00  0.00    -0.252 OA
BRANCH   8  10
ATOM     10  C   UNL A   1      34.485  22.919  25.639  1.00  0.00     0.123 C 
ATOM     11  C   UNL A   1      35.915  20.944  24.928  1.00  0.00     0.032 C 
ATOM     12  C   UNL A   1      34.688  21.806  24.610  1.00  0.00     0.098 C 
ATOM     13  N   UNL A   1      33.448  21.034  24.721  1.00  0.00    -0.321 N 
ATOM     14  C   UNL A   1      33.751  22.229  26.771  1.00  0.00     0.039 C 
ATOM     15  C   UNL A   1      32.833  21.264  26.030  1.00  0.00     0.122 C 
BRANCH  13  16
ATOM     16  C   UNL A   1      32.633  20.569  23.722  1.00  0.00     0.323 C 
ATOM     17  O   UNL A   1      32.077  21.367  22.954  1.00  0.00    -0.248 OA
ATOM     18  N   UNL A   1      32.509  19.265  23.402  1.00  0.00    -0.283 N 
ATOM     19  H   UNL A   1      32.249  19.109  22.466  1.00  0.00     0.174 HD
BRANCH  18  20
ATOM     20  C   UNL A   1      32.672  18.123  24.123  1.00  0.00     0.190 A 
ATOM     21  N   UNL A   1      32.138  17.747  25.256  1.00  0.00    -0.228 NA
ATOM     22  S   UNL A   1      33.748  17.006  23.398  1.00  0.00    -0.105 S 
ATOM     23  C   UNL A   1      32.666  16.530  25.637  1.00  0.00     0.125 A 
ATOM     24  C   UNL A   1      33.593  15.990  24.772  1.00  0.00     0.088 A 
ENDBRANCH  18  20
ENDBRANCH  13  16
ENDBRANCH   8  10
ENDBRANCH   7   8
ENDBRANCH   6   7
ENDBRANCH   5   6
ENDBRANCH   4   5
ENDBRANCH   3   4
ENDBRANCH   2   3
ENDBRANCH   1   2
BRANCH   1  25
ATOM     25  C   UNL A   1      34.261  28.789  26.485  1.00  0.00     0.188 C 
BRANCH  25  26
ATOM     26  C   UNL A   1      34.609  29.797  27.605  1.00  0.00     0.188 C 
BRANCH  26  27
ATOM     27  O   UNL A   1      34.384  31.158  27.269  1.00  0.00    -0.376 OA
BRANCH  27  28
ATOM     28  C   UNL A   1      33.162  31.761  27.660  1.00  0.00     0.202 C 
BRANCH  28  29
ATOM     29  C   UNL A   1      32.976  33.243  27.295  1.00  0.00     0.261 C 
BRANCH  29  30
ATOM     30  O   UNL A   1      32.283  34.043  28.265  1.00  0.00    -0.460 OA
BRANCH  30  31
ATOM     31  C   UNL A   1      32.948  35.094  28.787  1.00  0.00     0.338 C 
ATOM     32  O   UNL A   1      32.584  36.259  28.811  1.00  0.00    -0.246 OA
BRANCH  31  33
ATOM     33  C   UNL A   1      34.121  34.573  29.516  1.00  0.00     0.060 A 
ATOM     34  C   UNL A   1      35.371  34.581  28.883  1.00  0.00     0.016 A 
ATOM     35  C   UNL A   1      33.992  34.084  30.819  1.00  0.00     0.016 A 
ATOM     36  C   UNL A   1      36.488  34.060  29.534  1.00  0.00     0.010 A 
ATOM     37  C   UNL A   1      35.108  33.540  31.461  1.00  0.00     0.010 A 
ATOM     38  C   UNL A   1      36.352  33.492  30.807  1.00  0.00    -0.014 A 
BRANCH  38  39
ATOM     39  C   UNL A   1      37.449  32.662  31.362  1.00  0.00     0.031 A 
ATOM     40  C   UNL A   1      37.963  32.991  32.737  1.00  0.00     0.074 A 
ATOM     41  C   UNL A   1      37.965  31.626  30.679  1.00  0.00     0.049 A 
ATOM     42  N   UNL A   1      38.944  32.453  33.414  1.00  0.00    -0.248 NA
ATOM     43  C   UNL A   1      37.271  34.082  33.445  1.00  0.00     0.031 C 
ATOM     44  C   UNL A   1      37.522  31.178  29.360  1.00  0.00     0.029 A 
ATOM     45  N   UNL A   1      38.987  30.768  31.002  1.00  0.00    -0.354 N 
ATOM     46  C   UNL A   1      38.994  33.143  34.618  1.00  0.00     0.074 A 
ATOM     47  C   UNL A   1      37.968  34.162  34.568  1.00  0.00     0.031 C 
ATOM     48  C   UNL A   1      38.278  30.132  28.981  1.00  0.00     0.029 A 
ATOM     49  C   UNL A   1      39.281  29.864  30.012  1.00  0.00     0.049 A 
ATOM     50  H   UNL A   1      39.464  30.798  31.863  1.00  0.00     0.167 HD
ATOM     51  C   UNL A   1      39.815  32.941  35.675  1.00  0.00     0.037 A 
ATOM     52  C   UNL A   1      40.265  28.946  29.938  1.00  0.00     0.037 A 
ATOM     53  C   UNL A   1      40.837  31.930  35.720  1.00  0.00     0.049 A 
ATOM     54  C   UNL A   1      41.224  28.796  31.094  1.00  0.00     0.074 A 
ATOM     55  C   UNL A   1      41.713  31.633  36.748  1.00  0.00     0.029 A 
ATOM     56  N   UNL A   1      41.129  31.056  34.682  1.00  0.00    -0.354 N 
ATOM     57  N   UNL A   1      41.250  29.435  32.240  1.00  0.00    -0.248 NA
ATOM     58  C   UNL A   1      42.289  27.794  30.947  1.00  0.00     0.031 C 
ATOM     59  C   UNL A   1      42.577  30.625  36.310  1.00  0.00     0.029 A 
ATOM     60  C   UNL A   1      42.193  30.241  35.035  1.00  0.00     0.049 A 
ATOM     61  H   UNL A   1      40.651  31.020  33.822  1.00  0.00     0.167 HD
ATOM     62  C   UNL A   1      42.307  28.888  32.961  1.00  0.00     0.074 A 
ATOM     63  C   UNL A   1      42.889  27.857  32.127  1.00  0.00     0.031 C 
ATOM     64  C   UNL A   1      42.754  29.209  34.200  1.00  0.00     0.037 A 
BRANCH  51  65
ATOM     65  C   UNL A   1      39.664  33.855  36.857  1.00  0.00     0.064 A 
ATOM     66  C   UNL A   1      38.892  33.501  37.974  1.00  0.00     0.173 A 
ATOM     67  C   UNL A   1      40.326  35.092  36.884  1.00  0.00     0.173 A 
ATOM     68  F   UNL A   1      38.224  32.337  37.992  1.00  0.00    -0.203 F 
ATOM     69  C   UNL A   1      38.766  34.362  39.061  1.00  0.00     0.198 A 
ATOM     70  C   UNL A   1      40.226  35.935  37.988  1.00  0.00     0.198 A 
ATOM     71  F   UNL A   1      41.079  35.480  35.845  1.00  0.00    -0.203 F 
ATOM     72  F   UNL A   1      37.980  34.026  40.093  1.00  0.00    -0.200 F 
ATOM     73  C   UNL A   1      39.439  35.575  39.071  1.00  0.00     0.200 A 
ATOM     74  F   UNL A   1      40.890  37.099  38.000  1.00  0.00    -0.200 F 
ATOM     75  F   UNL A   1      39.325  36.398  40.121  1.00  0.00    -0.200 F 
ENDBRANCH  51  65
BRANCH  52  76
ATOM     76  C   UNL A   1      40.411  28.102  28.721  1.00  0.00     0.064 A 
ATOM     77  C   UNL A   1      39.762  26.864  28.615  1.00  0.00     0.173 A 
ATOM     78  C   UNL A   1      41.232  28.499  27.655  1.00  0.00     0.173 A 
ATOM     79  F   UNL A   1      38.988  26.425  29.619  1.00  0.00    -0.203 F 
ATOM     80  C   UNL A   1      39.947  26.046  27.501  1.00  0.00     0.198 A 
ATOM     81  C   UNL A   1      41.389  27.696  26.528  1.00  0.00     0.198 A 
ATOM     82  F   UNL A   1      41.881  29.671  27.707  1.00  0.00    -0.203 F 
ATOM     83  F   UNL A   1      39.359  24.843  27.452  1.00  0.00    -0.200 F 
ATOM     84  C   UNL A   1      40.755  26.465  26.456  1.00  0.00     0.200 A 
ATOM     85  F   UNL A   1      42.162  28.111  25.515  1.00  0.00    -0.200 F 
ATOM     86  F   UNL A   1      40.932  25.679  25.385  1.00  0.00    -0.200 F 
ENDBRANCH  52  76
BRANCH  64  87
ATOM     87  C   UNL A   1      43.897  28.406  34.758  1.00  0.00     0.064 A 
ATOM     88  C   UNL A   1      45.234  28.790  34.576  1.00  0.00     0.173 A 
ATOM     89  C   UNL A   1      43.646  27.257  35.525  1.00  0.00     0.173 A 
ATOM     90  F   UNL A   1      45.531  29.874  33.842  1.00  0.00    -0.203 F 
ATOM     91  C   UNL A   1      46.275  28.037  35.113  1.00  0.00     0.198 A 
ATOM     92  C   UNL A   1      44.687  26.528  36.091  1.00  0.00     0.198 A 
ATOM     93  F   UNL A   1      42.386  26.849  35.740  1.00  0.00    -0.203 F 
ATOM     94  F   UNL A   1      47.547  28.393  34.879  1.00  0.00    -0.200 F 
ATOM     95  C   UNL A   1      46.002  26.913  35.876  1.00  0.00     0.200 A 
ATOM     96  F   UNL A   1      44.419  25.453  36.845  1.00  0.00    -0.200 F 
ATOM     97  F   UNL A   1      47.005  26.196  36.401  1.00  0.00    -0.200 F 
ENDBRANCH  64  87
ENDBRANCH  38  39
ENDBRANCH  31  33
ENDBRANCH  30  31
ENDBRANCH  29  30
ENDBRANCH  28  29
ENDBRANCH  27  28
ENDBRANCH  26  27
ENDBRANCH  25  26
ENDBRANCH   1  25
TORSDOF 22
ENDMDL
MODEL 3
REMARK VINA RESULT:     -10.6      5.120      9.217
REMARK SMILES C[C@@H]1[C@@H](C(=O)OCCOCCOCCOCCOC(=O)c2ccc(-c3c4nc(c(-c5c(F)c(F)c(F)c(F)c5F)c5ccc([nH]5)c(-c5c(F)c(F)c(F)c(F)c5F)c5nc(c(-c6c(F)c(F)c(F)c(F)c6F)c6ccc3[nH]6)C=C5)C=C4)cc2)CCN1C(=O)Nc1nccs1
REMARK SMILES IDX 12 1 11 2 10 3 9 4 8 5 7 6 6 7 4 8 5 9 3 10 1 11 2 12 86 13
REMARK SMILES IDX 84 14 85 15 87 16 88 17 89 18 90 20 91 21 94 22 92 23 93 24
REMARK SMILES IDX 13 25 14 26 15 27 16 28 17 29 18 30 19 31 20 32 21 33 22 34
REMARK SMILES IDX 83 35 23 36 82 37 24 38 25 39 26 40 76 41 27 42 81 43 75 44
REMARK SMILES IDX 77 45 28 46 80 47 74 48 73 49 29 51 61 52 41 53 60 54 42 55
REMARK SMILES IDX 45 56 59 57 78 58 43 59 44 60 58 62 79 63 46 64 30 65 31 66
REMARK SMILES IDX 39 67 32 68 33 69 37 70 40 71 34 72 35 73 38 74 36 75 62 76
REMARK SMILES IDX 63 77 71 78 64 79 65 80 69 81 72 82 66 83 67 84 70 85 68 86
REMARK SMILES IDX 47 87 48 88 56 89 49 90 50 91 54 92 57 93 51 94 52 95 55 96
REMARK SMILES IDX 53 97
REMARK H PARENT 89 19 77 50 45 61
REMARK Flexibility Score: inf
ROOT
ATOM      1  O   UNL A   1      33.939  20.926  26.018  1.00  0.00    -0.377 OA
ENDROOT
BRANCH   1   2
ATOM      2  C   UNL A   1      33.605  22.254  26.364  1.00  0.00     0.188 C 
BRANCH   2   3
ATOM      3  C   UNL A   1      32.434  22.824  25.546  1.00  0.00     0.188 C 
BRANCH   3   4
ATOM      4  O   UNL A   1      32.081  22.226  24.314  1.00  0.00    -0.376 OA
BRANCH   4   5
ATOM      5  C   UNL A   1      32.790  22.401  23.098  1.00  0.00     0.202 C 
BRANCH   5   6
ATOM      6  C   UNL A   1      34.008  23.306  22.832  1.00  0.00     0.261 C 
BRANCH   6   7
ATOM      7  O   UNL A   1      33.772  24.595  22.281  1.00  0.00    -0.463 OA
BRANCH   7   8
ATOM      8  C   UNL A   1      33.589  25.572  23.198  1.00  0.00     0.311 C 
ATOM      9  O   UNL A   1      34.223  25.666  24.239  1.00  0.00    -0.252 OA
BRANCH   8  10
ATOM     10  C   UNL A   1      32.548  26.560  22.698  1.00  0.00     0.123 C 
ATOM     11  C   UNL A   1      31.511  28.775  23.386  1.00  0.00     0.032 C 
ATOM     12  C   UNL A   1      32.122  27.453  23.865  1.00  0.00     0.098 C 
ATOM     13  N   UNL A   1      31.134  26.626  24.560  1.00  0.00    -0.321 N 
ATOM     14  C   UNL A   1      31.264  25.862  22.297  1.00  0.00     0.039 C 
ATOM     15  C   UNL A   1      30.580  25.631  23.640  1.00  0.00     0.122 C 
BRANCH  13  16
ATOM     16  C   UNL A   1      31.021  26.367  25.901  1.00  0.00     0.323 C 
ATOM     17  O   UNL A   1      30.171  25.563  26.308  1.00  0.00    -0.248 OA
ATOM     18  N   UNL A   1      31.895  26.813  26.826  1.00  0.00    -0.283 N 
ATOM     19  H   UNL A   1      31.945  26.248  27.630  1.00  0.00     0.174 HD
BRANCH  18  20
ATOM     20  C   UNL A   1      32.721  27.893  26.864  1.00  0.00     0.190 A 
ATOM     21  N   UNL A   1      34.019  27.979  26.724  1.00  0.00    -0.228 NA
ATOM     22  S   UNL A   1      31.899  29.373  27.123  1.00  0.00    -0.105 S 
ATOM     23  C   UNL A   1      34.421  29.286  26.914  1.00  0.00     0.125 A 
ATOM     24  C   UNL A   1      33.411  30.183  27.186  1.00  0.00     0.088 A 
ENDBRANCH  18  20
ENDBRANCH  13  16
ENDBRANCH   8  10
ENDBRANCH   7   8
ENDBRANCH   6   7
ENDBRANCH   5   6
ENDBRANCH   4   5
ENDBRANCH   3   4
ENDBRANCH   2   3
ENDBRANCH   1   2
BRANCH   1  25
ATOM     25  C   UNL A   1      35.170  20.720  25.336  1.00  0.00     0.188 C 
BRANCH  25  26
ATOM     26  C   UNL A   1      36.350  21.701  25.531  1.00  0.00     0.188 C 
BRANCH  26  27
ATOM     27  O   UNL A   1      37.577  21.273  24.958  1.00  0.00    -0.376 OA
BRANCH  27  28
ATOM     28  C   UNL A   1      37.879  19.889  24.955  1.00  0.00     0.202 C 
BRANCH  28  29
ATOM     29  C   UNL A   1      39.246  19.479  25.524  1.00  0.00     0.261 C 
BRANCH  29  30
ATOM     30  O   UNL A   1      39.665  20.175  26.708  1.00  0.00    -0.460 OA
BRANCH  30  31
ATOM     31  C   UNL A   1      40.986  20.406  26.855  1.00  0.00     0.338 C 
ATOM     32  O   UNL A   1      41.903  19.654  26.565  1.00  0.00    -0.246 OA
BRANCH  31  33
ATOM     33  C   UNL A   1      41.159  21.818  27.247  1.00  0.00     0.060 A 
ATOM     34  C   UNL A   1      40.474  22.810  26.533  1.00  0.00     0.016 A 
ATOM     35  C   UNL A   1      41.990  22.164  28.317  1.00  0.00     0.016 A 
ATOM     36  C   UNL A   1      40.649  24.154  26.859  1.00  0.00     0.010 A 
ATOM     37  C   UNL A   1      42.183  23.513  28.627  1.00  0.00     0.010 A 
ATOM     38  C   UNL A   1      41.543  24.515  27.875  1.00  0.00    -0.014 A 
BRANCH  38  39
ATOM     39  C   UNL A   1      41.971  25.929  28.009  1.00  0.00     0.031 A 
ATOM     40  C   UNL A   1      43.306  26.324  27.437  1.00  0.00     0.074 A 
ATOM     41  C   UNL A   1      41.190  26.849  28.599  1.00  0.00     0.049 A 
ATOM     42  N   UNL A   1      43.922  27.477  27.475  1.00  0.00    -0.248 NA
ATOM     43  C   UNL A   1      44.046  25.268  26.727  1.00  0.00     0.031 C 
ATOM     44  C   UNL A   1      39.858  26.603  29.148  1.00  0.00     0.029 A 
ATOM     45  N   UNL A   1      41.414  28.182  28.842  1.00  0.00    -0.354 N 
ATOM     46  C   UNL A   1      45.123  27.283  26.804  1.00  0.00     0.074 A 
ATOM     47  C   UNL A   1      45.166  25.895  26.399  1.00  0.00     0.031 C 
ATOM     48  C   UNL A   1      39.388  27.746  29.677  1.00  0.00     0.029 A 
ATOM     49  C   UNL A   1      40.400  28.793  29.536  1.00  0.00     0.049 A 
ATOM     50  H   UNL A   1      42.226  28.655  28.546  1.00  0.00     0.167 HD
ATOM     51  C   UNL A   1      46.099  28.183  26.541  1.00  0.00     0.037 A 
ATOM     52  C   UNL A   1      40.314  30.047  30.025  1.00  0.00     0.037 A 
ATOM     53  C   UNL A   1      46.055  29.562  26.949  1.00  0.00     0.049 A 
ATOM     54  C   UNL A   1      41.454  31.010  29.794  1.00  0.00     0.074 A 
ATOM     55  C   UNL A   1      46.986  30.559  26.720  1.00  0.00     0.029 A 
ATOM     56  N   UNL A   1      45.027  30.136  27.682  1.00  0.00    -0.354 N 
ATOM     57  N   UNL A   1      42.575  30.828  29.138  1.00  0.00    -0.248 NA
ATOM     58  C   UNL A   1      41.313  32.354  30.370  1.00  0.00     0.031 C 
ATOM     59  C   UNL A   1      46.553  31.719  27.370  1.00  0.00     0.029 A 
ATOM     60  C   UNL A   1      45.316  31.466  27.941  1.00  0.00     0.049 A 
ATOM     61  H   UNL A   1      44.212  29.667  27.975  1.00  0.00     0.167 HD
ATOM     62  C   UNL A   1      43.253  32.041  29.191  1.00  0.00     0.074 A 
ATOM     63  C   UNL A   1      42.410  32.955  29.933  1.00  0.00     0.031 C 
ATOM     64  C   UNL A   1      44.462  32.369  28.672  1.00  0.00     0.037 A 
BRANCH  51  65
ATOM     65  C   UNL A   1      47.314  27.696  25.805  1.00  0.00     0.064 A 
ATOM     66  C   UNL A   1      48.436  27.190  26.479  1.00  0.00     0.173 A 
ATOM     67  C   UNL A   1      47.344  27.710  24.402  1.00  0.00     0.173 A 
ATOM     68  F   UNL A   1      48.466  27.170  27.820  1.00  0.00    -0.203 F 
ATOM     69  C   UNL A   1      49.552  26.742  25.777  1.00  0.00     0.198 A 
ATOM     70  C   UNL A   1      48.448  27.229  23.703  1.00  0.00     0.198 A 
ATOM     71  F   UNL A   1      46.299  28.181  23.707  1.00  0.00    -0.203 F 
ATOM     72  F   UNL A   1      50.633  26.314  26.444  1.00  0.00    -0.200 F 
ATOM     73  C   UNL A   1      49.555  26.755  24.390  1.00  0.00     0.200 A 
ATOM     74  F   UNL A   1      48.441  27.229  22.363  1.00  0.00    -0.200 F 
ATOM     75  F   UNL A   1      50.626  26.316  23.716  1.00  0.00    -0.200 F 
ENDBRANCH  51  65
BRANCH  52  76
ATOM     76  C   UNL A   1      39.115  30.468  30.799  1.00  0.00     0.064 A 
ATOM     77  C   UNL A   1      39.040  30.273  32.185  1.00  0.00     0.173 A 
ATOM     78  C   UNL A   1      38.004  31.042  30.163  1.00  0.00     0.173 A 
ATOM     79  F   UNL A   1      40.065  29.701  32.837  1.00  0.00    -0.203 F 
ATOM     80  C   UNL A   1      37.893  30.612  32.900  1.00  0.00     0.198 A 
ATOM     81  C   UNL A   1      36.871  31.412  30.884  1.00  0.00     0.198 A 
ATOM     82  F   UNL A   1      38.020  31.247  28.838  1.00  0.00    -0.203 F 
ATOM     83  F   UNL A   1      37.828  30.360  34.215  1.00  0.00    -0.200 F 
ATOM     84  C   UNL A   1      36.812  31.187  32.250  1.00  0.00     0.200 A 
ATOM     85  F   UNL A   1      35.833  31.979  30.252  1.00  0.00    -0.200 F 
ATOM     86  F   UNL A   1      35.710  31.514  32.938  1.00  0.00    -0.200 F 
ENDBRANCH  52  76
BRANCH  64  87
ATOM     87  C   UNL A   1      44.930  33.788  28.839  1.00  0.00     0.064 A 
ATOM     88  C   UNL A   1      44.594  34.796  27.922  1.00  0.00     0.173 A 
ATOM     89  C   UNL A   1      45.693  34.154  29.961  1.00  0.00     0.173 A 
ATOM     90  F   UNL A   1      43.877  34.500  26.828  1.00  0.00    -0.203 F 
ATOM     91  C   UNL A   1      45.029  36.106  28.106  1.00  0.00     0.198 A 
ATOM     92  C   UNL A   1      46.094  35.471  30.160  1.00  0.00     0.198 A 
ATOM     93  F   UNL A   1      46.035  33.233  30.875  1.00  0.00    -0.203 F 
ATOM     94  F   UNL A   1      44.741  37.040  27.188  1.00  0.00    -0.200 F 
ATOM     95  C   UNL A   1      45.771  36.445  29.227  1.00  0.00     0.200 A 
ATOM     96  F   UNL A   1      46.794  35.799  31.255  1.00  0.00    -0.200 F 
ATOM     97  F   UNL A   1      46.179  37.708  29.407  1.00  0.00    -0.200 F 
ENDBRANCH  64  87
ENDBRANCH  38  39
ENDBRANCH  31  33
ENDBRANCH  30  31
ENDBRANCH  29  30
ENDBRANCH  28  29
ENDBRANCH  27  28
ENDBRANCH  26  27
ENDBRANCH  25  26
ENDBRANCH   1  25
TORSDOF 22
ENDMDL
