MODEL 1
REMARK VINA RESULT:     -11.0      0.000      0.000
REMARK SMILES COc1ccc(NC(=O)[C@@H]2[C@@H](C(=O)OCCOCCOCCOCCOC(=O)c3ccc(-c4c5nc(c(-c6c(F)c(F)c(F)c(F)c6F)c6ccc([nH]6)c(-c6c(F)c(F)c(F)c(F)c6F)c6nc(c(-c7c(F)c(F)c(F)c(F)c7F)c7ccc4[nH]7)C=C6)C=C5)cc3)[C@@H]3CC[C@H]2C3=C(C)C)cc1
REMARK SMILES IDX 19 1 18 2 17 3 16 4 15 5 14 6 12 7 13 8 11 9 10 10 95 11
REMARK SMILES IDX 92 12 94 13 96 14 93 15 97 16 98 17 99 18 8 19 7 20 9 22
REMARK SMILES IDX 6 23 3 24 4 25 101 26 5 27 100 28 2 29 1 30 20 31 21 32
REMARK SMILES IDX 22 33 23 34 24 35 25 36 26 37 27 38 28 39 29 40 30 41 91 42
REMARK SMILES IDX 31 43 90 44 32 45 33 46 34 47 84 48 35 49 89 50 83 51 85 52
REMARK SMILES IDX 36 53 88 54 82 55 81 56 37 58 69 59 49 60 68 61 50 62 53 63
REMARK SMILES IDX 67 64 86 65 51 66 52 67 66 69 87 70 54 71 38 72 39 73 47 74
REMARK SMILES IDX 40 75 41 76 45 77 48 78 42 79 43 80 46 81 44 82 70 83 71 84
REMARK SMILES IDX 79 85 72 86 73 87 77 88 80 89 74 90 75 91 78 92 76 93 55 94
REMARK SMILES IDX 56 95 64 96 57 97 58 98 62 99 65 100 59 101 60 102 63 103
REMARK SMILES IDX 61 104
REMARK H PARENT 7 21 85 57 53 68
REMARK Flexibility Score: inf
ROOT
ATOM      1  C   UNL A   1      34.595  31.846  28.329  1.00  0.00     0.188 C 
ENDROOT
BRANCH   1   2
ATOM      2  C   UNL A   1      35.913  31.275  27.762  1.00  0.00     0.188 C 
BRANCH   2   3
ATOM      3  O   UNL A   1      35.847  29.885  27.473  1.00  0.00    -0.376 OA
BRANCH   3   4
ATOM      4  C   UNL A   1      34.580  29.249  27.541  1.00  0.00     0.202 C 
BRANCH   4   5
ATOM      5  C   UNL A   1      34.138  28.341  26.370  1.00  0.00     0.261 C 
BRANCH   5   6
ATOM      6  O   UNL A   1      33.058  27.405  26.599  1.00  0.00    -0.463 OA
BRANCH   6   7
ATOM      7  C   UNL A   1      31.818  27.841  26.288  1.00  0.00     0.310 C 
ATOM      8  O   UNL A   1      31.505  29.019  26.352  1.00  0.00    -0.252 OA
BRANCH   7   9
ATOM      9  C   UNL A   1      30.888  26.718  25.830  1.00  0.00     0.119 C 
ATOM     10  C   UNL A   1      31.627  25.355  25.562  1.00  0.00     0.101 C 
ATOM     11  C   UNL A   1      31.486  25.175  24.025  1.00  0.00     0.029 C 
ATOM     12  C   UNL A   1      30.400  27.130  24.429  1.00  0.00     0.030 C 
ATOM     13  C   UNL A   1      30.045  24.914  23.564  1.00  0.00     0.009 C 
ATOM     14  C   UNL A   1      31.572  26.622  23.621  1.00  0.00    -0.064 C 
ATOM     15  C   UNL A   1      29.287  26.186  23.972  1.00  0.00     0.009 C 
ATOM     16  C   UNL A   1      32.518  27.274  22.921  1.00  0.00    -0.077 C 
ATOM     17  C   UNL A   1      32.572  28.777  22.800  1.00  0.00     0.039 C 
ATOM     18  C   UNL A   1      33.715  26.553  22.367  1.00  0.00     0.039 C 
BRANCH  10  19
ATOM     19  C   UNL A   1      31.046  24.166  26.318  1.00  0.00     0.228 C 
ATOM     20  N   UNL A   1      31.604  22.923  26.382  1.00  0.00    -0.326 N 
ATOM     21  H   UNL A   1      30.999  22.278  26.813  1.00  0.00     0.169 HD
ATOM     22  O   UNL A   1      29.986  24.297  26.945  1.00  0.00    -0.274 OA
BRANCH  20  23
ATOM     23  C   UNL A   1      32.814  22.314  25.995  1.00  0.00     0.041 A 
ATOM     24  C   UNL A   1      35.015  20.702  25.207  1.00  0.00     0.119 A 
ATOM     25  C   UNL A   1      35.108  21.596  26.278  1.00  0.00     0.048 A 
ATOM     26  C   UNL A   1      33.846  20.688  24.461  1.00  0.00     0.048 A 
ATOM     27  C   UNL A   1      34.030  22.412  26.656  1.00  0.00     0.030 A 
ATOM     28  C   UNL A   1      32.757  21.487  24.856  1.00  0.00     0.030 A 
BRANCH  24  29
ATOM     29  O   UNL A   1      36.115  19.914  25.037  1.00  0.00    -0.497 OA
ATOM     30  C   UNL A   1      37.378  20.501  24.753  1.00  0.00     0.278 C 
ENDBRANCH  24  29
ENDBRANCH  20  23
ENDBRANCH  10  19
ENDBRANCH   7   9
ENDBRANCH   6   7
ENDBRANCH   5   6
ENDBRANCH   4   5
ENDBRANCH   3   4
ENDBRANCH   2   3
ENDBRANCH   1   2
BRANCH   1  31
ATOM     31  O   UNL A   1      34.410  33.224  28.018  1.00  0.00    -0.377 OA
BRANCH  31  32
ATOM     32  C   UNL A   1      33.396  33.905  28.753  1.00  0.00     0.188 C 
BRANCH  32  33
ATOM     33  C   UNL A   1      33.683  35.347  29.211  1.00  0.00     0.188 C 
BRANCH  33  34
ATOM     34  O   UNL A   1      33.648  35.510  30.616  1.00  0.00    -0.376 OA
BRANCH  34  35
ATOM     35  C   UNL A   1      34.155  34.547  31.514  1.00  0.00     0.202 C 
BRANCH  35  36
ATOM     36  C   UNL A   1      35.268  34.906  32.505  1.00  0.00     0.261 C 
BRANCH  36  37
ATOM     37  O   UNL A   1      36.501  34.197  32.370  1.00  0.00    -0.460 OA
BRANCH  37  38
ATOM     38  C   UNL A   1      36.614  32.984  32.947  1.00  0.00     0.338 C 
ATOM     39  O   UNL A   1      35.896  32.500  33.803  1.00  0.00    -0.246 OA
BRANCH  38  40
ATOM     40  C   UNL A   1      37.620  32.248  32.149  1.00  0.00     0.060 A 
ATOM     41  C   UNL A   1      38.512  31.394  32.812  1.00  0.00     0.016 A 
ATOM     42  C   UNL A   1      37.613  32.324  30.753  1.00  0.00     0.016 A 
ATOM     43  C   UNL A   1      39.408  30.622  32.081  1.00  0.00     0.010 A 
ATOM     44  C   UNL A   1      38.536  31.580  30.021  1.00  0.00     0.010 A 
ATOM     45  C   UNL A   1      39.454  30.752  30.688  1.00  0.00    -0.014 A 
BRANCH  45  46
ATOM     46  C   UNL A   1      40.628  30.228  29.963  1.00  0.00     0.031 A 
ATOM     47  C   UNL A   1      41.774  31.172  29.736  1.00  0.00     0.074 A 
ATOM     48  C   UNL A   1      40.685  28.950  29.557  1.00  0.00     0.049 A 
ATOM     49  N   UNL A   1      42.903  30.978  29.109  1.00  0.00    -0.248 NA
ATOM     50  C   UNL A   1      41.621  32.528  30.296  1.00  0.00     0.031 C 
ATOM     51  C   UNL A   1      39.647  27.946  29.773  1.00  0.00     0.029 A 
ATOM     52  N   UNL A   1      41.667  28.283  28.872  1.00  0.00    -0.354 N 
ATOM     53  C   UNL A   1      43.589  32.181  29.198  1.00  0.00     0.074 A 
ATOM     54  C   UNL A   1      42.743  33.111  29.909  1.00  0.00     0.031 C 
ATOM     55  C   UNL A   1      40.041  26.788  29.215  1.00  0.00     0.029 A 
ATOM     56  C   UNL A   1      41.343  26.981  28.579  1.00  0.00     0.049 A 
ATOM     57  H   UNL A   1      42.523  28.697  28.614  1.00  0.00     0.167 HD
ATOM     58  C   UNL A   1      44.823  32.477  28.732  1.00  0.00     0.037 A 
ATOM     59  C   UNL A   1      42.019  26.070  27.855  1.00  0.00     0.037 A 
ATOM     60  C   UNL A   1      45.649  31.542  28.018  1.00  0.00     0.049 A 
ATOM     61  C   UNL A   1      43.360  26.451  27.277  1.00  0.00     0.074 A 
ATOM     62  C   UNL A   1      46.919  31.729  27.506  1.00  0.00     0.029 A 
ATOM     63  N   UNL A   1      45.275  30.241  27.707  1.00  0.00    -0.354 N 
ATOM     64  N   UNL A   1      44.019  27.581  27.384  1.00  0.00    -0.248 NA
ATOM     65  C   UNL A   1      44.053  25.429  26.482  1.00  0.00     0.031 C 
ATOM     66  C   UNL A   1      47.290  30.562  26.832  1.00  0.00     0.029 A 
ATOM     67  C   UNL A   1      46.280  29.623  26.982  1.00  0.00     0.049 A 
ATOM     68  H   UNL A   1      44.423  29.822  27.965  1.00  0.00     0.167 HD
ATOM     69  C   UNL A   1      45.213  27.395  26.698  1.00  0.00     0.074 A 
ATOM     70  C   UNL A   1      45.194  26.038  26.193  1.00  0.00     0.031 C 
ATOM     71  C   UNL A   1      46.235  28.266  26.499  1.00  0.00     0.037 A 
BRANCH  58  72
ATOM     72  C   UNL A   1      45.329  33.873  28.945  1.00  0.00     0.064 A 
ATOM     73  C   UNL A   1      45.065  34.905  28.033  1.00  0.00     0.173 A 
ATOM     74  C   UNL A   1      46.074  34.186  30.093  1.00  0.00     0.173 A 
ATOM     75  F   UNL A   1      44.378  34.654  26.908  1.00  0.00    -0.203 F 
ATOM     76  C   UNL A   1      45.546  36.195  28.251  1.00  0.00     0.198 A 
ATOM     77  C   UNL A   1      46.525  35.482  30.322  1.00  0.00     0.198 A 
ATOM     78  F   UNL A   1      46.361  33.234  30.993  1.00  0.00    -0.203 F 
ATOM     79  F   UNL A   1      45.324  37.154  27.341  1.00  0.00    -0.200 F 
ATOM     80  C   UNL A   1      46.267  36.483  29.399  1.00  0.00     0.200 A 
ATOM     81  F   UNL A   1      47.215  35.761  31.437  1.00  0.00    -0.200 F 
ATOM     82  F   UNL A   1      46.721  37.727  29.613  1.00  0.00    -0.200 F 
ENDBRANCH  58  72
BRANCH  59  83
ATOM     83  C   UNL A   1      41.439  24.721  27.616  1.00  0.00     0.064 A 
ATOM     84  C   UNL A   1      40.305  24.548  26.812  1.00  0.00     0.173 A 
ATOM     85  C   UNL A   1      41.992  23.578  28.214  1.00  0.00     0.173 A 
ATOM     86  F   UNL A   1      39.723  25.610  26.237  1.00  0.00    -0.203 F 
ATOM     87  C   UNL A   1      39.731  23.289  26.635  1.00  0.00     0.198 A 
ATOM     88  C   UNL A   1      41.438  22.316  28.010  1.00  0.00     0.198 A 
ATOM     89  F   UNL A   1      43.077  23.686  28.996  1.00  0.00    -0.203 F 
ATOM     90  F   UNL A   1      38.612  23.161  25.907  1.00  0.00    -0.200 F 
ATOM     91  C   UNL A   1      40.301  22.174  27.230  1.00  0.00     0.200 A 
ATOM     92  F   UNL A   1      41.999  21.240  28.577  1.00  0.00    -0.200 F 
ATOM     93  F   UNL A   1      39.748  20.965  27.061  1.00  0.00    -0.200 F 
ENDBRANCH  59  83
BRANCH  71  94
ATOM     94  C   UNL A   1      47.431  27.765  25.741  1.00  0.00     0.064 A 
ATOM     95  C   UNL A   1      47.489  27.807  24.340  1.00  0.00     0.173 A 
ATOM     96  C   UNL A   1      48.550  27.274  26.431  1.00  0.00     0.173 A 
ATOM     97  F   UNL A   1      46.441  28.256  23.634  1.00  0.00    -0.203 F 
ATOM     98  C   UNL A   1      48.612  27.347  23.657  1.00  0.00     0.198 A 
ATOM     99  C   UNL A   1      49.685  26.850  25.746  1.00  0.00     0.198 A 
ATOM    100  F   UNL A   1      48.551  27.223  27.772  1.00  0.00    -0.203 F 
ATOM    101  F   UNL A   1      48.624  27.346  22.318  1.00  0.00    -0.200 F 
ATOM    102  C   UNL A   1      49.712  26.878  24.361  1.00  0.00     0.200 A 
ATOM    103  F   UNL A   1      50.754  26.416  26.429  1.00  0.00    -0.200 F 
ATOM    104  F   UNL A   1      50.794  26.444  23.701  1.00  0.00    -0.200 F 
ENDBRANCH  71  94
ENDBRANCH  45  46
ENDBRANCH  38  40
ENDBRANCH  37  38
ENDBRANCH  36  37
ENDBRANCH  35  36
ENDBRANCH  34  35
ENDBRANCH  33  34
ENDBRANCH  32  33
ENDBRANCH  31  32
ENDBRANCH   1  31
TORSDOF 23
ENDMDL
MODEL 2
REMARK VINA RESULT:     -10.6      0.742      6.975
REMARK SMILES COc1ccc(NC(=O)[C@@H]2[C@@H](C(=O)OCCOCCOCCOCCOC(=O)c3ccc(-c4c5nc(c(-c6c(F)c(F)c(F)c(F)c6F)c6ccc([nH]6)c(-c6c(F)c(F)c(F)c(F)c6F)c6nc(c(-c7c(F)c(F)c(F)c(F)c7F)c7ccc4[nH]7)C=C6)C=C5)cc3)[C@@H]3CC[C@H]2C3=C(C)C)cc1
REMARK SMILES IDX 19 1 18 2 17 3 16 4 15 5 14 6 12 7 13 8 11 9 10 10 95 11
REMARK SMILES IDX 92 12 94 13 96 14 93 15 97 16 98 17 99 18 8 19 7 20 9 22
REMARK SMILES IDX 6 23 3 24 4 25 101 26 5 27 100 28 2 29 1 30 20 31 21 32
REMARK SMILES IDX 22 33 23 34 24 35 25 36 26 37 27 38 28 39 29 40 30 41 91 42
REMARK SMILES IDX 31 43 90 44 32 45 33 46 34 47 84 48 35 49 89 50 83 51 85 52
REMARK SMILES IDX 36 53 88 54 82 55 81 56 37 58 69 59 49 60 68 61 50 62 53 63
REMARK SMILES IDX 67 64 86 65 51 66 52 67 66 69 87 70 54 71 38 72 39 73 47 74
REMARK SMILES IDX 40 75 41 76 45 77 48 78 42 79 43 80 46 81 44 82 70 83 71 84
REMARK SMILES IDX 79 85 72 86 73 87 77 88 80 89 74 90 75 91 78 92 76 93 55 94
REMARK SMILES IDX 56 95 64 96 57 97 58 98 62 99 65 100 59 101 60 102 63 103
REMARK SMILES IDX 61 104
REMARK H PARENT 7 21 85 57 53 68
REMARK Flexibility Score: inf
ROOT
ATOM      1  C   UNL A   1      35.885  31.564  28.576  1.00  0.00     0.188 C 
ENDROOT
BRANCH   1   2
ATOM      2  C   UNL A   1      36.695  30.602  27.679  1.00  0.00     0.188 C 
BRANCH   2   3
ATOM      3  O   UNL A   1      36.110  29.312  27.563  1.00  0.00    -0.376 OA
BRANCH   3   4
ATOM      4  C   UNL A   1      34.694  29.223  27.535  1.00  0.00     0.202 C 
BRANCH   4   5
ATOM      5  C   UNL A   1      34.018  28.474  26.363  1.00  0.00     0.261 C 
BRANCH   5   6
ATOM      6  O   UNL A   1      32.869  27.642  26.653  1.00  0.00    -0.463 OA
BRANCH   6   7
ATOM      7  C   UNL A   1      31.679  28.094  26.204  1.00  0.00     0.310 C 
ATOM      8  O   UNL A   1      31.408  29.284  26.157  1.00  0.00    -0.252 OA
BRANCH   7   9
ATOM      9  C   UNL A   1      30.747  26.972  25.748  1.00  0.00     0.119 C 
ATOM     10  C   UNL A   1      31.478  25.597  25.523  1.00  0.00     0.101 C 
ATOM     11  C   UNL A   1      31.369  25.387  23.988  1.00  0.00     0.029 C 
ATOM     12  C   UNL A   1      30.295  27.361  24.329  1.00  0.00     0.030 C 
ATOM     13  C   UNL A   1      29.936  25.131  23.499  1.00  0.00     0.009 C 
ATOM     14  C   UNL A   1      31.480  26.825  23.557  1.00  0.00    -0.064 C 
ATOM     15  C   UNL A   1      29.182  26.419  23.865  1.00  0.00     0.009 C 
ATOM     16  C   UNL A   1      32.448  27.454  22.866  1.00  0.00    -0.077 C 
ATOM     17  C   UNL A   1      32.520  28.953  22.716  1.00  0.00     0.039 C 
ATOM     18  C   UNL A   1      33.649  26.710  22.353  1.00  0.00     0.039 C 
BRANCH  10  19
ATOM     19  C   UNL A   1      30.868  24.428  26.289  1.00  0.00     0.228 C 
ATOM     20  N   UNL A   1      31.419  23.185  26.402  1.00  0.00    -0.326 N 
ATOM     21  H   UNL A   1      30.798  22.553  26.829  1.00  0.00     0.169 HD
ATOM     22  O   UNL A   1      29.788  24.578  26.878  1.00  0.00    -0.274 OA
BRANCH  20  23
ATOM     23  C   UNL A   1      32.639  22.563  26.070  1.00  0.00     0.041 A 
ATOM     24  C   UNL A   1      34.840  20.987  25.214  1.00  0.00     0.119 A 
ATOM     25  C   UNL A   1      34.747  21.464  26.524  1.00  0.00     0.048 A 
ATOM     26  C   UNL A   1      33.878  21.386  24.298  1.00  0.00     0.048 A 
ATOM     27  C   UNL A   1      33.671  22.263  26.945  1.00  0.00     0.030 A 
ATOM     28  C   UNL A   1      32.788  22.166  24.726  1.00  0.00     0.030 A 
BRANCH  24  29
ATOM     29  O   UNL A   1      35.889  20.144  24.997  1.00  0.00    -0.497 OA
ATOM     30  C   UNL A   1      37.219  20.647  24.978  1.00  0.00     0.278 C 
ENDBRANCH  24  29
ENDBRANCH  20  23
ENDBRANCH  10  19
ENDBRANCH   7   9
ENDBRANCH   6   7
ENDBRANCH   5   6
ENDBRANCH   4   5
ENDBRANCH   3   4
ENDBRANCH   2   3
ENDBRANCH   1   2
BRANCH   1  31
ATOM     31  O   UNL A   1      35.330  32.659  27.852  1.00  0.00    -0.377 OA
BRANCH  31  32
ATOM     32  C   UNL A   1      34.072  33.144  28.313  1.00  0.00     0.188 C 
BRANCH  32  33
ATOM     33  C   UNL A   1      34.068  34.375  29.239  1.00  0.00     0.188 C 
BRANCH  33  34
ATOM     34  O   UNL A   1      33.838  34.057  30.598  1.00  0.00    -0.376 OA
BRANCH  34  35
ATOM     35  C   UNL A   1      34.776  33.370  31.395  1.00  0.00     0.202 C 
BRANCH  35  36
ATOM     36  C   UNL A   1      35.466  34.065  32.574  1.00  0.00     0.261 C 
BRANCH  36  37
ATOM     37  O   UNL A   1      36.879  33.887  32.688  1.00  0.00    -0.460 OA
BRANCH  37  38
ATOM     38  C   UNL A   1      37.342  32.794  33.327  1.00  0.00     0.338 C 
ATOM     39  O   UNL A   1      36.892  32.277  34.333  1.00  0.00    -0.246 OA
BRANCH  38  40
ATOM     40  C   UNL A   1      38.344  32.188  32.421  1.00  0.00     0.060 A 
ATOM     41  C   UNL A   1      39.329  31.355  32.966  1.00  0.00     0.016 A 
ATOM     42  C   UNL A   1      38.244  32.362  31.036  1.00  0.00     0.016 A 
ATOM     43  C   UNL A   1      40.227  30.701  32.129  1.00  0.00     0.010 A 
ATOM     44  C   UNL A   1      39.167  31.738  30.199  1.00  0.00     0.010 A 
ATOM     45  C   UNL A   1      40.177  30.932  30.749  1.00  0.00    -0.014 A 
BRANCH  45  46
ATOM     46  C   UNL A   1      41.336  30.544  29.921  1.00  0.00     0.031 A 
ATOM     47  C   UNL A   1      41.322  29.168  29.320  1.00  0.00     0.074 A 
ATOM     48  C   UNL A   1      42.343  31.399  29.684  1.00  0.00     0.049 A 
ATOM     49  N   UNL A   1      42.218  28.571  28.582  1.00  0.00    -0.248 NA
ATOM     50  C   UNL A   1      40.124  28.352  29.592  1.00  0.00     0.031 C 
ATOM     51  C   UNL A   1      42.425  32.770  30.182  1.00  0.00     0.029 A 
ATOM     52  N   UNL A   1      43.495  31.230  28.961  1.00  0.00    -0.354 N 
ATOM     53  C   UNL A   1      41.696  27.315  28.306  1.00  0.00     0.074 A 
ATOM     54  C   UNL A   1      40.421  27.219  28.978  1.00  0.00     0.031 C 
ATOM     55  C   UNL A   1      43.579  33.317  29.760  1.00  0.00     0.029 A 
ATOM     56  C   UNL A   1      44.326  32.323  28.991  1.00  0.00     0.049 A 
ATOM     57  H   UNL A   1      43.707  30.405  28.467  1.00  0.00     0.167 HD
ATOM     58  C   UNL A   1      42.234  26.333  27.548  1.00  0.00     0.037 A 
ATOM     59  C   UNL A   1      45.559  32.479  28.474  1.00  0.00     0.037 A 
ATOM     60  C   UNL A   1      43.509  26.442  26.893  1.00  0.00     0.049 A 
ATOM     61  C   UNL A   1      46.171  31.337  27.700  1.00  0.00     0.074 A 
ATOM     62  C   UNL A   1      44.150  25.514  26.094  1.00  0.00     0.029 A 
ATOM     63  N   UNL A   1      44.342  27.550  26.974  1.00  0.00    -0.354 N 
ATOM     64  N   UNL A   1      45.666  30.160  27.418  1.00  0.00    -0.248 NA
ATOM     65  C   UNL A   1      47.525  31.548  27.169  1.00  0.00     0.031 C 
ATOM     66  C   UNL A   1      45.398  26.036  25.742  1.00  0.00     0.029 A 
ATOM     67  C   UNL A   1      45.506  27.317  26.263  1.00  0.00     0.049 A 
ATOM     68  H   UNL A   1      44.133  28.378  27.464  1.00  0.00     0.167 HD
ATOM     69  C   UNL A   1      46.623  29.504  26.654  1.00  0.00     0.074 A 
ATOM     70  C   UNL A   1      47.732  30.422  26.502  1.00  0.00     0.031 C 
ATOM     71  C   UNL A   1      46.591  28.254  26.124  1.00  0.00     0.037 A 
BRANCH  58  72
ATOM     72  C   UNL A   1      41.466  25.051  27.426  1.00  0.00     0.064 A 
ATOM     73  C   UNL A   1      41.839  23.892  28.124  1.00  0.00     0.173 A 
ATOM     74  C   UNL A   1      40.325  24.987  26.612  1.00  0.00     0.173 A 
ATOM     75  F   UNL A   1      42.935  23.893  28.898  1.00  0.00    -0.203 F 
ATOM     76  C   UNL A   1      41.110  22.712  27.995  1.00  0.00     0.198 A 
ATOM     77  C   UNL A   1      39.581  23.815  26.510  1.00  0.00     0.198 A 
ATOM     78  F   UNL A   1      39.929  26.064  25.916  1.00  0.00    -0.203 F 
ATOM     79  F   UNL A   1      41.514  21.604  28.632  1.00  0.00    -0.200 F 
ATOM     80  C   UNL A   1      39.978  22.677  27.195  1.00  0.00     0.200 A 
ATOM     81  F   UNL A   1      38.482  23.786  25.744  1.00  0.00    -0.200 F 
ATOM     82  F   UNL A   1      39.271  21.543  27.080  1.00  0.00    -0.200 F 
ENDBRANCH  58  72
BRANCH  59  83
ATOM     83  C   UNL A   1      46.306  33.748  28.684  1.00  0.00     0.064 A 
ATOM     84  C   UNL A   1      46.960  34.017  29.894  1.00  0.00     0.173 A 
ATOM     85  C   UNL A   1      46.356  34.734  27.686  1.00  0.00     0.173 A 
ATOM     86  F   UNL A   1      46.922  33.119  30.890  1.00  0.00    -0.203 F 
ATOM     87  C   UNL A   1      47.612  35.231  30.108  1.00  0.00     0.198 A 
ATOM     88  C   UNL A   1      47.036  35.933  27.888  1.00  0.00     0.198 A 
ATOM     89  F   UNL A   1      45.745  34.530  26.509  1.00  0.00    -0.203 F 
ATOM     90  F   UNL A   1      48.179  35.484  31.296  1.00  0.00    -0.200 F 
ATOM     91  C   UNL A   1      47.654  36.185  29.103  1.00  0.00     0.200 A 
ATOM     92  F   UNL A   1      47.084  36.847  26.910  1.00  0.00    -0.200 F 
ATOM     93  F   UNL A   1      48.279  37.352  29.310  1.00  0.00    -0.200 F 
ENDBRANCH  59  83
BRANCH  71  94
ATOM     94  C   UNL A   1      47.771  27.826  25.299  1.00  0.00     0.064 A 
ATOM     95  C   UNL A   1      47.734  27.831  23.897  1.00  0.00     0.173 A 
ATOM     96  C   UNL A   1      48.970  27.446  25.923  1.00  0.00     0.173 A 
ATOM     97  F   UNL A   1      46.608  28.175  23.252  1.00  0.00    -0.203 F 
ATOM     98  C   UNL A   1      48.842  27.441  23.150  1.00  0.00     0.198 A 
ATOM     99  C   UNL A   1      50.088  27.092  25.173  1.00  0.00     0.198 A 
ATOM    100  F   UNL A   1      49.063  27.435  27.261  1.00  0.00    -0.203 F 
ATOM    101  F   UNL A   1      48.766  27.400  21.813  1.00  0.00    -0.200 F 
ATOM    102  C   UNL A   1      50.021  27.081  23.789  1.00  0.00     0.200 A 
ATOM    103  F   UNL A   1      51.231  26.765  25.792  1.00  0.00    -0.200 F 
ATOM    104  F   UNL A   1      51.089  26.714  23.067  1.00  0.00    -0.200 F 
ENDBRANCH  71  94
ENDBRANCH  45  46
ENDBRANCH  38  40
ENDBRANCH  37  38
ENDBRANCH  36  37
ENDBRANCH  35  36
ENDBRANCH  34  35
ENDBRANCH  33  34
ENDBRANCH  32  33
ENDBRANCH  31  32
ENDBRANCH   1  31
TORSDOF 23
ENDMDL
MODEL 3
REMARK VINA RESULT:     -10.4      5.018     11.055
REMARK SMILES COc1ccc(NC(=O)[C@@H]2[C@@H](C(=O)OCCOCCOCCOCCOC(=O)c3ccc(-c4c5nc(c(-c6c(F)c(F)c(F)c(F)c6F)c6ccc([nH]6)c(-c6c(F)c(F)c(F)c(F)c6F)c6nc(c(-c7c(F)c(F)c(F)c(F)c7F)c7ccc4[nH]7)C=C6)C=C5)cc3)[C@@H]3CC[C@H]2C3=C(C)C)cc1
REMARK SMILES IDX 19 1 18 2 17 3 16 4 15 5 14 6 12 7 13 8 11 9 10 10 95 11
REMARK SMILES IDX 92 12 94 13 96 14 93 15 97 16 98 17 99 18 8 19 7 20 9 22
REMARK SMILES IDX 6 23 3 24 4 25 101 26 5 27 100 28 2 29 1 30 20 31 21 32
REMARK SMILES IDX 22 33 23 34 24 35 25 36 26 37 27 38 28 39 29 40 30 41 91 42
REMARK SMILES IDX 31 43 90 44 32 45 33 46 34 47 84 48 35 49 89 50 83 51 85 52
REMARK SMILES IDX 36 53 88 54 82 55 81 56 37 58 69 59 49 60 68 61 50 62 53 63
REMARK SMILES IDX 67 64 86 65 51 66 52 67 66 69 87 70 54 71 38 72 39 73 47 74
REMARK SMILES IDX 40 75 41 76 45 77 48 78 42 79 43 80 46 81 44 82 70 83 71 84
REMARK SMILES IDX 79 85 72 86 73 87 77 88 80 89 74 90 75 91 78 92 76 93 55 94
REMARK SMILES IDX 56 95 64 96 57 97 58 98 62 99 65 100 59 101 60 102 63 103
REMARK SMILES IDX 61 104
REMARK H PARENT 7 21 85 57 53 68
REMARK Flexibility Score: inf
ROOT
ATOM      1  C   UNL A   1      42.054  21.752  26.575  1.00  0.00     0.188 C 
ENDROOT
BRANCH   1   2
ATOM      2  C   UNL A   1      40.735  21.146  27.103  1.00  0.00     0.188 C 
BRANCH   2   3
ATOM      3  O   UNL A   1      39.786  20.881  26.078  1.00  0.00    -0.376 OA
BRANCH   3   4
ATOM      4  C   UNL A   1      38.696  21.778  25.931  1.00  0.00     0.202 C 
BRANCH   4   5
ATOM      5  C   UNL A   1      37.648  21.502  24.828  1.00  0.00     0.261 C 
BRANCH   5   6
ATOM      6  O   UNL A   1      36.250  21.704  25.145  1.00  0.00    -0.463 OA
BRANCH   6   7
ATOM      7  C   UNL A   1      35.686  22.828  24.654  1.00  0.00     0.310 C 
ATOM      8  O   UNL A   1      36.090  23.943  24.944  1.00  0.00    -0.252 OA
BRANCH   7   9
ATOM      9  C   UNL A   1      34.530  22.546  23.695  1.00  0.00     0.119 C 
ATOM     10  C   UNL A   1      33.531  23.751  23.537  1.00  0.00     0.101 C 
ATOM     11  C   UNL A   1      32.226  23.213  24.186  1.00  0.00     0.029 C 
ATOM     12  C   UNL A   1      33.672  21.470  24.386  1.00  0.00     0.030 C 
ATOM     13  C   UNL A   1      31.565  22.075  23.394  1.00  0.00     0.009 C 
ATOM     14  C   UNL A   1      32.845  22.375  25.272  1.00  0.00    -0.064 C 
ATOM     15  C   UNL A   1      32.613  20.951  23.413  1.00  0.00     0.009 C 
ATOM     16  C   UNL A   1      32.817  22.525  26.609  1.00  0.00    -0.077 C 
ATOM     17  C   UNL A   1      33.685  21.728  27.551  1.00  0.00     0.039 C 
ATOM     18  C   UNL A   1      32.052  23.647  27.252  1.00  0.00     0.039 C 
BRANCH  10  19
ATOM     19  C   UNL A   1      33.296  24.188  22.096  1.00  0.00     0.228 C 
ATOM     20  N   UNL A   1      32.716  25.362  21.712  1.00  0.00    -0.326 N 
ATOM     21  H   UNL A   1      32.548  25.381  20.742  1.00  0.00     0.169 HD
ATOM     22  O   UNL A   1      33.653  23.452  21.165  1.00  0.00    -0.274 OA
BRANCH  20  23
ATOM     23  C   UNL A   1      32.291  26.554  22.331  1.00  0.00     0.041 A 
ATOM     24  C   UNL A   1      31.840  28.953  23.782  1.00  0.00     0.119 A 
ATOM     25  C   UNL A   1      30.907  27.912  23.780  1.00  0.00     0.048 A 
ATOM     26  C   UNL A   1      32.959  28.835  22.971  1.00  0.00     0.048 A 
ATOM     27  C   UNL A   1      31.116  26.733  23.045  1.00  0.00     0.030 A 
ATOM     28  C   UNL A   1      33.180  27.645  22.255  1.00  0.00     0.030 A 
BRANCH  24  29
ATOM     29  O   UNL A   1      31.533  29.979  24.625  1.00  0.00    -0.497 OA
ATOM     30  C   UNL A   1      31.466  29.757  26.028  1.00  0.00     0.278 C 
ENDBRANCH  24  29
ENDBRANCH  20  23
ENDBRANCH  10  19
ENDBRANCH   7   9
ENDBRANCH   6   7
ENDBRANCH   5   6
ENDBRANCH   4   5
ENDBRANCH   3   4
ENDBRANCH   2   3
ENDBRANCH   1   2
BRANCH   1  31
ATOM     31  O   UNL A   1      43.106  20.795  26.488  1.00  0.00    -0.377 OA
BRANCH  31  32
ATOM     32  C   UNL A   1      43.690  20.618  25.201  1.00  0.00     0.188 C 
BRANCH  32  33
ATOM     33  C   UNL A   1      45.053  19.905  25.119  1.00  0.00     0.188 C 
BRANCH  33  34
ATOM     34  O   UNL A   1      46.154  20.766  25.334  1.00  0.00    -0.376 OA
BRANCH  34  35
ATOM     35  C   UNL A   1      46.208  22.084  24.835  1.00  0.00     0.202 C 
BRANCH  35  36
ATOM     36  C   UNL A   1      46.277  23.283  25.787  1.00  0.00     0.261 C 
BRANCH  36  37
ATOM     37  O   UNL A   1      45.050  23.692  26.395  1.00  0.00    -0.460 OA
BRANCH  37  38
ATOM     38  C   UNL A   1      44.260  24.561  25.733  1.00  0.00     0.338 C 
ATOM     39  O   UNL A   1      43.958  24.539  24.554  1.00  0.00    -0.246 OA
BRANCH  38  40
ATOM     40  C   UNL A   1      43.618  25.397  26.772  1.00  0.00     0.060 A 
ATOM     41  C   UNL A   1      44.031  26.728  26.916  1.00  0.00     0.016 A 
ATOM     42  C   UNL A   1      42.548  24.898  27.523  1.00  0.00     0.016 A 
ATOM     43  C   UNL A   1      43.383  27.562  27.822  1.00  0.00     0.010 A 
ATOM     44  C   UNL A   1      41.924  25.721  28.457  1.00  0.00     0.010 A 
ATOM     45  C   UNL A   1      42.362  27.044  28.628  1.00  0.00    -0.014 A 
BRANCH  45  46
ATOM     46  C   UNL A   1      41.942  27.807  29.820  1.00  0.00     0.031 A 
ATOM     47  C   UNL A   1      40.692  28.630  29.704  1.00  0.00     0.074 A 
ATOM     48  C   UNL A   1      42.628  27.737  30.971  1.00  0.00     0.049 A 
ATOM     49  N   UNL A   1      40.121  29.409  30.583  1.00  0.00    -0.248 NA
ATOM     50  C   UNL A   1      39.987  28.563  28.410  1.00  0.00     0.031 C 
ATOM     51  C   UNL A   1      43.824  26.930  31.197  1.00  0.00     0.029 A 
ATOM     52  N   UNL A   1      42.410  28.366  32.170  1.00  0.00    -0.354 N 
ATOM     53  C   UNL A   1      38.998  29.924  29.951  1.00  0.00     0.074 A 
ATOM     54  C   UNL A   1      38.980  29.399  28.605  1.00  0.00     0.031 C 
ATOM     55  C   UNL A   1      44.246  27.124  32.459  1.00  0.00     0.029 A 
ATOM     56  C   UNL A   1      43.367  28.091  33.115  1.00  0.00     0.049 A 
ATOM     57  H   UNL A   1      41.641  28.958  32.338  1.00  0.00     0.167 HD
ATOM     58  C   UNL A   1      38.060  30.757  30.456  1.00  0.00     0.037 A 
ATOM     59  C   UNL A   1      43.519  28.592  34.355  1.00  0.00     0.037 A 
ATOM     60  C   UNL A   1      38.098  31.277  31.795  1.00  0.00     0.049 A 
ATOM     61  C   UNL A   1      42.503  29.582  34.867  1.00  0.00     0.074 A 
ATOM     62  C   UNL A   1      37.200  32.123  32.418  1.00  0.00     0.029 A 
ATOM     63  N   UNL A   1      39.103  31.007  32.715  1.00  0.00    -0.354 N 
ATOM     64  N   UNL A   1      41.427  30.048  34.278  1.00  0.00    -0.248 NA
ATOM     65  C   UNL A   1      42.718  30.113  36.220  1.00  0.00     0.031 C 
ATOM     66  C   UNL A   1      37.691  32.412  33.694  1.00  0.00     0.029 A 
ATOM     67  C   UNL A   1      38.860  31.694  33.892  1.00  0.00     0.049 A 
ATOM     68  H   UNL A   1      39.871  30.414  32.553  1.00  0.00     0.167 HD
ATOM     69  C   UNL A   1      40.824  30.900  35.195  1.00  0.00     0.074 A 
ATOM     70  C   UNL A   1      41.645  30.873  36.387  1.00  0.00     0.031 C 
ATOM     71  C   UNL A   1      39.694  31.641  35.066  1.00  0.00     0.037 A 
BRANCH  58  72
ATOM     72  C   UNL A   1      36.947  31.182  29.546  1.00  0.00     0.064 A 
ATOM     73  C   UNL A   1      35.898  30.315  29.201  1.00  0.00     0.173 A 
ATOM     74  C   UNL A   1      36.917  32.485  29.027  1.00  0.00     0.173 A 
ATOM     75  F   UNL A   1      35.891  29.051  29.651  1.00  0.00    -0.203 F 
ATOM     76  C   UNL A   1      34.874  30.731  28.354  1.00  0.00     0.198 A 
ATOM     77  C   UNL A   1      35.876  32.907  28.206  1.00  0.00     0.198 A 
ATOM     78  F   UNL A   1      37.899  33.351  29.319  1.00  0.00    -0.203 F 
ATOM     79  F   UNL A   1      33.910  29.870  27.998  1.00  0.00    -0.200 F 
ATOM     80  C   UNL A   1      34.859  32.028  27.865  1.00  0.00     0.200 A 
ATOM     81  F   UNL A   1      35.858  34.164  27.742  1.00  0.00    -0.200 F 
ATOM     82  F   UNL A   1      33.867  32.430  27.057  1.00  0.00    -0.200 F 
ENDBRANCH  58  72
BRANCH  59  83
ATOM     83  C   UNL A   1      44.681  28.188  35.191  1.00  0.00     0.064 A 
ATOM     84  C   UNL A   1      44.598  27.109  36.081  1.00  0.00     0.173 A 
ATOM     85  C   UNL A   1      45.893  28.894  35.138  1.00  0.00     0.173 A 
ATOM     86  F   UNL A   1      43.455  26.416  36.188  1.00  0.00    -0.203 F 
ATOM     87  C   UNL A   1      45.672  26.767  36.903  1.00  0.00     0.198 A 
ATOM     88  C   UNL A   1      46.977  28.532  35.936  1.00  0.00     0.198 A 
ATOM     89  F   UNL A   1      46.028  29.938  34.306  1.00  0.00    -0.203 F 
ATOM     90  F   UNL A   1      45.544  25.767  37.786  1.00  0.00    -0.200 F 
ATOM     91  C   UNL A   1      46.861  27.476  36.826  1.00  0.00     0.200 A 
ATOM     92  F   UNL A   1      48.127  29.211  35.849  1.00  0.00    -0.200 F 
ATOM     93  F   UNL A   1      47.891  27.148  37.618  1.00  0.00    -0.200 F 
ENDBRANCH  59  83
BRANCH  71  94
ATOM     94  C   UNL A   1      39.259  32.447  36.257  1.00  0.00     0.064 A 
ATOM     95  C   UNL A   1      38.339  31.949  37.191  1.00  0.00     0.173 A 
ATOM     96  C   UNL A   1      39.805  33.720  36.487  1.00  0.00     0.173 A 
ATOM     97  F   UNL A   1      37.779  30.743  37.011  1.00  0.00    -0.203 F 
ATOM     98  C   UNL A   1      37.958  32.707  38.295  1.00  0.00     0.198 A 
ATOM     99  C   UNL A   1      39.450  34.460  37.611  1.00  0.00     0.198 A 
ATOM    100  F   UNL A   1      40.699  34.238  35.631  1.00  0.00    -0.203 F 
ATOM    101  F   UNL A   1      37.037  32.234  39.144  1.00  0.00    -0.200 F 
ATOM    102  C   UNL A   1      38.520  33.958  38.508  1.00  0.00     0.200 A 
ATOM    103  F   UNL A   1      40.010  35.658  37.825  1.00  0.00    -0.200 F 
ATOM    104  F   UNL A   1      38.158  34.682  39.575  1.00  0.00    -0.200 F 
ENDBRANCH  71  94
ENDBRANCH  45  46
ENDBRANCH  38  40
ENDBRANCH  37  38
ENDBRANCH  36  37
ENDBRANCH  35  36
ENDBRANCH  34  35
ENDBRANCH  33  34
ENDBRANCH  32  33
ENDBRANCH  31  32
ENDBRANCH   1  31
TORSDOF 23
ENDMDL
