MODEL 1
REMARK VINA RESULT:     -10.9      0.000      0.000
REMARK SMILES O=C(CC1(NC(=O)C2(c3ccccc3)CC2)CCC1)OCCOCCOCCOCCOC(=O)c1ccc(-c2c3nc(c(-c4c(F)c(F)c(F)c(F)c4F)c4ccc([nH]4)c(-c4c(F)c(F)c(F)c(F)c4F)c4nc(c(-c5c(F)c(F)c(F)c(F)c5F)c5ccc2[nH]5)C=C4)C=C3)cc1
REMARK SMILES IDX 25 1 24 2 23 3 22 4 21 5 20 6 2 7 1 8 3 9 4 10 17 11 19 12
REMARK SMILES IDX 18 13 5 14 6 15 7 17 8 18 15 19 16 20 9 21 10 22 14 23 11 24
REMARK SMILES IDX 13 25 12 26 26 27 27 28 28 29 29 30 30 31 31 32 32 33 33 34
REMARK SMILES IDX 34 35 35 36 36 37 97 38 37 39 96 40 38 41 39 42 40 43 90 44
REMARK SMILES IDX 41 45 95 46 89 47 91 48 42 49 94 50 88 51 87 52 43 54 75 55
REMARK SMILES IDX 55 56 74 57 56 58 59 59 73 60 92 61 57 62 58 63 72 65 93 66
REMARK SMILES IDX 60 67 44 68 45 69 53 70 46 71 47 72 51 73 54 74 48 75 49 76
REMARK SMILES IDX 52 77 50 78 76 79 77 80 85 81 78 82 79 83 83 84 86 85 80 86
REMARK SMILES IDX 81 87 84 88 82 89 61 90 62 91 70 92 63 93 64 94 68 95 71 96
REMARK SMILES IDX 65 97 66 98 69 99 67 100
REMARK H PARENT 5 16 91 53 59 64
REMARK Flexibility Score: inf
ROOT
ATOM      1  C   UNL A   1      33.543  20.937  25.978  1.00  0.00     0.188 C 
ENDROOT
BRANCH   1   2
ATOM      2  C   UNL A   1      33.100  19.544  25.549  1.00  0.00     0.188 C 
BRANCH   2   3
ATOM      3  O   UNL A   1      33.043  19.134  24.192  1.00  0.00    -0.376 OA
BRANCH   3   4
ATOM      4  C   UNL A   1      32.361  19.674  23.068  1.00  0.00     0.202 C 
BRANCH   4   5
ATOM      5  C   UNL A   1      32.157  21.250  22.674  1.00  0.00     0.261 C 
BRANCH   5   6
ATOM      6  O   UNL A   1      31.477  22.780  23.789  1.00  0.00    -0.463 OA
BRANCH   6   7
ATOM      7  C   UNL A   1      31.033  23.981  24.366  1.00  0.00     0.308 C 
ATOM      8  O   UNL A   1      30.974  24.064  25.599  1.00  0.00    -0.252 OA
BRANCH   7   9
ATOM      9  C   UNL A   1      30.438  25.138  23.540  1.00  0.00     0.151 C 
BRANCH   9  10
ATOM     10  C   UNL A   1      29.759  26.400  24.128  1.00  0.00     0.051 C 
ATOM     11  C   UNL A   1      29.910  27.622  23.145  1.00  0.00     0.029 C 
ATOM     12  C   UNL A   1      28.219  26.534  23.876  1.00  0.00     0.029 C 
ATOM     13  C   UNL A   1      28.455  28.004  23.475  1.00  0.00     0.005 C 
BRANCH  10  14
ATOM     14  N   UNL A   1      30.110  26.924  25.498  1.00  0.00    -0.349 N 
ATOM     15  C   UNL A   1      31.176  27.587  26.027  1.00  0.00     0.231 C 
ATOM     16  H   UNL A   1      29.407  26.746  26.164  1.00  0.00     0.164 HD
ATOM     17  O   UNL A   1      31.295  27.695  27.244  1.00  0.00    -0.274 OA
BRANCH  15  18
ATOM     18  C   UNL A   1      32.202  28.120  25.095  1.00  0.00     0.074 C 
ATOM     19  C   UNL A   1      31.767  29.281  24.205  1.00  0.00     0.023 C 
ATOM     20  C   UNL A   1      32.612  29.561  25.396  1.00  0.00     0.023 C 
BRANCH  18  21
ATOM     21  C   UNL A   1      33.076  26.988  24.517  1.00  0.00    -0.032 A 
ATOM     22  C   UNL A   1      33.942  25.925  25.752  1.00  0.00     0.005 A 
ATOM     23  C   UNL A   1      33.152  26.477  22.767  1.00  0.00     0.005 A 
ATOM     24  C   UNL A   1      34.749  24.396  25.258  1.00  0.00     0.000 A 
ATOM     25  C   UNL A   1      34.033  24.983  22.284  1.00  0.00     0.000 A 
ATOM     26  C   UNL A   1      34.830  23.970  23.525  1.00  0.00     0.000 A 
ENDBRANCH  18  21
ENDBRANCH  15  18
ENDBRANCH  10  14
ENDBRANCH   9  10
ENDBRANCH   7   9
ENDBRANCH   6   7
ENDBRANCH   5   6
ENDBRANCH   4   5
ENDBRANCH   3   4
ENDBRANCH   2   3
ENDBRANCH   1   2
BRANCH   1  27
ATOM     27  O   UNL A   1      34.883  21.094  26.410  1.00  0.00    -0.377 OA
BRANCH  27  28
ATOM     28  C   UNL A   1      35.846  20.876  25.399  1.00  0.00     0.188 C 
BRANCH  28  29
ATOM     29  C   UNL A   1      37.177  21.641  25.589  1.00  0.00     0.188 C 
BRANCH  29  30
ATOM     30  O   UNL A   1      38.325  20.994  25.051  1.00  0.00    -0.376 OA
BRANCH  30  31
ATOM     31  C   UNL A   1      38.527  19.618  25.351  1.00  0.00     0.202 C 
BRANCH  31  32
ATOM     32  C   UNL A   1      39.953  19.204  25.750  1.00  0.00     0.261 C 
BRANCH  32  33
ATOM     33  O   UNL A   1      40.611  20.045  26.712  1.00  0.00    -0.460 OA
BRANCH  33  34
ATOM     34  C   UNL A   1      41.774  20.634  26.371  1.00  0.00     0.338 C 
ATOM     35  O   UNL A   1      42.584  20.244  25.549  1.00  0.00    -0.246 OA
BRANCH  34  36
ATOM     36  C   UNL A   1      41.772  21.999  26.955  1.00  0.00     0.060 A 
ATOM     37  C   UNL A   1      41.037  22.994  26.285  1.00  0.00     0.016 A 
ATOM     38  C   UNL A   1      42.328  22.269  28.214  1.00  0.00     0.016 A 
ATOM     39  C   UNL A   1      40.875  24.254  26.856  1.00  0.00     0.010 A 
ATOM     40  C   UNL A   1      42.218  23.551  28.762  1.00  0.00     0.010 A 
ATOM     41  C   UNL A   1      41.537  24.559  28.056  1.00  0.00    -0.014 A 
BRANCH  41  42
ATOM     42  C   UNL A   1      41.894  25.980  28.279  1.00  0.00     0.031 A 
ATOM     43  C   UNL A   1      43.244  26.395  27.751  1.00  0.00     0.074 A 
ATOM     44  C   UNL A   1      41.069  26.877  28.845  1.00  0.00     0.049 A 
ATOM     45  N   UNL A   1      43.810  27.573  27.723  1.00  0.00    -0.248 NA
ATOM     46  C   UNL A   1      44.065  25.325  27.154  1.00  0.00     0.031 C 
ATOM     47  C   UNL A   1      39.732  26.606  29.365  1.00  0.00     0.029 A 
ATOM     48  N   UNL A   1      41.253  28.220  29.071  1.00  0.00    -0.354 N 
ATOM     49  C   UNL A   1      45.024  27.382  27.077  1.00  0.00     0.074 A 
ATOM     50  C   UNL A   1      45.146  25.978  26.774  1.00  0.00     0.031 C 
ATOM     51  C   UNL A   1      39.221  27.747  29.868  1.00  0.00     0.029 A 
ATOM     52  C   UNL A   1      40.200  28.823  29.714  1.00  0.00     0.049 A 
ATOM     53  H   UNL A   1      42.065  28.704  28.798  1.00  0.00     0.167 HD
ATOM     54  C   UNL A   1      45.959  28.298  26.744  1.00  0.00     0.037 A 
ATOM     55  C   UNL A   1      40.064  30.098  30.133  1.00  0.00     0.037 A 
ATOM     56  C   UNL A   1      45.871  29.684  27.097  1.00  0.00     0.049 A 
ATOM     57  C   UNL A   1      41.171  31.088  29.844  1.00  0.00     0.074 A 
ATOM     58  C   UNL A   1      46.783  30.694  26.861  1.00  0.00     0.029 A 
ATOM     59  N   UNL A   1      44.806  30.246  27.782  1.00  0.00    -0.354 N 
ATOM     60  N   UNL A   1      42.304  30.908  29.205  1.00  0.00    -0.248 NA
ATOM     61  C   UNL A   1      40.973  32.463  30.325  1.00  0.00     0.031 C 
ATOM     62  C   UNL A   1      46.289  31.863  27.444  1.00  0.00     0.029 A 
ATOM     63  C   UNL A   1      45.043  31.593  27.992  1.00  0.00     0.049 A 
ATOM     64  H   UNL A   1      44.001  29.761  28.076  1.00  0.00     0.167 HD
ATOM     65  C   UNL A   1      42.934  32.147  29.180  1.00  0.00     0.074 A 
ATOM     66  C   UNL A   1      42.049  33.076  29.851  1.00  0.00     0.031 C 
ATOM     67  C   UNL A   1      44.135  32.493  28.652  1.00  0.00     0.037 A 
BRANCH  54  68
ATOM     68  C   UNL A   1      47.156  27.803  25.993  1.00  0.00     0.064 A 
ATOM     69  C   UNL A   1      47.180  27.781  24.589  1.00  0.00     0.173 A 
ATOM     70  C   UNL A   1      48.282  27.326  26.678  1.00  0.00     0.173 A 
ATOM     71  F   UNL A   1      46.112  28.193  23.889  1.00  0.00    -0.203 F 
ATOM     72  C   UNL A   1      48.281  27.281  23.900  1.00  0.00     0.198 A 
ATOM     73  C   UNL A   1      49.392  26.854  25.985  1.00  0.00     0.198 A 
ATOM     74  F   UNL A   1      48.300  27.309  28.019  1.00  0.00    -0.203 F 
ATOM     75  F   UNL A   1      48.261  27.219  22.561  1.00  0.00    -0.200 F 
ATOM     76  C   UNL A   1      49.389  26.826  24.598  1.00  0.00     0.200 A 
ATOM     77  F   UNL A   1      50.464  26.416  26.661  1.00  0.00    -0.200 F 
ATOM     78  F   UNL A   1      50.450  26.348  23.935  1.00  0.00    -0.200 F 
ENDBRANCH  54  68
BRANCH  55  79
ATOM     79  C   UNL A   1      38.851  30.524  30.886  1.00  0.00     0.064 A 
ATOM     80  C   UNL A   1      37.727  31.047  30.229  1.00  0.00     0.173 A 
ATOM     81  C   UNL A   1      38.817  30.477  32.288  1.00  0.00     0.173 A 
ATOM     82  F   UNL A   1      37.718  31.143  28.892  1.00  0.00    -0.203 F 
ATOM     83  C   UNL A   1      36.633  31.533  30.945  1.00  0.00     0.198 A 
ATOM     84  C   UNL A   1      37.710  30.933  33.001  1.00  0.00     0.198 A 
ATOM     85  F   UNL A   1      39.866  29.993  32.969  1.00  0.00    -0.203 F 
ATOM     86  F   UNL A   1      35.601  32.085  30.293  1.00  0.00    -0.200 F 
ATOM     87  C   UNL A   1      36.623  31.473  32.330  1.00  0.00     0.200 A 
ATOM     88  F   UNL A   1      37.702  30.865  34.339  1.00  0.00    -0.200 F 
ATOM     89  F   UNL A   1      35.575  31.945  33.017  1.00  0.00    -0.200 F 
ENDBRANCH  55  79
BRANCH  67  90
ATOM     90  C   UNL A   1      44.541  33.936  28.742  1.00  0.00     0.064 A 
ATOM     91  C   UNL A   1      44.153  34.875  27.776  1.00  0.00     0.173 A 
ATOM     92  C   UNL A   1      45.292  34.391  29.837  1.00  0.00     0.173 A 
ATOM     93  F   UNL A   1      43.440  34.488  26.706  1.00  0.00    -0.203 F 
ATOM     94  C   UNL A   1      44.532  36.210  27.883  1.00  0.00     0.198 A 
ATOM     95  C   UNL A   1      45.640  35.733  29.959  1.00  0.00     0.198 A 
ATOM     96  F   UNL A   1      45.677  33.536  30.797  1.00  0.00    -0.203 F 
ATOM     97  F   UNL A   1      44.197  37.079  26.919  1.00  0.00    -0.200 F 
ATOM     98  C   UNL A   1      45.269  36.638  28.978  1.00  0.00     0.200 A 
ATOM     99  F   UNL A   1      46.334  36.149  31.027  1.00  0.00    -0.200 F 
ATOM    100  F   UNL A   1      45.628  37.926  29.083  1.00  0.00    -0.200 F 
ENDBRANCH  67  90
ENDBRANCH  41  42
ENDBRANCH  34  36
ENDBRANCH  33  34
ENDBRANCH  32  33
ENDBRANCH  31  32
ENDBRANCH  30  31
ENDBRANCH  29  30
ENDBRANCH  28  29
ENDBRANCH  27  28
ENDBRANCH   1  27
TORSDOF 24
ENDMDL
MODEL 2
REMARK VINA RESULT:     -10.8      1.146      2.823
REMARK SMILES O=C(CC1(NC(=O)C2(c3ccccc3)CC2)CCC1)OCCOCCOCCOCCOC(=O)c1ccc(-c2c3nc(c(-c4c(F)c(F)c(F)c(F)c4F)c4ccc([nH]4)c(-c4c(F)c(F)c(F)c(F)c4F)c4nc(c(-c5c(F)c(F)c(F)c(F)c5F)c5ccc2[nH]5)C=C4)C=C3)cc1
REMARK SMILES IDX 25 1 24 2 23 3 22 4 21 5 20 6 2 7 1 8 3 9 4 10 17 11 19 12
REMARK SMILES IDX 18 13 5 14 6 15 7 17 8 18 15 19 16 20 9 21 10 22 14 23 11 24
REMARK SMILES IDX 13 25 12 26 26 27 27 28 28 29 29 30 30 31 31 32 32 33 33 34
REMARK SMILES IDX 34 35 35 36 36 37 97 38 37 39 96 40 38 41 39 42 40 43 90 44
REMARK SMILES IDX 41 45 95 46 89 47 91 48 42 49 94 50 88 51 87 52 43 54 75 55
REMARK SMILES IDX 55 56 74 57 56 58 59 59 73 60 92 61 57 62 58 63 72 65 93 66
REMARK SMILES IDX 60 67 44 68 45 69 53 70 46 71 47 72 51 73 54 74 48 75 49 76
REMARK SMILES IDX 52 77 50 78 76 79 77 80 85 81 78 82 79 83 83 84 86 85 80 86
REMARK SMILES IDX 81 87 84 88 82 89 61 90 62 91 70 92 63 93 64 94 68 95 71 96
REMARK SMILES IDX 65 97 66 98 69 99 67 100
REMARK H PARENT 5 16 91 53 59 64
REMARK Flexibility Score: inf
ROOT
ATOM      1  C   UNL A   1      34.195  21.640  27.018  1.00  0.00     0.188 C 
ENDROOT
BRANCH   1   2
ATOM      2  C   UNL A   1      33.219  20.528  26.655  1.00  0.00     0.188 C 
BRANCH   2   3
ATOM      3  O   UNL A   1      33.061  20.039  25.333  1.00  0.00    -0.376 OA
BRANCH   3   4
ATOM      4  C   UNL A   1      32.521  20.634  24.161  1.00  0.00     0.202 C 
BRANCH   4   5
ATOM      5  C   UNL A   1      32.466  22.225  23.771  1.00  0.00     0.261 C 
BRANCH   5   6
ATOM      6  O   UNL A   1      33.207  23.818  24.752  1.00  0.00    -0.463 OA
BRANCH   6   7
ATOM      7  C   UNL A   1      33.578  25.060  25.291  1.00  0.00     0.308 C 
ATOM      8  O   UNL A   1      34.706  25.182  25.785  1.00  0.00    -0.252 OA
BRANCH   7   9
ATOM      9  C   UNL A   1      32.587  26.227  25.467  1.00  0.00     0.151 C 
BRANCH   9  10
ATOM     10  C   UNL A   1      32.893  27.714  25.159  1.00  0.00     0.051 C 
ATOM     11  C   UNL A   1      31.618  28.606  25.403  1.00  0.00     0.029 C 
ATOM     12  C   UNL A   1      33.551  28.537  26.317  1.00  0.00     0.029 C 
ATOM     13  C   UNL A   1      32.541  29.666  26.032  1.00  0.00     0.005 C 
BRANCH  10  14
ATOM     14  N   UNL A   1      33.454  28.149  23.828  1.00  0.00    -0.349 N 
ATOM     15  C   UNL A   1      33.191  27.837  22.528  1.00  0.00     0.231 C 
ATOM     16  H   UNL A   1      34.177  28.811  23.919  1.00  0.00     0.164 HD
ATOM     17  O   UNL A   1      33.966  28.182  21.641  1.00  0.00    -0.274 OA
BRANCH  15  18
ATOM     18  C   UNL A   1      31.979  27.031  22.234  1.00  0.00     0.074 C 
ATOM     19  C   UNL A   1      32.023  26.183  20.966  1.00  0.00     0.023 C 
ATOM     20  C   UNL A   1      32.221  25.523  22.283  1.00  0.00     0.023 C 
BRANCH  18  21
ATOM     21  C   UNL A   1      30.692  27.796  22.609  1.00  0.00    -0.032 A 
ATOM     22  C   UNL A   1      30.590  29.542  22.021  1.00  0.00     0.005 A 
ATOM     23  C   UNL A   1      29.199  27.075  23.371  1.00  0.00     0.005 A 
ATOM     24  C   UNL A   1      29.049  30.464  22.114  1.00  0.00     0.000 A 
ATOM     25  C   UNL A   1      27.689  28.043  23.525  1.00  0.00     0.000 A 
ATOM     26  C   UNL A   1      27.632  29.723  22.911  1.00  0.00     0.000 A 
ENDBRANCH  18  21
ENDBRANCH  15  18
ENDBRANCH  10  14
ENDBRANCH   9  10
ENDBRANCH   7   9
ENDBRANCH   6   7
ENDBRANCH   5   6
ENDBRANCH   4   5
ENDBRANCH   3   4
ENDBRANCH   2   3
ENDBRANCH   1   2
BRANCH   1  27
ATOM     27  O   UNL A   1      35.565  21.429  26.728  1.00  0.00    -0.377 OA
BRANCH  27  28
ATOM     28  C   UNL A   1      35.999  22.023  25.522  1.00  0.00     0.188 C 
BRANCH  28  29
ATOM     29  C   UNL A   1      37.521  22.281  25.432  1.00  0.00     0.188 C 
BRANCH  29  30
ATOM     30  O   UNL A   1      38.268  21.256  24.785  1.00  0.00    -0.376 OA
BRANCH  30  31
ATOM     31  C   UNL A   1      38.319  19.972  25.395  1.00  0.00     0.202 C 
BRANCH  31  32
ATOM     32  C   UNL A   1      39.718  19.415  25.709  1.00  0.00     0.261 C 
BRANCH  32  33
ATOM     33  O   UNL A   1      40.471  20.123  26.709  1.00  0.00    -0.460 OA
BRANCH  33  34
ATOM     34  C   UNL A   1      41.647  20.681  26.359  1.00  0.00     0.338 C 
ATOM     35  O   UNL A   1      42.439  20.273  25.529  1.00  0.00    -0.246 OA
BRANCH  34  36
ATOM     36  C   UNL A   1      41.687  22.044  26.948  1.00  0.00     0.060 A 
ATOM     37  C   UNL A   1      40.987  23.064  26.278  1.00  0.00     0.016 A 
ATOM     38  C   UNL A   1      42.246  22.291  28.210  1.00  0.00     0.016 A 
ATOM     39  C   UNL A   1      40.864  24.328  26.853  1.00  0.00     0.010 A 
ATOM     40  C   UNL A   1      42.176  23.575  28.762  1.00  0.00     0.010 A 
ATOM     41  C   UNL A   1      41.531  24.606  28.056  1.00  0.00    -0.014 A 
BRANCH  41  42
ATOM     42  C   UNL A   1      41.933  26.014  28.286  1.00  0.00     0.031 A 
ATOM     43  C   UNL A   1      43.295  26.389  27.757  1.00  0.00     0.074 A 
ATOM     44  C   UNL A   1      41.138  26.934  28.857  1.00  0.00     0.049 A 
ATOM     45  N   UNL A   1      43.898  27.548  27.734  1.00  0.00    -0.248 NA
ATOM     46  C   UNL A   1      44.081  25.296  27.153  1.00  0.00     0.031 C 
ATOM     47  C   UNL A   1      39.795  26.704  29.378  1.00  0.00     0.029 A 
ATOM     48  N   UNL A   1      41.366  28.270  29.090  1.00  0.00    -0.354 N 
ATOM     49  C   UNL A   1      45.105  27.322  27.085  1.00  0.00     0.074 A 
ATOM     50  C   UNL A   1      45.182  25.916  26.775  1.00  0.00     0.031 C 
ATOM     51  C   UNL A   1      39.321  27.858  29.888  1.00  0.00     0.029 A 
ATOM     52  C   UNL A   1      40.333  28.903  29.737  1.00  0.00     0.049 A 
ATOM     53  H   UNL A   1      42.192  28.729  28.818  1.00  0.00     0.167 HD
ATOM     54  C   UNL A   1      46.068  28.210  26.755  1.00  0.00     0.037 A 
ATOM     55  C   UNL A   1      40.238  30.179  30.163  1.00  0.00     0.037 A 
ATOM     56  C   UNL A   1      46.024  29.596  27.114  1.00  0.00     0.049 A 
ATOM     57  C   UNL A   1      41.376  31.135  29.876  1.00  0.00     0.074 A 
ATOM     58  C   UNL A   1      46.968  30.578  26.881  1.00  0.00     0.029 A 
ATOM     59  N   UNL A   1      44.979  30.189  27.804  1.00  0.00    -0.354 N 
ATOM     60  N   UNL A   1      42.501  30.922  29.235  1.00  0.00    -0.248 NA
ATOM     61  C   UNL A   1      41.223  32.514  30.364  1.00  0.00     0.031 C 
ATOM     62  C   UNL A   1      46.511  31.760  27.471  1.00  0.00     0.029 A 
ATOM     63  C   UNL A   1      45.259  31.526  28.020  1.00  0.00     0.049 A 
ATOM     64  H   UNL A   1      44.159  29.728  28.097  1.00  0.00     0.167 HD
ATOM     65  C   UNL A   1      43.170  32.142  29.215  1.00  0.00     0.074 A 
ATOM     66  C   UNL A   1      42.316  33.094  29.891  1.00  0.00     0.031 C 
ATOM     67  C   UNL A   1      44.381  32.451  28.686  1.00  0.00     0.037 A 
BRANCH  54  68
ATOM     68  C   UNL A   1      47.247  27.681  25.999  1.00  0.00     0.064 A 
ATOM     69  C   UNL A   1      48.378  27.183  26.664  1.00  0.00     0.173 A 
ATOM     70  C   UNL A   1      47.259  27.691  24.597  1.00  0.00     0.173 A 
ATOM     71  F   UNL A   1      48.430  27.186  28.005  1.00  0.00    -0.203 F 
ATOM     72  C   UNL A   1      49.487  26.731  25.953  1.00  0.00     0.198 A 
ATOM     73  C   UNL A   1      48.357  27.212  23.889  1.00  0.00     0.198 A 
ATOM     74  F   UNL A   1      46.210  28.175  23.915  1.00  0.00    -0.203 F 
ATOM     75  F   UNL A   1      50.577  26.311  26.609  1.00  0.00    -0.200 F 
ATOM     76  C   UNL A   1      49.471  26.739  24.566  1.00  0.00     0.200 A 
ATOM     77  F   UNL A   1      48.341  27.218  22.548  1.00  0.00    -0.200 F 
ATOM     78  F   UNL A   1      50.536  26.300  23.882  1.00  0.00    -0.200 F 
ENDBRANCH  54  68
BRANCH  55  79
ATOM     79  C   UNL A   1      39.040  30.640  30.920  1.00  0.00     0.064 A 
ATOM     80  C   UNL A   1      38.984  30.564  32.319  1.00  0.00     0.173 A 
ATOM     81  C   UNL A   1      37.899  31.108  30.250  1.00  0.00     0.173 A 
ATOM     82  F   UNL A   1      40.036  30.096  33.007  1.00  0.00    -0.203 F 
ATOM     83  C   UNL A   1      37.825  30.907  33.015  1.00  0.00     0.198 A 
ATOM     84  C   UNL A   1      36.752  31.481  30.949  1.00  0.00     0.198 A 
ATOM     85  F   UNL A   1      37.894  31.195  28.912  1.00  0.00    -0.203 F 
ATOM     86  F   UNL A   1      37.778  30.763  34.347  1.00  0.00    -0.200 F 
ATOM     87  C   UNL A   1      36.711  31.369  32.330  1.00  0.00     0.200 A 
ATOM     88  F   UNL A   1      35.682  31.934  30.283  1.00  0.00    -0.200 F 
ATOM     89  F   UNL A   1      35.596  31.692  32.999  1.00  0.00    -0.200 F 
ENDBRANCH  55  79
BRANCH  67  90
ATOM     90  C   UNL A   1      44.833  33.880  28.781  1.00  0.00     0.064 A 
ATOM     91  C   UNL A   1      44.495  34.829  27.807  1.00  0.00     0.173 A 
ATOM     92  C   UNL A   1      45.577  34.312  29.891  1.00  0.00     0.173 A 
ATOM     93  F   UNL A   1      43.792  34.464  26.723  1.00  0.00    -0.203 F 
ATOM     94  C   UNL A   1      44.916  36.151  27.920  1.00  0.00     0.198 A 
ATOM     95  C   UNL A   1      45.966  35.642  30.019  1.00  0.00     0.198 A 
ATOM     96  F   UNL A   1      45.913  33.447  30.860  1.00  0.00    -0.203 F 
ATOM     97  F   UNL A   1      44.630  37.029  26.948  1.00  0.00    -0.200 F 
ATOM     98  C   UNL A   1      45.645  36.558  29.029  1.00  0.00     0.200 A 
ATOM     99  F   UNL A   1      46.652  36.037  31.100  1.00  0.00    -0.200 F 
ATOM    100  F   UNL A   1      46.044  37.833  29.139  1.00  0.00    -0.200 F 
ENDBRANCH  67  90
ENDBRANCH  41  42
ENDBRANCH  34  36
ENDBRANCH  33  34
ENDBRANCH  32  33
ENDBRANCH  31  32
ENDBRANCH  30  31
ENDBRANCH  29  30
ENDBRANCH  28  29
ENDBRANCH  27  28
ENDBRANCH   1  27
TORSDOF 24
ENDMDL
MODEL 3
REMARK VINA RESULT:     -10.8      4.210      6.973
REMARK SMILES O=C(CC1(NC(=O)C2(c3ccccc3)CC2)CCC1)OCCOCCOCCOCCOC(=O)c1ccc(-c2c3nc(c(-c4c(F)c(F)c(F)c(F)c4F)c4ccc([nH]4)c(-c4c(F)c(F)c(F)c(F)c4F)c4nc(c(-c5c(F)c(F)c(F)c(F)c5F)c5ccc2[nH]5)C=C4)C=C3)cc1
REMARK SMILES IDX 25 1 24 2 23 3 22 4 21 5 20 6 2 7 1 8 3 9 4 10 17 11 19 12
REMARK SMILES IDX 18 13 5 14 6 15 7 17 8 18 15 19 16 20 9 21 10 22 14 23 11 24
REMARK SMILES IDX 13 25 12 26 26 27 27 28 28 29 29 30 30 31 31 32 32 33 33 34
REMARK SMILES IDX 34 35 35 36 36 37 97 38 37 39 96 40 38 41 39 42 40 43 90 44
REMARK SMILES IDX 41 45 95 46 89 47 91 48 42 49 94 50 88 51 87 52 43 54 75 55
REMARK SMILES IDX 55 56 74 57 56 58 59 59 73 60 92 61 57 62 58 63 72 65 93 66
REMARK SMILES IDX 60 67 44 68 45 69 53 70 46 71 47 72 51 73 54 74 48 75 49 76
REMARK SMILES IDX 52 77 50 78 76 79 77 80 85 81 78 82 79 83 83 84 86 85 80 86
REMARK SMILES IDX 81 87 84 88 82 89 61 90 62 91 70 92 63 93 64 94 68 95 71 96
REMARK SMILES IDX 65 97 66 98 69 99 67 100
REMARK H PARENT 5 16 91 53 59 64
REMARK Flexibility Score: inf
ROOT
ATOM      1  C   UNL A   1      42.455  21.153  26.800  1.00  0.00     0.188 C 
ENDROOT
BRANCH   1   2
ATOM      2  C   UNL A   1      41.043  20.609  26.977  1.00  0.00     0.188 C 
BRANCH   2   3
ATOM      3  O   UNL A   1      39.881  21.398  26.777  1.00  0.00    -0.376 OA
BRANCH   3   4
ATOM      4  C   UNL A   1      38.829  21.311  25.826  1.00  0.00     0.202 C 
BRANCH   4   5
ATOM      5  C   UNL A   1      37.460  22.209  25.752  1.00  0.00     0.261 C 
BRANCH   5   6
ATOM      6  O   UNL A   1      35.553  21.681  26.112  1.00  0.00    -0.463 OA
BRANCH   6   7
ATOM      7  C   UNL A   1      34.181  21.553  26.386  1.00  0.00     0.308 C 
ATOM      8  O   UNL A   1      33.610  20.497  26.086  1.00  0.00    -0.252 OA
BRANCH   7   9
ATOM      9  C   UNL A   1      33.309  22.727  26.870  1.00  0.00     0.151 C 
BRANCH   9  10
ATOM     10  C   UNL A   1      32.137  23.357  26.077  1.00  0.00     0.051 C 
ATOM     11  C   UNL A   1      30.753  22.901  26.675  1.00  0.00     0.029 C 
ATOM     12  C   UNL A   1      31.715  24.804  26.502  1.00  0.00     0.029 C 
ATOM     13  C   UNL A   1      30.245  24.340  26.468  1.00  0.00     0.005 C 
BRANCH  10  14
ATOM     14  N   UNL A   1      32.015  23.198  24.581  1.00  0.00    -0.349 N 
ATOM     15  C   UNL A   1      32.525  23.856  23.502  1.00  0.00     0.231 C 
ATOM     16  H   UNL A   1      31.433  22.446  24.326  1.00  0.00     0.164 HD
ATOM     17  O   UNL A   1      32.074  23.644  22.381  1.00  0.00    -0.274 OA
BRANCH  15  18
ATOM     18  C   UNL A   1      33.594  24.860  23.736  1.00  0.00     0.074 C 
ATOM     19  C   UNL A   1      34.768  24.408  24.600  1.00  0.00     0.023 C 
ATOM     20  C   UNL A   1      34.940  24.473  23.125  1.00  0.00     0.023 C 
BRANCH  18  21
ATOM     21  C   UNL A   1      33.005  26.275  23.910  1.00  0.00    -0.032 A 
ATOM     22  C   UNL A   1      31.376  26.578  23.097  1.00  0.00     0.005 A 
ATOM     23  C   UNL A   1      33.651  27.579  25.011  1.00  0.00     0.005 A 
ATOM     24  C   UNL A   1      30.424  28.062  23.450  1.00  0.00     0.000 A 
ATOM     25  C   UNL A   1      32.717  29.092  25.289  1.00  0.00     0.000 A 
ATOM     26  C   UNL A   1      31.127  29.324  24.500  1.00  0.00     0.000 A 
ENDBRANCH  18  21
ENDBRANCH  15  18
ENDBRANCH  10  14
ENDBRANCH   9  10
ENDBRANCH   7   9
ENDBRANCH   6   7
ENDBRANCH   5   6
ENDBRANCH   4   5
ENDBRANCH   3   4
ENDBRANCH   2   3
ENDBRANCH   1   2
BRANCH   1  27
ATOM     27  O   UNL A   1      43.378  20.357  26.077  1.00  0.00    -0.377 OA
BRANCH  27  28
ATOM     28  C   UNL A   1      44.135  21.073  25.123  1.00  0.00     0.188 C 
BRANCH  28  29
ATOM     29  C   UNL A   1      45.667  21.008  25.323  1.00  0.00     0.188 C 
BRANCH  29  30
ATOM     30  O   UNL A   1      46.275  22.234  25.717  1.00  0.00    -0.376 OA
BRANCH  30  31
ATOM     31  C   UNL A   1      45.765  22.901  26.865  1.00  0.00     0.202 C 
BRANCH  31  32
ATOM     32  C   UNL A   1      45.587  24.425  26.752  1.00  0.00     0.261 C 
BRANCH  32  33
ATOM     33  O   UNL A   1      45.223  24.924  25.454  1.00  0.00    -0.460 OA
BRANCH  33  34
ATOM     34  C   UNL A   1      43.959  24.742  25.020  1.00  0.00     0.338 C 
ATOM     35  O   UNL A   1      43.564  23.900  24.234  1.00  0.00    -0.246 OA
BRANCH  34  36
ATOM     36  C   UNL A   1      43.068  25.555  25.886  1.00  0.00     0.060 A 
ATOM     37  C   UNL A   1      43.279  26.946  25.915  1.00  0.00     0.016 A 
ATOM     38  C   UNL A   1      41.946  25.004  26.521  1.00  0.00     0.016 A 
ATOM     39  C   UNL A   1      42.390  27.778  26.591  1.00  0.00     0.010 A 
ATOM     40  C   UNL A   1      41.084  25.831  27.251  1.00  0.00     0.010 A 
ATOM     41  C   UNL A   1      41.339  27.212  27.329  1.00  0.00    -0.014 A 
BRANCH  41  42
ATOM     42  C   UNL A   1      40.856  27.981  28.501  1.00  0.00     0.031 A 
ATOM     43  C   UNL A   1      41.634  27.769  29.775  1.00  0.00     0.074 A 
ATOM     44  C   UNL A   1      39.845  28.864  28.449  1.00  0.00     0.049 A 
ATOM     45  N   UNL A   1      41.511  28.344  30.942  1.00  0.00    -0.248 NA
ATOM     46  C   UNL A   1      42.720  26.771  29.715  1.00  0.00     0.031 C 
ATOM     47  C   UNL A   1      39.040  29.179  27.274  1.00  0.00     0.029 A 
ATOM     48  N   UNL A   1      39.329  29.667  29.438  1.00  0.00    -0.354 N 
ATOM     49  C   UNL A   1      42.520  27.804  31.727  1.00  0.00     0.074 A 
ATOM     50  C   UNL A   1      43.216  26.821  30.936  1.00  0.00     0.031 C 
ATOM     51  C   UNL A   1      38.114  30.099  27.614  1.00  0.00     0.029 A 
ATOM     52  C   UNL A   1      38.259  30.426  29.032  1.00  0.00     0.049 A 
ATOM     53  H   UNL A   1      39.692  29.696  30.352  1.00  0.00     0.167 HD
ATOM     54  C   UNL A   1      42.858  28.109  32.999  1.00  0.00     0.037 A 
ATOM     55  C   UNL A   1      37.488  31.276  29.742  1.00  0.00     0.037 A 
ATOM     56  C   UNL A   1      42.132  29.040  33.810  1.00  0.00     0.049 A 
ATOM     57  C   UNL A   1      37.818  31.524  31.197  1.00  0.00     0.074 A 
ATOM     58  C   UNL A   1      42.349  29.388  35.129  1.00  0.00     0.029 A 
ATOM     59  N   UNL A   1      41.031  29.759  33.373  1.00  0.00    -0.354 N 
ATOM     60  N   UNL A   1      38.793  31.034  31.926  1.00  0.00    -0.248 NA
ATOM     61  C   UNL A   1      36.944  32.457  31.926  1.00  0.00     0.031 C 
ATOM     62  C   UNL A   1      41.348  30.288  35.505  1.00  0.00     0.029 A 
ATOM     63  C   UNL A   1      40.545  30.543  34.404  1.00  0.00     0.049 A 
ATOM     64  H   UNL A   1      40.650  29.719  32.465  1.00  0.00     0.167 HD
ATOM     65  C   UNL A   1      38.669  31.620  33.181  1.00  0.00     0.074 A 
ATOM     66  C   UNL A   1      37.536  32.518  33.110  1.00  0.00     0.031 C 
ATOM     67  C   UNL A   1      39.421  31.436  34.296  1.00  0.00     0.037 A 
BRANCH  54  68
ATOM     68  C   UNL A   1      44.042  27.396  33.576  1.00  0.00     0.064 A 
ATOM     69  C   UNL A   1      43.908  26.148  34.205  1.00  0.00     0.173 A 
ATOM     70  C   UNL A   1      45.318  27.972  33.521  1.00  0.00     0.173 A 
ATOM     71  F   UNL A   1      42.700  25.573  34.315  1.00  0.00    -0.203 F 
ATOM     72  C   UNL A   1      45.007  25.511  34.774  1.00  0.00     0.198 A 
ATOM     73  C   UNL A   1      46.420  27.319  34.066  1.00  0.00     0.198 A 
ATOM     74  F   UNL A   1      45.495  29.172  32.948  1.00  0.00    -0.203 F 
ATOM     75  F   UNL A   1      44.847  24.347  35.417  1.00  0.00    -0.200 F 
ATOM     76  C   UNL A   1      46.263  26.094  34.697  1.00  0.00     0.200 A 
ATOM     77  F   UNL A   1      47.635  27.882  33.989  1.00  0.00    -0.200 F 
ATOM     78  F   UNL A   1      47.322  25.480  35.241  1.00  0.00    -0.200 F 
ENDBRANCH  54  68
BRANCH  55  79
ATOM     79  C   UNL A   1      36.317  31.947  29.110  1.00  0.00     0.064 A 
ATOM     80  C   UNL A   1      36.286  33.335  28.914  1.00  0.00     0.173 A 
ATOM     81  C   UNL A   1      35.175  31.216  28.748  1.00  0.00     0.173 A 
ATOM     82  F   UNL A   1      37.339  34.085  29.270  1.00  0.00    -0.203 F 
ATOM     83  C   UNL A   1      35.150  33.969  28.411  1.00  0.00     0.198 A 
ATOM     84  C   UNL A   1      34.052  31.847  28.215  1.00  0.00     0.198 A 
ATOM     85  F   UNL A   1      35.145  29.886  28.920  1.00  0.00    -0.203 F 
ATOM     86  F   UNL A   1      35.126  35.303  28.294  1.00  0.00    -0.200 F 
ATOM     87  C   UNL A   1      34.034  33.224  28.058  1.00  0.00     0.200 A 
ATOM     88  F   UNL A   1      32.979  31.121  27.869  1.00  0.00    -0.200 F 
ATOM     89  F   UNL A   1      32.942  33.834  27.581  1.00  0.00    -0.200 F 
ENDBRANCH  55  79
BRANCH  67  90
ATOM     90  C   UNL A   1      39.070  32.248  35.509  1.00  0.00     0.064 A 
ATOM     91  C   UNL A   1      39.489  33.578  35.656  1.00  0.00     0.173 A 
ATOM     92  C   UNL A   1      38.263  31.697  36.517  1.00  0.00     0.173 A 
ATOM     93  F   UNL A   1      40.268  34.148  34.724  1.00  0.00    -0.203 F 
ATOM     94  C   UNL A   1      39.143  34.316  36.785  1.00  0.00     0.198 A 
ATOM     95  C   UNL A   1      37.890  32.449  37.628  1.00  0.00     0.198 A 
ATOM     96  F   UNL A   1      37.822  30.434  36.418  1.00  0.00    -0.203 F 
ATOM     97  F   UNL A   1      39.601  35.567  36.931  1.00  0.00    -0.200 F 
ATOM     98  C   UNL A   1      38.339  33.753  37.765  1.00  0.00     0.200 A 
ATOM     99  F   UNL A   1      37.096  31.911  38.563  1.00  0.00    -0.200 F 
ATOM    100  F   UNL A   1      38.002  34.468  38.849  1.00  0.00    -0.200 F 
ENDBRANCH  67  90
ENDBRANCH  41  42
ENDBRANCH  34  36
ENDBRANCH  33  34
ENDBRANCH  32  33
ENDBRANCH  31  32
ENDBRANCH  30  31
ENDBRANCH  29  30
ENDBRANCH  28  29
ENDBRANCH  27  28
ENDBRANCH   1  27
TORSDOF 24
ENDMDL
