MODEL 1
REMARK VINA RESULT:     -10.0      0.000      0.000
REMARK SMILES C[C@@H](C(=O)OCCOCCOCCOCCOC(=O)c1ccc(-c2c3nc(c(-c4c(F)c(F)c(F)c(F)c4F)c4ccc([nH]4)c(-c4c(F)c(F)c(F)c(F)c4F)c4nc(c(-c5c(F)c(F)c(F)c(F)c5F)c5ccc2[nH]5)C=C4)C=C3)cc1)c1ccc(=O)n(C(F)F)c1
REMARK SMILES IDX 11 1 10 2 9 3 8 4 7 5 6 6 5 7 3 8 4 9 2 10 1 11 83 12 84 13
REMARK SMILES IDX 92 14 85 15 88 16 86 17 87 18 89 19 90 20 91 21 12 22 13 23
REMARK SMILES IDX 14 24 15 25 16 26 17 27 18 28 19 29 20 30 21 31 82 32 22 33
REMARK SMILES IDX 81 34 23 35 24 36 25 37 75 38 26 39 80 40 74 41 76 42 27 43
REMARK SMILES IDX 79 44 73 45 72 46 28 48 60 49 40 50 59 51 41 52 44 53 58 54
REMARK SMILES IDX 77 55 42 56 43 57 57 59 78 60 45 61 29 62 30 63 38 64 31 65
REMARK SMILES IDX 32 66 36 67 39 68 33 69 34 70 37 71 35 72 61 73 62 74 70 75
REMARK SMILES IDX 63 76 64 77 68 78 71 79 65 80 66 81 69 82 67 83 46 84 47 85
REMARK SMILES IDX 55 86 48 87 49 88 53 89 56 90 50 91 51 92 54 93 52 94
REMARK H PARENT 76 47 44 58
REMARK Flexibility Score: inf
ROOT
ATOM      1  O   UNL A   1      33.907  31.417  27.067  1.00  0.00    -0.377 OA
ENDROOT
BRANCH   1   2
ATOM      2  C   UNL A   1      33.111  30.253  27.056  1.00  0.00     0.188 C 
BRANCH   2   3
ATOM      3  C   UNL A   1      33.884  28.948  27.334  1.00  0.00     0.188 C 
BRANCH   3   4
ATOM      4  O   UNL A   1      33.827  27.895  26.393  1.00  0.00    -0.376 OA
BRANCH   4   5
ATOM      5  C   UNL A   1      32.718  27.011  26.378  1.00  0.00     0.202 C 
BRANCH   5   6
ATOM      6  C   UNL A   1      32.744  25.603  25.738  1.00  0.00     0.261 C 
BRANCH   6   7
ATOM      7  O   UNL A   1      31.673  24.688  26.038  1.00  0.00    -0.463 OA
BRANCH   7   8
ATOM      8  C   UNL A   1      30.411  25.089  25.728  1.00  0.00     0.313 C 
ATOM      9  O   UNL A   1      29.602  25.481  26.563  1.00  0.00    -0.252 OA
BRANCH   8  10
ATOM     10  C   UNL A   1      30.079  25.006  24.221  1.00  0.00     0.127 C 
ATOM     11  C   UNL A   1      30.918  24.072  23.336  1.00  0.00     0.025 C 
BRANCH  10  12
ATOM     12  C   UNL A   1      29.949  26.413  23.626  1.00  0.00    -0.017 A 
ATOM     13  C   UNL A   1      31.123  26.955  22.966  1.00  0.00     0.012 A 
ATOM     14  C   UNL A   1      28.843  27.182  23.651  1.00  0.00     0.099 A 
ATOM     15  C   UNL A   1      31.101  28.164  22.390  1.00  0.00     0.072 A 
ATOM     16  N   UNL A   1      28.773  28.414  23.020  1.00  0.00    -0.258 N 
ATOM     17  C   UNL A   1      29.862  28.987  22.390  1.00  0.00     0.254 A 
ATOM     18  O   UNL A   1      29.886  30.089  21.852  1.00  0.00    -0.269 OA
BRANCH  16  19
ATOM     19  C   UNL A   1      27.537  29.161  22.994  1.00  0.00     0.451 C 
ATOM     20  F   UNL A   1      26.504  28.403  23.436  1.00  0.00    -0.185 F 
ATOM     21  F   UNL A   1      27.606  30.270  23.770  1.00  0.00    -0.185 F 
ENDBRANCH  16  19
ENDBRANCH  10  12
ENDBRANCH   8  10
ENDBRANCH   7   8
ENDBRANCH   6   7
ENDBRANCH   5   6
ENDBRANCH   4   5
ENDBRANCH   3   4
ENDBRANCH   2   3
ENDBRANCH   1   2
BRANCH   1  22
ATOM     22  C   UNL A   1      34.485  31.775  28.312  1.00  0.00     0.188 C 
BRANCH  22  23
ATOM     23  C   UNL A   1      35.039  33.203  28.497  1.00  0.00     0.188 C 
BRANCH  23  24
ATOM     24  O   UNL A   1      34.214  34.229  27.954  1.00  0.00    -0.376 OA
BRANCH  24  25
ATOM     25  C   UNL A   1      34.198  35.503  28.582  1.00  0.00     0.202 C 
BRANCH  25  26
ATOM     26  C   UNL A   1      32.914  35.895  29.330  1.00  0.00     0.261 C 
BRANCH  26  27
ATOM     27  O   UNL A   1      32.558  35.074  30.452  1.00  0.00    -0.460 OA
BRANCH  27  28
ATOM     28  C   UNL A   1      32.733  35.593  31.690  1.00  0.00     0.338 C 
ATOM     29  O   UNL A   1      31.993  36.341  32.287  1.00  0.00    -0.246 OA
BRANCH  28  30
ATOM     30  C   UNL A   1      33.904  34.913  32.288  1.00  0.00     0.060 A 
ATOM     31  C   UNL A   1      35.154  35.543  32.224  1.00  0.00     0.016 A 
ATOM     32  C   UNL A   1      33.764  33.679  32.924  1.00  0.00     0.016 A 
ATOM     33  C   UNL A   1      36.277  34.922  32.769  1.00  0.00     0.010 A 
ATOM     34  C   UNL A   1      34.893  33.044  33.444  1.00  0.00     0.010 A 
ATOM     35  C   UNL A   1      36.159  33.647  33.337  1.00  0.00    -0.014 A 
BRANCH  35  36
ATOM     36  C   UNL A   1      37.381  32.855  33.609  1.00  0.00     0.031 A 
ATOM     37  C   UNL A   1      38.126  33.126  34.888  1.00  0.00     0.074 A 
ATOM     38  C   UNL A   1      37.809  31.903  32.762  1.00  0.00     0.049 A 
ATOM     39  N   UNL A   1      39.244  32.610  35.329  1.00  0.00    -0.248 NA
ATOM     40  C   UNL A   1      37.525  34.122  35.791  1.00  0.00     0.031 C 
ATOM     41  C   UNL A   1      37.144  31.513  31.522  1.00  0.00     0.029 A 
ATOM     42  N   UNL A   1      38.918  31.095  32.822  1.00  0.00    -0.354 N 
ATOM     43  C   UNL A   1      39.484  33.225  36.550  1.00  0.00     0.074 A 
ATOM     44  C   UNL A   1      38.414  34.173  36.770  1.00  0.00     0.031 C 
ATOM     45  C   UNL A   1      37.866  30.546  30.928  1.00  0.00     0.029 A 
ATOM     46  C   UNL A   1      39.061  30.277  31.728  1.00  0.00     0.049 A 
ATOM     47  H   UNL A   1      39.550  31.102  33.575  1.00  0.00     0.167 HD
ATOM     48  C   UNL A   1      40.503  33.012  37.415  1.00  0.00     0.037 A 
ATOM     49  C   UNL A   1      40.058  29.429  31.405  1.00  0.00     0.037 A 
ATOM     50  C   UNL A   1      41.566  32.068  37.191  1.00  0.00     0.049 A 
ATOM     51  C   UNL A   1      41.227  29.274  32.346  1.00  0.00     0.074 A 
ATOM     52  C   UNL A   1      42.634  31.763  38.014  1.00  0.00     0.029 A 
ATOM     53  N   UNL A   1      41.698  31.285  36.054  1.00  0.00    -0.354 N 
ATOM     54  N   UNL A   1      41.437  29.837  33.512  1.00  0.00    -0.248 NA
ATOM     55  C   UNL A   1      42.301  28.362  31.924  1.00  0.00     0.031 C 
ATOM     56  C   UNL A   1      43.450  30.845  37.345  1.00  0.00     0.029 A 
ATOM     57  C   UNL A   1      42.851  30.522  36.137  1.00  0.00     0.049 A 
ATOM     58  H   UNL A   1      41.067  31.275  35.298  1.00  0.00     0.167 HD
ATOM     59  C   UNL A   1      42.641  29.320  33.978  1.00  0.00     0.074 A 
ATOM     60  C   UNL A   1      43.110  28.390  32.973  1.00  0.00     0.031 C 
ATOM     61  C   UNL A   1      43.298  29.589  35.134  1.00  0.00     0.037 A 
BRANCH  48  62
ATOM     62  C   UNL A   1      40.540  33.844  38.664  1.00  0.00     0.064 A 
ATOM     63  C   UNL A   1      39.857  33.466  39.830  1.00  0.00     0.173 A 
ATOM     64  C   UNL A   1      41.295  35.027  38.703  1.00  0.00     0.173 A 
ATOM     65  F   UNL A   1      39.106  32.355  39.843  1.00  0.00    -0.203 F 
ATOM     66  C   UNL A   1      39.908  34.254  40.978  1.00  0.00     0.198 A 
ATOM     67  C   UNL A   1      41.372  35.793  39.861  1.00  0.00     0.198 A 
ATOM     68  F   UNL A   1      41.967  35.435  37.615  1.00  0.00    -0.203 F 
ATOM     69  F   UNL A   1      39.206  33.899  42.062  1.00  0.00    -0.200 F 
ATOM     70  C   UNL A   1      40.671  35.411  40.995  1.00  0.00     0.200 A 
ATOM     71  F   UNL A   1      42.121  36.905  39.880  1.00  0.00    -0.200 F 
ATOM     72  F   UNL A   1      40.727  36.163  42.103  1.00  0.00    -0.200 F 
ENDBRANCH  48  62
BRANCH  49  73
ATOM     73  C   UNL A   1      40.010  28.668  30.127  1.00  0.00     0.064 A 
ATOM     74  C   UNL A   1      39.413  27.402  30.059  1.00  0.00     0.173 A 
ATOM     75  C   UNL A   1      40.595  29.174  28.955  1.00  0.00     0.173 A 
ATOM     76  F   UNL A   1      38.865  26.861  31.158  1.00  0.00    -0.203 F 
ATOM     77  C   UNL A   1      39.422  26.661  28.879  1.00  0.00     0.198 A 
ATOM     78  C   UNL A   1      40.574  28.446  27.767  1.00  0.00     0.198 A 
ATOM     79  F   UNL A   1      41.184  30.379  28.963  1.00  0.00    -0.203 F 
ATOM     80  F   UNL A   1      38.895  25.429  28.859  1.00  0.00    -0.200 F 
ATOM     81  C   UNL A   1      39.997  27.186  27.732  1.00  0.00     0.200 A 
ATOM     82  F   UNL A   1      41.120  28.964  26.658  1.00  0.00    -0.200 F 
ATOM     83  F   UNL A   1      40.006  26.474  26.597  1.00  0.00    -0.200 F 
ENDBRANCH  49  73
BRANCH  61  84
ATOM     84  C   UNL A   1      44.569  28.833  35.404  1.00  0.00     0.064 A 
ATOM     85  C   UNL A   1      45.824  29.331  35.027  1.00  0.00     0.173 A 
ATOM     86  C   UNL A   1      44.530  27.611  36.095  1.00  0.00     0.173 A 
ATOM     87  F   UNL A   1      45.918  30.489  34.354  1.00  0.00    -0.203 F 
ATOM     88  C   UNL A   1      46.990  28.620  35.303  1.00  0.00     0.198 A 
ATOM     89  C   UNL A   1      45.700  26.922  36.403  1.00  0.00     0.198 A 
ATOM     90  F   UNL A   1      43.357  27.094  36.489  1.00  0.00    -0.203 F 
ATOM     91  F   UNL A   1      48.173  29.089  34.884  1.00  0.00    -0.200 F 
ATOM     92  C   UNL A   1      46.928  27.422  35.998  1.00  0.00     0.200 A 
ATOM     93  F   UNL A   1      45.637  25.774  37.092  1.00  0.00    -0.200 F 
ATOM     94  F   UNL A   1      48.051  26.744  36.272  1.00  0.00    -0.200 F 
ENDBRANCH  61  84
ENDBRANCH  35  36
ENDBRANCH  28  30
ENDBRANCH  27  28
ENDBRANCH  26  27
ENDBRANCH  25  26
ENDBRANCH  24  25
ENDBRANCH  23  24
ENDBRANCH  22  23
ENDBRANCH   1  22
TORSDOF 22
ENDMDL
MODEL 2
REMARK VINA RESULT:      -9.7      4.495      6.854
REMARK SMILES C[C@@H](C(=O)OCCOCCOCCOCCOC(=O)c1ccc(-c2c3nc(c(-c4c(F)c(F)c(F)c(F)c4F)c4ccc([nH]4)c(-c4c(F)c(F)c(F)c(F)c4F)c4nc(c(-c5c(F)c(F)c(F)c(F)c5F)c5ccc2[nH]5)C=C4)C=C3)cc1)c1ccc(=O)n(C(F)F)c1
REMARK SMILES IDX 11 1 10 2 9 3 8 4 7 5 6 6 5 7 3 8 4 9 2 10 1 11 83 12 84 13
REMARK SMILES IDX 92 14 85 15 88 16 86 17 87 18 89 19 90 20 91 21 12 22 13 23
REMARK SMILES IDX 14 24 15 25 16 26 17 27 18 28 19 29 20 30 21 31 82 32 22 33
REMARK SMILES IDX 81 34 23 35 24 36 25 37 75 38 26 39 80 40 74 41 76 42 27 43
REMARK SMILES IDX 79 44 73 45 72 46 28 48 60 49 40 50 59 51 41 52 44 53 58 54
REMARK SMILES IDX 77 55 42 56 43 57 57 59 78 60 45 61 29 62 30 63 38 64 31 65
REMARK SMILES IDX 32 66 36 67 39 68 33 69 34 70 37 71 35 72 61 73 62 74 70 75
REMARK SMILES IDX 63 76 64 77 68 78 71 79 65 80 66 81 69 82 67 83 46 84 47 85
REMARK SMILES IDX 55 86 48 87 49 88 53 89 56 90 50 91 51 92 54 93 52 94
REMARK H PARENT 76 47 44 58
REMARK Flexibility Score: inf
ROOT
ATOM      1  O   UNL A   1      30.639  27.796  22.069  1.00  0.00    -0.377 OA
ENDROOT
BRANCH   1   2
ATOM      2  C   UNL A   1      30.863  26.612  22.801  1.00  0.00     0.188 C 
BRANCH   2   3
ATOM      3  C   UNL A   1      32.293  26.049  22.684  1.00  0.00     0.188 C 
BRANCH   3   4
ATOM      4  O   UNL A   1      32.758  25.132  23.653  1.00  0.00    -0.376 OA
BRANCH   4   5
ATOM      5  C   UNL A   1      31.922  24.749  24.733  1.00  0.00     0.202 C 
BRANCH   5   6
ATOM      6  C   UNL A   1      32.439  24.424  26.153  1.00  0.00     0.261 C 
BRANCH   6   7
ATOM      7  O   UNL A   1      33.837  24.124  26.328  1.00  0.00    -0.463 OA
BRANCH   7   8
ATOM      8  C   UNL A   1      34.167  22.823  26.549  1.00  0.00     0.313 C 
ATOM      9  O   UNL A   1      33.841  22.204  27.556  1.00  0.00    -0.252 OA
BRANCH   8  10
ATOM     10  C   UNL A   1      35.001  22.187  25.413  1.00  0.00     0.127 C 
ATOM     11  C   UNL A   1      35.644  23.112  24.370  1.00  0.00     0.025 C 
BRANCH  10  12
ATOM     12  C   UNL A   1      34.228  21.030  24.770  1.00  0.00    -0.017 A 
ATOM     13  C   UNL A   1      33.014  21.373  24.052  1.00  0.00     0.012 A 
ATOM     14  C   UNL A   1      34.581  19.730  24.802  1.00  0.00     0.099 A 
ATOM     15  C   UNL A   1      32.285  20.437  23.431  1.00  0.00     0.072 A 
ATOM     16  N   UNL A   1      33.876  18.745  24.126  1.00  0.00    -0.258 N 
ATOM     17  C   UNL A   1      32.706  19.011  23.440  1.00  0.00     0.254 A 
ATOM     18  O   UNL A   1      32.008  18.185  22.861  1.00  0.00    -0.269 OA
BRANCH  16  19
ATOM     19  C   UNL A   1      34.346  17.380  24.113  1.00  0.00     0.451 C 
ATOM     20  F   UNL A   1      34.555  16.952  22.844  1.00  0.00    -0.185 F 
ATOM     21  F   UNL A   1      35.508  17.243  24.799  1.00  0.00    -0.185 F 
ENDBRANCH  16  19
ENDBRANCH  10  12
ENDBRANCH   8  10
ENDBRANCH   7   8
ENDBRANCH   6   7
ENDBRANCH   5   6
ENDBRANCH   4   5
ENDBRANCH   3   4
ENDBRANCH   2   3
ENDBRANCH   1   2
BRANCH   1  22
ATOM     22  C   UNL A   1      31.107  29.000  22.656  1.00  0.00     0.188 C 
BRANCH  22  23
ATOM     23  C   UNL A   1      30.793  29.280  24.140  1.00  0.00     0.188 C 
BRANCH  23  24
ATOM     24  O   UNL A   1      31.922  29.203  25.005  1.00  0.00    -0.376 OA
BRANCH  24  25
ATOM     25  C   UNL A   1      31.980  28.160  25.969  1.00  0.00     0.202 C 
BRANCH  25  26
ATOM     26  C   UNL A   1      33.299  27.999  26.742  1.00  0.00     0.261 C 
BRANCH  26  27
ATOM     27  O   UNL A   1      34.311  28.982  26.480  1.00  0.00    -0.460 OA
BRANCH  27  28
ATOM     28  C   UNL A   1      34.471  29.976  27.386  1.00  0.00     0.338 C 
ATOM     29  O   UNL A   1      33.631  30.746  27.790  1.00  0.00    -0.246 OA
BRANCH  28  30
ATOM     30  C   UNL A   1      35.824  29.824  27.967  1.00  0.00     0.060 A 
ATOM     31  C   UNL A   1      36.938  30.075  27.155  1.00  0.00     0.016 A 
ATOM     32  C   UNL A   1      35.989  29.459  29.304  1.00  0.00     0.016 A 
ATOM     33  C   UNL A   1      38.225  29.930  27.671  1.00  0.00     0.010 A 
ATOM     34  C   UNL A   1      37.278  29.286  29.812  1.00  0.00     0.010 A 
ATOM     35  C   UNL A   1      38.399  29.487  28.988  1.00  0.00    -0.014 A 
BRANCH  35  36
ATOM     36  C   UNL A   1      39.734  29.018  29.428  1.00  0.00     0.031 A 
ATOM     37  C   UNL A   1      40.502  29.882  30.390  1.00  0.00     0.074 A 
ATOM     38  C   UNL A   1      40.244  27.847  29.009  1.00  0.00     0.049 A 
ATOM     39  N   UNL A   1      41.705  29.722  30.880  1.00  0.00    -0.248 NA
ATOM     40  C   UNL A   1      39.817  31.098  30.860  1.00  0.00     0.031 C 
ATOM     41  C   UNL A   1      39.574  26.901  28.123  1.00  0.00     0.029 A 
ATOM     42  N   UNL A   1      41.457  27.262  29.276  1.00  0.00    -0.354 N 
ATOM     43  C   UNL A   1      41.922  30.818  31.704  1.00  0.00     0.074 A 
ATOM     44  C   UNL A   1      40.743  31.652  31.627  1.00  0.00     0.031 C 
ATOM     45  C   UNL A   1      40.391  25.855  27.906  1.00  0.00     0.029 A 
ATOM     46  C   UNL A   1      41.654  26.077  28.609  1.00  0.00     0.049 A 
ATOM     47  H   UNL A   1      42.123  27.654  29.885  1.00  0.00     0.167 HD
ATOM     48  C   UNL A   1      43.007  31.100  32.462  1.00  0.00     0.037 A 
ATOM     49  C   UNL A   1      42.741  25.282  28.559  1.00  0.00     0.037 A 
ATOM     50  C   UNL A   1      44.178  30.268  32.534  1.00  0.00     0.049 A 
ATOM     51  C   UNL A   1      43.971  25.664  29.347  1.00  0.00     0.074 A 
ATOM     52  C   UNL A   1      45.323  30.454  33.287  1.00  0.00     0.029 A 
ATOM     53  N   UNL A   1      44.357  29.095  31.815  1.00  0.00    -0.354 N 
ATOM     54  N   UNL A   1      44.163  26.687  30.145  1.00  0.00    -0.248 NA
ATOM     55  C   UNL A   1      45.138  24.777  29.224  1.00  0.00     0.031 C 
ATOM     56  C   UNL A   1      46.222  29.430  32.972  1.00  0.00     0.029 A 
ATOM     57  C   UNL A   1      45.609  28.565  32.079  1.00  0.00     0.049 A 
ATOM     58  H   UNL A   1      43.692  28.699  31.205  1.00  0.00     0.167 HD
ATOM     59  C   UNL A   1      45.452  26.545  30.648  1.00  0.00     0.074 A 
ATOM     60  C   UNL A   1      45.991  25.331  30.073  1.00  0.00     0.031 C 
ATOM     61  C   UNL A   1      46.127  27.347  31.509  1.00  0.00     0.037 A 
BRANCH  48  62
ATOM     62  C   UNL A   1      42.995  32.383  33.243  1.00  0.00     0.064 A 
ATOM     63  C   UNL A   1      43.466  33.588  32.701  1.00  0.00     0.173 A 
ATOM     64  C   UNL A   1      42.477  32.409  34.547  1.00  0.00     0.173 A 
ATOM     65  F   UNL A   1      43.988  33.615  31.466  1.00  0.00    -0.203 F 
ATOM     66  C   UNL A   1      43.442  34.766  33.445  1.00  0.00     0.198 A 
ATOM     67  C   UNL A   1      42.423  33.594  35.275  1.00  0.00     0.198 A 
ATOM     68  F   UNL A   1      42.015  31.284  35.114  1.00  0.00    -0.203 F 
ATOM     69  F   UNL A   1      43.945  35.894  32.926  1.00  0.00    -0.200 F 
ATOM     70  C   UNL A   1      42.914  34.769  34.727  1.00  0.00     0.200 A 
ATOM     71  F   UNL A   1      41.900  33.598  36.509  1.00  0.00    -0.200 F 
ATOM     72  F   UNL A   1      42.883  35.905  35.438  1.00  0.00    -0.200 F 
ENDBRANCH  48  62
BRANCH  49  73
ATOM     73  C   UNL A   1      42.731  24.050  27.724  1.00  0.00     0.064 A 
ATOM     74  C   UNL A   1      43.019  24.101  26.353  1.00  0.00     0.173 A 
ATOM     75  C   UNL A   1      42.396  22.801  28.271  1.00  0.00     0.173 A 
ATOM     76  F   UNL A   1      43.318  25.275  25.776  1.00  0.00    -0.203 F 
ATOM     77  C   UNL A   1      42.949  22.959  25.557  1.00  0.00     0.198 A 
ATOM     78  C   UNL A   1      42.359  21.655  27.480  1.00  0.00     0.198 A 
ATOM     79  F   UNL A   1      42.107  22.694  29.576  1.00  0.00    -0.203 F 
ATOM     80  F   UNL A   1      43.173  23.049  24.239  1.00  0.00    -0.200 F 
ATOM     81  C   UNL A   1      42.625  21.736  26.123  1.00  0.00     0.200 A 
ATOM     82  F   UNL A   1      42.058  20.472  28.034  1.00  0.00    -0.200 F 
ATOM     83  F   UNL A   1      42.559  20.638  25.358  1.00  0.00    -0.200 F 
ENDBRANCH  49  73
BRANCH  61  84
ATOM     84  C   UNL A   1      47.504  26.914  31.927  1.00  0.00     0.064 A 
ATOM     85  C   UNL A   1      48.656  27.348  31.254  1.00  0.00     0.173 A 
ATOM     86  C   UNL A   1      47.676  26.089  33.051  1.00  0.00     0.173 A 
ATOM     87  F   UNL A   1      48.550  28.127  30.167  1.00  0.00    -0.203 F 
ATOM     88  C   UNL A   1      49.923  26.947  31.670  1.00  0.00     0.198 A 
ATOM     89  C   UNL A   1      48.945  25.721  33.487  1.00  0.00     0.198 A 
ATOM     90  F   UNL A   1      46.609  25.654  33.739  1.00  0.00    -0.203 F 
ATOM     91  F   UNL A   1      51.005  27.328  30.977  1.00  0.00    -0.200 F 
ATOM     92  C   UNL A   1      50.068  26.142  32.790  1.00  0.00     0.200 A 
ATOM     93  F   UNL A   1      49.082  24.960  34.581  1.00  0.00    -0.200 F 
ATOM     94  F   UNL A   1      51.288  25.766  33.196  1.00  0.00    -0.200 F 
ENDBRANCH  61  84
ENDBRANCH  35  36
ENDBRANCH  28  30
ENDBRANCH  27  28
ENDBRANCH  26  27
ENDBRANCH  25  26
ENDBRANCH  24  25
ENDBRANCH  23  24
ENDBRANCH  22  23
ENDBRANCH   1  22
TORSDOF 22
ENDMDL
MODEL 3
REMARK VINA RESULT:      -9.4      3.968      6.359
REMARK SMILES C[C@@H](C(=O)OCCOCCOCCOCCOC(=O)c1ccc(-c2c3nc(c(-c4c(F)c(F)c(F)c(F)c4F)c4ccc([nH]4)c(-c4c(F)c(F)c(F)c(F)c4F)c4nc(c(-c5c(F)c(F)c(F)c(F)c5F)c5ccc2[nH]5)C=C4)C=C3)cc1)c1ccc(=O)n(C(F)F)c1
REMARK SMILES IDX 11 1 10 2 9 3 8 4 7 5 6 6 5 7 3 8 4 9 2 10 1 11 83 12 84 13
REMARK SMILES IDX 92 14 85 15 88 16 86 17 87 18 89 19 90 20 91 21 12 22 13 23
REMARK SMILES IDX 14 24 15 25 16 26 17 27 18 28 19 29 20 30 21 31 82 32 22 33
REMARK SMILES IDX 81 34 23 35 24 36 25 37 75 38 26 39 80 40 74 41 76 42 27 43
REMARK SMILES IDX 79 44 73 45 72 46 28 48 60 49 40 50 59 51 41 52 44 53 58 54
REMARK SMILES IDX 77 55 42 56 43 57 57 59 78 60 45 61 29 62 30 63 38 64 31 65
REMARK SMILES IDX 32 66 36 67 39 68 33 69 34 70 37 71 35 72 61 73 62 74 70 75
REMARK SMILES IDX 63 76 64 77 68 78 71 79 65 80 66 81 69 82 67 83 46 84 47 85
REMARK SMILES IDX 55 86 48 87 49 88 53 89 56 90 50 91 51 92 54 93 52 94
REMARK H PARENT 76 47 44 58
REMARK Flexibility Score: inf
ROOT
ATOM      1  O   UNL A   1      30.621  27.888  22.078  1.00  0.00    -0.377 OA
ENDROOT
BRANCH   1   2
ATOM      2  C   UNL A   1      30.692  26.658  22.765  1.00  0.00     0.188 C 
BRANCH   2   3
ATOM      3  C   UNL A   1      31.794  25.705  22.259  1.00  0.00     0.188 C 
BRANCH   3   4
ATOM      4  O   UNL A   1      31.804  24.363  22.700  1.00  0.00    -0.376 OA
BRANCH   4   5
ATOM      5  C   UNL A   1      30.763  23.876  23.531  1.00  0.00     0.202 C 
BRANCH   5   6
ATOM      6  C   UNL A   1      30.921  23.606  25.045  1.00  0.00     0.261 C 
BRANCH   6   7
ATOM      7  O   UNL A   1      32.225  23.746  25.640  1.00  0.00    -0.463 OA
BRANCH   7   8
ATOM      8  C   UNL A   1      32.887  22.601  25.955  1.00  0.00     0.313 C 
ATOM      9  O   UNL A   1      32.891  22.109  27.079  1.00  0.00    -0.252 OA
BRANCH   8  10
ATOM     10  C   UNL A   1      33.647  21.969  24.766  1.00  0.00     0.127 C 
ATOM     11  C   UNL A   1      33.078  20.695  24.127  1.00  0.00     0.025 C 
BRANCH  10  12
ATOM     12  C   UNL A   1      35.139  21.840  25.097  1.00  0.00    -0.017 A 
ATOM     13  C   UNL A   1      35.773  20.575  24.778  1.00  0.00     0.012 A 
ATOM     14  C   UNL A   1      35.912  22.799  25.644  1.00  0.00     0.099 A 
ATOM     15  C   UNL A   1      37.078  20.375  25.001  1.00  0.00     0.072 A 
ATOM     16  N   UNL A   1      37.275  22.641  25.840  1.00  0.00    -0.258 N 
ATOM     17  C   UNL A   1      37.930  21.453  25.569  1.00  0.00     0.254 A 
ATOM     18  O   UNL A   1      39.120  21.228  25.760  1.00  0.00    -0.269 OA
BRANCH  16  19
ATOM     19  C   UNL A   1      38.080  23.730  26.343  1.00  0.00     0.451 C 
ATOM     20  F   UNL A   1      38.890  24.222  25.374  1.00  0.00    -0.185 F 
ATOM     21  F   UNL A   1      37.312  24.747  26.805  1.00  0.00    -0.185 F 
ENDBRANCH  16  19
ENDBRANCH  10  12
ENDBRANCH   8  10
ENDBRANCH   7   8
ENDBRANCH   6   7
ENDBRANCH   5   6
ENDBRANCH   4   5
ENDBRANCH   3   4
ENDBRANCH   2   3
ENDBRANCH   1   2
BRANCH   1  22
ATOM     22  C   UNL A   1      31.216  29.005  22.719  1.00  0.00     0.188 C 
BRANCH  22  23
ATOM     23  C   UNL A   1      30.740  29.397  24.133  1.00  0.00     0.188 C 
BRANCH  23  24
ATOM     24  O   UNL A   1      31.773  29.426  25.114  1.00  0.00    -0.376 OA
BRANCH  24  25
ATOM     25  C   UNL A   1      31.907  28.327  26.004  1.00  0.00     0.202 C 
BRANCH  25  26
ATOM     26  C   UNL A   1      33.266  28.158  26.703  1.00  0.00     0.261 C 
BRANCH  26  27
ATOM     27  O   UNL A   1      34.256  29.155  26.413  1.00  0.00    -0.460 OA
BRANCH  27  28
ATOM     28  C   UNL A   1      34.417  30.159  27.307  1.00  0.00     0.338 C 
ATOM     29  O   UNL A   1      33.599  30.984  27.643  1.00  0.00    -0.246 OA
BRANCH  28  30
ATOM     30  C   UNL A   1      35.721  29.945  27.974  1.00  0.00     0.060 A 
ATOM     31  C   UNL A   1      36.895  30.192  27.251  1.00  0.00     0.016 A 
ATOM     32  C   UNL A   1      35.782  29.527  29.304  1.00  0.00     0.016 A 
ATOM     33  C   UNL A   1      38.139  29.990  27.849  1.00  0.00     0.010 A 
ATOM     34  C   UNL A   1      37.027  29.297  29.893  1.00  0.00     0.010 A 
ATOM     35  C   UNL A   1      38.208  29.494  29.156  1.00  0.00    -0.014 A 
BRANCH  35  36
ATOM     36  C   UNL A   1      39.495  28.968  29.669  1.00  0.00     0.031 A 
ATOM     37  C   UNL A   1      40.171  29.723  30.781  1.00  0.00     0.074 A 
ATOM     38  C   UNL A   1      40.041  27.840  29.184  1.00  0.00     0.049 A 
ATOM     39  N   UNL A   1      41.322  29.502  31.362  1.00  0.00    -0.248 NA
ATOM     40  C   UNL A   1      39.447  30.893  31.305  1.00  0.00     0.031 C 
ATOM     41  C   UNL A   1      39.456  26.995  28.148  1.00  0.00     0.029 A 
ATOM     42  N   UNL A   1      41.223  27.218  29.501  1.00  0.00    -0.354 N 
ATOM     43  C   UNL A   1      41.463  30.508  32.308  1.00  0.00     0.074 A 
ATOM     44  C   UNL A   1      40.298  31.358  32.207  1.00  0.00     0.031 C 
ATOM     45  C   UNL A   1      40.288  25.967  27.904  1.00  0.00     0.029 A 
ATOM     46  C   UNL A   1      41.480  26.104  28.740  1.00  0.00     0.049 A 
ATOM     47  H   UNL A   1      41.829  27.540  30.206  1.00  0.00     0.167 HD
ATOM     48  C   UNL A   1      42.473  30.701  33.188  1.00  0.00     0.037 A 
ATOM     49  C   UNL A   1      42.566  25.307  28.711  1.00  0.00     0.037 A 
ATOM     50  C   UNL A   1      43.631  29.853  33.285  1.00  0.00     0.049 A 
ATOM     51  C   UNL A   1      43.717  25.595  29.644  1.00  0.00     0.074 A 
ATOM     52  C   UNL A   1      44.701  29.950  34.156  1.00  0.00     0.029 A 
ATOM     53  N   UNL A   1      43.875  28.756  32.471  1.00  0.00    -0.354 N 
ATOM     54  N   UNL A   1      43.835  26.530  30.556  1.00  0.00    -0.248 NA
ATOM     55  C   UNL A   1      44.889  24.712  29.541  1.00  0.00     0.031 C 
ATOM     56  C   UNL A   1      45.624  28.954  33.824  1.00  0.00     0.029 A 
ATOM     57  C   UNL A   1      45.096  28.189  32.796  1.00  0.00     0.049 A 
ATOM     58  H   UNL A   1      43.270  28.431  31.765  1.00  0.00     0.167 HD
ATOM     59  C   UNL A   1      45.071  26.325  31.159  1.00  0.00     0.074 A 
ATOM     60  C   UNL A   1      45.660  25.170  30.518  1.00  0.00     0.031 C 
ATOM     61  C   UNL A   1      45.664  27.029  32.156  1.00  0.00     0.037 A 
BRANCH  48  62
ATOM     62  C   UNL A   1      42.389  31.899  34.090  1.00  0.00     0.064 A 
ATOM     63  C   UNL A   1      41.810  31.829  35.366  1.00  0.00     0.173 A 
ATOM     64  C   UNL A   1      42.923  33.130  33.680  1.00  0.00     0.173 A 
ATOM     65  F   UNL A   1      41.269  30.682  35.801  1.00  0.00    -0.203 F 
ATOM     66  C   UNL A   1      41.747  32.954  36.187  1.00  0.00     0.198 A 
ATOM     67  C   UNL A   1      42.888  34.242  34.515  1.00  0.00     0.198 A 
ATOM     68  F   UNL A   1      43.488  33.252  32.468  1.00  0.00    -0.203 F 
ATOM     69  F   UNL A   1      41.142  32.876  37.380  1.00  0.00    -0.200 F 
ATOM     70  C   UNL A   1      42.292  34.156  35.764  1.00  0.00     0.200 A 
ATOM     71  F   UNL A   1      43.429  35.401  34.109  1.00  0.00    -0.200 F 
ATOM     72  F   UNL A   1      42.238  35.235  36.557  1.00  0.00    -0.200 F 
ENDBRANCH  48  62
BRANCH  49  73
ATOM     73  C   UNL A   1      42.633  24.165  27.759  1.00  0.00     0.064 A 
ATOM     74  C   UNL A   1      42.351  22.857  28.175  1.00  0.00     0.173 A 
ATOM     75  C   UNL A   1      43.017  24.353  26.421  1.00  0.00     0.173 A 
ATOM     76  F   UNL A   1      42.007  22.620  29.450  1.00  0.00    -0.203 F 
ATOM     77  C   UNL A   1      42.473  21.778  27.300  1.00  0.00     0.198 A 
ATOM     78  C   UNL A   1      43.106  23.278  25.539  1.00  0.00     0.198 A 
ATOM     79  F   UNL A   1      43.302  25.583  25.970  1.00  0.00    -0.203 F 
ATOM     80  F   UNL A   1      42.253  20.532  27.741  1.00  0.00    -0.200 F 
ATOM     81  C   UNL A   1      42.845  21.991  25.981  1.00  0.00     0.200 A 
ATOM     82  F   UNL A   1      43.454  23.491  24.262  1.00  0.00    -0.200 F 
ATOM     83  F   UNL A   1      42.962  20.955  25.140  1.00  0.00    -0.200 F 
ENDBRANCH  49  73
BRANCH  61  84
ATOM     84  C   UNL A   1      46.995  26.542  32.654  1.00  0.00     0.064 A 
ATOM     85  C   UNL A   1      48.204  27.097  32.208  1.00  0.00     0.173 A 
ATOM     86  C   UNL A   1      47.059  25.535  33.631  1.00  0.00     0.173 A 
ATOM     87  F   UNL A   1      48.202  28.054  31.267  1.00  0.00    -0.203 F 
ATOM     88  C   UNL A   1      49.426  26.640  32.697  1.00  0.00     0.198 A 
ATOM     89  C   UNL A   1      48.280  25.108  34.145  1.00  0.00     0.198 A 
ATOM     90  F   UNL A   1      45.933  24.977  34.102  1.00  0.00    -0.203 F 
ATOM     91  F   UNL A   1      50.569  27.147  32.215  1.00  0.00    -0.200 F 
ATOM     92  C   UNL A   1      49.463  25.654  33.671  1.00  0.00     0.200 A 
ATOM     93  F   UNL A   1      48.311  24.168  35.100  1.00  0.00    -0.200 F 
ATOM     94  F   UNL A   1      50.639  25.223  34.148  1.00  0.00    -0.200 F 
ENDBRANCH  61  84
ENDBRANCH  35  36
ENDBRANCH  28  30
ENDBRANCH  27  28
ENDBRANCH  26  27
ENDBRANCH  25  26
ENDBRANCH  24  25
ENDBRANCH  23  24
ENDBRANCH  22  23
ENDBRANCH   1  22
TORSDOF 22
ENDMDL
