MODEL 1
REMARK VINA RESULT:      -9.9      0.000      0.000
REMARK SMILES CC[C@@](CC(F)(F)F)(C(=O)OCCOCCOCCOCCOC(=O)c1ccc(-c2c3nc(c(-c4c(F)c(F)c(F)c(F)c4F)c4ccc([nH]4)c(-c4c(F)c(F)c(F)c(F)c4F)c4nc(c(-c5c(F)c(F)c(F)c(F)c5F)c5ccc2[nH]5)C=C4)C=C3)cc1)c1ccccc1
REMARK SMILES IDX 17 1 16 2 15 3 14 4 13 5 12 6 11 7 9 8 10 9 3 10 2 11 1 12
REMARK SMILES IDX 4 13 5 14 6 15 7 16 8 17 89 18 90 19 94 20 91 21 93 22 92 23
REMARK SMILES IDX 18 24 19 25 20 26 21 27 22 28 23 29 24 30 25 31 26 32 27 33
REMARK SMILES IDX 88 34 28 35 87 36 29 37 30 38 31 39 81 40 32 41 86 42 80 43
REMARK SMILES IDX 82 44 33 45 85 46 79 47 78 48 34 50 66 51 46 52 65 53 47 54
REMARK SMILES IDX 50 55 64 56 83 57 48 58 49 59 63 61 84 62 51 63 35 64 36 65
REMARK SMILES IDX 44 66 37 67 38 68 42 69 45 70 39 71 40 72 43 73 41 74 67 75
REMARK SMILES IDX 68 76 76 77 69 78 70 79 74 80 77 81 71 82 72 83 75 84 73 85
REMARK SMILES IDX 52 86 53 87 61 88 54 89 55 90 59 91 62 92 56 93 57 94 60 95
REMARK SMILES IDX 58 96
REMARK H PARENT 82 49 50 60
REMARK Flexibility Score: inf
ROOT
ATOM      1  O   UNL A   1      34.806  33.876  27.633  1.00  0.00    -0.377 OA
ENDROOT
BRANCH   1   2
ATOM      2  C   UNL A   1      35.587  32.785  28.067  1.00  0.00     0.188 C 
BRANCH   2   3
ATOM      3  C   UNL A   1      34.821  31.489  28.382  1.00  0.00     0.188 C 
BRANCH   3   4
ATOM      4  O   UNL A   1      33.990  30.899  27.395  1.00  0.00    -0.376 OA
BRANCH   4   5
ATOM      5  C   UNL A   1      34.163  29.539  27.032  1.00  0.00     0.202 C 
BRANCH   5   6
ATOM      6  C   UNL A   1      33.008  28.518  27.104  1.00  0.00     0.261 C 
BRANCH   6   7
ATOM      7  O   UNL A   1      33.047  27.384  26.210  1.00  0.00    -0.463 OA
BRANCH   7   8
ATOM      8  C   UNL A   1      31.890  26.691  26.095  1.00  0.00     0.316 C 
ATOM      9  O   UNL A   1      31.031  26.677  26.976  1.00  0.00    -0.251 OA
BRANCH   8  10
ATOM     10  C   UNL A   1      31.760  25.809  24.804  1.00  0.00     0.101 C 
BRANCH  10  11
ATOM     11  C   UNL A   1      30.365  25.664  24.098  1.00  0.00     0.020 C 
ATOM     12  C   UNL A   1      29.712  26.990  23.682  1.00  0.00     0.005 C 
ENDBRANCH  10  11
BRANCH  10  13
ATOM     13  C   UNL A   1      32.749  26.525  23.828  1.00  0.00     0.139 C 
BRANCH  13  14
ATOM     14  C   UNL A   1      33.207  25.694  22.635  1.00  0.00     0.390 C 
ATOM     15  F   UNL A   1      34.180  24.820  22.956  1.00  0.00    -0.171 F 
ATOM     16  F   UNL A   1      32.167  24.968  22.160  1.00  0.00    -0.171 F 
ATOM     17  F   UNL A   1      33.651  26.449  21.611  1.00  0.00    -0.171 F 
ENDBRANCH  13  14
ENDBRANCH  10  13
BRANCH  10  18
ATOM     18  C   UNL A   1      32.216  24.380  25.256  1.00  0.00    -0.030 A 
ATOM     19  C   UNL A   1      31.419  23.245  24.970  1.00  0.00     0.005 A 
ATOM     20  C   UNL A   1      33.331  24.176  26.079  1.00  0.00     0.005 A 
ATOM     21  C   UNL A   1      31.701  21.985  25.503  1.00  0.00     0.000 A 
ATOM     22  C   UNL A   1      33.619  22.911  26.607  1.00  0.00     0.000 A 
ATOM     23  C   UNL A   1      32.802  21.820  26.328  1.00  0.00     0.000 A 
ENDBRANCH  10  18
ENDBRANCH   8  10
ENDBRANCH   7   8
ENDBRANCH   6   7
ENDBRANCH   5   6
ENDBRANCH   4   5
ENDBRANCH   3   4
ENDBRANCH   2   3
ENDBRANCH   1   2
BRANCH   1  24
ATOM     24  C   UNL A   1      33.576  34.088  28.299  1.00  0.00     0.188 C 
BRANCH  24  25
ATOM     25  C   UNL A   1      33.540  35.149  29.410  1.00  0.00     0.188 C 
BRANCH  25  26
ATOM     26  O   UNL A   1      33.379  34.612  30.717  1.00  0.00    -0.376 OA
BRANCH  26  27
ATOM     27  C   UNL A   1      34.530  34.341  31.504  1.00  0.00     0.202 C 
BRANCH  27  28
ATOM     28  C   UNL A   1      34.465  33.174  32.504  1.00  0.00     0.261 C 
BRANCH  28  29
ATOM     29  O   UNL A   1      35.317  32.047  32.245  1.00  0.00    -0.460 OA
BRANCH  29  30
ATOM     30  C   UNL A   1      36.418  31.889  33.006  1.00  0.00     0.338 C 
ATOM     31  O   UNL A   1      36.516  32.059  34.209  1.00  0.00    -0.246 OA
BRANCH  30  32
ATOM     32  C   UNL A   1      37.459  31.260  32.164  1.00  0.00     0.060 A 
ATOM     33  C   UNL A   1      38.622  30.774  32.776  1.00  0.00     0.016 A 
ATOM     34  C   UNL A   1      37.279  31.130  30.784  1.00  0.00     0.016 A 
ATOM     35  C   UNL A   1      39.627  30.190  32.006  1.00  0.00     0.010 A 
ATOM     36  C   UNL A   1      38.300  30.574  30.009  1.00  0.00     0.010 A 
ATOM     37  C   UNL A   1      39.492  30.136  30.613  1.00  0.00    -0.014 A 
BRANCH  37  38
ATOM     38  C   UNL A   1      40.682  29.841  29.778  1.00  0.00     0.031 A 
ATOM     39  C   UNL A   1      40.779  28.478  29.148  1.00  0.00     0.074 A 
ATOM     40  C   UNL A   1      41.635  30.761  29.556  1.00  0.00     0.049 A 
ATOM     41  N   UNL A   1      41.736  27.959  28.423  1.00  0.00    -0.248 NA
ATOM     42  C   UNL A   1      39.637  27.576  29.372  1.00  0.00     0.031 C 
ATOM     43  C   UNL A   1      41.625  32.131  30.065  1.00  0.00     0.029 A 
ATOM     44  N   UNL A   1      42.807  30.672  28.846  1.00  0.00    -0.354 N 
ATOM     45  C   UNL A   1      41.317  26.671  28.116  1.00  0.00     0.074 A 
ATOM     46  C   UNL A   1      40.035  26.475  28.755  1.00  0.00     0.031 C 
ATOM     47  C   UNL A   1      42.747  32.752  29.659  1.00  0.00     0.029 A 
ATOM     48  C   UNL A   1      43.568  31.813  28.896  1.00  0.00     0.049 A 
ATOM     49  H   UNL A   1      43.076  29.866  28.348  1.00  0.00     0.167 HD
ATOM     50  C   UNL A   1      41.944  25.737  27.362  1.00  0.00     0.037 A 
ATOM     51  C   UNL A   1      44.799  32.056  28.403  1.00  0.00     0.037 A 
ATOM     52  C   UNL A   1      43.220  25.938  26.730  1.00  0.00     0.049 A 
ATOM     53  C   UNL A   1      45.516  30.968  27.639  1.00  0.00     0.074 A 
ATOM     54  C   UNL A   1      43.933  25.064  25.930  1.00  0.00     0.029 A 
ATOM     55  N   UNL A   1      43.980  27.094  26.837  1.00  0.00    -0.354 N 
ATOM     56  N   UNL A   1      45.106  29.762  27.331  1.00  0.00    -0.248 NA
ATOM     57  C   UNL A   1      46.869  31.280  27.155  1.00  0.00     0.031 C 
ATOM     58  C   UNL A   1      45.153  25.663  25.608  1.00  0.00     0.029 A 
ATOM     59  C   UNL A   1      45.170  26.941  26.146  1.00  0.00     0.049 A 
ATOM     60  H   UNL A   1      43.713  27.902  27.331  1.00  0.00     0.167 HD
ATOM     61  C   UNL A   1      46.129  29.186  26.586  1.00  0.00     0.074 A 
ATOM     62  C   UNL A   1      47.175  30.181  26.481  1.00  0.00     0.031 C 
ATOM     63  C   UNL A   1      46.198  27.947  26.039  1.00  0.00     0.037 A 
BRANCH  50  64
ATOM     64  C   UNL A   1      41.276  24.401  27.214  1.00  0.00     0.064 A 
ATOM     65  C   UNL A   1      41.810  23.235  27.784  1.00  0.00     0.173 A 
ATOM     66  C   UNL A   1      40.065  24.292  26.512  1.00  0.00     0.173 A 
ATOM     67  F   UNL A   1      42.974  23.281  28.449  1.00  0.00    -0.203 F 
ATOM     68  C   UNL A   1      41.171  22.007  27.632  1.00  0.00     0.198 A 
ATOM     69  C   UNL A   1      39.412  23.069  26.393  1.00  0.00     0.198 A 
ATOM     70  F   UNL A   1      39.509  25.375  25.949  1.00  0.00    -0.203 F 
ATOM     71  F   UNL A   1      41.727  20.897  28.139  1.00  0.00    -0.200 F 
ATOM     72  C   UNL A   1      39.969  21.927  26.946  1.00  0.00     0.200 A 
ATOM     73  F   UNL A   1      38.244  22.996  25.740  1.00  0.00    -0.200 F 
ATOM     74  F   UNL A   1      39.351  20.745  26.809  1.00  0.00    -0.200 F 
ENDBRANCH  50  64
BRANCH  51  75
ATOM     75  C   UNL A   1      45.448  33.376  28.625  1.00  0.00     0.064 A 
ATOM     76  C   UNL A   1      45.179  34.467  27.786  1.00  0.00     0.173 A 
ATOM     77  C   UNL A   1      46.380  33.566  29.657  1.00  0.00     0.173 A 
ATOM     78  F   UNL A   1      44.318  34.330  26.766  1.00  0.00    -0.203 F 
ATOM     79  C   UNL A   1      45.831  35.687  27.955  1.00  0.00     0.198 A 
ATOM     80  C   UNL A   1      47.007  34.797  29.846  1.00  0.00     0.198 A 
ATOM     81  F   UNL A   1      46.681  32.556  30.486  1.00  0.00    -0.203 F 
ATOM     82  F   UNL A   1      45.597  36.694  27.102  1.00  0.00    -0.200 F 
ATOM     83  C   UNL A   1      46.740  35.853  28.989  1.00  0.00     0.200 A 
ATOM     84  F   UNL A   1      47.877  34.954  30.853  1.00  0.00    -0.200 F 
ATOM     85  F   UNL A   1      47.368  37.025  29.150  1.00  0.00    -0.200 F 
ENDBRANCH  51  75
BRANCH  63  86
ATOM     86  C   UNL A   1      47.420  27.610  25.230  1.00  0.00     0.064 A 
ATOM     87  C   UNL A   1      47.461  27.785  23.839  1.00  0.00     0.173 A 
ATOM     88  C   UNL A   1      48.585  27.152  25.867  1.00  0.00     0.173 A 
ATOM     89  F   UNL A   1      46.373  28.210  23.179  1.00  0.00    -0.203 F 
ATOM     90  C   UNL A   1      48.611  27.481  23.112  1.00  0.00     0.198 A 
ATOM     91  C   UNL A   1      49.743  26.886  25.143  1.00  0.00     0.198 A 
ATOM     92  F   UNL A   1      48.605  26.978  27.197  1.00  0.00    -0.203 F 
ATOM     93  F   UNL A   1      48.609  27.604  21.778  1.00  0.00    -0.200 F 
ATOM     94  C   UNL A   1      49.753  27.042  23.766  1.00  0.00     0.200 A 
ATOM     95  F   UNL A   1      50.851  26.481  25.779  1.00  0.00    -0.200 F 
ATOM     96  F   UNL A   1      50.860  26.762  23.066  1.00  0.00    -0.200 F 
ENDBRANCH  63  86
ENDBRANCH  37  38
ENDBRANCH  30  32
ENDBRANCH  29  30
ENDBRANCH  28  29
ENDBRANCH  27  28
ENDBRANCH  26  27
ENDBRANCH  25  26
ENDBRANCH  24  25
ENDBRANCH   1  24
TORSDOF 24
ENDMDL
MODEL 2
REMARK VINA RESULT:      -9.9      4.408      8.816
REMARK SMILES CC[C@@](CC(F)(F)F)(C(=O)OCCOCCOCCOCCOC(=O)c1ccc(-c2c3nc(c(-c4c(F)c(F)c(F)c(F)c4F)c4ccc([nH]4)c(-c4c(F)c(F)c(F)c(F)c4F)c4nc(c(-c5c(F)c(F)c(F)c(F)c5F)c5ccc2[nH]5)C=C4)C=C3)cc1)c1ccccc1
REMARK SMILES IDX 17 1 16 2 15 3 14 4 13 5 12 6 11 7 9 8 10 9 3 10 2 11 1 12
REMARK SMILES IDX 4 13 5 14 6 15 7 16 8 17 89 18 90 19 94 20 91 21 93 22 92 23
REMARK SMILES IDX 18 24 19 25 20 26 21 27 22 28 23 29 24 30 25 31 26 32 27 33
REMARK SMILES IDX 88 34 28 35 87 36 29 37 30 38 31 39 81 40 32 41 86 42 80 43
REMARK SMILES IDX 82 44 33 45 85 46 79 47 78 48 34 50 66 51 46 52 65 53 47 54
REMARK SMILES IDX 50 55 64 56 83 57 48 58 49 59 63 61 84 62 51 63 35 64 36 65
REMARK SMILES IDX 44 66 37 67 38 68 42 69 45 70 39 71 40 72 43 73 41 74 67 75
REMARK SMILES IDX 68 76 76 77 69 78 70 79 74 80 77 81 71 82 72 83 75 84 73 85
REMARK SMILES IDX 52 86 53 87 61 88 54 89 55 90 59 91 62 92 56 93 57 94 60 95
REMARK SMILES IDX 58 96
REMARK H PARENT 82 49 50 60
REMARK Flexibility Score: inf
ROOT
ATOM      1  O   UNL A   1      32.446  27.825  25.229  1.00  0.00    -0.377 OA
ENDROOT
BRANCH   1   2
ATOM      2  C   UNL A   1      31.421  27.057  24.639  1.00  0.00     0.188 C 
BRANCH   2   3
ATOM      3  C   UNL A   1      30.276  26.629  25.572  1.00  0.00     0.188 C 
BRANCH   3   4
ATOM      4  O   UNL A   1      30.451  25.531  26.452  1.00  0.00    -0.376 OA
BRANCH   4   5
ATOM      5  C   UNL A   1      30.901  24.280  25.957  1.00  0.00     0.202 C 
BRANCH   5   6
ATOM      6  C   UNL A   1      31.307  23.125  26.896  1.00  0.00     0.261 C 
BRANCH   6   7
ATOM      7  O   UNL A   1      32.080  22.038  26.341  1.00  0.00    -0.463 OA
BRANCH   7   8
ATOM      8  C   UNL A   1      33.424  22.172  26.430  1.00  0.00     0.316 C 
ATOM      9  O   UNL A   1      33.980  22.680  27.402  1.00  0.00    -0.251 OA
BRANCH   8  10
ATOM     10  C   UNL A   1      34.229  21.740  25.154  1.00  0.00     0.101 C 
BRANCH  10  11
ATOM     11  C   UNL A   1      34.388  20.216  24.815  1.00  0.00     0.020 C 
ATOM     12  C   UNL A   1      33.131  19.547  24.242  1.00  0.00     0.005 C 
ENDBRANCH  10  11
BRANCH  10  13
ATOM     13  C   UNL A   1      33.412  22.430  24.013  1.00  0.00     0.139 C 
BRANCH  13  14
ATOM     14  C   UNL A   1      34.245  23.090  22.920  1.00  0.00     0.390 C 
ATOM     15  F   UNL A   1      34.524  24.379  23.189  1.00  0.00    -0.171 F 
ATOM     16  F   UNL A   1      35.430  22.447  22.801  1.00  0.00    -0.171 F 
ATOM     17  F   UNL A   1      33.654  23.037  21.710  1.00  0.00    -0.171 F 
ENDBRANCH  13  14
ENDBRANCH  10  13
BRANCH  10  18
ATOM     18  C   UNL A   1      35.663  22.332  25.373  1.00  0.00    -0.030 A 
ATOM     19  C   UNL A   1      36.806  21.502  25.284  1.00  0.00     0.005 A 
ATOM     20  C   UNL A   1      35.870  23.647  25.811  1.00  0.00     0.005 A 
ATOM     21  C   UNL A   1      38.080  21.951  25.640  1.00  0.00     0.000 A 
ATOM     22  C   UNL A   1      37.148  24.100  26.161  1.00  0.00     0.000 A 
ATOM     23  C   UNL A   1      38.249  23.252  26.086  1.00  0.00     0.000 A 
ENDBRANCH  10  18
ENDBRANCH   8  10
ENDBRANCH   7   8
ENDBRANCH   6   7
ENDBRANCH   5   6
ENDBRANCH   4   5
ENDBRANCH   3   4
ENDBRANCH   2   3
ENDBRANCH   1   2
BRANCH   1  24
ATOM     24  C   UNL A   1      32.297  29.232  25.186  1.00  0.00     0.188 C 
BRANCH  24  25
ATOM     25  C   UNL A   1      33.044  30.060  26.244  1.00  0.00     0.188 C 
BRANCH  25  26
ATOM     26  O   UNL A   1      32.187  30.762  27.137  1.00  0.00    -0.376 OA
BRANCH  26  27
ATOM     27  C   UNL A   1      31.497  31.915  26.676  1.00  0.00     0.202 C 
BRANCH  27  28
ATOM     28  C   UNL A   1      32.164  33.286  26.878  1.00  0.00     0.261 C 
BRANCH  28  29
ATOM     29  O   UNL A   1      32.635  33.592  28.200  1.00  0.00    -0.460 OA
BRANCH  29  30
ATOM     30  C   UNL A   1      33.733  34.363  28.326  1.00  0.00     0.338 C 
ATOM     31  O   UNL A   1      33.784  35.581  28.334  1.00  0.00    -0.246 OA
BRANCH  30  32
ATOM     32  C   UNL A   1      34.866  33.477  28.672  1.00  0.00     0.060 A 
ATOM     33  C   UNL A   1      34.596  32.216  29.222  1.00  0.00     0.016 A 
ATOM     34  C   UNL A   1      36.183  33.877  28.435  1.00  0.00     0.016 A 
ATOM     35  C   UNL A   1      35.643  31.366  29.572  1.00  0.00     0.010 A 
ATOM     36  C   UNL A   1      37.233  33.036  28.816  1.00  0.00     0.010 A 
ATOM     37  C   UNL A   1      36.967  31.795  29.419  1.00  0.00    -0.014 A 
BRANCH  37  38
ATOM     38  C   UNL A   1      38.056  31.052  30.099  1.00  0.00     0.031 A 
ATOM     39  C   UNL A   1      38.305  31.344  31.554  1.00  0.00     0.074 A 
ATOM     40  C   UNL A   1      38.785  30.123  29.459  1.00  0.00     0.049 A 
ATOM     41  N   UNL A   1      39.224  30.872  32.356  1.00  0.00    -0.248 NA
ATOM     42  C   UNL A   1      37.389  32.307  32.189  1.00  0.00     0.031 C 
ATOM     43  C   UNL A   1      38.602  29.713  28.069  1.00  0.00     0.029 A 
ATOM     44  N   UNL A   1      39.837  29.360  29.901  1.00  0.00    -0.354 N 
ATOM     45  C   UNL A   1      39.004  31.487  33.581  1.00  0.00     0.074 A 
ATOM     46  C   UNL A   1      37.886  32.388  33.413  1.00  0.00     0.031 C 
ATOM     47  C   UNL A   1      39.522  28.779  27.767  1.00  0.00     0.029 A 
ATOM     48  C   UNL A   1      40.379  28.555  28.930  1.00  0.00     0.049 A 
ATOM     49  H   UNL A   1      40.172  29.388  30.827  1.00  0.00     0.167 HD
ATOM     50  C   UNL A   1      39.672  31.311  34.746  1.00  0.00     0.037 A 
ATOM     51  C   UNL A   1      41.461  27.751  28.975  1.00  0.00     0.037 A 
ATOM     52  C   UNL A   1      40.785  30.414  34.907  1.00  0.00     0.049 A 
ATOM     53  C   UNL A   1      42.242  27.638  30.262  1.00  0.00     0.074 A 
ATOM     54  C   UNL A   1      41.519  30.148  36.047  1.00  0.00     0.029 A 
ATOM     55  N   UNL A   1      41.332  29.644  33.889  1.00  0.00    -0.354 N 
ATOM     56  N   UNL A   1      42.016  28.202  31.424  1.00  0.00    -0.248 NA
ATOM     57  C   UNL A   1      43.432  26.773  30.241  1.00  0.00     0.031 C 
ATOM     58  C   UNL A   1      42.552  29.269  35.706  1.00  0.00     0.029 A 
ATOM     59  C   UNL A   1      42.416  28.929  34.369  1.00  0.00     0.049 A 
ATOM     60  H   UNL A   1      40.997  29.612  32.964  1.00  0.00     0.167 HD
ATOM     61  C   UNL A   1      43.008  27.732  32.279  1.00  0.00     0.074 A 
ATOM     62  C   UNL A   1      43.830  26.829  31.503  1.00  0.00     0.031 C 
ATOM     63  C   UNL A   1      43.218  28.022  33.587  1.00  0.00     0.037 A 
BRANCH  50  64
ATOM     64  C   UNL A   1      39.242  32.134  35.925  1.00  0.00     0.064 A 
ATOM     65  C   UNL A   1      38.332  31.651  36.876  1.00  0.00     0.173 A 
ATOM     66  C   UNL A   1      39.773  33.420  36.119  1.00  0.00     0.173 A 
ATOM     67  F   UNL A   1      37.781  30.437  36.729  1.00  0.00    -0.203 F 
ATOM     68  C   UNL A   1      37.948  32.434  37.963  1.00  0.00     0.198 A 
ATOM     69  C   UNL A   1      39.413  34.186  37.224  1.00  0.00     0.198 A 
ATOM     70  F   UNL A   1      40.648  33.930  35.239  1.00  0.00    -0.203 F 
ATOM     71  F   UNL A   1      37.036  31.973  38.831  1.00  0.00    -0.200 F 
ATOM     72  C   UNL A   1      38.496  33.696  38.140  1.00  0.00     0.200 A 
ATOM     73  F   UNL A   1      39.954  35.398  37.400  1.00  0.00    -0.200 F 
ATOM     74  F   UNL A   1      38.132  34.444  39.191  1.00  0.00    -0.200 F 
ENDBRANCH  50  64
BRANCH  51  75
ATOM     75  C   UNL A   1      41.886  26.999  27.764  1.00  0.00     0.064 A 
ATOM     76  C   UNL A   1      41.393  25.713  27.499  1.00  0.00     0.173 A 
ATOM     77  C   UNL A   1      42.822  27.534  26.866  1.00  0.00     0.173 A 
ATOM     78  F   UNL A   1      40.518  25.146  28.342  1.00  0.00    -0.203 F 
ATOM     79  C   UNL A   1      41.836  24.983  26.397  1.00  0.00     0.198 A 
ATOM     80  C   UNL A   1      43.240  26.816  25.746  1.00  0.00     0.198 A 
ATOM     81  F   UNL A   1      43.332  28.756  27.074  1.00  0.00    -0.203 F 
ATOM     82  F   UNL A   1      41.391  23.734  26.201  1.00  0.00    -0.200 F 
ATOM     83  C   UNL A   1      42.754  25.538  25.518  1.00  0.00     0.200 A 
ATOM     84  F   UNL A   1      44.120  27.360  24.895  1.00  0.00    -0.200 F 
ATOM     85  F   UNL A   1      43.181  24.835  24.460  1.00  0.00    -0.200 F 
ENDBRANCH  51  75
BRANCH  63  86
ATOM     86  C   UNL A   1      44.350  27.317  34.282  1.00  0.00     0.064 A 
ATOM     87  C   UNL A   1      44.201  26.033  34.827  1.00  0.00     0.173 A 
ATOM     88  C   UNL A   1      45.616  27.919  34.360  1.00  0.00     0.173 A 
ATOM     89  F   UNL A   1      43.010  25.417  34.790  1.00  0.00    -0.203 F 
ATOM     90  C   UNL A   1      45.270  25.393  35.453  1.00  0.00     0.198 A 
ATOM     91  C   UNL A   1      46.690  27.261  34.951  1.00  0.00     0.198 A 
ATOM     92  F   UNL A   1      45.817  29.142  33.845  1.00  0.00    -0.203 F 
ATOM     93  F   UNL A   1      45.090  24.189  36.014  1.00  0.00    -0.200 F 
ATOM     94  C   UNL A   1      46.514  26.003  35.506  1.00  0.00     0.200 A 
ATOM     95  F   UNL A   1      47.896  27.844  34.984  1.00  0.00    -0.200 F 
ATOM     96  F   UNL A   1      47.542  25.380  36.098  1.00  0.00    -0.200 F 
ENDBRANCH  63  86
ENDBRANCH  37  38
ENDBRANCH  30  32
ENDBRANCH  29  30
ENDBRANCH  28  29
ENDBRANCH  27  28
ENDBRANCH  26  27
ENDBRANCH  25  26
ENDBRANCH  24  25
ENDBRANCH   1  24
TORSDOF 24
ENDMDL
MODEL 3
REMARK VINA RESULT:      -9.8      4.560      8.941
REMARK SMILES CC[C@@](CC(F)(F)F)(C(=O)OCCOCCOCCOCCOC(=O)c1ccc(-c2c3nc(c(-c4c(F)c(F)c(F)c(F)c4F)c4ccc([nH]4)c(-c4c(F)c(F)c(F)c(F)c4F)c4nc(c(-c5c(F)c(F)c(F)c(F)c5F)c5ccc2[nH]5)C=C4)C=C3)cc1)c1ccccc1
REMARK SMILES IDX 17 1 16 2 15 3 14 4 13 5 12 6 11 7 9 8 10 9 3 10 2 11 1 12
REMARK SMILES IDX 4 13 5 14 6 15 7 16 8 17 89 18 90 19 94 20 91 21 93 22 92 23
REMARK SMILES IDX 18 24 19 25 20 26 21 27 22 28 23 29 24 30 25 31 26 32 27 33
REMARK SMILES IDX 88 34 28 35 87 36 29 37 30 38 31 39 81 40 32 41 86 42 80 43
REMARK SMILES IDX 82 44 33 45 85 46 79 47 78 48 34 50 66 51 46 52 65 53 47 54
REMARK SMILES IDX 50 55 64 56 83 57 48 58 49 59 63 61 84 62 51 63 35 64 36 65
REMARK SMILES IDX 44 66 37 67 38 68 42 69 45 70 39 71 40 72 43 73 41 74 67 75
REMARK SMILES IDX 68 76 76 77 69 78 70 79 74 80 77 81 71 82 72 83 75 84 73 85
REMARK SMILES IDX 52 86 53 87 61 88 54 89 55 90 59 91 62 92 56 93 57 94 60 95
REMARK SMILES IDX 58 96
REMARK H PARENT 82 49 50 60
REMARK Flexibility Score: inf
ROOT
ATOM      1  O   UNL A   1      32.387  27.858  25.292  1.00  0.00    -0.377 OA
ENDROOT
BRANCH   1   2
ATOM      2  C   UNL A   1      31.351  27.104  24.703  1.00  0.00     0.188 C 
BRANCH   2   3
ATOM      3  C   UNL A   1      30.212  26.673  25.642  1.00  0.00     0.188 C 
BRANCH   3   4
ATOM      4  O   UNL A   1      30.355  25.512  26.444  1.00  0.00    -0.376 OA
BRANCH   4   5
ATOM      5  C   UNL A   1      30.602  24.251  25.842  1.00  0.00     0.202 C 
BRANCH   5   6
ATOM      6  C   UNL A   1      30.901  22.989  26.677  1.00  0.00     0.261 C 
BRANCH   6   7
ATOM      7  O   UNL A   1      31.487  21.852  26.004  1.00  0.00    -0.463 OA
BRANCH   7   8
ATOM      8  C   UNL A   1      32.838  21.776  26.057  1.00  0.00     0.316 C 
ATOM      9  O   UNL A   1      33.477  21.980  27.088  1.00  0.00    -0.251 OA
BRANCH   8  10
ATOM     10  C   UNL A   1      33.551  21.520  24.682  1.00  0.00     0.101 C 
BRANCH  10  11
ATOM     11  C   UNL A   1      35.039  21.024  24.660  1.00  0.00     0.020 C 
ATOM     12  C   UNL A   1      35.845  21.342  25.927  1.00  0.00     0.005 C 
ENDBRANCH  10  11
BRANCH  10  13
ATOM     13  C   UNL A   1      32.639  20.417  24.052  1.00  0.00     0.139 C 
BRANCH  13  14
ATOM     14  C   UNL A   1      32.951  18.988  24.481  1.00  0.00     0.390 C 
ATOM     15  F   UNL A   1      33.075  18.864  25.816  1.00  0.00    -0.171 F 
ATOM     16  F   UNL A   1      31.942  18.169  24.101  1.00  0.00    -0.171 F 
ATOM     17  F   UNL A   1      34.075  18.505  23.914  1.00  0.00    -0.171 F 
ENDBRANCH  13  14
ENDBRANCH  10  13
BRANCH  10  18
ATOM     18  C   UNL A   1      33.498  22.903  23.948  1.00  0.00    -0.030 A 
ATOM     19  C   UNL A   1      32.928  23.011  22.657  1.00  0.00     0.005 A 
ATOM     20  C   UNL A   1      34.134  24.044  24.455  1.00  0.00     0.005 A 
ATOM     21  C   UNL A   1      33.016  24.183  21.901  1.00  0.00     0.000 A 
ATOM     22  C   UNL A   1      34.216  25.221  23.700  1.00  0.00     0.000 A 
ATOM     23  C   UNL A   1      33.667  25.288  22.423  1.00  0.00     0.000 A 
ENDBRANCH  10  18
ENDBRANCH   8  10
ENDBRANCH   7   8
ENDBRANCH   6   7
ENDBRANCH   5   6
ENDBRANCH   4   5
ENDBRANCH   3   4
ENDBRANCH   2   3
ENDBRANCH   1   2
BRANCH   1  24
ATOM     24  C   UNL A   1      32.254  29.266  25.257  1.00  0.00     0.188 C 
BRANCH  24  25
ATOM     25  C   UNL A   1      33.004  30.080  26.324  1.00  0.00     0.188 C 
BRANCH  25  26
ATOM     26  O   UNL A   1      32.152  30.812  27.196  1.00  0.00    -0.376 OA
BRANCH  26  27
ATOM     27  C   UNL A   1      31.477  31.961  26.705  1.00  0.00     0.202 C 
BRANCH  27  28
ATOM     28  C   UNL A   1      32.155  33.330  26.884  1.00  0.00     0.261 C 
BRANCH  28  29
ATOM     29  O   UNL A   1      32.588  33.673  28.210  1.00  0.00    -0.460 OA
BRANCH  29  30
ATOM     30  C   UNL A   1      33.690  34.436  28.347  1.00  0.00     0.338 C 
ATOM     31  O   UNL A   1      33.749  35.654  28.356  1.00  0.00    -0.246 OA
BRANCH  30  32
ATOM     32  C   UNL A   1      34.814  33.542  28.702  1.00  0.00     0.060 A 
ATOM     33  C   UNL A   1      34.534  32.310  29.307  1.00  0.00     0.016 A 
ATOM     34  C   UNL A   1      36.133  33.907  28.419  1.00  0.00     0.016 A 
ATOM     35  C   UNL A   1      35.573  31.453  29.667  1.00  0.00     0.010 A 
ATOM     36  C   UNL A   1      37.176  33.062  28.809  1.00  0.00     0.010 A 
ATOM     37  C   UNL A   1      36.901  31.850  29.467  1.00  0.00    -0.014 A 
BRANCH  37  38
ATOM     38  C   UNL A   1      37.991  31.114  30.151  1.00  0.00     0.031 A 
ATOM     39  C   UNL A   1      38.247  31.422  31.601  1.00  0.00     0.074 A 
ATOM     40  C   UNL A   1      38.717  30.177  29.518  1.00  0.00     0.049 A 
ATOM     41  N   UNL A   1      39.168  30.958  32.405  1.00  0.00    -0.248 NA
ATOM     42  C   UNL A   1      37.335  32.393  32.229  1.00  0.00     0.031 C 
ATOM     43  C   UNL A   1      38.528  29.752  28.133  1.00  0.00     0.029 A 
ATOM     44  N   UNL A   1      39.770  29.417  29.965  1.00  0.00    -0.354 N 
ATOM     45  C   UNL A   1      38.954  31.586  33.624  1.00  0.00     0.074 A 
ATOM     46  C   UNL A   1      37.836  32.487  33.450  1.00  0.00     0.031 C 
ATOM     47  C   UNL A   1      39.446  28.813  27.838  1.00  0.00     0.029 A 
ATOM     48  C   UNL A   1      40.307  28.601  29.001  1.00  0.00     0.049 A 
ATOM     49  H   UNL A   1      40.108  29.455  30.889  1.00  0.00     0.167 HD
ATOM     50  C   UNL A   1      39.627  31.423  34.788  1.00  0.00     0.037 A 
ATOM     51  C   UNL A   1      41.388  27.796  29.050  1.00  0.00     0.037 A 
ATOM     52  C   UNL A   1      40.739  30.526  34.954  1.00  0.00     0.049 A 
ATOM     53  C   UNL A   1      42.174  27.696  30.335  1.00  0.00     0.074 A 
ATOM     54  C   UNL A   1      41.477  30.271  36.095  1.00  0.00     0.029 A 
ATOM     55  N   UNL A   1      41.281  29.744  33.943  1.00  0.00    -0.354 N 
ATOM     56  N   UNL A   1      41.954  28.273  31.492  1.00  0.00    -0.248 NA
ATOM     57  C   UNL A   1      43.362  26.830  30.319  1.00  0.00     0.031 C 
ATOM     58  C   UNL A   1      42.507  29.388  35.760  1.00  0.00     0.029 A 
ATOM     59  C   UNL A   1      42.366  29.033  34.427  1.00  0.00     0.049 A 
ATOM     60  H   UNL A   1      40.942  29.702  33.020  1.00  0.00     0.167 HD
ATOM     61  C   UNL A   1      42.948  27.812  32.348  1.00  0.00     0.074 A 
ATOM     62  C   UNL A   1      43.766  26.899  31.579  1.00  0.00     0.031 C 
ATOM     63  C   UNL A   1      43.164  28.116  33.652  1.00  0.00     0.037 A 
BRANCH  50  64
ATOM     64  C   UNL A   1      39.202  32.260  35.959  1.00  0.00     0.064 A 
ATOM     65  C   UNL A   1      38.299  31.786  36.923  1.00  0.00     0.173 A 
ATOM     66  C   UNL A   1      39.731  33.548  36.134  1.00  0.00     0.173 A 
ATOM     67  F   UNL A   1      37.750  30.569  36.794  1.00  0.00    -0.203 F 
ATOM     68  C   UNL A   1      37.921  32.582  38.002  1.00  0.00     0.198 A 
ATOM     69  C   UNL A   1      39.377  34.327  37.232  1.00  0.00     0.198 A 
ATOM     70  F   UNL A   1      40.599  34.050  35.243  1.00  0.00    -0.203 F 
ATOM     71  F   UNL A   1      37.015  32.130  38.881  1.00  0.00    -0.200 F 
ATOM     72  C   UNL A   1      38.467  33.847  38.160  1.00  0.00     0.200 A 
ATOM     73  F   UNL A   1      39.916  35.543  37.389  1.00  0.00    -0.200 F 
ATOM     74  F   UNL A   1      38.108  34.608  39.203  1.00  0.00    -0.200 F 
ENDBRANCH  50  64
BRANCH  51  75
ATOM     75  C   UNL A   1      41.807  27.031  27.846  1.00  0.00     0.064 A 
ATOM     76  C   UNL A   1      42.666  27.594  26.891  1.00  0.00     0.173 A 
ATOM     77  C   UNL A   1      41.328  25.735  27.603  1.00  0.00     0.173 A 
ATOM     78  F   UNL A   1      43.130  28.842  27.063  1.00  0.00    -0.203 F 
ATOM     79  C   UNL A   1      43.012  26.902  25.732  1.00  0.00     0.198 A 
ATOM     80  C   UNL A   1      41.700  25.030  26.459  1.00  0.00     0.198 A 
ATOM     81  F   UNL A   1      40.497  25.149  28.478  1.00  0.00    -0.203 F 
ATOM     82  F   UNL A   1      43.788  27.487  24.810  1.00  0.00    -0.200 F 
ATOM     83  C   UNL A   1      42.533  25.618  25.520  1.00  0.00     0.200 A 
ATOM     84  F   UNL A   1      41.243  23.786  26.263  1.00  0.00    -0.200 F 
ATOM     85  F   UNL A   1      42.864  24.953  24.405  1.00  0.00    -0.200 F 
ENDBRANCH  51  75
BRANCH  63  86
ATOM     86  C   UNL A   1      44.297  27.417  34.351  1.00  0.00     0.064 A 
ATOM     87  C   UNL A   1      44.137  26.159  34.949  1.00  0.00     0.173 A 
ATOM     88  C   UNL A   1      45.576  27.998  34.377  1.00  0.00     0.173 A 
ATOM     89  F   UNL A   1      42.935  25.565  34.961  1.00  0.00    -0.203 F 
ATOM     90  C   UNL A   1      45.207  25.524  35.576  1.00  0.00     0.198 A 
ATOM     91  C   UNL A   1      46.650  27.343  34.972  1.00  0.00     0.198 A 
ATOM     92  F   UNL A   1      45.788  29.196  33.811  1.00  0.00    -0.203 F 
ATOM     93  F   UNL A   1      45.018  24.347  36.189  1.00  0.00    -0.200 F 
ATOM     94  C   UNL A   1      46.463  26.111  35.579  1.00  0.00     0.200 A 
ATOM     95  F   UNL A   1      47.867  27.904  34.956  1.00  0.00    -0.200 F 
ATOM     96  F   UNL A   1      47.493  25.492  36.173  1.00  0.00    -0.200 F 
ENDBRANCH  63  86
ENDBRANCH  37  38
ENDBRANCH  30  32
ENDBRANCH  29  30
ENDBRANCH  28  29
ENDBRANCH  27  28
ENDBRANCH  26  27
ENDBRANCH  25  26
ENDBRANCH  24  25
ENDBRANCH   1  24
TORSDOF 24
ENDMDL
