MODEL 1
REMARK VINA RESULT:      -9.2      0.000      0.000
REMARK SMILES CCN(CCC#N)C(=O)c1ccncc1/C=C/C(=O)OCCOCCOCCOCCOC(=O)c1ccc(-c2c3nc(c(-c4c(F)c(F)c(F)c(F)c4F)c4ccc([nH]4)c(-c4c(F)c(F)c(F)c(F)c4F)c4nc(c(-c5c(F)c(F)c(F)c(F)c5F)c5ccc2[nH]5)C=C4)C=C3)cc1
REMARK SMILES IDX 24 1 23 2 22 3 21 4 20 5 18 6 19 7 17 8 16 9 15 10 10 11
REMARK SMILES IDX 11 12 12 13 14 14 13 15 8 16 9 17 3 18 2 19 1 20 4 21 5 22
REMARK SMILES IDX 6 23 7 24 25 25 26 26 27 27 28 28 29 29 30 30 31 31 32 32
REMARK SMILES IDX 33 33 34 34 35 35 36 36 97 37 37 38 96 39 38 40 39 41 40 42
REMARK SMILES IDX 90 43 41 44 95 45 89 46 91 47 42 48 94 49 88 50 87 51 43 53
REMARK SMILES IDX 75 54 55 55 74 56 56 57 59 58 73 59 92 60 57 61 58 62 72 64
REMARK SMILES IDX 93 65 60 66 44 67 45 68 53 69 46 70 47 71 51 72 54 73 48 74
REMARK SMILES IDX 49 75 52 76 50 77 76 78 77 79 85 80 78 81 79 82 83 83 86 84
REMARK SMILES IDX 80 85 81 86 84 87 82 88 61 89 62 90 70 91 63 92 64 93 68 94
REMARK SMILES IDX 71 95 65 96 66 97 69 98 67 99
REMARK H PARENT 91 52 59 63
REMARK Flexibility Score: inf
ROOT
ATOM      1  C   UNL A   1      34.243  21.390  26.326  1.00  0.00     0.188 C 
ENDROOT
BRANCH   1   2
ATOM      2  O   UNL A   1      33.141  21.361  25.433  1.00  0.00    -0.376 OA
BRANCH   2   3
ATOM      3  C   UNL A   1      32.573  22.595  25.027  1.00  0.00     0.202 C 
BRANCH   3   4
ATOM      4  C   UNL A   1      32.543  22.840  23.513  1.00  0.00     0.261 C 
BRANCH   4   5
ATOM      5  O   UNL A   1      32.445  24.220  23.146  1.00  0.00    -0.460 OA
BRANCH   5   6
ATOM      6  C   UNL A   1      31.210  24.771  23.065  1.00  0.00     0.330 C 
ATOM      7  O   UNL A   1      30.150  24.175  23.155  1.00  0.00    -0.247 OA
BRANCH   6   8
ATOM      8  C   UNL A   1      31.321  26.257  23.128  1.00  0.00     0.094 C 
ATOM      9  C   UNL A   1      30.328  27.007  23.646  1.00  0.00     0.018 C 
BRANCH   9  10
ATOM     10  C   UNL A   1      30.028  28.444  23.391  1.00  0.00     0.006 A 
ATOM     11  C   UNL A   1      30.604  29.520  24.132  1.00  0.00     0.050 A 
ATOM     12  C   UNL A   1      29.880  30.717  24.189  1.00  0.00     0.034 A 
ATOM     13  C   UNL A   1      28.792  30.907  23.349  1.00  0.00     0.112 A 
ATOM     14  C   UNL A   1      28.932  28.763  22.576  1.00  0.00     0.119 A 
ATOM     15  N   UNL A   1      28.320  29.968  22.519  1.00  0.00    -0.264 NA
BRANCH  11  16
ATOM     16  C   UNL A   1      31.978  29.399  24.775  1.00  0.00     0.254 C 
ATOM     17  O   UNL A   1      32.953  29.376  24.019  1.00  0.00    -0.269 OA
BRANCH  16  18
ATOM     18  N   UNL A   1      32.249  29.385  26.178  1.00  0.00    -0.338 N 
BRANCH  18  19
ATOM     19  C   UNL A   1      32.927  30.603  26.678  1.00  0.00     0.116 C 
ATOM     20  C   UNL A   1      34.215  30.318  27.451  1.00  0.00     0.027 C 
ENDBRANCH  18  19
BRANCH  18  21
ATOM     21  C   UNL A   1      31.755  28.453  27.228  1.00  0.00     0.135 C 
BRANCH  21  22
ATOM     22  C   UNL A   1      31.673  26.958  26.858  1.00  0.00     0.141 C 
BRANCH  22  23
ATOM     23  C   UNL A   1      32.987  26.530  26.228  1.00  0.00     0.064 C 
ATOM     24  N   UNL A   1      34.079  26.175  25.704  1.00  0.00    -0.198 NA
ENDBRANCH  22  23
ENDBRANCH  21  22
ENDBRANCH  18  21
ENDBRANCH  16  18
ENDBRANCH  11  16
ENDBRANCH   9  10
ENDBRANCH   6   8
ENDBRANCH   5   6
ENDBRANCH   4   5
ENDBRANCH   3   4
ENDBRANCH   2   3
ENDBRANCH   1   2
BRANCH   1  25
ATOM     25  C   UNL A   1      34.852  22.793  26.531  1.00  0.00     0.188 C 
BRANCH  25  26
ATOM     26  O   UNL A   1      36.226  23.022  26.251  1.00  0.00    -0.377 OA
BRANCH  26  27
ATOM     27  C   UNL A   1      36.659  23.093  24.896  1.00  0.00     0.188 C 
BRANCH  27  28
ATOM     28  C   UNL A   1      36.986  21.807  24.100  1.00  0.00     0.188 C 
BRANCH  28  29
ATOM     29  O   UNL A   1      37.421  20.715  24.894  1.00  0.00    -0.376 OA
BRANCH  29  30
ATOM     30  C   UNL A   1      38.555  20.924  25.717  1.00  0.00     0.202 C 
BRANCH  30  31
ATOM     31  C   UNL A   1      39.568  19.773  25.795  1.00  0.00     0.261 C 
BRANCH  31  32
ATOM     32  O   UNL A   1      40.953  20.150  25.822  1.00  0.00    -0.460 OA
BRANCH  32  33
ATOM     33  C   UNL A   1      41.531  20.296  27.038  1.00  0.00     0.338 C 
ATOM     34  O   UNL A   1      42.017  19.434  27.734  1.00  0.00    -0.246 OA
BRANCH  33  35
ATOM     35  C   UNL A   1      41.632  21.750  27.301  1.00  0.00     0.060 A 
ATOM     36  C   UNL A   1      41.252  22.655  26.302  1.00  0.00     0.016 A 
ATOM     37  C   UNL A   1      42.089  22.210  28.537  1.00  0.00     0.016 A 
ATOM     38  C   UNL A   1      41.353  24.028  26.529  1.00  0.00     0.010 A 
ATOM     39  C   UNL A   1      42.213  23.584  28.755  1.00  0.00     0.010 A 
ATOM     40  C   UNL A   1      41.875  24.499  27.741  1.00  0.00    -0.014 A 
BRANCH  40  41
ATOM     41  C   UNL A   1      42.256  25.925  27.880  1.00  0.00     0.031 A 
ATOM     42  C   UNL A   1      43.591  26.357  27.339  1.00  0.00     0.074 A 
ATOM     43  C   UNL A   1      41.438  26.821  28.459  1.00  0.00     0.049 A 
ATOM     44  N   UNL A   1      44.178  27.525  27.400  1.00  0.00    -0.248 NA
ATOM     45  C   UNL A   1      44.372  25.327  26.634  1.00  0.00     0.031 C 
ATOM     46  C   UNL A   1      40.104  26.534  28.981  1.00  0.00     0.029 A 
ATOM     47  N   UNL A   1      41.621  28.157  28.713  1.00  0.00    -0.354 N 
ATOM     48  C   UNL A   1      45.396  27.367  26.750  1.00  0.00     0.074 A 
ATOM     49  C   UNL A   1      45.480  25.986  26.331  1.00  0.00     0.031 C 
ATOM     50  C   UNL A   1      39.592  27.661  29.507  1.00  0.00     0.029 A 
ATOM     51  C   UNL A   1      40.577  28.737  29.392  1.00  0.00     0.049 A 
ATOM     52  H   UNL A   1      42.425  28.654  28.437  1.00  0.00     0.167 HD
ATOM     53  C   UNL A   1      46.352  28.296  26.513  1.00  0.00     0.037 A 
ATOM     54  C   UNL A   1      40.448  29.985  29.885  1.00  0.00     0.037 A 
ATOM     55  C   UNL A   1      46.266  29.669  26.934  1.00  0.00     0.049 A 
ATOM     56  C   UNL A   1      41.568  30.977  29.684  1.00  0.00     0.074 A 
ATOM     57  C   UNL A   1      47.179  30.690  26.736  1.00  0.00     0.029 A 
ATOM     58  N   UNL A   1      45.208  30.210  27.647  1.00  0.00    -0.354 N 
ATOM     59  N   UNL A   1      42.707  30.830  29.049  1.00  0.00    -0.248 NA
ATOM     60  C   UNL A   1      41.384  32.314  30.271  1.00  0.00     0.031 C 
ATOM     61  C   UNL A   1      46.700  31.835  27.380  1.00  0.00     0.029 A 
ATOM     62  C   UNL A   1      45.458  31.546  27.922  1.00  0.00     0.049 A 
ATOM     63  H   UNL A   1      44.398  29.720  27.917  1.00  0.00     0.167 HD
ATOM     64  C   UNL A   1      43.354  32.058  29.128  1.00  0.00     0.074 A 
ATOM     65  C   UNL A   1      42.475  32.945  29.860  1.00  0.00     0.031 C 
ATOM     66  C   UNL A   1      44.566  32.420  28.639  1.00  0.00     0.037 A 
BRANCH  53  67
ATOM     67  C   UNL A   1      47.589  27.851  25.787  1.00  0.00     0.064 A 
ATOM     68  C   UNL A   1      48.754  27.476  26.475  1.00  0.00     0.173 A 
ATOM     69  C   UNL A   1      47.595  27.758  24.388  1.00  0.00     0.173 A 
ATOM     70  F   UNL A   1      48.806  27.563  27.813  1.00  0.00    -0.203 F 
ATOM     71  C   UNL A   1      49.885  27.048  25.785  1.00  0.00     0.198 A 
ATOM     72  C   UNL A   1      48.716  27.299  23.704  1.00  0.00     0.198 A 
ATOM     73  F   UNL A   1      46.507  28.103  23.683  1.00  0.00    -0.203 F 
ATOM     74  F   UNL A   1      51.002  26.740  26.459  1.00  0.00    -0.200 F 
ATOM     75  C   UNL A   1      49.862  26.950  24.402  1.00  0.00     0.200 A 
ATOM     76  F   UNL A   1      48.688  27.192  22.369  1.00  0.00    -0.200 F 
ATOM     77  F   UNL A   1      50.948  26.526  23.741  1.00  0.00    -0.200 F 
ENDBRANCH  53  67
BRANCH  54  78
ATOM     78  C   UNL A   1      39.225  30.374  30.637  1.00  0.00     0.064 A 
ATOM     79  C   UNL A   1      39.127  30.163  32.020  1.00  0.00     0.173 A 
ATOM     80  C   UNL A   1      38.108  30.915  29.982  1.00  0.00     0.173 A 
ATOM     81  F   UNL A   1      40.155  29.620  32.689  1.00  0.00    -0.203 F 
ATOM     82  C   UNL A   1      37.953  30.452  32.714  1.00  0.00     0.198 A 
ATOM     83  C   UNL A   1      36.946  31.235  30.682  1.00  0.00     0.198 A 
ATOM     84  F   UNL A   1      38.143  31.129  28.659  1.00  0.00    -0.203 F 
ATOM     85  F   UNL A   1      37.865  30.179  34.022  1.00  0.00    -0.200 F 
ATOM     86  C   UNL A   1      36.865  30.993  32.044  1.00  0.00     0.200 A 
ATOM     87  F   UNL A   1      35.900  31.765  30.032  1.00  0.00    -0.200 F 
ATOM     88  F   UNL A   1      35.733  31.263  32.709  1.00  0.00    -0.200 F 
ENDBRANCH  54  78
BRANCH  66  89
ATOM     89  C   UNL A   1      44.996  33.847  28.835  1.00  0.00     0.064 A 
ATOM     90  C   UNL A   1      45.793  34.240  29.919  1.00  0.00     0.173 A 
ATOM     91  C   UNL A   1      44.641  34.829  27.895  1.00  0.00     0.173 A 
ATOM     92  F   UNL A   1      46.152  33.345  30.853  1.00  0.00    -0.203 F 
ATOM     93  C   UNL A   1      46.194  35.565  30.073  1.00  0.00     0.198 A 
ATOM     94  C   UNL A   1      45.073  36.145  28.032  1.00  0.00     0.198 A 
ATOM     95  F   UNL A   1      43.889  34.507  26.831  1.00  0.00    -0.203 F 
ATOM     96  F   UNL A   1      46.911  35.926  31.146  1.00  0.00    -0.200 F 
ATOM     97  C   UNL A   1      45.841  36.514  29.125  1.00  0.00     0.200 A 
ATOM     98  F   UNL A   1      44.747  37.055  27.104  1.00  0.00    -0.200 F 
ATOM     99  F   UNL A   1      46.235  37.786  29.269  1.00  0.00    -0.200 F 
ENDBRANCH  66  89
ENDBRANCH  40  41
ENDBRANCH  33  35
ENDBRANCH  32  33
ENDBRANCH  31  32
ENDBRANCH  30  31
ENDBRANCH  29  30
ENDBRANCH  28  29
ENDBRANCH  27  28
ENDBRANCH  26  27
ENDBRANCH  25  26
ENDBRANCH   1  25
TORSDOF 27
ENDMDL
MODEL 2
REMARK VINA RESULT:      -9.2      1.567      7.331
REMARK SMILES CCN(CCC#N)C(=O)c1ccncc1/C=C/C(=O)OCCOCCOCCOCCOC(=O)c1ccc(-c2c3nc(c(-c4c(F)c(F)c(F)c(F)c4F)c4ccc([nH]4)c(-c4c(F)c(F)c(F)c(F)c4F)c4nc(c(-c5c(F)c(F)c(F)c(F)c5F)c5ccc2[nH]5)C=C4)C=C3)cc1
REMARK SMILES IDX 24 1 23 2 22 3 21 4 20 5 18 6 19 7 17 8 16 9 15 10 10 11
REMARK SMILES IDX 11 12 12 13 14 14 13 15 8 16 9 17 3 18 2 19 1 20 4 21 5 22
REMARK SMILES IDX 6 23 7 24 25 25 26 26 27 27 28 28 29 29 30 30 31 31 32 32
REMARK SMILES IDX 33 33 34 34 35 35 36 36 97 37 37 38 96 39 38 40 39 41 40 42
REMARK SMILES IDX 90 43 41 44 95 45 89 46 91 47 42 48 94 49 88 50 87 51 43 53
REMARK SMILES IDX 75 54 55 55 74 56 56 57 59 58 73 59 92 60 57 61 58 62 72 64
REMARK SMILES IDX 93 65 60 66 44 67 45 68 53 69 46 70 47 71 51 72 54 73 48 74
REMARK SMILES IDX 49 75 52 76 50 77 76 78 77 79 85 80 78 81 79 82 83 83 86 84
REMARK SMILES IDX 80 85 81 86 84 87 82 88 61 89 62 90 70 91 63 92 64 93 68 94
REMARK SMILES IDX 71 95 65 96 66 97 69 98 67 99
REMARK H PARENT 91 52 59 63
REMARK Flexibility Score: inf
ROOT
ATOM      1  C   UNL A   1      34.118  19.693  24.978  1.00  0.00     0.188 C 
ENDROOT
BRANCH   1   2
ATOM      2  O   UNL A   1      33.042  19.619  24.056  1.00  0.00    -0.376 OA
BRANCH   2   3
ATOM      3  C   UNL A   1      32.126  20.700  24.004  1.00  0.00     0.202 C 
BRANCH   3   4
ATOM      4  C   UNL A   1      32.254  21.615  22.779  1.00  0.00     0.261 C 
BRANCH   4   5
ATOM      5  O   UNL A   1      32.009  22.998  23.054  1.00  0.00    -0.460 OA
BRANCH   5   6
ATOM      6  C   UNL A   1      32.669  23.921  22.315  1.00  0.00     0.330 C 
ATOM      7  O   UNL A   1      33.664  23.722  21.640  1.00  0.00    -0.247 OA
BRANCH   6   8
ATOM      8  C   UNL A   1      31.848  25.162  22.216  1.00  0.00     0.094 C 
ATOM      9  C   UNL A   1      32.341  26.355  22.602  1.00  0.00     0.018 C 
BRANCH   9  10
ATOM     10  C   UNL A   1      31.590  27.572  23.020  1.00  0.00     0.006 A 
ATOM     11  C   UNL A   1      30.602  27.581  24.051  1.00  0.00     0.050 A 
ATOM     12  C   UNL A   1      29.619  28.577  23.988  1.00  0.00     0.034 A 
ATOM     13  C   UNL A   1      29.770  29.640  23.109  1.00  0.00     0.112 A 
ATOM     14  C   UNL A   1      31.643  28.706  22.197  1.00  0.00     0.119 A 
ATOM     15  N   UNL A   1      30.777  29.744  22.233  1.00  0.00    -0.264 NA
BRANCH  11  16
ATOM     16  C   UNL A   1      30.652  26.598  25.211  1.00  0.00     0.254 C 
ATOM     17  O   UNL A   1      29.671  25.867  25.372  1.00  0.00    -0.269 OA
BRANCH  16  18
ATOM     18  N   UNL A   1      31.761  26.391  26.088  1.00  0.00    -0.338 N 
BRANCH  18  19
ATOM     19  C   UNL A   1      32.488  25.122  25.859  1.00  0.00     0.116 C 
ATOM     20  C   UNL A   1      34.004  25.292  25.744  1.00  0.00     0.027 C 
ENDBRANCH  18  19
BRANCH  18  21
ATOM     21  C   UNL A   1      32.421  27.345  27.021  1.00  0.00     0.135 C 
BRANCH  21  22
ATOM     22  C   UNL A   1      31.549  28.479  27.599  1.00  0.00     0.141 C 
BRANCH  22  23
ATOM     23  C   UNL A   1      31.832  29.760  26.834  1.00  0.00     0.064 C 
ATOM     24  N   UNL A   1      32.067  30.824  26.199  1.00  0.00    -0.198 NA
ENDBRANCH  22  23
ENDBRANCH  21  22
ENDBRANCH  18  21
ENDBRANCH  16  18
ENDBRANCH  11  16
ENDBRANCH   9  10
ENDBRANCH   6   8
ENDBRANCH   5   6
ENDBRANCH   4   5
ENDBRANCH   3   4
ENDBRANCH   2   3
ENDBRANCH   1   2
BRANCH   1  25
ATOM     25  C   UNL A   1      34.074  20.930  25.900  1.00  0.00     0.188 C 
BRANCH  25  26
ATOM     26  O   UNL A   1      35.279  21.467  26.430  1.00  0.00    -0.377 OA
BRANCH  26  27
ATOM     27  C   UNL A   1      36.094  22.295  25.606  1.00  0.00     0.188 C 
BRANCH  27  28
ATOM     28  C   UNL A   1      37.005  21.679  24.518  1.00  0.00     0.188 C 
BRANCH  28  29
ATOM     29  O   UNL A   1      37.708  20.516  24.925  1.00  0.00    -0.376 OA
BRANCH  29  30
ATOM     30  C   UNL A   1      38.962  20.705  25.556  1.00  0.00     0.202 C 
BRANCH  30  31
ATOM     31  C   UNL A   1      39.683  19.440  26.043  1.00  0.00     0.261 C 
BRANCH  31  32
ATOM     32  O   UNL A   1      40.954  19.163  25.435  1.00  0.00    -0.460 OA
BRANCH  32  33
ATOM     33  C   UNL A   1      42.047  19.218  26.232  1.00  0.00     0.338 C 
ATOM     34  O   UNL A   1      42.794  18.313  26.525  1.00  0.00    -0.246 OA
BRANCH  33  35
ATOM     35  C   UNL A   1      42.283  20.645  26.551  1.00  0.00     0.060 A 
ATOM     36  C   UNL A   1      42.463  21.560  25.506  1.00  0.00     0.016 A 
ATOM     37  C   UNL A   1      42.313  21.072  27.879  1.00  0.00     0.016 A 
ATOM     38  C   UNL A   1      42.699  22.906  25.790  1.00  0.00     0.010 A 
ATOM     39  C   UNL A   1      42.573  22.415  28.164  1.00  0.00     0.010 A 
ATOM     40  C   UNL A   1      42.798  23.331  27.121  1.00  0.00    -0.014 A 
BRANCH  40  41
ATOM     41  C   UNL A   1      43.332  24.679  27.430  1.00  0.00     0.031 A 
ATOM     42  C   UNL A   1      42.384  25.707  27.983  1.00  0.00     0.074 A 
ATOM     43  C   UNL A   1      44.627  24.987  27.239  1.00  0.00     0.049 A 
ATOM     44  N   UNL A   1      42.590  26.968  28.266  1.00  0.00    -0.248 NA
ATOM     45  C   UNL A   1      41.011  25.248  28.251  1.00  0.00     0.031 C 
ATOM     46  C   UNL A   1      45.652  24.067  26.752  1.00  0.00     0.029 A 
ATOM     47  N   UNL A   1      45.296  26.171  27.425  1.00  0.00    -0.354 N 
ATOM     48  C   UNL A   1      41.376  27.451  28.737  1.00  0.00     0.074 A 
ATOM     49  C   UNL A   1      40.429  26.361  28.671  1.00  0.00     0.031 C 
ATOM     50  C   UNL A   1      46.821  24.725  26.664  1.00  0.00     0.029 A 
ATOM     51  C   UNL A   1      46.618  26.121  27.053  1.00  0.00     0.049 A 
ATOM     52  H   UNL A   1      44.870  26.980  27.789  1.00  0.00     0.167 HD
ATOM     53  C   UNL A   1      41.082  28.691  29.194  1.00  0.00     0.037 A 
ATOM     54  C   UNL A   1      47.545  27.099  27.008  1.00  0.00     0.037 A 
ATOM     55  C   UNL A   1      42.026  29.775  29.255  1.00  0.00     0.049 A 
ATOM     56  C   UNL A   1      47.166  28.495  27.440  1.00  0.00     0.074 A 
ATOM     57  C   UNL A   1      41.828  31.066  29.709  1.00  0.00     0.029 A 
ATOM     58  N   UNL A   1      43.346  29.694  28.840  1.00  0.00    -0.354 N 
ATOM     59  N   UNL A   1      46.023  28.941  27.906  1.00  0.00    -0.248 NA
ATOM     60  C   UNL A   1      48.210  29.527  27.340  1.00  0.00     0.031 C 
ATOM     61  C   UNL A   1      43.012  31.784  29.515  1.00  0.00     0.029 A 
ATOM     62  C   UNL A   1      43.968  30.923  29.001  1.00  0.00     0.049 A 
ATOM     63  H   UNL A   1      43.779  28.885  28.483  1.00  0.00     0.167 HD
ATOM     64  C   UNL A   1      46.221  30.288  28.187  1.00  0.00     0.074 A 
ATOM     65  C   UNL A   1      47.598  30.585  27.854  1.00  0.00     0.031 C 
ATOM     66  C   UNL A   1      45.344  31.198  28.678  1.00  0.00     0.037 A 
BRANCH  53  67
ATOM     67  C   UNL A   1      39.672  28.951  29.640  1.00  0.00     0.064 A 
ATOM     68  C   UNL A   1      39.261  28.718  30.962  1.00  0.00     0.173 A 
ATOM     69  C   UNL A   1      38.730  29.477  28.743  1.00  0.00     0.173 A 
ATOM     70  F   UNL A   1      40.117  28.199  31.855  1.00  0.00    -0.203 F 
ATOM     71  C   UNL A   1      37.953  28.982  31.361  1.00  0.00     0.198 A 
ATOM     72  C   UNL A   1      37.434  29.770  29.154  1.00  0.00     0.198 A 
ATOM     73  F   UNL A   1      39.072  29.719  27.469  1.00  0.00    -0.203 F 
ATOM     74  F   UNL A   1      37.570  28.708  32.615  1.00  0.00    -0.200 F 
ATOM     75  C   UNL A   1      37.044  29.517  30.461  1.00  0.00     0.200 A 
ATOM     76  F   UNL A   1      36.561  30.299  28.286  1.00  0.00    -0.200 F 
ATOM     77  F   UNL A   1      35.790  29.782  30.851  1.00  0.00    -0.200 F 
ENDBRANCH  53  67
BRANCH  54  78
ATOM     78  C   UNL A   1      48.919  26.810  26.517  1.00  0.00     0.064 A 
ATOM     79  C   UNL A   1      49.261  26.993  25.170  1.00  0.00     0.173 A 
ATOM     80  C   UNL A   1      49.905  26.296  27.373  1.00  0.00     0.173 A 
ATOM     81  F   UNL A   1      48.345  27.453  24.303  1.00  0.00    -0.203 F 
ATOM     82  C   UNL A   1      50.523  26.647  24.691  1.00  0.00     0.198 A 
ATOM     83  C   UNL A   1      51.178  25.982  26.901  1.00  0.00     0.198 A 
ATOM     84  F   UNL A   1      49.631  26.093  28.669  1.00  0.00    -0.203 F 
ATOM     85  F   UNL A   1      50.800  26.770  23.386  1.00  0.00    -0.200 F 
ATOM     86  C   UNL A   1      51.483  26.147  25.558  1.00  0.00     0.200 A 
ATOM     87  F   UNL A   1      52.105  25.506  27.745  1.00  0.00    -0.200 F 
ATOM     88  F   UNL A   1      52.695  25.807  25.098  1.00  0.00    -0.200 F 
ENDBRANCH  54  78
BRANCH  66  89
ATOM     89  C   UNL A   1      45.854  32.590  28.930  1.00  0.00     0.064 A 
ATOM     90  C   UNL A   1      45.729  33.611  27.977  1.00  0.00     0.173 A 
ATOM     91  C   UNL A   1      46.437  32.916  30.166  1.00  0.00     0.173 A 
ATOM     92  F   UNL A   1      45.190  33.351  26.776  1.00  0.00    -0.203 F 
ATOM     93  C   UNL A   1      46.194  34.898  28.239  1.00  0.00     0.198 A 
ATOM     94  C   UNL A   1      46.869  34.212  30.437  1.00  0.00     0.198 A 
ATOM     95  F   UNL A   1      46.572  31.982  31.118  1.00  0.00    -0.203 F 
ATOM     96  F   UNL A   1      46.112  35.842  27.292  1.00  0.00    -0.200 F 
ATOM     97  C   UNL A   1      46.756  35.198  29.470  1.00  0.00     0.200 A 
ATOM     98  F   UNL A   1      47.393  34.504  31.635  1.00  0.00    -0.200 F 
ATOM     99  F   UNL A   1      47.194  36.439  29.723  1.00  0.00    -0.200 F 
ENDBRANCH  66  89
ENDBRANCH  40  41
ENDBRANCH  33  35
ENDBRANCH  32  33
ENDBRANCH  31  32
ENDBRANCH  30  31
ENDBRANCH  29  30
ENDBRANCH  28  29
ENDBRANCH  27  28
ENDBRANCH  26  27
ENDBRANCH  25  26
ENDBRANCH   1  25
TORSDOF 27
ENDMDL
MODEL 3
REMARK VINA RESULT:      -9.1      4.388      6.405
REMARK SMILES CCN(CCC#N)C(=O)c1ccncc1/C=C/C(=O)OCCOCCOCCOCCOC(=O)c1ccc(-c2c3nc(c(-c4c(F)c(F)c(F)c(F)c4F)c4ccc([nH]4)c(-c4c(F)c(F)c(F)c(F)c4F)c4nc(c(-c5c(F)c(F)c(F)c(F)c5F)c5ccc2[nH]5)C=C4)C=C3)cc1
REMARK SMILES IDX 24 1 23 2 22 3 21 4 20 5 18 6 19 7 17 8 16 9 15 10 10 11
REMARK SMILES IDX 11 12 12 13 14 14 13 15 8 16 9 17 3 18 2 19 1 20 4 21 5 22
REMARK SMILES IDX 6 23 7 24 25 25 26 26 27 27 28 28 29 29 30 30 31 31 32 32
REMARK SMILES IDX 33 33 34 34 35 35 36 36 97 37 37 38 96 39 38 40 39 41 40 42
REMARK SMILES IDX 90 43 41 44 95 45 89 46 91 47 42 48 94 49 88 50 87 51 43 53
REMARK SMILES IDX 75 54 55 55 74 56 56 57 59 58 73 59 92 60 57 61 58 62 72 64
REMARK SMILES IDX 93 65 60 66 44 67 45 68 53 69 46 70 47 71 51 72 54 73 48 74
REMARK SMILES IDX 49 75 52 76 50 77 76 78 77 79 85 80 78 81 79 82 83 83 86 84
REMARK SMILES IDX 80 85 81 86 84 87 82 88 61 89 62 90 70 91 63 92 64 93 68 94
REMARK SMILES IDX 71 95 65 96 66 97 69 98 67 99
REMARK H PARENT 91 52 59 63
REMARK Flexibility Score: inf
ROOT
ATOM      1  C   UNL A   1      34.970  18.688  24.626  1.00  0.00     0.188 C 
ENDROOT
BRANCH   1   2
ATOM      2  O   UNL A   1      33.736  19.348  24.390  1.00  0.00    -0.376 OA
BRANCH   2   3
ATOM      3  C   UNL A   1      33.712  20.764  24.436  1.00  0.00     0.202 C 
BRANCH   3   4
ATOM      4  C   UNL A   1      32.623  21.377  25.326  1.00  0.00     0.261 C 
BRANCH   4   5
ATOM      5  O   UNL A   1      31.654  22.152  24.614  1.00  0.00    -0.460 OA
BRANCH   5   6
ATOM      6  C   UNL A   1      30.891  23.021  25.318  1.00  0.00     0.330 C 
ATOM      7  O   UNL A   1      30.417  22.828  26.424  1.00  0.00    -0.247 OA
BRANCH   6   8
ATOM      8  C   UNL A   1      30.938  24.365  24.672  1.00  0.00     0.094 C 
ATOM      9  C   UNL A   1      29.867  25.182  24.688  1.00  0.00     0.018 C 
BRANCH   9  10
ATOM     10  C   UNL A   1      29.544  26.297  23.754  1.00  0.00     0.006 A 
ATOM     11  C   UNL A   1      30.522  26.999  22.986  1.00  0.00     0.050 A 
ATOM     12  C   UNL A   1      30.212  28.308  22.596  1.00  0.00     0.034 A 
ATOM     13  C   UNL A   1      28.915  28.781  22.739  1.00  0.00     0.112 A 
ATOM     14  C   UNL A   1      28.269  26.877  23.821  1.00  0.00     0.119 A 
ATOM     15  N   UNL A   1      27.927  28.083  23.313  1.00  0.00    -0.264 NA
BRANCH  11  16
ATOM     16  C   UNL A   1      31.818  26.334  22.546  1.00  0.00     0.254 C 
ATOM     17  O   UNL A   1      31.876  25.931  21.382  1.00  0.00    -0.269 OA
BRANCH  16  18
ATOM     18  N   UNL A   1      33.001  26.199  23.336  1.00  0.00    -0.338 N 
BRANCH  18  19
ATOM     19  C   UNL A   1      33.901  25.107  22.900  1.00  0.00     0.116 C 
ATOM     20  C   UNL A   1      34.678  24.454  24.044  1.00  0.00     0.027 C 
ENDBRANCH  18  19
BRANCH  18  21
ATOM     21  C   UNL A   1      33.564  27.117  24.363  1.00  0.00     0.135 C 
BRANCH  21  22
ATOM     22  C   UNL A   1      33.722  28.600  23.968  1.00  0.00     0.141 C 
BRANCH  22  23
ATOM     23  C   UNL A   1      32.756  29.437  24.790  1.00  0.00     0.064 C 
ATOM     24  N   UNL A   1      31.954  30.132  25.472  1.00  0.00    -0.198 NA
ENDBRANCH  22  23
ENDBRANCH  21  22
ENDBRANCH  18  21
ENDBRANCH  16  18
ENDBRANCH  11  16
ENDBRANCH   9  10
ENDBRANCH   6   8
ENDBRANCH   5   6
ENDBRANCH   4   5
ENDBRANCH   3   4
ENDBRANCH   2   3
ENDBRANCH   1   2
BRANCH   1  25
ATOM     25  C   UNL A   1      36.174  19.640  24.782  1.00  0.00     0.188 C 
BRANCH  25  26
ATOM     26  O   UNL A   1      37.449  19.126  25.143  1.00  0.00    -0.377 OA
BRANCH  26  27
ATOM     27  C   UNL A   1      38.585  19.984  25.103  1.00  0.00     0.188 C 
BRANCH  27  28
ATOM     28  C   UNL A   1      39.866  19.642  25.901  1.00  0.00     0.188 C 
BRANCH  28  29
ATOM     29  O   UNL A   1      40.645  20.765  26.278  1.00  0.00    -0.376 OA
BRANCH  29  30
ATOM     30  C   UNL A   1      42.020  20.542  26.535  1.00  0.00     0.202 C 
BRANCH  30  31
ATOM     31  C   UNL A   1      43.016  21.313  25.658  1.00  0.00     0.261 C 
BRANCH  31  32
ATOM     32  O   UNL A   1      42.532  22.532  25.073  1.00  0.00    -0.460 OA
BRANCH  32  33
ATOM     33  C   UNL A   1      43.377  23.590  25.058  1.00  0.00     0.338 C 
ATOM     34  O   UNL A   1      44.339  23.758  24.344  1.00  0.00    -0.246 OA
BRANCH  33  35
ATOM     35  C   UNL A   1      42.808  24.614  25.963  1.00  0.00     0.060 A 
ATOM     36  C   UNL A   1      43.382  25.891  26.001  1.00  0.00     0.016 A 
ATOM     37  C   UNL A   1      41.703  24.311  26.761  1.00  0.00     0.016 A 
ATOM     38  C   UNL A   1      42.866  26.864  26.858  1.00  0.00     0.010 A 
ATOM     39  C   UNL A   1      41.202  25.277  27.637  1.00  0.00     0.010 A 
ATOM     40  C   UNL A   1      41.802  26.548  27.711  1.00  0.00    -0.014 A 
BRANCH  40  41
ATOM     41  C   UNL A   1      41.441  27.466  28.818  1.00  0.00     0.031 A 
ATOM     42  C   UNL A   1      42.257  27.410  30.081  1.00  0.00     0.074 A 
ATOM     43  C   UNL A   1      40.425  28.340  28.708  1.00  0.00     0.049 A 
ATOM     44  N   UNL A   1      42.098  28.056  31.208  1.00  0.00    -0.248 NA
ATOM     45  C   UNL A   1      43.409  26.493  30.070  1.00  0.00     0.031 C 
ATOM     46  C   UNL A   1      39.591  28.521  27.522  1.00  0.00     0.029 A 
ATOM     47  N   UNL A   1      39.917  29.233  29.618  1.00  0.00    -0.354 N 
ATOM     48  C   UNL A   1      43.123  27.620  32.037  1.00  0.00     0.074 A 
ATOM     49  C   UNL A   1      43.877  26.632  31.301  1.00  0.00     0.031 C 
ATOM     50  C   UNL A   1      38.664  29.460  27.782  1.00  0.00     0.029 A 
ATOM     51  C   UNL A   1      38.817  29.918  29.164  1.00  0.00     0.049 A 
ATOM     52  H   UNL A   1      40.304  29.370  30.513  1.00  0.00     0.167 HD
ATOM     53  C   UNL A   1      43.415  28.019  33.298  1.00  0.00     0.037 A 
ATOM     54  C   UNL A   1      38.013  30.792  29.802  1.00  0.00     0.037 A 
ATOM     55  C   UNL A   1      42.659  29.001  34.029  1.00  0.00     0.049 A 
ATOM     56  C   UNL A   1      38.309  31.153  31.238  1.00  0.00     0.074 A 
ATOM     57  C   UNL A   1      42.879  29.480  35.309  1.00  0.00     0.029 A 
ATOM     58  N   UNL A   1      41.533  29.649  33.547  1.00  0.00    -0.354 N 
ATOM     59  N   UNL A   1      39.292  30.756  32.011  1.00  0.00    -0.248 NA
ATOM     60  C   UNL A   1      37.380  32.088  31.892  1.00  0.00     0.031 C 
ATOM     61  C   UNL A   1      41.851  30.374  35.623  1.00  0.00     0.029 A 
ATOM     62  C   UNL A   1      41.028  30.503  34.516  1.00  0.00     0.049 A 
ATOM     63  H   UNL A   1      41.148  29.522  32.650  1.00  0.00     0.167 HD
ATOM     64  C   UNL A   1      39.122  31.416  33.222  1.00  0.00     0.074 A 
ATOM     65  C   UNL A   1      37.948  32.252  33.078  1.00  0.00     0.031 C 
ATOM     66  C   UNL A   1      39.868  31.340  34.352  1.00  0.00     0.037 A 
BRANCH  53  67
ATOM     67  C   UNL A   1      44.587  27.372  33.978  1.00  0.00     0.064 A 
ATOM     68  C   UNL A   1      44.455  26.170  34.690  1.00  0.00     0.173 A 
ATOM     69  C   UNL A   1      45.865  27.942  33.881  1.00  0.00     0.173 A 
ATOM     70  F   UNL A   1      43.252  25.593  34.827  1.00  0.00    -0.203 F 
ATOM     71  C   UNL A   1      45.558  25.575  35.298  1.00  0.00     0.198 A 
ATOM     72  C   UNL A   1      46.970  27.327  34.463  1.00  0.00     0.198 A 
ATOM     73  F   UNL A   1      46.045  29.090  33.211  1.00  0.00    -0.203 F 
ATOM     74  F   UNL A   1      45.402  24.452  36.013  1.00  0.00    -0.200 F 
ATOM     75  C   UNL A   1      46.815  26.148  35.176  1.00  0.00     0.200 A 
ATOM     76  F   UNL A   1      48.185  27.876  34.333  1.00  0.00    -0.200 F 
ATOM     77  F   UNL A   1      47.876  25.567  35.752  1.00  0.00    -0.200 F 
ENDBRANCH  53  67
BRANCH  54  78
ATOM     78  C   UNL A   1      36.835  31.377  29.107  1.00  0.00     0.064 A 
ATOM     79  C   UNL A   1      36.817  32.724  28.718  1.00  0.00     0.173 A 
ATOM     80  C   UNL A   1      35.683  30.615  28.862  1.00  0.00     0.173 A 
ATOM     81  F   UNL A   1      37.883  33.504  28.957  1.00  0.00    -0.203 F 
ATOM     82  C   UNL A   1      35.685  33.294  28.139  1.00  0.00     0.198 A 
ATOM     83  C   UNL A   1      34.562  31.177  28.252  1.00  0.00     0.198 A 
ATOM     84  F   UNL A   1      35.641  29.324  29.221  1.00  0.00    -0.203 F 
ATOM     85  F   UNL A   1      35.673  34.599  27.839  1.00  0.00    -0.200 F 
ATOM     86  C   UNL A   1      34.560  32.518  27.902  1.00  0.00     0.200 A 
ATOM     87  F   UNL A   1      33.480  30.422  28.018  1.00  0.00    -0.200 F 
ATOM     88  F   UNL A   1      33.468  33.067  27.352  1.00  0.00    -0.200 F 
ENDBRANCH  54  78
BRANCH  66  89
ATOM     89  C   UNL A   1      39.471  32.215  35.507  1.00  0.00     0.064 A 
ATOM     90  C   UNL A   1      38.581  31.777  36.499  1.00  0.00     0.173 A 
ATOM     91  C   UNL A   1      40.026  33.498  35.648  1.00  0.00     0.173 A 
ATOM     92  F   UNL A   1      38.012  30.565  36.409  1.00  0.00    -0.203 F 
ATOM     93  C   UNL A   1      38.240  32.599  37.571  1.00  0.00     0.198 A 
ATOM     94  C   UNL A   1      39.710  34.303  36.739  1.00  0.00     0.198 A 
ATOM     95  F   UNL A   1      40.891  33.964  34.735  1.00  0.00    -0.203 F 
ATOM     96  F   UNL A   1      37.346  32.178  38.477  1.00  0.00    -0.200 F 
ATOM     97  C   UNL A   1      38.811  33.857  37.694  1.00  0.00     0.200 A 
ATOM     98  F   UNL A   1      40.279  35.510  36.865  1.00  0.00    -0.200 F 
ATOM     99  F   UNL A   1      38.488  34.642  38.730  1.00  0.00    -0.200 F 
ENDBRANCH  66  89
ENDBRANCH  40  41
ENDBRANCH  33  35
ENDBRANCH  32  33
ENDBRANCH  31  32
ENDBRANCH  30  31
ENDBRANCH  29  30
ENDBRANCH  28  29
ENDBRANCH  27  28
ENDBRANCH  26  27
ENDBRANCH  25  26
ENDBRANCH   1  25
TORSDOF 27
ENDMDL
