MODEL 1
REMARK VINA RESULT:      -9.6      0.000      0.000
REMARK SMILES CC(C)N(CCCC(=O)OCCOCCOCCOCCOC(=O)c1ccc(-c2c3nc(c(-c4c(F)c(F)c(F)c(F)c4F)c4ccc([nH]4)c(-c4c(F)c(F)c(F)c(F)c4F)c4nc(c(-c5c(F)c(F)c(F)c(F)c5F)c5ccc2[nH]5)C=C4)C=C3)cc1)c1cc(Cl)c(Cl)cc1[N+](=O)[O-]
REMARK SMILES IDX 14 1 13 2 12 3 11 4 10 5 8 6 9 7 7 8 6 9 5 10 4 11 2 12 1 13
REMARK SMILES IDX 3 14 88 15 89 16 95 17 90 18 94 19 91 20 92 21 93 22 96 23
REMARK SMILES IDX 97 24 98 25 15 26 16 27 17 28 18 29 19 30 20 31 21 32 22 33
REMARK SMILES IDX 23 34 24 35 25 36 26 37 87 38 27 39 86 40 28 41 29 42 30 43
REMARK SMILES IDX 80 44 31 45 85 46 79 47 81 48 32 49 84 50 78 51 77 52 33 54
REMARK SMILES IDX 65 55 45 56 64 57 46 58 49 59 63 60 82 61 47 62 48 63 62 65
REMARK SMILES IDX 83 66 50 67 34 68 35 69 43 70 36 71 37 72 41 73 44 74 38 75
REMARK SMILES IDX 39 76 42 77 40 78 66 79 67 80 75 81 68 82 69 83 73 84 76 85
REMARK SMILES IDX 70 86 71 87 74 88 72 89 51 90 52 91 60 92 53 93 54 94 58 95
REMARK SMILES IDX 61 96 55 97 56 98 59 99 57 100
REMARK H PARENT 81 53 49 64
REMARK Flexibility Score: inf
ROOT
ATOM      1  C   UNL A   1      41.166  21.493  28.027  1.00  0.00     0.188 C 
ENDROOT
BRANCH   1   2
ATOM      2  O   UNL A   1      40.425  22.645  27.686  1.00  0.00    -0.376 OA
BRANCH   2   3
ATOM      3  C   UNL A   1      39.773  22.754  26.433  1.00  0.00     0.202 C 
BRANCH   3   4
ATOM      4  C   UNL A   1      38.408  22.118  26.118  1.00  0.00     0.261 C 
BRANCH   4   5
ATOM      5  O   UNL A   1      38.073  22.028  24.733  1.00  0.00    -0.463 OA
BRANCH   5   6
ATOM      6  C   UNL A   1      37.033  22.757  24.280  1.00  0.00     0.305 C 
ATOM      7  O   UNL A   1      36.420  22.516  23.249  1.00  0.00    -0.252 OA
BRANCH   6   8
ATOM      8  C   UNL A   1      36.593  23.816  25.273  1.00  0.00     0.124 C 
BRANCH   8   9
ATOM      9  C   UNL A   1      35.100  24.084  25.540  1.00  0.00     0.033 C 
BRANCH   9  10
ATOM     10  C   UNL A   1      34.035  23.569  24.563  1.00  0.00     0.117 C 
BRANCH  10  11
ATOM     11  N   UNL A   1      32.699  24.125  24.838  1.00  0.00    -0.364 N 
BRANCH  11  12
ATOM     12  C   UNL A   1      31.591  23.173  25.044  1.00  0.00     0.076 C 
ATOM     13  C   UNL A   1      31.852  21.841  24.352  1.00  0.00     0.030 C 
ATOM     14  C   UNL A   1      31.250  22.997  26.518  1.00  0.00     0.030 C 
ENDBRANCH  11  12
BRANCH  11  15
ATOM     15  C   UNL A   1      32.574  25.504  24.829  1.00  0.00     0.117 A 
ATOM     16  C   UNL A   1      32.316  26.162  26.043  1.00  0.00     0.055 A 
ATOM     17  C   UNL A   1      32.514  26.303  23.676  1.00  0.00     0.294 A 
ATOM     18  C   UNL A   1      31.864  27.490  26.095  1.00  0.00     0.062 A 
ATOM     19  C   UNL A   1      32.118  27.651  23.705  1.00  0.00     0.110 A 
ATOM     20  Cl  UNL A   1      31.383  28.112  27.634  1.00  0.00    -0.083 Cl
ATOM     21  C   UNL A   1      31.746  28.229  24.917  1.00  0.00     0.066 A 
ATOM     22  Cl  UNL A   1      31.133  29.841  24.887  1.00  0.00    -0.082 Cl
BRANCH  17  23
ATOM     23  N   UNL A   1      32.872  25.775  22.379  1.00  0.00     0.065 N 
ATOM     24  O   UNL A   1      34.034  25.988  22.000  1.00  0.00    -0.258 OA
ATOM     25  O   UNL A   1      31.983  25.238  21.706  1.00  0.00    -0.258 OA
ENDBRANCH  17  23
ENDBRANCH  11  15
ENDBRANCH  10  11
ENDBRANCH   9  10
ENDBRANCH   8   9
ENDBRANCH   6   8
ENDBRANCH   5   6
ENDBRANCH   4   5
ENDBRANCH   3   4
ENDBRANCH   2   3
ENDBRANCH   1   2
BRANCH   1  26
ATOM     26  C   UNL A   1      42.193  21.072  26.959  1.00  0.00     0.188 C 
BRANCH  26  27
ATOM     27  O   UNL A   1      41.924  19.911  26.188  1.00  0.00    -0.377 OA
BRANCH  27  28
ATOM     28  C   UNL A   1      42.953  18.933  26.029  1.00  0.00     0.188 C 
BRANCH  28  29
ATOM     29  C   UNL A   1      43.882  18.924  24.792  1.00  0.00     0.188 C 
BRANCH  29  30
ATOM     30  O   UNL A   1      44.220  20.194  24.265  1.00  0.00    -0.376 OA
BRANCH  30  31
ATOM     31  C   UNL A   1      45.118  21.013  24.998  1.00  0.00     0.202 C 
BRANCH  31  32
ATOM     32  C   UNL A   1      45.204  22.499  24.611  1.00  0.00     0.261 C 
BRANCH  32  33
ATOM     33  O   UNL A   1      44.583  23.420  25.523  1.00  0.00    -0.460 OA
BRANCH  33  34
ATOM     34  C   UNL A   1      44.959  24.712  25.449  1.00  0.00     0.338 C 
ATOM     35  O   UNL A   1      45.708  25.224  24.633  1.00  0.00    -0.246 OA
BRANCH  34  36
ATOM     36  C   UNL A   1      44.155  25.469  26.425  1.00  0.00     0.060 A 
ATOM     37  C   UNL A   1      44.323  26.858  26.512  1.00  0.00     0.016 A 
ATOM     38  C   UNL A   1      43.246  24.809  27.252  1.00  0.00     0.016 A 
ATOM     39  C   UNL A   1      43.606  27.587  27.457  1.00  0.00     0.010 A 
ATOM     40  C   UNL A   1      42.550  25.538  28.219  1.00  0.00     0.010 A 
ATOM     41  C   UNL A   1      42.758  26.923  28.349  1.00  0.00    -0.014 A 
BRANCH  41  42
ATOM     42  C   UNL A   1      42.269  27.635  29.552  1.00  0.00     0.031 A 
ATOM     43  C   UNL A   1      40.981  28.404  29.442  1.00  0.00     0.074 A 
ATOM     44  C   UNL A   1      42.929  27.575  30.720  1.00  0.00     0.049 A 
ATOM     45  N   UNL A   1      40.378  29.153  30.329  1.00  0.00    -0.248 NA
ATOM     46  C   UNL A   1      40.278  28.317  28.151  1.00  0.00     0.031 C 
ATOM     47  C   UNL A   1      44.155  26.820  30.961  1.00  0.00     0.029 A 
ATOM     48  N   UNL A   1      42.657  28.175  31.925  1.00  0.00    -0.354 N 
ATOM     49  C   UNL A   1      39.234  29.629  29.702  1.00  0.00     0.074 A 
ATOM     50  C   UNL A   1      39.241  29.115  28.352  1.00  0.00     0.031 C 
ATOM     51  C   UNL A   1      44.542  27.015  32.235  1.00  0.00     0.029 A 
ATOM     52  C   UNL A   1      43.610  27.936  32.883  1.00  0.00     0.049 A 
ATOM     53  H   UNL A   1      41.856  28.724  32.085  1.00  0.00     0.167 HD
ATOM     54  C   UNL A   1      38.262  30.420  30.212  1.00  0.00     0.037 A 
ATOM     55  C   UNL A   1      43.726  28.433  34.131  1.00  0.00     0.037 A 
ATOM     56  C   UNL A   1      38.261  30.932  31.557  1.00  0.00     0.049 A 
ATOM     57  C   UNL A   1      42.673  29.384  34.646  1.00  0.00     0.074 A 
ATOM     58  C   UNL A   1      37.318  31.733  32.175  1.00  0.00     0.029 A 
ATOM     59  N   UNL A   1      39.261  30.697  32.489  1.00  0.00    -0.354 N 
ATOM     60  N   UNL A   1      41.584  29.817  34.058  1.00  0.00    -0.248 NA
ATOM     61  C   UNL A   1      42.866  29.913  36.004  1.00  0.00     0.031 C 
ATOM     62  C   UNL A   1      37.779  32.037  33.459  1.00  0.00     0.029 A 
ATOM     63  C   UNL A   1      38.973  31.365  33.668  1.00  0.00     0.049 A 
ATOM     64  H   UNL A   1      40.057  30.140  32.336  1.00  0.00     0.167 HD
ATOM     65  C   UNL A   1      40.948  30.638  34.981  1.00  0.00     0.074 A 
ATOM     66  C   UNL A   1      41.765  30.630  36.176  1.00  0.00     0.031 C 
ATOM     67  C   UNL A   1      39.791  31.337  34.854  1.00  0.00     0.037 A 
BRANCH  54  68
ATOM     68  C   UNL A   1      37.131  30.807  29.303  1.00  0.00     0.064 A 
ATOM     69  C   UNL A   1      36.120  29.900  28.948  1.00  0.00     0.173 A 
ATOM     70  C   UNL A   1      37.040  32.117  28.807  1.00  0.00     0.173 A 
ATOM     71  F   UNL A   1      36.170  28.631  29.380  1.00  0.00    -0.203 F 
ATOM     72  C   UNL A   1      35.074  30.284  28.114  1.00  0.00     0.198 A 
ATOM     73  C   UNL A   1      35.974  32.505  28.000  1.00  0.00     0.198 A 
ATOM     74  F   UNL A   1      37.979  33.024  29.115  1.00  0.00    -0.203 F 
ATOM     75  F   UNL A   1      34.147  29.388  27.749  1.00  0.00    -0.200 F 
ATOM     76  C   UNL A   1      34.997  31.588  27.648  1.00  0.00     0.200 A 
ATOM     77  F   UNL A   1      35.895  33.770  27.562  1.00  0.00    -0.200 F 
ATOM     78  F   UNL A   1      33.982  31.959  26.854  1.00  0.00    -0.200 F 
ENDBRANCH  54  68
BRANCH  55  79
ATOM     79  C   UNL A   1      44.893  28.067  34.977  1.00  0.00     0.064 A 
ATOM     80  C   UNL A   1      46.053  28.854  34.995  1.00  0.00     0.173 A 
ATOM     81  C   UNL A   1      44.890  26.897  35.753  1.00  0.00     0.173 A 
ATOM     82  F   UNL A   1      46.119  29.966  34.247  1.00  0.00    -0.203 F 
ATOM     83  C   UNL A   1      47.173  28.473  35.733  1.00  0.00     0.198 A 
ATOM     84  C   UNL A   1      45.997  26.535  36.518  1.00  0.00     0.198 A 
ATOM     85  F   UNL A   1      43.811  26.102  35.766  1.00  0.00    -0.203 F 
ATOM     86  F   UNL A   1      48.289  29.211  35.679  1.00  0.00    -0.200 F 
ATOM     87  C   UNL A   1      47.142  27.318  36.498  1.00  0.00     0.200 A 
ATOM     88  F   UNL A   1      45.962  25.419  37.258  1.00  0.00    -0.200 F 
ATOM     89  F   UNL A   1      48.221  26.949  37.202  1.00  0.00    -0.200 F 
ENDBRANCH  55  79
BRANCH  67  90
ATOM     90  C   UNL A   1      39.312  32.112  36.049  1.00  0.00     0.064 A 
ATOM     91  C   UNL A   1      38.347  31.599  36.928  1.00  0.00     0.173 A 
ATOM     92  C   UNL A   1      39.863  33.370  36.345  1.00  0.00     0.173 A 
ATOM     93  F   UNL A   1      37.780  30.407  36.689  1.00  0.00    -0.203 F 
ATOM     94  C   UNL A   1      37.930  32.328  38.040  1.00  0.00     0.198 A 
ATOM     95  C   UNL A   1      39.471  34.079  37.475  1.00  0.00     0.198 A 
ATOM     96  F   UNL A   1      40.799  33.903  35.544  1.00  0.00    -0.203 F 
ATOM     97  F   UNL A   1      36.968  31.841  38.835  1.00  0.00    -0.200 F 
ATOM     98  C   UNL A   1      38.497  33.563  38.317  1.00  0.00     0.200 A 
ATOM     99  F   UNL A   1      40.036  35.263  37.752  1.00  0.00    -0.200 F 
ATOM    100  F   UNL A   1      38.102  34.258  39.392  1.00  0.00    -0.200 F 
ENDBRANCH  67  90
ENDBRANCH  41  42
ENDBRANCH  34  36
ENDBRANCH  33  34
ENDBRANCH  32  33
ENDBRANCH  31  32
ENDBRANCH  30  31
ENDBRANCH  29  30
ENDBRANCH  28  29
ENDBRANCH  27  28
ENDBRANCH  26  27
ENDBRANCH   1  26
TORSDOF 26
ENDMDL
MODEL 2
REMARK VINA RESULT:      -9.4      4.033      8.891
REMARK SMILES CC(C)N(CCCC(=O)OCCOCCOCCOCCOC(=O)c1ccc(-c2c3nc(c(-c4c(F)c(F)c(F)c(F)c4F)c4ccc([nH]4)c(-c4c(F)c(F)c(F)c(F)c4F)c4nc(c(-c5c(F)c(F)c(F)c(F)c5F)c5ccc2[nH]5)C=C4)C=C3)cc1)c1cc(Cl)c(Cl)cc1[N+](=O)[O-]
REMARK SMILES IDX 14 1 13 2 12 3 11 4 10 5 8 6 9 7 7 8 6 9 5 10 4 11 2 12 1 13
REMARK SMILES IDX 3 14 88 15 89 16 95 17 90 18 94 19 91 20 92 21 93 22 96 23
REMARK SMILES IDX 97 24 98 25 15 26 16 27 17 28 18 29 19 30 20 31 21 32 22 33
REMARK SMILES IDX 23 34 24 35 25 36 26 37 87 38 27 39 86 40 28 41 29 42 30 43
REMARK SMILES IDX 80 44 31 45 85 46 79 47 81 48 32 49 84 50 78 51 77 52 33 54
REMARK SMILES IDX 65 55 45 56 64 57 46 58 49 59 63 60 82 61 47 62 48 63 62 65
REMARK SMILES IDX 83 66 50 67 34 68 35 69 43 70 36 71 37 72 41 73 44 74 38 75
REMARK SMILES IDX 39 76 42 77 40 78 66 79 67 80 75 81 68 82 69 83 73 84 76 85
REMARK SMILES IDX 70 86 71 87 74 88 72 89 51 90 52 91 60 92 53 93 54 94 58 95
REMARK SMILES IDX 61 96 55 97 56 98 59 99 57 100
REMARK H PARENT 81 53 49 64
REMARK Flexibility Score: inf
ROOT
ATOM      1  C   UNL A   1      30.206  26.060  25.506  1.00  0.00     0.188 C 
ENDROOT
BRANCH   1   2
ATOM      2  O   UNL A   1      29.683  27.015  24.607  1.00  0.00    -0.376 OA
BRANCH   2   3
ATOM      3  C   UNL A   1      29.971  26.954  23.222  1.00  0.00     0.202 C 
BRANCH   3   4
ATOM      4  C   UNL A   1      31.387  27.082  22.634  1.00  0.00     0.261 C 
BRANCH   4   5
ATOM      5  O   UNL A   1      32.189  28.131  23.176  1.00  0.00    -0.463 OA
BRANCH   5   6
ATOM      6  C   UNL A   1      33.380  27.807  23.721  1.00  0.00     0.305 C 
ATOM      7  O   UNL A   1      34.087  28.587  24.346  1.00  0.00    -0.252 OA
BRANCH   6   8
ATOM      8  C   UNL A   1      33.676  26.323  23.621  1.00  0.00     0.124 C 
BRANCH   8   9
ATOM      9  C   UNL A   1      34.233  25.540  24.826  1.00  0.00     0.033 C 
BRANCH   9  10
ATOM     10  C   UNL A   1      33.629  24.184  25.213  1.00  0.00     0.117 C 
BRANCH  10  11
ATOM     11  N   UNL A   1      34.383  23.050  24.652  1.00  0.00    -0.364 N 
BRANCH  11  12
ATOM     12  C   UNL A   1      35.846  23.194  24.531  1.00  0.00     0.076 C 
ATOM     13  C   UNL A   1      36.573  22.645  25.752  1.00  0.00     0.030 C 
ATOM     14  C   UNL A   1      36.377  22.602  23.232  1.00  0.00     0.030 C 
ENDBRANCH  11  12
BRANCH  11  15
ATOM     15  C   UNL A   1      33.652  21.952  24.229  1.00  0.00     0.117 A 
ATOM     16  C   UNL A   1      33.853  20.722  24.879  1.00  0.00     0.055 A 
ATOM     17  C   UNL A   1      32.839  21.913  23.085  1.00  0.00     0.294 A 
ATOM     18  C   UNL A   1      33.412  19.506  24.334  1.00  0.00     0.062 A 
ATOM     19  C   UNL A   1      32.338  20.715  22.549  1.00  0.00     0.110 A 
ATOM     20  Cl  UNL A   1      33.906  18.050  25.124  1.00  0.00    -0.083 Cl
ATOM     21  C   UNL A   1      32.669  19.504  23.153  1.00  0.00     0.066 A 
ATOM     22  Cl  UNL A   1      32.151  18.050  22.382  1.00  0.00    -0.082 Cl
BRANCH  17  23
ATOM     23  N   UNL A   1      32.460  23.125  22.394  1.00  0.00     0.065 N 
ATOM     24  O   UNL A   1      33.265  23.553  21.552  1.00  0.00    -0.258 OA
ATOM     25  O   UNL A   1      31.419  23.693  22.749  1.00  0.00    -0.258 OA
ENDBRANCH  17  23
ENDBRANCH  11  15
ENDBRANCH  10  11
ENDBRANCH   9  10
ENDBRANCH   8   9
ENDBRANCH   6   8
ENDBRANCH   5   6
ENDBRANCH   4   5
ENDBRANCH   3   4
ENDBRANCH   2   3
ENDBRANCH   1   2
BRANCH   1  26
ATOM     26  C   UNL A   1      31.237  26.634  26.496  1.00  0.00     0.188 C 
BRANCH  26  27
ATOM     27  O   UNL A   1      31.383  28.044  26.575  1.00  0.00    -0.377 OA
BRANCH  27  28
ATOM     28  C   UNL A   1      32.266  28.594  27.551  1.00  0.00     0.188 C 
BRANCH  28  29
ATOM     29  C   UNL A   1      33.170  29.810  27.237  1.00  0.00     0.188 C 
BRANCH  29  30
ATOM     30  O   UNL A   1      32.496  31.024  26.957  1.00  0.00    -0.376 OA
BRANCH  30  31
ATOM     31  C   UNL A   1      33.153  32.246  27.256  1.00  0.00     0.202 C 
BRANCH  31  32
ATOM     32  C   UNL A   1      32.275  33.456  27.616  1.00  0.00     0.261 C 
BRANCH  32  33
ATOM     33  O   UNL A   1      32.978  34.675  27.905  1.00  0.00    -0.460 OA
BRANCH  33  34
ATOM     34  C   UNL A   1      33.245  34.944  29.199  1.00  0.00     0.338 C 
ATOM     35  O   UNL A   1      32.588  35.625  29.969  1.00  0.00    -0.246 OA
BRANCH  34  36
ATOM     36  C   UNL A   1      34.393  34.111  29.601  1.00  0.00     0.060 A 
ATOM     37  C   UNL A   1      34.194  33.088  30.538  1.00  0.00     0.016 A 
ATOM     38  C   UNL A   1      35.658  34.345  29.061  1.00  0.00     0.016 A 
ATOM     39  C   UNL A   1      35.272  32.317  30.966  1.00  0.00     0.010 A 
ATOM     40  C   UNL A   1      36.743  33.591  29.513  1.00  0.00     0.010 A 
ATOM     41  C   UNL A   1      36.558  32.601  30.495  1.00  0.00    -0.014 A 
BRANCH  41  42
ATOM     42  C   UNL A   1      37.730  32.024  31.193  1.00  0.00     0.031 A 
ATOM     43  C   UNL A   1      38.516  30.954  30.486  1.00  0.00     0.074 A 
ATOM     44  C   UNL A   1      38.109  32.458  32.406  1.00  0.00     0.049 A 
ATOM     45  N   UNL A   1      39.539  30.255  30.906  1.00  0.00    -0.248 NA
ATOM     46  C   UNL A   1      38.085  30.626  29.117  1.00  0.00     0.031 C 
ATOM     47  C   UNL A   1      37.460  33.525  33.164  1.00  0.00     0.029 A 
ATOM     48  N   UNL A   1      39.135  32.042  33.217  1.00  0.00    -0.354 N 
ATOM     49  C   UNL A   1      39.867  29.404  29.859  1.00  0.00     0.074 A 
ATOM     50  C   UNL A   1      38.917  29.648  28.797  1.00  0.00     0.031 C 
ATOM     51  C   UNL A   1      38.094  33.669  34.341  1.00  0.00     0.029 A 
ATOM     52  C   UNL A   1      39.168  32.681  34.431  1.00  0.00     0.049 A 
ATOM     53  H   UNL A   1      39.785  31.351  32.953  1.00  0.00     0.167 HD
ATOM     54  C   UNL A   1      40.876  28.506  29.788  1.00  0.00     0.037 A 
ATOM     55  C   UNL A   1      39.960  32.466  35.502  1.00  0.00     0.037 A 
ATOM     56  C   UNL A   1      41.817  28.265  30.849  1.00  0.00     0.049 A 
ATOM     57  C   UNL A   1      41.022  31.396  35.429  1.00  0.00     0.074 A 
ATOM     58  C   UNL A   1      42.882  27.383  30.874  1.00  0.00     0.029 A 
ATOM     59  N   UNL A   1      41.798  28.907  32.079  1.00  0.00    -0.354 N 
ATOM     60  N   UNL A   1      41.341  30.606  34.431  1.00  0.00    -0.248 NA
ATOM     61  C   UNL A   1      41.838  31.189  36.634  1.00  0.00     0.031 C 
ATOM     62  C   UNL A   1      43.468  27.444  32.142  1.00  0.00     0.029 A 
ATOM     63  C   UNL A   1      42.815  28.416  32.882  1.00  0.00     0.049 A 
ATOM     64  H   UNL A   1      41.157  29.606  32.342  1.00  0.00     0.167 HD
ATOM     65  C   UNL A   1      42.410  29.838  34.875  1.00  0.00     0.074 A 
ATOM     66  C   UNL A   1      42.697  30.266  36.227  1.00  0.00     0.031 C 
ATOM     67  C   UNL A   1      43.095  28.864  34.223  1.00  0.00     0.037 A 
BRANCH  54  68
ATOM     68  C   UNL A   1      40.995  27.691  28.532  1.00  0.00     0.064 A 
ATOM     69  C   UNL A   1      40.228  26.534  28.323  1.00  0.00     0.173 A 
ATOM     70  C   UNL A   1      41.865  28.094  27.508  1.00  0.00     0.173 A 
ATOM     71  F   UNL A   1      39.394  26.094  29.278  1.00  0.00    -0.203 F 
ATOM     72  C   UNL A   1      40.345  25.800  27.146  1.00  0.00     0.198 A 
ATOM     73  C   UNL A   1      41.954  27.376  26.319  1.00  0.00     0.198 A 
ATOM     74  F   UNL A   1      42.621  29.192  27.656  1.00  0.00    -0.203 F 
ATOM     75  F   UNL A   1      39.639  24.673  26.988  1.00  0.00    -0.200 F 
ATOM     76  C   UNL A   1      41.200  26.227  26.141  1.00  0.00     0.200 A 
ATOM     77  F   UNL A   1      42.771  27.799  25.344  1.00  0.00    -0.200 F 
ATOM     78  F   UNL A   1      41.303  25.526  25.003  1.00  0.00    -0.200 F 
ENDBRANCH  54  68
BRANCH  55  79
ATOM     79  C   UNL A   1      39.768  33.258  36.746  1.00  0.00     0.064 A 
ATOM     80  C   UNL A   1      40.537  34.401  37.005  1.00  0.00     0.173 A 
ATOM     81  C   UNL A   1      38.841  32.863  37.723  1.00  0.00     0.173 A 
ATOM     82  F   UNL A   1      41.458  34.804  36.117  1.00  0.00    -0.203 F 
ATOM     83  C   UNL A   1      40.406  35.103  38.202  1.00  0.00     0.198 A 
ATOM     84  C   UNL A   1      38.687  33.585  38.905  1.00  0.00     0.198 A 
ATOM     85  F   UNL A   1      38.087  31.772  37.531  1.00  0.00    -0.203 F 
ATOM     86  F   UNL A   1      41.199  36.154  38.449  1.00  0.00    -0.200 F 
ATOM     87  C   UNL A   1      39.477  34.698  39.148  1.00  0.00     0.200 A 
ATOM     88  F   UNL A   1      37.786  33.191  39.815  1.00  0.00    -0.200 F 
ATOM     89  F   UNL A   1      39.357  35.369  40.302  1.00  0.00    -0.200 F 
ENDBRANCH  55  79
BRANCH  67  90
ATOM     90  C   UNL A   1      44.251  28.227  34.942  1.00  0.00     0.064 A 
ATOM     91  C   UNL A   1      45.545  28.769  34.891  1.00  0.00     0.173 A 
ATOM     92  C   UNL A   1      44.052  27.083  35.732  1.00  0.00     0.173 A 
ATOM     93  F   UNL A   1      45.794  29.855  34.145  1.00  0.00    -0.203 F 
ATOM     94  C   UNL A   1      46.599  28.171  35.579  1.00  0.00     0.198 A 
ATOM     95  C   UNL A   1      45.099  26.511  36.446  1.00  0.00     0.198 A 
ATOM     96  F   UNL A   1      42.833  26.531  35.825  1.00  0.00    -0.203 F 
ATOM     97  F   UNL A   1      47.836  28.675  35.472  1.00  0.00    -0.200 F 
ATOM     98  C   UNL A   1      46.374  27.049  36.362  1.00  0.00     0.200 A 
ATOM     99  F   UNL A   1      44.874  25.438  37.218  1.00  0.00    -0.200 F 
ATOM    100  F   UNL A   1      47.387  26.482  37.030  1.00  0.00    -0.200 F 
ENDBRANCH  67  90
ENDBRANCH  41  42
ENDBRANCH  34  36
ENDBRANCH  33  34
ENDBRANCH  32  33
ENDBRANCH  31  32
ENDBRANCH  30  31
ENDBRANCH  29  30
ENDBRANCH  28  29
ENDBRANCH  27  28
ENDBRANCH  26  27
ENDBRANCH   1  26
TORSDOF 26
ENDMDL
MODEL 3
REMARK VINA RESULT:      -8.4      2.415      3.519
REMARK SMILES CC(C)N(CCCC(=O)OCCOCCOCCOCCOC(=O)c1ccc(-c2c3nc(c(-c4c(F)c(F)c(F)c(F)c4F)c4ccc([nH]4)c(-c4c(F)c(F)c(F)c(F)c4F)c4nc(c(-c5c(F)c(F)c(F)c(F)c5F)c5ccc2[nH]5)C=C4)C=C3)cc1)c1cc(Cl)c(Cl)cc1[N+](=O)[O-]
REMARK SMILES IDX 14 1 13 2 12 3 11 4 10 5 8 6 9 7 7 8 6 9 5 10 4 11 2 12 1 13
REMARK SMILES IDX 3 14 88 15 89 16 95 17 90 18 94 19 91 20 92 21 93 22 96 23
REMARK SMILES IDX 97 24 98 25 15 26 16 27 17 28 18 29 19 30 20 31 21 32 22 33
REMARK SMILES IDX 23 34 24 35 25 36 26 37 87 38 27 39 86 40 28 41 29 42 30 43
REMARK SMILES IDX 80 44 31 45 85 46 79 47 81 48 32 49 84 50 78 51 77 52 33 54
REMARK SMILES IDX 65 55 45 56 64 57 46 58 49 59 63 60 82 61 47 62 48 63 62 65
REMARK SMILES IDX 83 66 50 67 34 68 35 69 43 70 36 71 37 72 41 73 44 74 38 75
REMARK SMILES IDX 39 76 42 77 40 78 66 79 67 80 75 81 68 82 69 83 73 84 76 85
REMARK SMILES IDX 70 86 71 87 74 88 72 89 51 90 52 91 60 92 53 93 54 94 58 95
REMARK SMILES IDX 61 96 55 97 56 98 59 99 57 100
REMARK H PARENT 81 53 49 64
REMARK Flexibility Score: inf
ROOT
ATOM      1  C   UNL A   1      41.929  23.474  28.330  1.00  0.00     0.188 C 
ENDROOT
BRANCH   1   2
ATOM      2  O   UNL A   1      40.848  24.159  27.735  1.00  0.00    -0.376 OA
BRANCH   2   3
ATOM      3  C   UNL A   1      40.017  23.528  26.777  1.00  0.00     0.202 C 
BRANCH   3   4
ATOM      4  C   UNL A   1      38.530  23.869  26.575  1.00  0.00     0.261 C 
BRANCH   4   5
ATOM      5  O   UNL A   1      37.802  22.979  25.729  1.00  0.00    -0.463 OA
BRANCH   5   6
ATOM      6  C   UNL A   1      36.944  23.510  24.834  1.00  0.00     0.305 C 
ATOM      7  O   UNL A   1      36.805  23.104  23.687  1.00  0.00    -0.252 OA
BRANCH   6   8
ATOM      8  C   UNL A   1      36.043  24.563  25.450  1.00  0.00     0.124 C 
BRANCH   8   9
ATOM      9  C   UNL A   1      34.519  24.536  25.225  1.00  0.00     0.033 C 
BRANCH   9  10
ATOM     10  C   UNL A   1      33.914  23.647  24.131  1.00  0.00     0.117 C 
BRANCH  10  11
ATOM     11  N   UNL A   1      32.781  22.843  24.620  1.00  0.00    -0.364 N 
BRANCH  11  12
ATOM     12  C   UNL A   1      31.532  23.553  24.952  1.00  0.00     0.076 C 
ATOM     13  C   UNL A   1      30.935  24.251  23.736  1.00  0.00     0.030 C 
ATOM     14  C   UNL A   1      30.523  22.650  25.648  1.00  0.00     0.030 C 
ENDBRANCH  11  12
BRANCH  11  15
ATOM     15  C   UNL A   1      32.993  21.484  24.783  1.00  0.00     0.117 A 
ATOM     16  C   UNL A   1      32.727  20.629  23.699  1.00  0.00     0.055 A 
ATOM     17  C   UNL A   1      33.292  20.851  26.000  1.00  0.00     0.294 A 
ATOM     18  C   UNL A   1      32.605  19.240  23.852  1.00  0.00     0.062 A 
ATOM     19  C   UNL A   1      33.231  19.458  26.168  1.00  0.00     0.110 A 
ATOM     20  Cl  UNL A   1      32.069  18.328  22.485  1.00  0.00    -0.083 Cl
ATOM     21  C   UNL A   1      32.838  18.656  25.098  1.00  0.00     0.066 A 
ATOM     22  Cl  UNL A   1      32.640  16.967  25.387  1.00  0.00    -0.082 Cl
BRANCH  17  23
ATOM     23  N   UNL A   1      33.697  21.613  27.160  1.00  0.00     0.065 N 
ATOM     24  O   UNL A   1      34.918  21.756  27.326  1.00  0.00    -0.258 OA
ATOM     25  O   UNL A   1      32.816  21.984  27.946  1.00  0.00    -0.258 OA
ENDBRANCH  17  23
ENDBRANCH  11  15
ENDBRANCH  10  11
ENDBRANCH   9  10
ENDBRANCH   8   9
ENDBRANCH   6   8
ENDBRANCH   5   6
ENDBRANCH   4   5
ENDBRANCH   3   4
ENDBRANCH   2   3
ENDBRANCH   1   2
BRANCH   1  26
ATOM     26  C   UNL A   1      42.746  22.619  27.342  1.00  0.00     0.188 C 
BRANCH  26  27
ATOM     27  O   UNL A   1      42.359  21.267  27.143  1.00  0.00    -0.377 OA
BRANCH  27  28
ATOM     28  C   UNL A   1      43.267  20.377  26.496  1.00  0.00     0.188 C 
BRANCH  28  29
ATOM     29  C   UNL A   1      43.599  20.506  24.990  1.00  0.00     0.188 C 
BRANCH  29  30
ATOM     30  O   UNL A   1      44.069  21.774  24.568  1.00  0.00    -0.376 OA
BRANCH  30  31
ATOM     31  C   UNL A   1      45.351  22.199  25.006  1.00  0.00     0.202 C 
BRANCH  31  32
ATOM     32  C   UNL A   1      45.810  23.609  24.599  1.00  0.00     0.261 C 
BRANCH  32  33
ATOM     33  O   UNL A   1      45.854  24.582  25.655  1.00  0.00    -0.460 OA
BRANCH  33  34
ATOM     34  C   UNL A   1      45.904  25.881  25.298  1.00  0.00     0.338 C 
ATOM     35  O   UNL A   1      46.390  26.356  24.285  1.00  0.00    -0.246 OA
BRANCH  34  36
ATOM     36  C   UNL A   1      45.091  26.642  26.264  1.00  0.00     0.060 A 
ATOM     37  C   UNL A   1      45.248  28.033  26.336  1.00  0.00     0.016 A 
ATOM     38  C   UNL A   1      44.185  25.984  27.097  1.00  0.00     0.016 A 
ATOM     39  C   UNL A   1      44.523  28.767  27.271  1.00  0.00     0.010 A 
ATOM     40  C   UNL A   1      43.482  26.718  28.054  1.00  0.00     0.010 A 
ATOM     41  C   UNL A   1      43.678  28.106  28.168  1.00  0.00    -0.014 A 
BRANCH  41  42
ATOM     42  C   UNL A   1      43.181  28.828  29.362  1.00  0.00     0.031 A 
ATOM     43  C   UNL A   1      41.776  29.367  29.327  1.00  0.00     0.074 A 
ATOM     44  C   UNL A   1      43.939  28.973  30.461  1.00  0.00     0.049 A 
ATOM     45  N   UNL A   1      41.135  30.080  30.216  1.00  0.00    -0.248 NA
ATOM     46  C   UNL A   1      40.991  29.060  28.120  1.00  0.00     0.031 C 
ATOM     47  C   UNL A   1      45.291  28.447  30.632  1.00  0.00     0.029 A 
ATOM     48  N   UNL A   1      43.674  29.619  31.643  1.00  0.00    -0.354 N 
ATOM     49  C   UNL A   1      39.878  30.311  29.674  1.00  0.00     0.074 A 
ATOM     50  C   UNL A   1      39.855  29.694  28.367  1.00  0.00     0.031 C 
ATOM     51  C   UNL A   1      45.746  28.808  31.845  1.00  0.00     0.029 A 
ATOM     52  C   UNL A   1      44.731  29.617  32.518  1.00  0.00     0.049 A 
ATOM     53  H   UNL A   1      42.808  30.043  31.844  1.00  0.00     0.167 HD
ATOM     54  C   UNL A   1      38.833  30.974  30.222  1.00  0.00     0.037 A 
ATOM     55  C   UNL A   1      44.868  30.229  33.712  1.00  0.00     0.037 A 
ATOM     56  C   UNL A   1      38.861  31.590  31.521  1.00  0.00     0.049 A 
ATOM     57  C   UNL A   1      43.718  31.037  34.262  1.00  0.00     0.074 A 
ATOM     58  C   UNL A   1      37.853  32.277  32.173  1.00  0.00     0.029 A 
ATOM     59  N   UNL A   1      39.962  31.597  32.366  1.00  0.00    -0.354 N 
ATOM     60  N   UNL A   1      42.525  31.238  33.755  1.00  0.00    -0.248 NA
ATOM     61  C   UNL A   1      43.934  31.701  35.555  1.00  0.00     0.031 C 
ATOM     62  C   UNL A   1      38.363  32.756  33.382  1.00  0.00     0.029 A 
ATOM     63  C   UNL A   1      39.667  32.306  33.519  1.00  0.00     0.049 A 
ATOM     64  H   UNL A   1      40.825  31.165  32.173  1.00  0.00     0.167 HD
ATOM     65  C   UNL A   1      41.841  32.019  34.679  1.00  0.00     0.074 A 
ATOM     66  C   UNL A   1      42.747  32.243  35.785  1.00  0.00     0.031 C 
ATOM     67  C   UNL A   1      40.577  32.509  34.617  1.00  0.00     0.037 A 
BRANCH  54  68
ATOM     68  C   UNL A   1      37.580  31.097  29.403  1.00  0.00     0.064 A 
ATOM     69  C   UNL A   1      37.224  32.297  28.768  1.00  0.00     0.173 A 
ATOM     70  C   UNL A   1      36.742  29.986  29.221  1.00  0.00     0.173 A 
ATOM     71  F   UNL A   1      37.980  33.394  28.924  1.00  0.00    -0.203 F 
ATOM     72  C   UNL A   1      36.064  32.385  28.003  1.00  0.00     0.198 A 
ATOM     73  C   UNL A   1      35.602  30.069  28.428  1.00  0.00     0.198 A 
ATOM     74  F   UNL A   1      37.036  28.814  29.805  1.00  0.00    -0.203 F 
ATOM     75  F   UNL A   1      35.718  33.554  27.447  1.00  0.00    -0.200 F 
ATOM     76  C   UNL A   1      35.259  31.270  27.826  1.00  0.00     0.200 A 
ATOM     77  F   UNL A   1      34.833  28.986  28.247  1.00  0.00    -0.200 F 
ATOM     78  F   UNL A   1      34.149  31.353  27.078  1.00  0.00    -0.200 F 
ENDBRANCH  54  68
BRANCH  55  79
ATOM     79  C   UNL A   1      46.149  30.127  34.462  1.00  0.00     0.064 A 
ATOM     80  C   UNL A   1      47.198  31.029  34.234  1.00  0.00     0.173 A 
ATOM     81  C   UNL A   1      46.365  29.099  35.393  1.00  0.00     0.173 A 
ATOM     82  F   UNL A   1      47.052  32.011  33.332  1.00  0.00    -0.203 F 
ATOM     83  C   UNL A   1      48.422  30.891  34.886  1.00  0.00     0.198 A 
ATOM     84  C   UNL A   1      47.579  28.983  36.070  1.00  0.00     0.198 A 
ATOM     85  F   UNL A   1      45.400  28.204  35.644  1.00  0.00    -0.203 F 
ATOM     86  F   UNL A   1      49.428  31.729  34.599  1.00  0.00    -0.200 F 
ATOM     87  C   UNL A   1      48.609  29.873  35.807  1.00  0.00     0.200 A 
ATOM     88  F   UNL A   1      47.754  27.999  36.962  1.00  0.00    -0.200 F 
ATOM     89  F   UNL A   1      49.789  29.737  36.428  1.00  0.00    -0.200 F 
ENDBRANCH  55  79
BRANCH  67  90
ATOM     90  C   UNL A   1      40.078  33.293  35.799  1.00  0.00     0.064 A 
ATOM     91  C   UNL A   1      40.262  34.680  35.899  1.00  0.00     0.173 A 
ATOM     92  C   UNL A   1      39.363  32.652  36.824  1.00  0.00     0.173 A 
ATOM     93  F   UNL A   1      40.946  35.342  34.953  1.00  0.00    -0.203 F 
ATOM     94  C   UNL A   1      39.777  35.390  36.995  1.00  0.00     0.198 A 
ATOM     95  C   UNL A   1      38.848  33.370  37.899  1.00  0.00     0.198 A 
ATOM     96  F   UNL A   1      39.148  31.329  36.773  1.00  0.00    -0.203 F 
ATOM     97  F   UNL A   1      40.011  36.705  37.096  1.00  0.00    -0.200 F 
ATOM     98  C   UNL A   1      39.063  34.737  37.990  1.00  0.00     0.200 A 
ATOM     99  F   UNL A   1      38.142  32.739  38.848  1.00  0.00    -0.200 F 
ATOM    100  F   UNL A   1      38.589  35.423  39.038  1.00  0.00    -0.200 F 
ENDBRANCH  67  90
ENDBRANCH  41  42
ENDBRANCH  34  36
ENDBRANCH  33  34
ENDBRANCH  32  33
ENDBRANCH  31  32
ENDBRANCH  30  31
ENDBRANCH  29  30
ENDBRANCH  28  29
ENDBRANCH  27  28
ENDBRANCH  26  27
ENDBRANCH   1  26
TORSDOF 26
ENDMDL
