MODEL 1
REMARK VINA RESULT:     -11.3      0.000      0.000
REMARK SMILES O=C(OCCOCCOCCOCCOC(=O)[C@@H]1[C@@H](C(=O)Nc2cccc([N+](=O)[O-])c2)[C@@H]2C=C[C@H]1O2)c1ccc(-c2c3nc(c(-c4c(F)c(F)c(F)c(F)c4F)c4ccc([nH]4)c(-c4c(F)c(F)c(F)c(F)c4F)c4nc(c(-c5c(F)c(F)c(F)c(F)c5F)c5ccc2[nH]5)C=C4)C=C3)cc1
REMARK SMILES IDX 10 1 9 2 8 3 7 4 6 5 5 6 4 7 3 8 2 9 1 10 37 11 38 12 99 13
REMARK SMILES IDX 39 14 98 15 40 16 41 17 42 18 92 19 43 20 97 21 91 22 93 23
REMARK SMILES IDX 44 24 96 25 90 26 89 27 45 29 77 30 57 31 76 32 58 33 61 34
REMARK SMILES IDX 75 35 94 36 59 37 60 38 74 40 95 41 62 42 46 43 47 44 55 45
REMARK SMILES IDX 48 46 49 47 53 48 56 49 50 50 51 51 54 52 52 53 78 54 79 55
REMARK SMILES IDX 87 56 80 57 81 58 85 59 88 60 82 61 83 62 86 63 84 64 63 65
REMARK SMILES IDX 64 66 72 67 65 68 66 69 70 70 73 71 67 72 68 73 71 74 69 75
REMARK SMILES IDX 11 76 12 77 13 78 14 79 15 80 16 81 17 82 18 83 19 84 35 85
REMARK SMILES IDX 32 86 34 87 36 88 33 89 20 90 21 91 22 92 23 94 24 95 31 96
REMARK SMILES IDX 25 97 27 98 26 99 28 100 29 101 30 102
REMARK H PARENT 93 28 61 39 22 93
REMARK Flexibility Score: inf
ROOT
ATOM      1  C   UNL A   1      41.128  20.027  26.357  1.00  0.00     0.188 C 
ENDROOT
BRANCH   1   2
ATOM      2  O   UNL A   1      41.784  19.158  25.444  1.00  0.00    -0.377 OA
BRANCH   2   3
ATOM      3  C   UNL A   1      43.126  18.809  25.759  1.00  0.00     0.188 C 
BRANCH   3   4
ATOM      4  C   UNL A   1      44.145  19.314  24.742  1.00  0.00     0.188 C 
BRANCH   4   5
ATOM      5  O   UNL A   1      45.434  19.442  25.354  1.00  0.00    -0.376 OA
BRANCH   5   6
ATOM      6  C   UNL A   1      46.028  20.737  25.271  1.00  0.00     0.202 C 
BRANCH   6   7
ATOM      7  C   UNL A   1      45.320  21.679  24.301  1.00  0.00     0.261 C 
BRANCH   7   8
ATOM      8  O   UNL A   1      44.818  22.855  24.948  1.00  0.00    -0.460 OA
BRANCH   8   9
ATOM      9  C   UNL A   1      43.534  23.170  25.247  1.00  0.00     0.338 C 
ATOM     10  O   UNL A   1      42.649  22.515  24.694  1.00  0.00    -0.246 OA
BRANCH   9  11
ATOM     11  C   UNL A   1      43.098  24.273  26.172  1.00  0.00     0.060 A 
ATOM     12  C   UNL A   1      43.446  25.624  26.085  1.00  0.00     0.016 A 
ATOM     13  C   UNL A   1      42.201  23.906  27.195  1.00  0.00     0.016 A 
ATOM     14  C   UNL A   1      42.935  26.576  26.960  1.00  0.00     0.010 A 
ATOM     15  C   UNL A   1      41.696  24.849  28.096  1.00  0.00     0.010 A 
ATOM     16  C   UNL A   1      42.079  26.187  27.981  1.00  0.00    -0.014 A 
BRANCH  16  17
ATOM     17  C   UNL A   1      41.760  27.177  29.020  1.00  0.00     0.031 A 
ATOM     18  C   UNL A   1      42.667  27.239  30.209  1.00  0.00     0.074 A 
ATOM     19  C   UNL A   1      40.772  28.066  28.828  1.00  0.00     0.049 A 
ATOM     20  N   UNL A   1      42.565  27.953  31.295  1.00  0.00    -0.248 NA
ATOM     21  C   UNL A   1      43.872  26.389  30.158  1.00  0.00     0.031 C 
ATOM     22  C   UNL A   1      39.950  28.165  27.620  1.00  0.00     0.029 A 
ATOM     23  N   UNL A   1      40.301  29.064  29.638  1.00  0.00    -0.354 N 
ATOM     24  C   UNL A   1      43.667  27.614  32.067  1.00  0.00     0.074 A 
ATOM     25  C   UNL A   1      44.441  26.648  31.324  1.00  0.00     0.031 C 
ATOM     26  C   UNL A   1      39.061  29.160  27.778  1.00  0.00     0.029 A 
ATOM     27  C   UNL A   1      39.210  29.718  29.119  1.00  0.00     0.049 A 
ATOM     28  H   UNL A   1      40.704  29.289  30.507  1.00  0.00     0.167 HD
ATOM     29  C   UNL A   1      43.979  28.063  33.303  1.00  0.00     0.037 A 
ATOM     30  C   UNL A   1      38.398  30.618  29.703  1.00  0.00     0.037 A 
ATOM     31  C   UNL A   1      43.181  29.028  34.006  1.00  0.00     0.049 A 
ATOM     32  C   UNL A   1      38.705  31.016  31.126  1.00  0.00     0.074 A 
ATOM     33  C   UNL A   1      43.363  29.542  35.274  1.00  0.00     0.029 A 
ATOM     34  N   UNL A   1      42.037  29.619  33.485  1.00  0.00    -0.354 N 
ATOM     35  N   UNL A   1      39.719  30.663  31.883  1.00  0.00    -0.248 NA
ATOM     36  C   UNL A   1      37.747  31.910  31.789  1.00  0.00     0.031 C 
ATOM     37  C   UNL A   1      42.293  30.403  35.543  1.00  0.00     0.029 A 
ATOM     38  C   UNL A   1      41.476  30.464  34.423  1.00  0.00     0.049 A 
ATOM     39  H   UNL A   1      41.679  29.458  32.583  1.00  0.00     0.167 HD
ATOM     40  C   UNL A   1      39.526  31.294  33.103  1.00  0.00     0.074 A 
ATOM     41  C   UNL A   1      38.314  32.079  32.974  1.00  0.00     0.031 C 
ATOM     42  C   UNL A   1      40.268  31.227  34.237  1.00  0.00     0.037 A 
BRANCH  29  43
ATOM     43  C   UNL A   1      45.161  27.450  33.986  1.00  0.00     0.064 A 
ATOM     44  C   UNL A   1      46.445  28.009  33.912  1.00  0.00     0.173 A 
ATOM     45  C   UNL A   1      45.000  26.268  34.727  1.00  0.00     0.173 A 
ATOM     46  F   UNL A   1      46.657  29.118  33.189  1.00  0.00    -0.203 F 
ATOM     47  C   UNL A   1      47.526  27.400  34.547  1.00  0.00     0.198 A 
ATOM     48  C   UNL A   1      46.077  25.676  35.377  1.00  0.00     0.198 A 
ATOM     49  F   UNL A   1      43.795  25.686  34.815  1.00  0.00    -0.203 F 
ATOM     50  F   UNL A   1      48.752  27.928  34.429  1.00  0.00    -0.200 F 
ATOM     51  C   UNL A   1      47.341  26.240  35.284  1.00  0.00     0.200 A 
ATOM     52  F   UNL A   1      45.895  24.554  36.088  1.00  0.00    -0.200 F 
ATOM     53  F   UNL A   1      48.382  25.657  35.894  1.00  0.00    -0.200 F 
ENDBRANCH  29  43
BRANCH  30  54
ATOM     54  C   UNL A   1      37.181  31.119  29.004  1.00  0.00     0.064 A 
ATOM     55  C   UNL A   1      37.054  32.462  28.620  1.00  0.00     0.173 A 
ATOM     56  C   UNL A   1      36.088  30.271  28.756  1.00  0.00     0.173 A 
ATOM     57  F   UNL A   1      38.055  33.323  28.854  1.00  0.00    -0.203 F 
ATOM     58  C   UNL A   1      35.876  32.941  28.045  1.00  0.00     0.198 A 
ATOM     59  C   UNL A   1      34.926  30.744  28.150  1.00  0.00     0.198 A 
ATOM     60  F   UNL A   1      36.144  28.980  29.111  1.00  0.00    -0.203 F 
ATOM     61  F   UNL A   1      35.759  34.242  27.749  1.00  0.00    -0.200 F 
ATOM     62  C   UNL A   1      34.815  32.081  27.807  1.00  0.00     0.200 A 
ATOM     63  F   UNL A   1      33.908  29.905  27.913  1.00  0.00    -0.200 F 
ATOM     64  F   UNL A   1      33.681  32.545  27.264  1.00  0.00    -0.200 F 
ENDBRANCH  30  54
BRANCH  42  65
ATOM     65  C   UNL A   1      39.788  32.027  35.409  1.00  0.00     0.064 A 
ATOM     66  C   UNL A   1      40.252  33.330  35.638  1.00  0.00     0.173 A 
ATOM     67  C   UNL A   1      38.805  31.511  36.264  1.00  0.00     0.173 A 
ATOM     68  F   UNL A   1      41.204  33.856  34.852  1.00  0.00    -0.203 F 
ATOM     69  C   UNL A   1      39.756  34.085  36.695  1.00  0.00     0.198 A 
ATOM     70  C   UNL A   1      38.289  32.279  37.301  1.00  0.00     0.198 A 
ATOM     71  F   UNL A   1      38.327  30.272  36.076  1.00  0.00    -0.203 F 
ATOM     72  F   UNL A   1      40.239  35.313  36.921  1.00  0.00    -0.200 F 
ATOM     73  C   UNL A   1      38.768  33.563  37.518  1.00  0.00     0.200 A 
ATOM     74  F   UNL A   1      37.321  31.783  38.083  1.00  0.00    -0.200 F 
ATOM     75  F   UNL A   1      38.278  34.299  38.525  1.00  0.00    -0.200 F 
ENDBRANCH  42  65
ENDBRANCH  16  17
ENDBRANCH   9  11
ENDBRANCH   8   9
ENDBRANCH   7   8
ENDBRANCH   6   7
ENDBRANCH   5   6
ENDBRANCH   4   5
ENDBRANCH   3   4
ENDBRANCH   2   3
ENDBRANCH   1   2
BRANCH   1  76
ATOM     76  C   UNL A   1      39.672  20.443  26.041  1.00  0.00     0.188 C 
BRANCH  76  77
ATOM     77  O   UNL A   1      39.460  21.845  26.052  1.00  0.00    -0.376 OA
BRANCH  77  78
ATOM     78  C   UNL A   1      38.113  22.261  25.850  1.00  0.00     0.202 C 
BRANCH  78  79
ATOM     79  C   UNL A   1      37.381  21.611  24.664  1.00  0.00     0.261 C 
BRANCH  79  80
ATOM     80  O   UNL A   1      35.992  21.997  24.496  1.00  0.00    -0.463 OA
BRANCH  80  81
ATOM     81  C   UNL A   1      35.023  21.069  24.682  1.00  0.00     0.312 C 
ATOM     82  O   UNL A   1      35.269  19.921  25.036  1.00  0.00    -0.252 OA
BRANCH  81  83
ATOM     83  C   UNL A   1      33.634  21.619  24.350  1.00  0.00     0.147 C 
ATOM     84  C   UNL A   1      33.370  23.171  24.031  1.00  0.00     0.129 C 
ATOM     85  C   UNL A   1      32.727  21.430  25.577  1.00  0.00     0.157 C 
ATOM     86  C   UNL A   1      32.302  23.503  25.080  1.00  0.00     0.155 C 
ATOM     87  C   UNL A   1      33.195  22.255  26.744  1.00  0.00     0.004 C 
ATOM     88  O   UNL A   1      31.595  22.240  25.170  1.00  0.00    -0.365 OA
ATOM     89  C   UNL A   1      32.952  23.533  26.430  1.00  0.00     0.004 C 
BRANCH  84  90
ATOM     90  C   UNL A   1      32.835  23.362  22.615  1.00  0.00     0.231 C 
ATOM     91  O   UNL A   1      32.796  22.392  21.846  1.00  0.00    -0.274 OA
ATOM     92  N   UNL A   1      32.416  24.522  22.044  1.00  0.00    -0.325 N 
ATOM     93  H   UNL A   1      32.021  24.337  21.163  1.00  0.00     0.169 HD
BRANCH  92  94
ATOM     94  C   UNL A   1      32.365  25.900  22.312  1.00  0.00     0.048 A 
ATOM     95  C   UNL A   1      33.596  26.577  22.167  1.00  0.00     0.026 A 
ATOM     96  C   UNL A   1      31.258  26.628  22.741  1.00  0.00     0.111 A 
ATOM     97  C   UNL A   1      33.724  27.951  22.390  1.00  0.00     0.009 A 
ATOM     98  C   UNL A   1      31.398  28.016  22.988  1.00  0.00     0.271 A 
ATOM     99  C   UNL A   1      32.619  28.681  22.801  1.00  0.00     0.086 A 
BRANCH  98 100
ATOM    100  N   UNL A   1      30.255  28.789  23.492  1.00  0.00     0.062 N 
ATOM    101  O   UNL A   1      29.122  28.466  23.109  1.00  0.00    -0.258 OA
ATOM    102  O   UNL A   1      30.500  29.733  24.255  1.00  0.00    -0.258 OA
ENDBRANCH  98 100
ENDBRANCH  92  94
ENDBRANCH  84  90
ENDBRANCH  81  83
ENDBRANCH  80  81
ENDBRANCH  79  80
ENDBRANCH  78  79
ENDBRANCH  77  78
ENDBRANCH  76  77
ENDBRANCH   1  76
TORSDOF 23
ENDMDL
MODEL 2
REMARK VINA RESULT:     -11.1      4.773      6.793
REMARK SMILES O=C(OCCOCCOCCOCCOC(=O)[C@@H]1[C@@H](C(=O)Nc2cccc([N+](=O)[O-])c2)[C@@H]2C=C[C@H]1O2)c1ccc(-c2c3nc(c(-c4c(F)c(F)c(F)c(F)c4F)c4ccc([nH]4)c(-c4c(F)c(F)c(F)c(F)c4F)c4nc(c(-c5c(F)c(F)c(F)c(F)c5F)c5ccc2[nH]5)C=C4)C=C3)cc1
REMARK SMILES IDX 10 1 9 2 8 3 7 4 6 5 5 6 4 7 3 8 2 9 1 10 37 11 38 12 99 13
REMARK SMILES IDX 39 14 98 15 40 16 41 17 42 18 92 19 43 20 97 21 91 22 93 23
REMARK SMILES IDX 44 24 96 25 90 26 89 27 45 29 77 30 57 31 76 32 58 33 61 34
REMARK SMILES IDX 75 35 94 36 59 37 60 38 74 40 95 41 62 42 46 43 47 44 55 45
REMARK SMILES IDX 48 46 49 47 53 48 56 49 50 50 51 51 54 52 52 53 78 54 79 55
REMARK SMILES IDX 87 56 80 57 81 58 85 59 88 60 82 61 83 62 86 63 84 64 63 65
REMARK SMILES IDX 64 66 72 67 65 68 66 69 70 70 73 71 67 72 68 73 71 74 69 75
REMARK SMILES IDX 11 76 12 77 13 78 14 79 15 80 16 81 17 82 18 83 19 84 35 85
REMARK SMILES IDX 32 86 34 87 36 88 33 89 20 90 21 91 22 92 23 94 24 95 31 96
REMARK SMILES IDX 25 97 27 98 26 99 28 100 29 101 30 102
REMARK H PARENT 93 28 61 39 22 93
REMARK Flexibility Score: inf
ROOT
ATOM      1  C   UNL A   1      39.835  23.072  26.675  1.00  0.00     0.188 C 
ENDROOT
BRANCH   1   2
ATOM      2  O   UNL A   1      40.796  22.092  26.312  1.00  0.00    -0.377 OA
BRANCH   2   3
ATOM      3  C   UNL A   1      41.269  21.254  27.358  1.00  0.00     0.188 C 
BRANCH   3   4
ATOM      4  C   UNL A   1      41.272  19.771  27.000  1.00  0.00     0.188 C 
BRANCH   4   5
ATOM      5  O   UNL A   1      42.332  19.097  27.691  1.00  0.00    -0.376 OA
BRANCH   5   6
ATOM      6  C   UNL A   1      43.031  18.112  26.931  1.00  0.00     0.202 C 
BRANCH   6   7
ATOM      7  C   UNL A   1      43.119  18.431  25.441  1.00  0.00     0.261 C 
BRANCH   7   8
ATOM      8  O   UNL A   1      44.468  18.421  24.957  1.00  0.00    -0.460 OA
BRANCH   8   9
ATOM      9  C   UNL A   1      45.149  19.419  24.342  1.00  0.00     0.338 C 
ATOM     10  O   UNL A   1      45.901  19.103  23.418  1.00  0.00    -0.246 OA
BRANCH   9  11
ATOM     11  C   UNL A   1      45.089  20.875  24.714  1.00  0.00     0.060 A 
ATOM     12  C   UNL A   1      44.836  21.948  23.853  1.00  0.00     0.016 A 
ATOM     13  C   UNL A   1      45.250  21.174  26.081  1.00  0.00     0.016 A 
ATOM     14  C   UNL A   1      44.740  23.256  24.312  1.00  0.00     0.010 A 
ATOM     15  C   UNL A   1      45.179  22.488  26.555  1.00  0.00     0.010 A 
ATOM     16  C   UNL A   1      44.935  23.532  25.659  1.00  0.00    -0.014 A 
BRANCH  16  17
ATOM     17  C   UNL A   1      45.066  24.941  26.056  1.00  0.00     0.031 A 
ATOM     18  C   UNL A   1      46.408  25.582  25.877  1.00  0.00     0.074 A 
ATOM     19  C   UNL A   1      43.985  25.641  26.436  1.00  0.00     0.049 A 
ATOM     20  N   UNL A   1      46.811  26.772  26.222  1.00  0.00    -0.248 NA
ATOM     21  C   UNL A   1      47.433  24.772  25.192  1.00  0.00     0.031 C 
ATOM     22  C   UNL A   1      42.617  25.121  26.482  1.00  0.00     0.029 A 
ATOM     23  N   UNL A   1      43.863  26.942  26.844  1.00  0.00    -0.354 N 
ATOM     24  C   UNL A   1      48.141  26.840  25.831  1.00  0.00     0.074 A 
ATOM     25  C   UNL A   1      48.476  25.585  25.202  1.00  0.00     0.031 C 
ATOM     26  C   UNL A   1      41.795  26.092  26.913  1.00  0.00     0.029 A 
ATOM     27  C   UNL A   1      42.589  27.274  27.235  1.00  0.00     0.049 A 
ATOM     28  H   UNL A   1      44.616  27.577  26.856  1.00  0.00     0.167 HD
ATOM     29  C   UNL A   1      49.003  27.865  26.010  1.00  0.00     0.037 A 
ATOM     30  C   UNL A   1      42.147  28.391  27.842  1.00  0.00     0.037 A 
ATOM     31  C   UNL A   1      48.626  29.100  26.640  1.00  0.00     0.049 A 
ATOM     32  C   UNL A   1      43.157  29.473  28.134  1.00  0.00     0.074 A 
ATOM     33  C   UNL A   1      49.407  30.204  26.917  1.00  0.00     0.029 A 
ATOM     34  N   UNL A   1      47.344  29.381  27.095  1.00  0.00    -0.354 N 
ATOM     35  N   UNL A   1      44.429  29.527  27.811  1.00  0.00    -0.248 NA
ATOM     36  C   UNL A   1      42.685  30.636  28.897  1.00  0.00     0.031 C 
ATOM     37  C   UNL A   1      48.608  31.132  27.594  1.00  0.00     0.029 A 
ATOM     38  C   UNL A   1      47.319  30.627  27.690  1.00  0.00     0.049 A 
ATOM     39  H   UNL A   1      46.569  28.780  27.008  1.00  0.00     0.167 HD
ATOM     40  C   UNL A   1      44.906  30.725  28.323  1.00  0.00     0.074 A 
ATOM     41  C   UNL A   1      43.777  31.384  28.950  1.00  0.00     0.031 C 
ATOM     42  C   UNL A   1      46.162  31.236  28.295  1.00  0.00     0.037 A 
BRANCH  29  43
ATOM     43  C   UNL A   1      50.429  27.651  25.611  1.00  0.00     0.064 A 
ATOM     44  C   UNL A   1      50.867  27.792  24.286  1.00  0.00     0.173 A 
ATOM     45  C   UNL A   1      51.376  27.287  26.582  1.00  0.00     0.173 A 
ATOM     46  F   UNL A   1      49.996  28.105  23.317  1.00  0.00    -0.203 F 
ATOM     47  C   UNL A   1      52.201  27.567  23.947  1.00  0.00     0.198 A 
ATOM     48  C   UNL A   1      52.710  27.085  26.243  1.00  0.00     0.198 A 
ATOM     49  F   UNL A   1      51.004  27.124  27.860  1.00  0.00    -0.203 F 
ATOM     50  F   UNL A   1      52.590  27.667  22.669  1.00  0.00    -0.200 F 
ATOM     51  C   UNL A   1      53.121  27.221  24.926  1.00  0.00     0.200 A 
ATOM     52  F   UNL A   1      53.597  26.750  27.190  1.00  0.00    -0.200 F 
ATOM     53  F   UNL A   1      54.402  27.007  24.598  1.00  0.00    -0.200 F 
ENDBRANCH  29  43
BRANCH  30  54
ATOM     54  C   UNL A   1      40.734  28.504  28.302  1.00  0.00     0.064 A 
ATOM     55  C   UNL A   1      39.734  29.044  27.480  1.00  0.00     0.173 A 
ATOM     56  C   UNL A   1      40.365  28.127  29.604  1.00  0.00     0.173 A 
ATOM     57  F   UNL A   1      40.034  29.446  26.237  1.00  0.00    -0.203 F 
ATOM     58  C   UNL A   1      38.433  29.227  27.950  1.00  0.00     0.198 A 
ATOM     59  C   UNL A   1      39.056  28.278  30.060  1.00  0.00     0.198 A 
ATOM     60  F   UNL A   1      41.278  27.615  30.441  1.00  0.00    -0.203 F 
ATOM     61  F   UNL A   1      37.516  29.806  27.165  1.00  0.00    -0.200 F 
ATOM     62  C   UNL A   1      38.095  28.841  29.238  1.00  0.00     0.200 A 
ATOM     63  F   UNL A   1      38.734  27.891  31.302  1.00  0.00    -0.200 F 
ATOM     64  F   UNL A   1      36.847  29.026  29.691  1.00  0.00    -0.200 F 
ENDBRANCH  30  54
BRANCH  42  65
ATOM     65  C   UNL A   1      46.366  32.566  28.953  1.00  0.00     0.064 A 
ATOM     66  C   UNL A   1      46.155  33.763  28.254  1.00  0.00     0.173 A 
ATOM     67  C   UNL A   1      46.706  32.640  30.311  1.00  0.00     0.173 A 
ATOM     68  F   UNL A   1      45.844  33.738  26.949  1.00  0.00    -0.203 F 
ATOM     69  C   UNL A   1      46.291  34.991  28.892  1.00  0.00     0.198 A 
ATOM     70  C   UNL A   1      46.809  33.868  30.953  1.00  0.00     0.198 A 
ATOM     71  F   UNL A   1      46.908  31.520  31.020  1.00  0.00    -0.203 F 
ATOM     72  F   UNL A   1      46.122  36.125  28.198  1.00  0.00    -0.200 F 
ATOM     73  C   UNL A   1      46.607  35.043  30.242  1.00  0.00     0.200 A 
ATOM     74  F   UNL A   1      47.096  33.917  32.261  1.00  0.00    -0.200 F 
ATOM     75  F   UNL A   1      46.719  36.227  30.859  1.00  0.00    -0.200 F 
ENDBRANCH  42  65
ENDBRANCH  16  17
ENDBRANCH   9  11
ENDBRANCH   8   9
ENDBRANCH   7   8
ENDBRANCH   6   7
ENDBRANCH   5   6
ENDBRANCH   4   5
ENDBRANCH   3   4
ENDBRANCH   2   3
ENDBRANCH   1   2
BRANCH   1  76
ATOM     76  C   UNL A   1      38.350  22.784  26.353  1.00  0.00     0.188 C 
BRANCH  76  77
ATOM     77  O   UNL A   1      38.148  22.106  25.124  1.00  0.00    -0.376 OA
BRANCH  77  78
ATOM     78  C   UNL A   1      37.682  20.765  25.235  1.00  0.00     0.202 C 
BRANCH  78  79
ATOM     79  C   UNL A   1      36.167  20.564  25.063  1.00  0.00     0.261 C 
BRANCH  79  80
ATOM     80  O   UNL A   1      35.330  21.246  26.032  1.00  0.00    -0.463 OA
BRANCH  80  81
ATOM     81  C   UNL A   1      34.102  21.677  25.656  1.00  0.00     0.312 C 
ATOM     82  O   UNL A   1      33.297  20.951  25.082  1.00  0.00    -0.252 OA
BRANCH  81  83
ATOM     83  C   UNL A   1      33.887  23.155  25.988  1.00  0.00     0.147 C 
ATOM     84  C   UNL A   1      32.661  24.007  25.394  1.00  0.00     0.129 C 
ATOM     85  C   UNL A   1      35.076  23.958  25.434  1.00  0.00     0.157 C 
ATOM     86  C   UNL A   1      33.412  25.158  24.716  1.00  0.00     0.155 C 
ATOM     87  C   UNL A   1      35.126  23.906  23.931  1.00  0.00     0.004 C 
ATOM     88  O   UNL A   1      34.557  25.303  25.594  1.00  0.00    -0.365 OA
ATOM     89  C   UNL A   1      34.091  24.629  23.489  1.00  0.00     0.004 C 
BRANCH  84  90
ATOM     90  C   UNL A   1      31.751  24.516  26.507  1.00  0.00     0.231 C 
ATOM     91  O   UNL A   1      31.334  23.721  27.362  1.00  0.00    -0.274 OA
ATOM     92  N   UNL A   1      31.280  25.780  26.670  1.00  0.00    -0.325 N 
ATOM     93  H   UNL A   1      30.807  25.853  27.530  1.00  0.00     0.169 HD
BRANCH  92  94
ATOM     94  C   UNL A   1      31.254  27.017  26.004  1.00  0.00     0.048 A 
ATOM     95  C   UNL A   1      31.782  28.099  26.741  1.00  0.00     0.026 A 
ATOM     96  C   UNL A   1      30.725  27.275  24.741  1.00  0.00     0.111 A 
ATOM     97  C   UNL A   1      31.837  29.398  26.228  1.00  0.00     0.009 A 
ATOM     98  C   UNL A   1      30.762  28.597  24.235  1.00  0.00     0.271 A 
ATOM     99  C   UNL A   1      31.327  29.653  24.964  1.00  0.00     0.086 A 
BRANCH  98 100
ATOM    100  N   UNL A   1      30.161  28.897  22.928  1.00  0.00     0.062 N 
ATOM    101  O   UNL A   1      29.561  29.973  22.798  1.00  0.00    -0.258 OA
ATOM    102  O   UNL A   1      30.276  28.041  22.040  1.00  0.00    -0.258 OA
ENDBRANCH  98 100
ENDBRANCH  92  94
ENDBRANCH  84  90
ENDBRANCH  81  83
ENDBRANCH  80  81
ENDBRANCH  79  80
ENDBRANCH  78  79
ENDBRANCH  77  78
ENDBRANCH  76  77
ENDBRANCH   1  76
TORSDOF 23
ENDMDL
MODEL 3
REMARK VINA RESULT:     -10.7      2.015      4.207
REMARK SMILES O=C(OCCOCCOCCOCCOC(=O)[C@@H]1[C@@H](C(=O)Nc2cccc([N+](=O)[O-])c2)[C@@H]2C=C[C@H]1O2)c1ccc(-c2c3nc(c(-c4c(F)c(F)c(F)c(F)c4F)c4ccc([nH]4)c(-c4c(F)c(F)c(F)c(F)c4F)c4nc(c(-c5c(F)c(F)c(F)c(F)c5F)c5ccc2[nH]5)C=C4)C=C3)cc1
REMARK SMILES IDX 10 1 9 2 8 3 7 4 6 5 5 6 4 7 3 8 2 9 1 10 37 11 38 12 99 13
REMARK SMILES IDX 39 14 98 15 40 16 41 17 42 18 92 19 43 20 97 21 91 22 93 23
REMARK SMILES IDX 44 24 96 25 90 26 89 27 45 29 77 30 57 31 76 32 58 33 61 34
REMARK SMILES IDX 75 35 94 36 59 37 60 38 74 40 95 41 62 42 46 43 47 44 55 45
REMARK SMILES IDX 48 46 49 47 53 48 56 49 50 50 51 51 54 52 52 53 78 54 79 55
REMARK SMILES IDX 87 56 80 57 81 58 85 59 88 60 82 61 83 62 86 63 84 64 63 65
REMARK SMILES IDX 64 66 72 67 65 68 66 69 70 70 73 71 67 72 68 73 71 74 69 75
REMARK SMILES IDX 11 76 12 77 13 78 14 79 15 80 16 81 17 82 18 83 19 84 35 85
REMARK SMILES IDX 32 86 34 87 36 88 33 89 20 90 21 91 22 92 23 94 24 95 31 96
REMARK SMILES IDX 25 97 27 98 26 99 28 100 29 101 30 102
REMARK H PARENT 93 28 61 39 22 93
REMARK Flexibility Score: inf
ROOT
ATOM      1  C   UNL A   1      41.918  20.361  26.336  1.00  0.00     0.188 C 
ENDROOT
BRANCH   1   2
ATOM      2  O   UNL A   1      42.433  19.515  25.319  1.00  0.00    -0.377 OA
BRANCH   2   3
ATOM      3  C   UNL A   1      43.667  18.868  25.601  1.00  0.00     0.188 C 
BRANCH   3   4
ATOM      4  C   UNL A   1      44.847  19.430  24.814  1.00  0.00     0.188 C 
BRANCH   4   5
ATOM      5  O   UNL A   1      45.730  20.145  25.687  1.00  0.00    -0.376 OA
BRANCH   5   6
ATOM      6  C   UNL A   1      45.940  21.518  25.359  1.00  0.00     0.202 C 
BRANCH   6   7
ATOM      7  C   UNL A   1      44.710  22.208  24.776  1.00  0.00     0.261 C 
BRANCH   7   8
ATOM      8  O   UNL A   1      44.116  23.135  25.692  1.00  0.00    -0.460 OA
BRANCH   8   9
ATOM      9  C   UNL A   1      43.341  24.213  25.416  1.00  0.00     0.338 C 
ATOM     10  O   UNL A   1      43.019  24.390  24.240  1.00  0.00    -0.246 OA
BRANCH   9  11
ATOM     11  C   UNL A   1      42.869  25.230  26.420  1.00  0.00     0.060 A 
ATOM     12  C   UNL A   1      43.295  26.558  26.529  1.00  0.00     0.016 A 
ATOM     13  C   UNL A   1      41.853  24.808  27.300  1.00  0.00     0.016 A 
ATOM     14  C   UNL A   1      42.747  27.435  27.457  1.00  0.00     0.010 A 
ATOM     15  C   UNL A   1      41.307  25.673  28.254  1.00  0.00     0.010 A 
ATOM     16  C   UNL A   1      41.769  26.988  28.336  1.00  0.00    -0.014 A 
BRANCH  16  17
ATOM     17  C   UNL A   1      41.397  27.873  29.450  1.00  0.00     0.031 A 
ATOM     18  C   UNL A   1      42.252  27.825  30.678  1.00  0.00     0.074 A 
ATOM     19  C   UNL A   1      40.410  28.771  29.300  1.00  0.00     0.049 A 
ATOM     20  N   UNL A   1      42.096  28.432  31.822  1.00  0.00    -0.248 NA
ATOM     21  C   UNL A   1      43.465  26.991  30.599  1.00  0.00     0.031 C 
ATOM     22  C   UNL A   1      39.639  28.980  28.073  1.00  0.00     0.029 A 
ATOM     23  N   UNL A   1      39.894  29.683  30.180  1.00  0.00    -0.354 N 
ATOM     24  C   UNL A   1      43.167  28.026  32.605  1.00  0.00     0.074 A 
ATOM     25  C   UNL A   1      43.981  27.141  31.808  1.00  0.00     0.031 C 
ATOM     26  C   UNL A   1      38.734  29.950  28.286  1.00  0.00     0.029 A 
ATOM     27  C   UNL A   1      38.820  30.378  29.679  1.00  0.00     0.049 A 
ATOM     28  H   UNL A   1      40.257  29.827  31.084  1.00  0.00     0.167 HD
ATOM     29  C   UNL A   1      43.421  28.357  33.890  1.00  0.00     0.037 A 
ATOM     30  C   UNL A   1      37.975  31.214  30.310  1.00  0.00     0.037 A 
ATOM     31  C   UNL A   1      42.584  29.246  34.647  1.00  0.00     0.049 A 
ATOM     32  C   UNL A   1      38.217  31.475  31.776  1.00  0.00     0.074 A 
ATOM     33  C   UNL A   1      42.706  29.637  35.965  1.00  0.00     0.029 A 
ATOM     34  N   UNL A   1      41.458  29.877  34.136  1.00  0.00    -0.354 N 
ATOM     35  N   UNL A   1      39.201  31.057  32.541  1.00  0.00    -0.248 NA
ATOM     36  C   UNL A   1      37.223  32.297  32.479  1.00  0.00     0.031 C 
ATOM     37  C   UNL A   1      41.618  30.462  36.268  1.00  0.00     0.029 A 
ATOM     38  C   UNL A   1      40.849  30.626  35.124  1.00  0.00     0.049 A 
ATOM     39  H   UNL A   1      41.140  29.802  33.207  1.00  0.00     0.167 HD
ATOM     40  C   UNL A   1      38.950  31.568  33.806  1.00  0.00     0.074 A 
ATOM     41  C   UNL A   1      37.736  32.354  33.699  1.00  0.00     0.031 C 
ATOM     42  C   UNL A   1      39.642  31.396  34.959  1.00  0.00     0.037 A 
BRANCH  29  43
ATOM     43  C   UNL A   1      44.578  27.688  34.563  1.00  0.00     0.064 A 
ATOM     44  C   UNL A   1      44.453  26.458  35.224  1.00  0.00     0.173 A 
ATOM     45  C   UNL A   1      45.841  28.301  34.548  1.00  0.00     0.173 A 
ATOM     46  F   UNL A   1      43.261  25.848  35.295  1.00  0.00    -0.203 F 
ATOM     47  C   UNL A   1      45.549  25.871  35.854  1.00  0.00     0.198 A 
ATOM     48  C   UNL A   1      46.938  27.702  35.159  1.00  0.00     0.198 A 
ATOM     49  F   UNL A   1      46.009  29.486  33.942  1.00  0.00    -0.203 F 
ATOM     50  F   UNL A   1      45.399  24.716  36.516  1.00  0.00    -0.200 F 
ATOM     51  C   UNL A   1      46.791  26.489  35.816  1.00  0.00     0.200 A 
ATOM     52  F   UNL A   1      48.135  28.302  35.121  1.00  0.00    -0.200 F 
ATOM     53  F   UNL A   1      47.843  25.923  36.422  1.00  0.00    -0.200 F 
ENDBRANCH  29  43
BRANCH  30  54
ATOM     54  C   UNL A   1      36.785  31.772  29.609  1.00  0.00     0.064 A 
ATOM     55  C   UNL A   1      35.729  30.951  29.185  1.00  0.00     0.173 A 
ATOM     56  C   UNL A   1      36.705  33.139  29.294  1.00  0.00     0.173 A 
ATOM     57  F   UNL A   1      35.763  29.634  29.435  1.00  0.00    -0.203 F 
ATOM     58  C   UNL A   1      34.660  31.469  28.452  1.00  0.00     0.198 A 
ATOM     59  C   UNL A   1      35.620  33.660  28.592  1.00  0.00     0.198 A 
ATOM     60  F   UNL A   1      37.688  33.973  29.662  1.00  0.00    -0.203 F 
ATOM     61  F   UNL A   1      33.701  30.649  28.003  1.00  0.00    -0.200 F 
ATOM     62  C   UNL A   1      34.605  32.823  28.159  1.00  0.00     0.200 A 
ATOM     63  F   UNL A   1      35.567  34.972  28.323  1.00  0.00    -0.200 F 
ATOM     64  F   UNL A   1      33.583  33.317  27.447  1.00  0.00    -0.200 F 
ENDBRANCH  30  54
BRANCH  42  65
ATOM     65  C   UNL A   1      39.105  32.078  36.180  1.00  0.00     0.064 A 
ATOM     66  C   UNL A   1      39.442  33.406  36.479  1.00  0.00     0.173 A 
ATOM     67  C   UNL A   1      38.191  31.420  37.014  1.00  0.00     0.173 A 
ATOM     68  F   UNL A   1      40.325  34.067  35.715  1.00  0.00    -0.203 F 
ATOM     69  C   UNL A   1      38.892  34.047  37.583  1.00  0.00     0.198 A 
ATOM     70  C   UNL A   1      37.618  32.074  38.098  1.00  0.00     0.198 A 
ATOM     71  F   UNL A   1      37.834  30.152  36.760  1.00  0.00    -0.203 F 
ATOM     72  F   UNL A   1      39.254  35.303  37.874  1.00  0.00    -0.200 F 
ATOM     73  C   UNL A   1      37.972  33.385  38.384  1.00  0.00     0.200 A 
ATOM     74  F   UNL A   1      36.717  31.441  38.861  1.00  0.00    -0.200 F 
ATOM     75  F   UNL A   1      37.429  34.011  39.437  1.00  0.00    -0.200 F 
ENDBRANCH  42  65
ENDBRANCH  16  17
ENDBRANCH   9  11
ENDBRANCH   8   9
ENDBRANCH   7   8
ENDBRANCH   6   7
ENDBRANCH   5   6
ENDBRANCH   4   5
ENDBRANCH   3   4
ENDBRANCH   2   3
ENDBRANCH   1   2
BRANCH   1  76
ATOM     76  C   UNL A   1      40.389  20.364  26.570  1.00  0.00     0.188 C 
BRANCH  76  77
ATOM     77  O   UNL A   1      39.689  21.321  25.791  1.00  0.00    -0.376 OA
BRANCH  77  78
ATOM     78  C   UNL A   1      39.152  22.424  26.514  1.00  0.00     0.202 C 
BRANCH  78  79
ATOM     79  C   UNL A   1      38.075  23.244  25.784  1.00  0.00     0.261 C 
BRANCH  79  80
ATOM     80  O   UNL A   1      36.745  22.665  25.773  1.00  0.00    -0.463 OA
BRANCH  80  81
ATOM     81  C   UNL A   1      36.036  22.662  24.619  1.00  0.00     0.312 C 
ATOM     82  O   UNL A   1      36.568  22.552  23.520  1.00  0.00    -0.252 OA
BRANCH  81  83
ATOM     83  C   UNL A   1      34.539  22.862  24.866  1.00  0.00     0.147 C 
ATOM     84  C   UNL A   1      33.428  21.833  24.331  1.00  0.00     0.129 C 
ATOM     85  C   UNL A   1      34.094  24.148  24.150  1.00  0.00     0.157 C 
ATOM     86  C   UNL A   1      32.538  22.771  23.509  1.00  0.00     0.155 C 
ATOM     87  C   UNL A   1      34.221  24.022  22.657  1.00  0.00     0.004 C 
ATOM     88  O   UNL A   1      32.655  24.003  24.265  1.00  0.00    -0.365 OA
ATOM     89  C   UNL A   1      33.276  23.160  22.264  1.00  0.00     0.004 C 
BRANCH  84  90
ATOM     90  C   UNL A   1      32.654  21.205  25.487  1.00  0.00     0.231 C 
ATOM     91  O   UNL A   1      32.101  21.940  26.317  1.00  0.00    -0.274 OA
ATOM     92  N   UNL A   1      32.520  19.881  25.763  1.00  0.00    -0.325 N 
ATOM     93  H   UNL A   1      31.880  19.756  26.499  1.00  0.00     0.169 HD
BRANCH  92  94
ATOM     94  C   UNL A   1      33.003  18.634  25.332  1.00  0.00     0.048 A 
ATOM     95  C   UNL A   1      34.018  18.698  24.352  1.00  0.00     0.026 A 
ATOM     96  C   UNL A   1      32.551  17.379  25.733  1.00  0.00     0.111 A 
ATOM     97  C   UNL A   1      34.613  17.552  23.816  1.00  0.00     0.009 A 
ATOM     98  C   UNL A   1      33.141  16.221  25.170  1.00  0.00     0.271 A 
ATOM     99  C   UNL A   1      34.177  16.302  24.227  1.00  0.00     0.086 A 
BRANCH  98 100
ATOM    100  N   UNL A   1      32.641  14.890  25.542  1.00  0.00     0.062 N 
ATOM    101  O   UNL A   1      31.459  14.793  25.898  1.00  0.00    -0.258 OA
ATOM    102  O   UNL A   1      33.445  13.949  25.496  1.00  0.00    -0.258 OA
ENDBRANCH  98 100
ENDBRANCH  92  94
ENDBRANCH  84  90
ENDBRANCH  81  83
ENDBRANCH  80  81
ENDBRANCH  79  80
ENDBRANCH  78  79
ENDBRANCH  77  78
ENDBRANCH  76  77
ENDBRANCH   1  76
TORSDOF 23
ENDMDL
