MODEL 1
REMARK VINA RESULT:     -11.0      0.000      0.000
REMARK SMILES C[C@H]1CC[C@@](NC(=O)N[C@H]2CCOC2)(C(=O)OCCOCCOCCOCCOC(=O)c2ccc(-c3c4nc(c(-c5c(F)c(F)c(F)c(F)c5F)c5ccc([nH]5)c(-c5c(F)c(F)c(F)c(F)c5F)c5nc(c(-c6c(F)c(F)c(F)c(F)c6F)c6ccc3[nH]6)C=C5)C=C4)cc2)CC1
REMARK SMILES IDX 23 1 22 2 21 3 20 4 19 5 18 6 17 7 15 8 16 9 5 10 1 11 2 12
REMARK SMILES IDX 96 13 3 14 95 15 4 16 6 17 7 18 8 20 9 21 10 23 11 24 14 25
REMARK SMILES IDX 12 26 13 27 24 28 25 29 26 30 27 31 28 32 29 33 30 34 31 35
REMARK SMILES IDX 32 36 33 37 94 38 34 39 93 40 35 41 36 42 37 43 87 44 38 45
REMARK SMILES IDX 92 46 86 47 88 48 39 49 91 50 85 51 84 52 40 54 72 55 52 56
REMARK SMILES IDX 71 57 53 58 56 59 70 60 89 61 54 62 55 63 69 65 90 66 57 67
REMARK SMILES IDX 41 68 42 69 50 70 43 71 44 72 48 73 51 74 45 75 46 76 49 77
REMARK SMILES IDX 47 78 73 79 74 80 82 81 75 82 76 83 80 84 83 85 77 86 78 87
REMARK SMILES IDX 81 88 79 89 58 90 59 91 67 92 60 93 61 94 65 95 68 96 62 97
REMARK SMILES IDX 63 98 66 99 64 100
REMARK H PARENT 6 19 9 22 88 53 56 64
REMARK Flexibility Score: inf
ROOT
ATOM      1  O   UNL A   1      35.543  31.938  27.632  1.00  0.00    -0.377 OA
ENDROOT
BRANCH   1   2
ATOM      2  C   UNL A   1      34.548  30.928  27.743  1.00  0.00     0.188 C 
BRANCH   2   3
ATOM      3  C   UNL A   1      35.017  29.480  27.550  1.00  0.00     0.188 C 
BRANCH   3   4
ATOM      4  O   UNL A   1      33.958  28.573  27.263  1.00  0.00    -0.376 OA
BRANCH   4   5
ATOM      5  C   UNL A   1      32.648  29.089  27.130  1.00  0.00     0.202 C 
BRANCH   5   6
ATOM      6  C   UNL A   1      31.436  28.277  27.631  1.00  0.00     0.261 C 
BRANCH   6   7
ATOM      7  O   UNL A   1      31.026  27.000  27.096  1.00  0.00    -0.461 OA
BRANCH   7   8
ATOM      8  C   UNL A   1      30.826  26.703  25.794  1.00  0.00     0.331 C 
ATOM      9  O   UNL A   1      30.212  27.384  24.984  1.00  0.00    -0.249 OA
BRANCH   8  10
ATOM     10  C   UNL A   1      31.313  25.313  25.447  1.00  0.00     0.139 C 
ATOM     11  C   UNL A   1      33.966  27.276  22.602  1.00  0.00     0.007 C 
ATOM     12  C   UNL A   1      33.394  26.045  23.331  1.00  0.00    -0.014 C 
ATOM     13  C   UNL A   1      31.897  25.896  23.011  1.00  0.00     0.006 C 
ATOM     14  C   UNL A   1      33.716  26.103  24.832  1.00  0.00     0.006 C 
ATOM     15  C   UNL A   1      31.133  24.957  23.959  1.00  0.00     0.041 C 
ATOM     16  C   UNL A   1      32.841  25.209  25.729  1.00  0.00     0.041 C 
BRANCH  10  17
ATOM     17  N   UNL A   1      30.541  24.397  26.340  1.00  0.00    -0.322 N 
ATOM     18  C   UNL A   1      30.617  23.171  26.870  1.00  0.00     0.316 C 
ATOM     19  H   UNL A   1      29.710  24.835  26.631  1.00  0.00     0.166 HD
ATOM     20  O   UNL A   1      29.818  22.946  27.788  1.00  0.00    -0.249 OA
ATOM     21  N   UNL A   1      31.380  22.133  26.519  1.00  0.00    -0.333 N 
ATOM     22  H   UNL A   1      31.266  21.391  27.157  1.00  0.00     0.165 HD
BRANCH  21  23
ATOM     23  C   UNL A   1      32.328  21.765  25.480  1.00  0.00     0.112 C 
ATOM     24  C   UNL A   1      33.790  21.797  25.865  1.00  0.00     0.056 C 
ATOM     25  C   UNL A   1      32.237  20.354  24.887  1.00  0.00     0.185 C 
ATOM     26  C   UNL A   1      34.432  21.121  24.669  1.00  0.00     0.162 C 
ATOM     27  O   UNL A   1      33.505  20.108  24.237  1.00  0.00    -0.379 OA
ENDBRANCH  21  23
ENDBRANCH  10  17
ENDBRANCH   8  10
ENDBRANCH   7   8
ENDBRANCH   6   7
ENDBRANCH   5   6
ENDBRANCH   4   5
ENDBRANCH   3   4
ENDBRANCH   2   3
ENDBRANCH   1   2
BRANCH   1  28
ATOM     28  C   UNL A   1      35.111  33.291  27.757  1.00  0.00     0.188 C 
BRANCH  28  29
ATOM     29  C   UNL A   1      33.901  33.582  28.669  1.00  0.00     0.188 C 
BRANCH  29  30
ATOM     30  O   UNL A   1      33.983  34.801  29.382  1.00  0.00    -0.376 OA
BRANCH  30  31
ATOM     31  C   UNL A   1      33.623  34.821  30.753  1.00  0.00     0.202 C 
BRANCH  31  32
ATOM     32  C   UNL A   1      34.656  34.386  31.804  1.00  0.00     0.261 C 
BRANCH  32  33
ATOM     33  O   UNL A   1      35.062  33.002  31.827  1.00  0.00    -0.460 OA
BRANCH  33  34
ATOM     34  C   UNL A   1      35.914  32.539  32.767  1.00  0.00     0.338 C 
ATOM     35  O   UNL A   1      35.765  32.557  33.975  1.00  0.00    -0.246 OA
BRANCH  34  36
ATOM     36  C   UNL A   1      36.955  31.749  32.056  1.00  0.00     0.060 A 
ATOM     37  C   UNL A   1      37.780  30.877  32.787  1.00  0.00     0.016 A 
ATOM     38  C   UNL A   1      37.056  31.801  30.664  1.00  0.00     0.016 A 
ATOM     39  C   UNL A   1      38.710  30.067  32.133  1.00  0.00     0.010 A 
ATOM     40  C   UNL A   1      38.023  31.029  30.014  1.00  0.00     0.010 A 
ATOM     41  C   UNL A   1      38.873  30.183  30.749  1.00  0.00    -0.014 A 
BRANCH  41  42
ATOM     42  C   UNL A   1      40.102  29.653  30.114  1.00  0.00     0.031 A 
ATOM     43  C   UNL A   1      41.262  30.598  29.966  1.00  0.00     0.074 A 
ATOM     44  C   UNL A   1      40.201  28.383  29.684  1.00  0.00     0.049 A 
ATOM     45  N   UNL A   1      42.410  30.427  29.362  1.00  0.00    -0.248 NA
ATOM     46  C   UNL A   1      41.099  31.925  30.584  1.00  0.00     0.031 C 
ATOM     47  C   UNL A   1      39.172  27.357  29.825  1.00  0.00     0.029 A 
ATOM     48  N   UNL A   1      41.223  27.749  29.022  1.00  0.00    -0.354 N 
ATOM     49  C   UNL A   1      43.094  31.625  29.518  1.00  0.00     0.074 A 
ATOM     50  C   UNL A   1      42.232  32.523  30.252  1.00  0.00     0.031 C 
ATOM     51  C   UNL A   1      39.605  26.224  29.241  1.00  0.00     0.029 A 
ATOM     52  C   UNL A   1      40.925  26.461  28.652  1.00  0.00     0.049 A 
ATOM     53  H   UNL A   1      42.090  28.178  28.830  1.00  0.00     0.167 HD
ATOM     54  C   UNL A   1      44.336  31.948  29.086  1.00  0.00     0.037 A 
ATOM     55  C   UNL A   1      41.624  25.592  27.895  1.00  0.00     0.037 A 
ATOM     56  C   UNL A   1      45.188  31.055  28.350  1.00  0.00     0.049 A 
ATOM     57  C   UNL A   1      42.969  26.007  27.347  1.00  0.00     0.074 A 
ATOM     58  C   UNL A   1      46.469  31.278  27.882  1.00  0.00     0.029 A 
ATOM     59  N   UNL A   1      44.835  29.770  27.964  1.00  0.00    -0.354 N 
ATOM     60  N   UNL A   1      43.624  27.132  27.513  1.00  0.00    -0.248 NA
ATOM     61  C   UNL A   1      43.672  25.029  26.502  1.00  0.00     0.031 C 
ATOM     62  C   UNL A   1      46.869  30.152  27.156  1.00  0.00     0.029 A 
ATOM     63  C   UNL A   1      45.863  29.201  27.230  1.00  0.00     0.049 A 
ATOM     64  H   UNL A   1      43.982  29.329  28.179  1.00  0.00     0.167 HD
ATOM     65  C   UNL A   1      44.820  26.988  26.819  1.00  0.00     0.074 A 
ATOM     66  C   UNL A   1      44.810  25.659  26.246  1.00  0.00     0.031 C 
ATOM     67  C   UNL A   1      45.836  27.874  26.669  1.00  0.00     0.037 A 
BRANCH  54  68
ATOM     68  C   UNL A   1      44.824  33.340  29.363  1.00  0.00     0.064 A 
ATOM     69  C   UNL A   1      44.569  34.404  28.487  1.00  0.00     0.173 A 
ATOM     70  C   UNL A   1      45.540  33.613  30.538  1.00  0.00     0.173 A 
ATOM     71  F   UNL A   1      43.908  34.191  27.338  1.00  0.00    -0.203 F 
ATOM     72  C   UNL A   1      45.032  35.687  28.765  1.00  0.00     0.198 A 
ATOM     73  C   UNL A   1      45.973  34.903  30.829  1.00  0.00     0.198 A 
ATOM     74  F   UNL A   1      45.814  32.630  31.408  1.00  0.00    -0.203 F 
ATOM     75  F   UNL A   1      44.819  36.680  27.891  1.00  0.00    -0.200 F 
ATOM     76  C   UNL A   1      45.725  35.938  29.941  1.00  0.00     0.200 A 
ATOM     77  F   UNL A   1      46.633  35.145  31.971  1.00  0.00    -0.200 F 
ATOM     78  F   UNL A   1      46.161  37.175  30.212  1.00  0.00    -0.200 F 
ENDBRANCH  54  68
BRANCH  55  79
ATOM     79  C   UNL A   1      41.059  24.253  27.574  1.00  0.00     0.064 A 
ATOM     80  C   UNL A   1      41.599  23.084  28.127  1.00  0.00     0.173 A 
ATOM     81  C   UNL A   1      39.990  24.112  26.676  1.00  0.00     0.173 A 
ATOM     82  F   UNL A   1      42.642  23.162  28.967  1.00  0.00    -0.203 F 
ATOM     83  C   UNL A   1      41.107  21.826  27.781  1.00  0.00     0.198 A 
ATOM     84  C   UNL A   1      39.477  22.856  26.354  1.00  0.00     0.198 A 
ATOM     85  F   UNL A   1      39.441  25.196  26.109  1.00  0.00    -0.203 F 
ATOM     86  F   UNL A   1      41.679  20.724  28.283  1.00  0.00    -0.200 F 
ATOM     87  C   UNL A   1      40.042  21.715  26.899  1.00  0.00     0.200 A 
ATOM     88  F   UNL A   1      38.443  22.754  25.510  1.00  0.00    -0.200 F 
ATOM     89  F   UNL A   1      39.569  20.505  26.568  1.00  0.00    -0.200 F 
ENDBRANCH  55  79
BRANCH  67  90
ATOM     90  C   UNL A   1      47.035  27.430  25.880  1.00  0.00     0.064 A 
ATOM     91  C   UNL A   1      47.142  27.668  24.501  1.00  0.00     0.173 A 
ATOM     92  C   UNL A   1      48.115  26.803  26.521  1.00  0.00     0.173 A 
ATOM     93  F   UNL A   1      46.134  28.254  23.837  1.00  0.00    -0.203 F 
ATOM     94  C   UNL A   1      48.271  27.270  23.791  1.00  0.00     0.198 A 
ATOM     95  C   UNL A   1      49.257  26.437  25.814  1.00  0.00     0.198 A 
ATOM     96  F   UNL A   1      48.071  26.561  27.840  1.00  0.00    -0.203 F 
ATOM     97  F   UNL A   1      48.329  27.462  22.466  1.00  0.00    -0.200 F 
ATOM     98  C   UNL A   1      49.331  26.663  24.448  1.00  0.00     0.200 A 
ATOM     99  F   UNL A   1      50.287  25.869  26.455  1.00  0.00    -0.200 F 
ATOM    100  F   UNL A   1      50.421  26.290  23.764  1.00  0.00    -0.200 F 
ENDBRANCH  67  90
ENDBRANCH  41  42
ENDBRANCH  34  36
ENDBRANCH  33  34
ENDBRANCH  32  33
ENDBRANCH  31  32
ENDBRANCH  30  31
ENDBRANCH  29  30
ENDBRANCH  28  29
ENDBRANCH   1  28
TORSDOF 22
ENDMDL
MODEL 2
REMARK VINA RESULT:     -10.6      2.918      8.824
REMARK SMILES C[C@H]1CC[C@@](NC(=O)N[C@H]2CCOC2)(C(=O)OCCOCCOCCOCCOC(=O)c2ccc(-c3c4nc(c(-c5c(F)c(F)c(F)c(F)c5F)c5ccc([nH]5)c(-c5c(F)c(F)c(F)c(F)c5F)c5nc(c(-c6c(F)c(F)c(F)c(F)c6F)c6ccc3[nH]6)C=C5)C=C4)cc2)CC1
REMARK SMILES IDX 23 1 22 2 21 3 20 4 19 5 18 6 17 7 15 8 16 9 5 10 1 11 2 12
REMARK SMILES IDX 96 13 3 14 95 15 4 16 6 17 7 18 8 20 9 21 10 23 11 24 14 25
REMARK SMILES IDX 12 26 13 27 24 28 25 29 26 30 27 31 28 32 29 33 30 34 31 35
REMARK SMILES IDX 32 36 33 37 94 38 34 39 93 40 35 41 36 42 37 43 87 44 38 45
REMARK SMILES IDX 92 46 86 47 88 48 39 49 91 50 85 51 84 52 40 54 72 55 52 56
REMARK SMILES IDX 71 57 53 58 56 59 70 60 89 61 54 62 55 63 69 65 90 66 57 67
REMARK SMILES IDX 41 68 42 69 50 70 43 71 44 72 48 73 51 74 45 75 46 76 49 77
REMARK SMILES IDX 47 78 73 79 74 80 82 81 75 82 76 83 80 84 83 85 77 86 78 87
REMARK SMILES IDX 81 88 79 89 58 90 59 91 67 92 60 93 61 94 65 95 68 96 62 97
REMARK SMILES IDX 63 98 66 99 64 100
REMARK H PARENT 6 19 9 22 88 53 56 64
REMARK Flexibility Score: inf
ROOT
ATOM      1  O   UNL A   1      34.441  21.007  26.037  1.00  0.00    -0.377 OA
ENDROOT
BRANCH   1   2
ATOM      2  C   UNL A   1      34.378  22.192  26.822  1.00  0.00     0.188 C 
BRANCH   2   3
ATOM      3  C   UNL A   1      33.381  22.188  27.988  1.00  0.00     0.188 C 
BRANCH   3   4
ATOM      4  O   UNL A   1      32.267  23.050  27.785  1.00  0.00    -0.376 OA
BRANCH   4   5
ATOM      5  C   UNL A   1      32.096  23.642  26.511  1.00  0.00     0.202 C 
BRANCH   5   6
ATOM      6  C   UNL A   1      31.098  24.800  26.317  1.00  0.00     0.261 C 
BRANCH   6   7
ATOM      7  O   UNL A   1      31.458  26.131  25.889  1.00  0.00    -0.461 OA
BRANCH   7   8
ATOM      8  C   UNL A   1      31.292  26.648  24.653  1.00  0.00     0.331 C 
ATOM      9  O   UNL A   1      30.298  26.532  23.948  1.00  0.00    -0.249 OA
BRANCH   8  10
ATOM     10  C   UNL A   1      32.562  27.278  24.124  1.00  0.00     0.139 C 
ATOM     11  C   UNL A   1      33.008  23.665  21.731  1.00  0.00     0.007 C 
ATOM     12  C   UNL A   1      33.437  25.066  22.204  1.00  0.00    -0.014 C 
ATOM     13  C   UNL A   1      33.754  25.037  23.708  1.00  0.00     0.006 C 
ATOM     14  C   UNL A   1      32.396  26.121  21.798  1.00  0.00     0.006 C 
ATOM     15  C   UNL A   1      33.818  26.421  24.375  1.00  0.00     0.041 C 
ATOM     16  C   UNL A   1      32.460  27.445  22.580  1.00  0.00     0.041 C 
BRANCH  10  17
ATOM     17  N   UNL A   1      32.647  28.607  24.802  1.00  0.00    -0.322 N 
ATOM     18  C   UNL A   1      31.887  29.674  25.073  1.00  0.00     0.316 C 
ATOM     19  H   UNL A   1      33.551  28.740  25.166  1.00  0.00     0.166 HD
ATOM     20  O   UNL A   1      32.355  30.451  25.916  1.00  0.00    -0.249 OA
ATOM     21  N   UNL A   1      30.731  30.062  24.528  1.00  0.00    -0.333 N 
ATOM     22  H   UNL A   1      30.376  30.850  25.000  1.00  0.00     0.165 HD
BRANCH  21  23
ATOM     23  C   UNL A   1      29.839  29.675  23.449  1.00  0.00     0.112 C 
ATOM     24  C   UNL A   1      28.520  30.411  23.373  1.00  0.00     0.056 C 
ATOM     25  C   UNL A   1      30.328  29.852  22.007  1.00  0.00     0.185 C 
ATOM     26  C   UNL A   1      27.996  29.954  22.025  1.00  0.00     0.162 C 
ATOM     27  O   UNL A   1      29.149  29.820  21.172  1.00  0.00    -0.379 OA
ENDBRANCH  21  23
ENDBRANCH  10  17
ENDBRANCH   8  10
ENDBRANCH   7   8
ENDBRANCH   6   7
ENDBRANCH   5   6
ENDBRANCH   4   5
ENDBRANCH   3   4
ENDBRANCH   2   3
ENDBRANCH   1   2
BRANCH   1  28
ATOM     28  C   UNL A   1      35.212  21.062  24.839  1.00  0.00     0.188 C 
BRANCH  28  29
ATOM     29  C   UNL A   1      36.342  22.110  24.755  1.00  0.00     0.188 C 
BRANCH  29  30
ATOM     30  O   UNL A   1      37.606  21.646  25.191  1.00  0.00    -0.376 OA
BRANCH  30  31
ATOM     31  C   UNL A   1      37.893  20.261  25.116  1.00  0.00     0.202 C 
BRANCH  31  32
ATOM     32  C   UNL A   1      39.300  19.767  25.481  1.00  0.00     0.261 C 
BRANCH  32  33
ATOM     33  O   UNL A   1      39.835  20.129  26.772  1.00  0.00    -0.460 OA
BRANCH  33  34
ATOM     34  C   UNL A   1      41.155  20.358  26.942  1.00  0.00     0.338 C 
ATOM     35  O   UNL A   1      42.078  19.612  26.671  1.00  0.00    -0.246 OA
BRANCH  34  36
ATOM     36  C   UNL A   1      41.305  21.802  27.267  1.00  0.00     0.060 A 
ATOM     37  C   UNL A   1      40.606  22.758  26.510  1.00  0.00     0.016 A 
ATOM     38  C   UNL A   1      42.060  22.205  28.371  1.00  0.00     0.016 A 
ATOM     39  C   UNL A   1      40.668  24.111  26.845  1.00  0.00     0.010 A 
ATOM     40  C   UNL A   1      42.166  23.565  28.675  1.00  0.00     0.010 A 
ATOM     41  C   UNL A   1      41.495  24.525  27.895  1.00  0.00    -0.014 A 
BRANCH  41  42
ATOM     42  C   UNL A   1      41.886  25.950  27.996  1.00  0.00     0.031 A 
ATOM     43  C   UNL A   1      43.224  26.338  27.430  1.00  0.00     0.074 A 
ATOM     44  C   UNL A   1      41.093  26.876  28.562  1.00  0.00     0.049 A 
ATOM     45  N   UNL A   1      43.851  27.484  27.474  1.00  0.00    -0.248 NA
ATOM     46  C   UNL A   1      43.957  25.277  26.718  1.00  0.00     0.031 C 
ATOM     47  C   UNL A   1      39.753  26.639  29.090  1.00  0.00     0.029 A 
ATOM     48  N   UNL A   1      41.319  28.210  28.798  1.00  0.00    -0.354 N 
ATOM     49  C   UNL A   1      45.053  27.277  26.810  1.00  0.00     0.074 A 
ATOM     50  C   UNL A   1      45.081  25.894  26.390  1.00  0.00     0.031 C 
ATOM     51  C   UNL A   1      39.283  27.785  29.615  1.00  0.00     0.029 A 
ATOM     52  C   UNL A   1      40.307  28.825  29.493  1.00  0.00     0.049 A 
ATOM     53  H   UNL A   1      42.130  28.681  28.497  1.00  0.00     0.167 HD
ATOM     54  C   UNL A   1      46.047  28.163  26.570  1.00  0.00     0.037 A 
ATOM     55  C   UNL A   1      40.237  30.071  30.001  1.00  0.00     0.037 A 
ATOM     56  C   UNL A   1      46.019  29.536  26.995  1.00  0.00     0.049 A 
ATOM     57  C   UNL A   1      41.397  31.017  29.800  1.00  0.00     0.074 A 
ATOM     58  C   UNL A   1      46.966  30.521  26.788  1.00  0.00     0.029 A 
ATOM     59  N   UNL A   1      44.991  30.112  27.728  1.00  0.00    -0.354 N 
ATOM     60  N   UNL A   1      42.523  30.826  29.153  1.00  0.00    -0.248 NA
ATOM     61  C   UNL A   1      41.278  32.354  30.403  1.00  0.00     0.031 C 
ATOM     62  C   UNL A   1      46.543  31.678  27.450  1.00  0.00     0.029 A 
ATOM     63  C   UNL A   1      45.300  31.432  28.013  1.00  0.00     0.049 A 
ATOM     64  H   UNL A   1      44.167  29.651  28.005  1.00  0.00     0.167 HD
ATOM     65  C   UNL A   1      43.230  32.019  29.249  1.00  0.00     0.074 A 
ATOM     66  C   UNL A   1      42.399  32.935  30.000  1.00  0.00     0.031 C 
ATOM     67  C   UNL A   1      44.457  32.330  28.760  1.00  0.00     0.037 A 
BRANCH  54  68
ATOM     68  C   UNL A   1      47.264  27.661  25.852  1.00  0.00     0.064 A 
ATOM     69  C   UNL A   1      48.364  27.126  26.538  1.00  0.00     0.173 A 
ATOM     70  C   UNL A   1      47.319  27.695  24.450  1.00  0.00     0.173 A 
ATOM     71  F   UNL A   1      48.371  27.092  27.880  1.00  0.00    -0.203 F 
ATOM     72  C   UNL A   1      49.482  26.664  25.851  1.00  0.00     0.198 A 
ATOM     73  C   UNL A   1      48.425  27.202  23.764  1.00  0.00     0.198 A 
ATOM     74  F   UNL A   1      46.296  28.199  23.745  1.00  0.00    -0.203 F 
ATOM     75  F   UNL A   1      50.542  26.203  26.529  1.00  0.00    -0.200 F 
ATOM     76  C   UNL A   1      49.509  26.694  24.464  1.00  0.00     0.200 A 
ATOM     77  F   UNL A   1      48.443  27.222  22.424  1.00  0.00    -0.200 F 
ATOM     78  F   UNL A   1      50.582  26.240  23.803  1.00  0.00    -0.200 F 
ENDBRANCH  54  68
BRANCH  55  79
ATOM     79  C   UNL A   1      39.043  30.497  30.783  1.00  0.00     0.064 A 
ATOM     80  C   UNL A   1      38.993  30.343  32.175  1.00  0.00     0.173 A 
ATOM     81  C   UNL A   1      37.912  31.031  30.147  1.00  0.00     0.173 A 
ATOM     82  F   UNL A   1      40.037  29.808  32.827  1.00  0.00    -0.203 F 
ATOM     83  C   UNL A   1      37.853  30.688  32.900  1.00  0.00     0.198 A 
ATOM     84  C   UNL A   1      36.784  31.405  30.876  1.00  0.00     0.198 A 
ATOM     85  F   UNL A   1      37.901  31.191  28.816  1.00  0.00    -0.203 F 
ATOM     86  F   UNL A   1      37.813  30.478  34.222  1.00  0.00    -0.200 F 
ATOM     87  C   UNL A   1      36.752  31.225  32.249  1.00  0.00     0.200 A 
ATOM     88  F   UNL A   1      35.727  31.932  30.244  1.00  0.00    -0.200 F 
ATOM     89  F   UNL A   1      35.656  31.557  32.946  1.00  0.00    -0.200 F 
ENDBRANCH  55  79
BRANCH  67  90
ATOM     90  C   UNL A   1      44.965  33.726  28.994  1.00  0.00     0.064 A 
ATOM     91  C   UNL A   1      45.876  34.018  30.019  1.00  0.00     0.173 A 
ATOM     92  C   UNL A   1      44.573  34.775  28.147  1.00  0.00     0.173 A 
ATOM     93  F   UNL A   1      46.275  33.054  30.864  1.00  0.00    -0.203 F 
ATOM     94  C   UNL A   1      46.354  35.312  30.206  1.00  0.00     0.198 A 
ATOM     95  C   UNL A   1      45.080  36.061  28.315  1.00  0.00     0.198 A 
ATOM     96  F   UNL A   1      43.712  34.549  27.144  1.00  0.00    -0.203 F 
ATOM     97  F   UNL A   1      47.184  35.578  31.224  1.00  0.00    -0.200 F 
ATOM     98  C   UNL A   1      45.962  36.331  29.349  1.00  0.00     0.200 A 
ATOM     99  F   UNL A   1      44.714  37.038  27.474  1.00  0.00    -0.200 F 
ATOM    100  F   UNL A   1      46.431  37.573  29.524  1.00  0.00    -0.200 F 
ENDBRANCH  67  90
ENDBRANCH  41  42
ENDBRANCH  34  36
ENDBRANCH  33  34
ENDBRANCH  32  33
ENDBRANCH  31  32
ENDBRANCH  30  31
ENDBRANCH  29  30
ENDBRANCH  28  29
ENDBRANCH   1  28
TORSDOF 22
ENDMDL
MODEL 3
REMARK VINA RESULT:     -10.5      2.954      8.574
REMARK SMILES C[C@H]1CC[C@@](NC(=O)N[C@H]2CCOC2)(C(=O)OCCOCCOCCOCCOC(=O)c2ccc(-c3c4nc(c(-c5c(F)c(F)c(F)c(F)c5F)c5ccc([nH]5)c(-c5c(F)c(F)c(F)c(F)c5F)c5nc(c(-c6c(F)c(F)c(F)c(F)c6F)c6ccc3[nH]6)C=C5)C=C4)cc2)CC1
REMARK SMILES IDX 23 1 22 2 21 3 20 4 19 5 18 6 17 7 15 8 16 9 5 10 1 11 2 12
REMARK SMILES IDX 96 13 3 14 95 15 4 16 6 17 7 18 8 20 9 21 10 23 11 24 14 25
REMARK SMILES IDX 12 26 13 27 24 28 25 29 26 30 27 31 28 32 29 33 30 34 31 35
REMARK SMILES IDX 32 36 33 37 94 38 34 39 93 40 35 41 36 42 37 43 87 44 38 45
REMARK SMILES IDX 92 46 86 47 88 48 39 49 91 50 85 51 84 52 40 54 72 55 52 56
REMARK SMILES IDX 71 57 53 58 56 59 70 60 89 61 54 62 55 63 69 65 90 66 57 67
REMARK SMILES IDX 41 68 42 69 50 70 43 71 44 72 48 73 51 74 45 75 46 76 49 77
REMARK SMILES IDX 47 78 73 79 74 80 82 81 75 82 76 83 80 84 83 85 77 86 78 87
REMARK SMILES IDX 81 88 79 89 58 90 59 91 67 92 60 93 61 94 65 95 68 96 62 97
REMARK SMILES IDX 63 98 66 99 64 100
REMARK H PARENT 6 19 9 22 88 53 56 64
REMARK Flexibility Score: inf
ROOT
ATOM      1  O   UNL A   1      34.517  20.755  25.950  1.00  0.00    -0.377 OA
ENDROOT
BRANCH   1   2
ATOM      2  C   UNL A   1      34.459  22.006  26.624  1.00  0.00     0.188 C 
BRANCH   2   3
ATOM      3  C   UNL A   1      33.337  22.177  27.656  1.00  0.00     0.188 C 
BRANCH   3   4
ATOM      4  O   UNL A   1      32.099  22.587  27.086  1.00  0.00    -0.376 OA
BRANCH   4   5
ATOM      5  C   UNL A   1      32.089  23.721  26.242  1.00  0.00     0.202 C 
BRANCH   5   6
ATOM      6  C   UNL A   1      31.966  25.137  26.839  1.00  0.00     0.261 C 
BRANCH   6   7
ATOM      7  O   UNL A   1      31.739  26.337  26.069  1.00  0.00    -0.461 OA
BRANCH   7   8
ATOM      8  C   UNL A   1      31.484  27.568  26.560  1.00  0.00     0.331 C 
ATOM      9  O   UNL A   1      30.930  27.823  27.621  1.00  0.00    -0.249 OA
BRANCH   8  10
ATOM     10  C   UNL A   1      31.817  28.657  25.563  1.00  0.00     0.139 C 
ATOM     11  C   UNL A   1      35.398  29.337  27.951  1.00  0.00     0.007 C 
ATOM     12  C   UNL A   1      34.467  29.609  26.754  1.00  0.00    -0.014 C 
ATOM     13  C   UNL A   1      33.101  30.107  27.255  1.00  0.00     0.006 C 
ATOM     14  C   UNL A   1      34.392  28.381  25.833  1.00  0.00     0.006 C 
ATOM     15  C   UNL A   1      31.977  30.047  26.209  1.00  0.00     0.041 C 
ATOM     16  C   UNL A   1      33.182  28.343  24.882  1.00  0.00     0.041 C 
BRANCH  10  17
ATOM     17  N   UNL A   1      30.702  28.627  24.568  1.00  0.00    -0.322 N 
ATOM     18  C   UNL A   1      30.156  27.810  23.660  1.00  0.00     0.316 C 
ATOM     19  H   UNL A   1      30.214  29.480  24.586  1.00  0.00     0.166 HD
ATOM     20  O   UNL A   1      29.043  28.158  23.245  1.00  0.00    -0.249 OA
ATOM     21  N   UNL A   1      30.655  26.712  23.087  1.00  0.00    -0.333 N 
ATOM     22  H   UNL A   1      29.976  26.283  22.517  1.00  0.00     0.165 HD
BRANCH  21  23
ATOM     23  C   UNL A   1      31.897  25.958  23.048  1.00  0.00     0.112 C 
ATOM     24  C   UNL A   1      31.771  24.473  22.787  1.00  0.00     0.056 C 
ATOM     25  C   UNL A   1      32.936  26.330  21.985  1.00  0.00     0.185 C 
ATOM     26  C   UNL A   1      33.218  24.084  22.555  1.00  0.00     0.162 C 
ATOM     27  O   UNL A   1      33.829  25.199  21.879  1.00  0.00    -0.379 OA
ENDBRANCH  21  23
ENDBRANCH  10  17
ENDBRANCH   8  10
ENDBRANCH   7   8
ENDBRANCH   6   7
ENDBRANCH   5   6
ENDBRANCH   4   5
ENDBRANCH   3   4
ENDBRANCH   2   3
ENDBRANCH   1   2
BRANCH   1  28
ATOM     28  C   UNL A   1      35.439  20.641  24.869  1.00  0.00     0.188 C 
BRANCH  28  29
ATOM     29  C   UNL A   1      36.540  21.715  24.743  1.00  0.00     0.188 C 
BRANCH  29  30
ATOM     30  O   UNL A   1      37.829  21.285  25.141  1.00  0.00    -0.376 OA
BRANCH  30  31
ATOM     31  C   UNL A   1      38.137  19.903  25.090  1.00  0.00     0.202 C 
BRANCH  31  32
ATOM     32  C   UNL A   1      39.465  19.410  25.685  1.00  0.00     0.261 C 
BRANCH  32  33
ATOM     33  O   UNL A   1      39.989  20.096  26.841  1.00  0.00    -0.460 OA
BRANCH  33  34
ATOM     34  C   UNL A   1      41.310  20.345  26.967  1.00  0.00     0.338 C 
ATOM     35  O   UNL A   1      42.234  19.610  26.669  1.00  0.00    -0.246 OA
BRANCH  34  36
ATOM     36  C   UNL A   1      41.450  21.793  27.280  1.00  0.00     0.060 A 
ATOM     37  C   UNL A   1      40.717  22.735  26.538  1.00  0.00     0.016 A 
ATOM     38  C   UNL A   1      42.230  22.211  28.360  1.00  0.00     0.016 A 
ATOM     39  C   UNL A   1      40.771  24.091  26.865  1.00  0.00     0.010 A 
ATOM     40  C   UNL A   1      42.327  23.574  28.653  1.00  0.00     0.010 A 
ATOM     41  C   UNL A   1      41.621  24.521  27.888  1.00  0.00    -0.014 A 
BRANCH  41  42
ATOM     42  C   UNL A   1      41.996  25.952  27.970  1.00  0.00     0.031 A 
ATOM     43  C   UNL A   1      43.327  26.348  27.394  1.00  0.00     0.074 A 
ATOM     44  C   UNL A   1      41.195  26.875  28.528  1.00  0.00     0.049 A 
ATOM     45  N   UNL A   1      43.941  27.502  27.422  1.00  0.00    -0.248 NA
ATOM     46  C   UNL A   1      44.070  25.287  26.692  1.00  0.00     0.031 C 
ATOM     47  C   UNL A   1      39.860  26.629  29.065  1.00  0.00     0.029 A 
ATOM     48  N   UNL A   1      41.406  28.214  28.748  1.00  0.00    -0.354 N 
ATOM     49  C   UNL A   1      45.143  27.301  26.755  1.00  0.00     0.074 A 
ATOM     50  C   UNL A   1      45.185  25.914  26.351  1.00  0.00     0.031 C 
ATOM     51  C   UNL A   1      39.379  27.776  29.578  1.00  0.00     0.029 A 
ATOM     52  C   UNL A   1      40.390  28.826  29.440  1.00  0.00     0.049 A 
ATOM     53  H   UNL A   1      42.211  28.691  28.438  1.00  0.00     0.167 HD
ATOM     54  C   UNL A   1      46.125  28.196  26.501  1.00  0.00     0.037 A 
ATOM     55  C   UNL A   1      40.308  30.077  29.933  1.00  0.00     0.037 A 
ATOM     56  C   UNL A   1      46.083  29.573  26.910  1.00  0.00     0.049 A 
ATOM     57  C   UNL A   1      41.456  31.034  29.716  1.00  0.00     0.074 A 
ATOM     58  C   UNL A   1      47.017  30.567  26.687  1.00  0.00     0.029 A 
ATOM     59  N   UNL A   1      45.052  30.146  27.640  1.00  0.00    -0.354 N 
ATOM     60  N   UNL A   1      42.581  30.848  29.066  1.00  0.00    -0.248 NA
ATOM     61  C   UNL A   1      41.324  32.376  30.303  1.00  0.00     0.031 C 
ATOM     62  C   UNL A   1      46.584  31.726  27.337  1.00  0.00     0.029 A 
ATOM     63  C   UNL A   1      45.346  31.473  27.908  1.00  0.00     0.049 A 
ATOM     64  H   UNL A   1      44.234  29.679  27.926  1.00  0.00     0.167 HD
ATOM     65  C   UNL A   1      43.275  32.051  29.145  1.00  0.00     0.074 A 
ATOM     66  C   UNL A   1      42.436  32.966  29.889  1.00  0.00     0.031 C 
ATOM     67  C   UNL A   1      44.496  32.370  28.648  1.00  0.00     0.037 A 
BRANCH  54  68
ATOM     68  C   UNL A   1      47.346  27.699  25.784  1.00  0.00     0.064 A 
ATOM     69  C   UNL A   1      47.443  27.713  24.385  1.00  0.00     0.173 A 
ATOM     70  C   UNL A   1      48.445  27.222  26.513  1.00  0.00     0.173 A 
ATOM     71  F   UNL A   1      46.410  28.138  23.641  1.00  0.00    -0.203 F 
ATOM     72  C   UNL A   1      48.586  27.247  23.741  1.00  0.00     0.198 A 
ATOM     73  C   UNL A   1      49.599  26.788  25.868  1.00  0.00     0.198 A 
ATOM     74  F   UNL A   1      48.404  27.184  27.853  1.00  0.00    -0.203 F 
ATOM     75  F   UNL A   1      48.638  27.224  22.402  1.00  0.00    -0.200 F 
ATOM     76  C   UNL A   1      49.667  26.794  24.483  1.00  0.00     0.200 A 
ATOM     77  F   UNL A   1      50.646  26.360  26.587  1.00  0.00    -0.200 F 
ATOM     78  F   UNL A   1      50.770  26.355  23.863  1.00  0.00    -0.200 F 
ENDBRANCH  54  68
BRANCH  55  79
ATOM     79  C   UNL A   1      39.112  30.499  30.715  1.00  0.00     0.064 A 
ATOM     80  C   UNL A   1      39.050  30.315  32.103  1.00  0.00     0.173 A 
ATOM     81  C   UNL A   1      37.991  31.057  30.082  1.00  0.00     0.173 A 
ATOM     82  F   UNL A   1      40.082  29.756  32.751  1.00  0.00    -0.203 F 
ATOM     83  C   UNL A   1      37.907  30.656  32.826  1.00  0.00     0.198 A 
ATOM     84  C   UNL A   1      36.861  31.427  30.810  1.00  0.00     0.198 A 
ATOM     85  F   UNL A   1      37.993  31.246  28.755  1.00  0.00    -0.203 F 
ATOM     86  F   UNL A   1      37.855  30.419  34.144  1.00  0.00    -0.200 F 
ATOM     87  C   UNL A   1      36.817  31.219  32.179  1.00  0.00     0.200 A 
ATOM     88  F   UNL A   1      35.814  31.979  30.182  1.00  0.00    -0.200 F 
ATOM     89  F   UNL A   1      35.719  31.547  32.875  1.00  0.00    -0.200 F 
ENDBRANCH  55  79
BRANCH  67  90
ATOM     90  C   UNL A   1      44.988  33.774  28.863  1.00  0.00     0.064 A 
ATOM     91  C   UNL A   1      45.721  34.133  30.003  1.00  0.00     0.173 A 
ATOM     92  C   UNL A   1      44.767  34.761  27.889  1.00  0.00     0.173 A 
ATOM     93  F   UNL A   1      45.952  33.231  30.970  1.00  0.00    -0.203 F 
ATOM     94  C   UNL A   1      46.190  35.433  30.174  1.00  0.00     0.198 A 
ATOM     95  C   UNL A   1      45.267  36.051  28.047  1.00  0.00     0.198 A 
ATOM     96  F   UNL A   1      44.081  34.469  26.774  1.00  0.00    -0.203 F 
ATOM     97  F   UNL A   1      46.845  35.765  31.295  1.00  0.00    -0.200 F 
ATOM     98  C   UNL A   1      45.970  36.388  29.193  1.00  0.00     0.200 A 
ATOM     99  F   UNL A   1      45.069  36.966  27.088  1.00  0.00    -0.200 F 
ATOM    100  F   UNL A   1      46.431  37.636  29.354  1.00  0.00    -0.200 F 
ENDBRANCH  67  90
ENDBRANCH  41  42
ENDBRANCH  34  36
ENDBRANCH  33  34
ENDBRANCH  32  33
ENDBRANCH  31  32
ENDBRANCH  30  31
ENDBRANCH  29  30
ENDBRANCH  28  29
ENDBRANCH   1  28
TORSDOF 22
ENDMDL
