MODEL 1
REMARK VINA RESULT:     -10.0      0.000      0.000
REMARK SMILES CC(C)Cc1cc2c(cc1Cl)C=C(C(=O)OCCOCCOCCOCCOC(=O)c1ccc(-c3c4nc(c(-c5c(F)c(F)c(F)c(F)c5F)c5ccc([nH]5)c(-c5c(F)c(F)c(F)c(F)c5F)c5nc(c(-c6c(F)c(F)c(F)c(F)c6F)c6ccc3[nH]6)C=C5)C=C4)cc1)[C@@H](C(F)(F)F)O2
REMARK SMILES IDX 22 1 21 2 20 3 19 4 18 5 17 6 16 7 14 8 15 9 13 10 5 11 6 12
REMARK SMILES IDX 10 13 7 14 9 15 11 16 8 17 99 18 12 19 94 20 4 21 2 22 1 23
REMARK SMILES IDX 3 24 95 25 96 26 97 27 98 28 23 29 24 30 25 31 26 32 27 33
REMARK SMILES IDX 28 34 29 35 30 36 31 37 32 38 93 39 33 40 92 41 34 42 35 43
REMARK SMILES IDX 36 44 86 45 37 46 91 47 85 48 87 49 38 50 90 51 84 52 83 53
REMARK SMILES IDX 39 55 71 56 51 57 70 58 52 59 55 60 69 61 88 62 53 63 54 64
REMARK SMILES IDX 68 66 89 67 56 68 40 69 41 70 49 71 42 72 43 73 47 74 50 75
REMARK SMILES IDX 44 76 45 77 48 78 46 79 72 80 73 81 81 82 74 83 75 84 79 85
REMARK SMILES IDX 82 86 76 87 77 88 80 89 78 90 57 91 58 92 66 93 59 94 60 95
REMARK SMILES IDX 64 96 67 97 61 98 62 99 65 100 63 101
REMARK H PARENT 87 54 55 65
REMARK Flexibility Score: inf
ROOT
ATOM      1  O   UNL A   1      33.955  35.630  29.277  1.00  0.00    -0.377 OA
ENDROOT
BRANCH   1   2
ATOM      2  C   UNL A   1      33.522  34.395  28.722  1.00  0.00     0.188 C 
BRANCH   2   3
ATOM      3  C   UNL A   1      34.655  33.650  27.990  1.00  0.00     0.188 C 
BRANCH   3   4
ATOM      4  O   UNL A   1      34.246  32.378  27.503  1.00  0.00    -0.376 OA
BRANCH   4   5
ATOM      5  C   UNL A   1      34.507  31.230  28.299  1.00  0.00     0.202 C 
BRANCH   5   6
ATOM      6  C   UNL A   1      34.520  29.836  27.647  1.00  0.00     0.261 C 
BRANCH   6   7
ATOM      7  O   UNL A   1      34.088  29.776  26.280  1.00  0.00    -0.460 OA
BRANCH   7   8
ATOM      8  C   UNL A   1      32.793  29.491  26.045  1.00  0.00     0.338 C 
ATOM      9  O   UNL A   1      31.853  30.260  26.128  1.00  0.00    -0.246 OA
BRANCH   8  10
ATOM     10  C   UNL A   1      32.724  28.119  25.493  1.00  0.00     0.087 C 
ATOM     11  C   UNL A   1      33.661  23.347  24.193  1.00  0.00    -0.025 A 
ATOM     12  C   UNL A   1      32.628  24.262  23.914  1.00  0.00     0.052 A 
ATOM     13  C   UNL A   1      34.654  23.728  25.108  1.00  0.00     0.045 A 
ATOM     14  C   UNL A   1      32.614  25.535  24.493  1.00  0.00     0.128 A 
ATOM     15  C   UNL A   1      34.627  24.993  25.705  1.00  0.00     0.032 A 
ATOM     16  Cl  UNL A   1      35.989  22.703  25.504  1.00  0.00    -0.084 Cl
ATOM     17  C   UNL A   1      33.627  25.910  25.371  1.00  0.00     0.019 A 
ATOM     18  O   UNL A   1      31.586  26.354  24.127  1.00  0.00    -0.475 OA
ATOM     19  C   UNL A   1      33.674  27.265  25.890  1.00  0.00     0.027 C 
ATOM     20  C   UNL A   1      31.572  27.733  24.596  1.00  0.00     0.316 C 
BRANCH  11  21
ATOM     21  C   UNL A   1      33.684  22.023  23.458  1.00  0.00     0.040 C 
BRANCH  21  22
ATOM     22  C   UNL A   1      33.007  20.851  24.195  1.00  0.00    -0.013 C 
ATOM     23  C   UNL A   1      32.155  21.326  25.373  1.00  0.00     0.008 C 
ATOM     24  C   UNL A   1      32.141  20.058  23.210  1.00  0.00     0.008 C 
ENDBRANCH  21  22
ENDBRANCH  11  21
BRANCH  20  25
ATOM     25  C   UNL A   1      31.455  28.660  23.378  1.00  0.00     0.430 C 
ATOM     26  F   UNL A   1      30.573  29.663  23.604  1.00  0.00    -0.167 F 
ATOM     27  F   UNL A   1      32.636  29.246  23.072  1.00  0.00    -0.167 F 
ATOM     28  F   UNL A   1      31.039  27.993  22.277  1.00  0.00    -0.167 F 
ENDBRANCH  20  25
ENDBRANCH   8  10
ENDBRANCH   7   8
ENDBRANCH   6   7
ENDBRANCH   5   6
ENDBRANCH   4   5
ENDBRANCH   3   4
ENDBRANCH   2   3
ENDBRANCH   1   2
BRANCH   1  29
ATOM     29  C   UNL A   1      32.989  36.395  30.000  1.00  0.00     0.188 C 
BRANCH  29  30
ATOM     30  C   UNL A   1      32.687  36.118  31.492  1.00  0.00     0.188 C 
BRANCH  30  31
ATOM     31  O   UNL A   1      33.167  34.856  31.949  1.00  0.00    -0.376 OA
BRANCH  31  32
ATOM     32  C   UNL A   1      34.139  34.861  32.984  1.00  0.00     0.202 C 
BRANCH  32  33
ATOM     33  C   UNL A   1      35.587  34.899  32.484  1.00  0.00     0.261 C 
BRANCH  33  34
ATOM     34  O   UNL A   1      35.900  33.956  31.447  1.00  0.00    -0.460 OA
BRANCH  34  35
ATOM     35  C   UNL A   1      36.008  32.653  31.792  1.00  0.00     0.338 C 
ATOM     36  O   UNL A   1      35.138  31.934  32.247  1.00  0.00    -0.246 OA
BRANCH  35  37
ATOM     37  C   UNL A   1      37.334  32.186  31.338  1.00  0.00     0.060 A 
ATOM     38  C   UNL A   1      38.198  31.547  32.231  1.00  0.00     0.016 A 
ATOM     39  C   UNL A   1      37.728  32.419  30.014  1.00  0.00     0.016 A 
ATOM     40  C   UNL A   1      39.445  31.111  31.789  1.00  0.00     0.010 A 
ATOM     41  C   UNL A   1      38.979  31.979  29.571  1.00  0.00     0.010 A 
ATOM     42  C   UNL A   1      39.835  31.299  30.451  1.00  0.00    -0.014 A 
BRANCH  42  43
ATOM     43  C   UNL A   1      41.056  30.619  29.958  1.00  0.00     0.031 A 
ATOM     44  C   UNL A   1      41.033  29.221  29.427  1.00  0.00     0.074 A 
ATOM     45  C   UNL A   1      42.207  31.319  29.973  1.00  0.00     0.049 A 
ATOM     46  N   UNL A   1      41.987  28.560  28.820  1.00  0.00    -0.248 NA
ATOM     47  C   UNL A   1      39.788  28.460  29.602  1.00  0.00     0.031 C 
ATOM     48  C   UNL A   1      42.353  32.672  30.511  1.00  0.00     0.029 A 
ATOM     49  N   UNL A   1      43.459  31.006  29.508  1.00  0.00    -0.354 N 
ATOM     50  C   UNL A   1      41.453  27.317  28.514  1.00  0.00     0.074 A 
ATOM     51  C   UNL A   1      40.108  27.294  29.053  1.00  0.00     0.031 C 
ATOM     52  C   UNL A   1      43.610  33.091  30.306  1.00  0.00     0.029 A 
ATOM     53  C   UNL A   1      44.362  32.031  29.642  1.00  0.00     0.049 A 
ATOM     54  H   UNL A   1      43.687  30.132  29.116  1.00  0.00     0.167 HD
ATOM     55  C   UNL A   1      42.031  26.304  27.824  1.00  0.00     0.037 A 
ATOM     56  C   UNL A   1      45.650  32.115  29.259  1.00  0.00     0.037 A 
ATOM     57  C   UNL A   1      43.375  26.336  27.302  1.00  0.00     0.049 A 
ATOM     58  C   UNL A   1      46.278  30.958  28.535  1.00  0.00     0.074 A 
ATOM     59  C   UNL A   1      44.026  25.382  26.537  1.00  0.00     0.029 A 
ATOM     60  N   UNL A   1      44.282  27.366  27.508  1.00  0.00    -0.354 N 
ATOM     61  N   UNL A   1      45.730  29.832  28.152  1.00  0.00    -0.248 NA
ATOM     62  C   UNL A   1      47.699  31.085  28.187  1.00  0.00     0.031 C 
ATOM     63  C   UNL A   1      45.340  25.809  26.328  1.00  0.00     0.029 A 
ATOM     64  C   UNL A   1      45.498  27.050  26.922  1.00  0.00     0.049 A 
ATOM     65  H   UNL A   1      44.090  28.197  27.999  1.00  0.00     0.167 HD
ATOM     66  C   UNL A   1      46.734  29.118  27.511  1.00  0.00     0.074 A 
ATOM     67  C   UNL A   1      47.918  29.951  27.534  1.00  0.00     0.031 C 
ATOM     68  C   UNL A   1      46.676  27.882  26.961  1.00  0.00     0.037 A 
BRANCH  55  69
ATOM     69  C   UNL A   1      41.213  25.073  27.562  1.00  0.00     0.064 A 
ATOM     70  C   UNL A   1      40.193  25.070  26.598  1.00  0.00     0.173 A 
ATOM     71  C   UNL A   1      41.512  23.862  28.203  1.00  0.00     0.173 A 
ATOM     72  F   UNL A   1      39.868  26.201  25.956  1.00  0.00    -0.203 F 
ATOM     73  C   UNL A   1      39.494  23.904  26.297  1.00  0.00     0.198 A 
ATOM     74  C   UNL A   1      40.828  22.691  27.881  1.00  0.00     0.198 A 
ATOM     75  F   UNL A   1      42.488  23.805  29.122  1.00  0.00    -0.203 F 
ATOM     76  F   UNL A   1      38.507  23.931  25.391  1.00  0.00    -0.200 F 
ATOM     77  C   UNL A   1      39.819  22.714  26.932  1.00  0.00     0.200 A 
ATOM     78  F   UNL A   1      41.156  21.538  28.481  1.00  0.00    -0.200 F 
ATOM     79  F   UNL A   1      39.159  21.589  26.626  1.00  0.00    -0.200 F 
ENDBRANCH  55  69
BRANCH  56  80
ATOM     80  C   UNL A   1      46.408  33.365  29.520  1.00  0.00     0.064 A 
ATOM     81  C   UNL A   1      47.114  33.539  30.718  1.00  0.00     0.173 A 
ATOM     82  C   UNL A   1      46.473  34.390  28.565  1.00  0.00     0.173 A 
ATOM     83  F   UNL A   1      47.068  32.593  31.666  1.00  0.00    -0.203 F 
ATOM     84  C   UNL A   1      47.852  34.697  30.954  1.00  0.00     0.198 A 
ATOM     85  C   UNL A   1      47.233  35.536  28.792  1.00  0.00     0.198 A 
ATOM     86  F   UNL A   1      45.820  34.267  27.401  1.00  0.00    -0.203 F 
ATOM     87  F   UNL A   1      48.494  34.852  32.119  1.00  0.00    -0.200 F 
ATOM     88  C   UNL A   1      47.918  35.690  29.987  1.00  0.00     0.200 A 
ATOM     89  F   UNL A   1      47.309  36.485  27.848  1.00  0.00    -0.200 F 
ATOM     90  F   UNL A   1      48.640  36.797  30.209  1.00  0.00    -0.200 F 
ENDBRANCH  56  80
BRANCH  68  91
ATOM     91  C   UNL A   1      47.934  27.331  26.355  1.00  0.00     0.064 A 
ATOM     92  C   UNL A   1      48.207  27.484  24.988  1.00  0.00     0.173 A 
ATOM     93  C   UNL A   1      48.914  26.726  27.158  1.00  0.00     0.173 A 
ATOM     94  F   UNL A   1      47.296  28.041  24.176  1.00  0.00    -0.203 F 
ATOM     95  C   UNL A   1      49.414  27.049  24.446  1.00  0.00     0.198 A 
ATOM     96  C   UNL A   1      50.131  26.318  26.618  1.00  0.00     0.198 A 
ATOM     97  F   UNL A   1      48.703  26.561  28.473  1.00  0.00    -0.203 F 
ATOM     98  F   UNL A   1      49.643  27.183  23.133  1.00  0.00    -0.200 F 
ATOM     99  C   UNL A   1      50.379  26.478  25.263  1.00  0.00     0.200 A 
ATOM    100  F   UNL A   1      51.067  25.781  27.411  1.00  0.00    -0.200 F 
ATOM    101  F   UNL A   1      51.549  26.083  24.744  1.00  0.00    -0.200 F 
ENDBRANCH  68  91
ENDBRANCH  42  43
ENDBRANCH  35  37
ENDBRANCH  34  35
ENDBRANCH  33  34
ENDBRANCH  32  33
ENDBRANCH  31  32
ENDBRANCH  30  31
ENDBRANCH  29  30
ENDBRANCH   1  29
TORSDOF 23
ENDMDL
MODEL 2
REMARK VINA RESULT:      -9.8      5.118      9.264
REMARK SMILES CC(C)Cc1cc2c(cc1Cl)C=C(C(=O)OCCOCCOCCOCCOC(=O)c1ccc(-c3c4nc(c(-c5c(F)c(F)c(F)c(F)c5F)c5ccc([nH]5)c(-c5c(F)c(F)c(F)c(F)c5F)c5nc(c(-c6c(F)c(F)c(F)c(F)c6F)c6ccc3[nH]6)C=C5)C=C4)cc1)[C@@H](C(F)(F)F)O2
REMARK SMILES IDX 22 1 21 2 20 3 19 4 18 5 17 6 16 7 14 8 15 9 13 10 5 11 6 12
REMARK SMILES IDX 10 13 7 14 9 15 11 16 8 17 99 18 12 19 94 20 4 21 2 22 1 23
REMARK SMILES IDX 3 24 95 25 96 26 97 27 98 28 23 29 24 30 25 31 26 32 27 33
REMARK SMILES IDX 28 34 29 35 30 36 31 37 32 38 93 39 33 40 92 41 34 42 35 43
REMARK SMILES IDX 36 44 86 45 37 46 91 47 85 48 87 49 38 50 90 51 84 52 83 53
REMARK SMILES IDX 39 55 71 56 51 57 70 58 52 59 55 60 69 61 88 62 53 63 54 64
REMARK SMILES IDX 68 66 89 67 56 68 40 69 41 70 49 71 42 72 43 73 47 74 50 75
REMARK SMILES IDX 44 76 45 77 48 78 46 79 72 80 73 81 81 82 74 83 75 84 79 85
REMARK SMILES IDX 82 86 76 87 77 88 80 89 78 90 57 91 58 92 66 93 59 94 60 95
REMARK SMILES IDX 64 96 67 97 61 98 62 99 65 100 63 101
REMARK H PARENT 87 54 55 65
REMARK Flexibility Score: inf
ROOT
ATOM      1  O   UNL A   1      37.165  32.874  33.300  1.00  0.00    -0.377 OA
ENDROOT
BRANCH   1   2
ATOM      2  C   UNL A   1      38.005  32.013  34.059  1.00  0.00     0.188 C 
BRANCH   2   3
ATOM      3  C   UNL A   1      37.805  30.529  33.697  1.00  0.00     0.188 C 
BRANCH   3   4
ATOM      4  O   UNL A   1      38.927  29.726  34.046  1.00  0.00    -0.376 OA
BRANCH   4   5
ATOM      5  C   UNL A   1      39.995  30.328  34.763  1.00  0.00     0.202 C 
BRANCH   5   6
ATOM      6  C   UNL A   1      40.891  29.463  35.668  1.00  0.00     0.261 C 
BRANCH   6   7
ATOM      7  O   UNL A   1      40.969  28.071  35.330  1.00  0.00    -0.460 OA
BRANCH   7   8
ATOM      8  C   UNL A   1      41.863  27.704  34.392  1.00  0.00     0.338 C 
ATOM      9  O   UNL A   1      41.785  27.908  33.194  1.00  0.00    -0.246 OA
BRANCH   8  10
ATOM     10  C   UNL A   1      43.052  27.161  35.087  1.00  0.00     0.087 C 
ATOM     11  C   UNL A   1      47.725  26.173  36.678  1.00  0.00    -0.025 A 
ATOM     12  C   UNL A   1      46.453  25.636  36.955  1.00  0.00     0.052 A 
ATOM     13  C   UNL A   1      47.800  27.307  35.854  1.00  0.00     0.045 A 
ATOM     14  C   UNL A   1      45.298  26.184  36.387  1.00  0.00     0.128 A 
ATOM     15  C   UNL A   1      46.643  27.868  35.306  1.00  0.00     0.032 A 
ATOM     16  Cl  UNL A   1      49.307  28.033  35.418  1.00  0.00    -0.084 Cl
ATOM     17  C   UNL A   1      45.395  27.287  35.542  1.00  0.00     0.019 A 
ATOM     18  O   UNL A   1      44.122  25.565  36.694  1.00  0.00    -0.475 OA
ATOM     19  C   UNL A   1      44.213  27.791  34.868  1.00  0.00     0.027 C 
ATOM     20  C   UNL A   1      42.894  26.006  36.045  1.00  0.00     0.316 C 
BRANCH  11  21
ATOM     21  C   UNL A   1      48.950  25.477  37.234  1.00  0.00     0.040 C 
BRANCH  21  22
ATOM     22  C   UNL A   1      49.013  25.386  38.770  1.00  0.00    -0.013 C 
ATOM     23  C   UNL A   1      49.705  24.107  39.245  1.00  0.00     0.008 C 
ATOM     24  C   UNL A   1      49.743  26.612  39.328  1.00  0.00     0.008 C 
ENDBRANCH  21  22
ENDBRANCH  11  21
BRANCH  20  25
ATOM     25  C   UNL A   1      42.232  24.791  35.380  1.00  0.00     0.430 C 
ATOM     26  F   UNL A   1      40.892  24.793  35.572  1.00  0.00    -0.167 F 
ATOM     27  F   UNL A   1      42.432  24.777  34.041  1.00  0.00    -0.167 F 
ATOM     28  F   UNL A   1      42.712  23.625  35.871  1.00  0.00    -0.167 F 
ENDBRANCH  20  25
ENDBRANCH   8  10
ENDBRANCH   7   8
ENDBRANCH   6   7
ENDBRANCH   5   6
ENDBRANCH   4   5
ENDBRANCH   3   4
ENDBRANCH   2   3
ENDBRANCH   1   2
BRANCH   1  29
ATOM     29  C   UNL A   1      36.721  32.398  32.028  1.00  0.00     0.188 C 
BRANCH  29  30
ATOM     30  C   UNL A   1      37.081  33.135  30.717  1.00  0.00     0.188 C 
BRANCH  30  31
ATOM     31  O   UNL A   1      36.011  33.908  30.180  1.00  0.00    -0.376 OA
BRANCH  31  32
ATOM     32  C   UNL A   1      34.769  33.251  29.975  1.00  0.00     0.202 C 
BRANCH  32  33
ATOM     33  C   UNL A   1      34.329  33.182  28.509  1.00  0.00     0.261 C 
BRANCH  33  34
ATOM     34  O   UNL A   1      35.037  32.228  27.703  1.00  0.00    -0.460 OA
BRANCH  34  35
ATOM     35  C   UNL A   1      34.793  30.916  27.920  1.00  0.00     0.338 C 
ATOM     36  O   UNL A   1      33.756  30.312  27.715  1.00  0.00    -0.246 OA
BRANCH  35  37
ATOM     37  C   UNL A   1      36.080  30.283  28.277  1.00  0.00     0.060 A 
ATOM     38  C   UNL A   1      37.123  30.237  27.348  1.00  0.00     0.016 A 
ATOM     39  C   UNL A   1      36.232  29.704  29.544  1.00  0.00     0.016 A 
ATOM     40  C   UNL A   1      38.331  29.639  27.699  1.00  0.00     0.010 A 
ATOM     41  C   UNL A   1      37.446  29.106  29.895  1.00  0.00     0.010 A 
ATOM     42  C   UNL A   1      38.512  29.093  28.983  1.00  0.00    -0.014 A 
BRANCH  42  43
ATOM     43  C   UNL A   1      39.872  28.682  29.401  1.00  0.00     0.031 A 
ATOM     44  C   UNL A   1      40.503  27.409  28.930  1.00  0.00     0.074 A 
ATOM     45  C   UNL A   1      40.554  29.516  30.210  1.00  0.00     0.049 A 
ATOM     46  N   UNL A   1      41.737  27.001  29.086  1.00  0.00    -0.248 NA
ATOM     47  C   UNL A   1      39.644  26.469  28.198  1.00  0.00     0.031 C 
ATOM     48  C   UNL A   1      40.019  30.760  30.766  1.00  0.00     0.029 A 
ATOM     49  N   UNL A   1      41.839  29.462  30.685  1.00  0.00    -0.354 N 
ATOM     50  C   UNL A   1      41.815  25.772  28.449  1.00  0.00     0.074 A 
ATOM     51  C   UNL A   1      40.487  25.473  27.952  1.00  0.00     0.031 C 
ATOM     52  C   UNL A   1      40.980  31.374  31.470  1.00  0.00     0.029 A 
ATOM     53  C   UNL A   1      42.191  30.559  31.432  1.00  0.00     0.049 A 
ATOM     54  H   UNL A   1      42.450  28.710  30.508  1.00  0.00     0.167 HD
ATOM     55  C   UNL A   1      42.904  24.984  28.277  1.00  0.00     0.037 A 
ATOM     56  C   UNL A   1      43.363  30.882  32.009  1.00  0.00     0.037 A 
ATOM     57  C   UNL A   1      44.219  25.289  28.787  1.00  0.00     0.049 A 
ATOM     58  C   UNL A   1      44.543  29.968  31.839  1.00  0.00     0.074 A 
ATOM     59  C   UNL A   1      45.396  24.582  28.611  1.00  0.00     0.029 A 
ATOM     60  N   UNL A   1      44.526  26.378  29.590  1.00  0.00    -0.354 N 
ATOM     61  N   UNL A   1      44.634  28.863  31.140  1.00  0.00    -0.248 NA
ATOM     62  C   UNL A   1      45.781  30.344  32.534  1.00  0.00     0.031 C 
ATOM     63  C   UNL A   1      46.402  25.212  29.351  1.00  0.00     0.029 A 
ATOM     64  C   UNL A   1      45.864  26.338  29.951  1.00  0.00     0.049 A 
ATOM     65  H   UNL A   1      43.887  27.076  29.862  1.00  0.00     0.167 HD
ATOM     66  C   UNL A   1      45.938  28.417  31.302  1.00  0.00     0.074 A 
ATOM     67  C   UNL A   1      46.610  29.384  32.145  1.00  0.00     0.031 C 
ATOM     68  C   UNL A   1      46.520  27.300  30.802  1.00  0.00     0.037 A 
BRANCH  55  69
ATOM     69  C   UNL A   1      42.742  23.720  27.484  1.00  0.00     0.064 A 
ATOM     70  C   UNL A   1      43.123  23.656  26.135  1.00  0.00     0.173 A 
ATOM     71  C   UNL A   1      42.299  22.539  28.097  1.00  0.00     0.173 A 
ATOM     72  F   UNL A   1      43.555  24.756  25.502  1.00  0.00    -0.203 F 
ATOM     73  C   UNL A   1      43.052  22.459  25.427  1.00  0.00     0.198 A 
ATOM     74  C   UNL A   1      42.253  21.338  27.392  1.00  0.00     0.198 A 
ATOM     75  F   UNL A   1      41.936  22.541  29.389  1.00  0.00    -0.203 F 
ATOM     76  F   UNL A   1      43.398  22.428  24.132  1.00  0.00    -0.200 F 
ATOM     77  C   UNL A   1      42.626  21.299  26.058  1.00  0.00     0.200 A 
ATOM     78  F   UNL A   1      41.860  20.214  28.009  1.00  0.00    -0.200 F 
ATOM     79  F   UNL A   1      42.578  20.145  25.380  1.00  0.00    -0.200 F 
ENDBRANCH  55  69
BRANCH  56  80
ATOM     80  C   UNL A   1      43.478  32.157  32.762  1.00  0.00     0.064 A 
ATOM     81  C   UNL A   1      43.477  32.165  34.163  1.00  0.00     0.173 A 
ATOM     82  C   UNL A   1      43.629  33.384  32.100  1.00  0.00     0.173 A 
ATOM     83  F   UNL A   1      43.320  31.018  34.840  1.00  0.00    -0.203 F 
ATOM     84  C   UNL A   1      43.616  33.354  34.875  1.00  0.00     0.198 A 
ATOM     85  C   UNL A   1      43.794  34.570  32.812  1.00  0.00     0.198 A 
ATOM     86  F   UNL A   1      43.642  33.427  30.760  1.00  0.00    -0.203 F 
ATOM     87  F   UNL A   1      43.583  33.339  36.214  1.00  0.00    -0.200 F 
ATOM     88  C   UNL A   1      43.783  34.554  34.199  1.00  0.00     0.200 A 
ATOM     89  F   UNL A   1      43.973  35.724  32.156  1.00  0.00    -0.200 F 
ATOM     90  F   UNL A   1      43.931  35.697  34.884  1.00  0.00    -0.200 F 
ENDBRANCH  56  80
BRANCH  68  91
ATOM     91  C   UNL A   1      47.953  27.041  31.165  1.00  0.00     0.064 A 
ATOM     92  C   UNL A   1      48.289  26.187  32.226  1.00  0.00     0.173 A 
ATOM     93  C   UNL A   1      48.998  27.575  30.395  1.00  0.00     0.173 A 
ATOM     94  F   UNL A   1      47.327  25.665  33.002  1.00  0.00    -0.203 F 
ATOM     95  C   UNL A   1      49.618  25.881  32.505  1.00  0.00     0.198 A 
ATOM     96  C   UNL A   1      50.324  27.244  30.660  1.00  0.00     0.198 A 
ATOM     97  F   UNL A   1      48.730  28.393  29.366  1.00  0.00    -0.203 F 
ATOM     98  F   UNL A   1      49.916  25.082  33.539  1.00  0.00    -0.200 F 
ATOM     99  C   UNL A   1      50.633  26.398  31.715  1.00  0.00     0.200 A 
ATOM    100  F   UNL A   1      51.302  27.733  29.885  1.00  0.00    -0.200 F 
ATOM    101  F   UNL A   1      51.910  26.082  31.970  1.00  0.00    -0.200 F 
ENDBRANCH  68  91
ENDBRANCH  42  43
ENDBRANCH  35  37
ENDBRANCH  34  35
ENDBRANCH  33  34
ENDBRANCH  32  33
ENDBRANCH  31  32
ENDBRANCH  30  31
ENDBRANCH  29  30
ENDBRANCH   1  29
TORSDOF 23
ENDMDL
MODEL 3
REMARK VINA RESULT:      -9.5      5.554     11.101
REMARK SMILES CC(C)Cc1cc2c(cc1Cl)C=C(C(=O)OCCOCCOCCOCCOC(=O)c1ccc(-c3c4nc(c(-c5c(F)c(F)c(F)c(F)c5F)c5ccc([nH]5)c(-c5c(F)c(F)c(F)c(F)c5F)c5nc(c(-c6c(F)c(F)c(F)c(F)c6F)c6ccc3[nH]6)C=C5)C=C4)cc1)[C@@H](C(F)(F)F)O2
REMARK SMILES IDX 22 1 21 2 20 3 19 4 18 5 17 6 16 7 14 8 15 9 13 10 5 11 6 12
REMARK SMILES IDX 10 13 7 14 9 15 11 16 8 17 99 18 12 19 94 20 4 21 2 22 1 23
REMARK SMILES IDX 3 24 95 25 96 26 97 27 98 28 23 29 24 30 25 31 26 32 27 33
REMARK SMILES IDX 28 34 29 35 30 36 31 37 32 38 93 39 33 40 92 41 34 42 35 43
REMARK SMILES IDX 36 44 86 45 37 46 91 47 85 48 87 49 38 50 90 51 84 52 83 53
REMARK SMILES IDX 39 55 71 56 51 57 70 58 52 59 55 60 69 61 88 62 53 63 54 64
REMARK SMILES IDX 68 66 89 67 56 68 40 69 41 70 49 71 42 72 43 73 47 74 50 75
REMARK SMILES IDX 44 76 45 77 48 78 46 79 72 80 73 81 81 82 74 83 75 84 79 85
REMARK SMILES IDX 82 86 76 87 77 88 80 89 78 90 57 91 58 92 66 93 59 94 60 95
REMARK SMILES IDX 64 96 67 97 61 98 62 99 65 100 63 101
REMARK H PARENT 87 54 55 65
REMARK Flexibility Score: inf
ROOT
ATOM      1  O   UNL A   1      38.625  24.601  26.271  1.00  0.00    -0.377 OA
ENDROOT
BRANCH   1   2
ATOM      2  C   UNL A   1      38.015  23.391  26.702  1.00  0.00     0.188 C 
BRANCH   2   3
ATOM      3  C   UNL A   1      38.010  22.312  25.602  1.00  0.00     0.188 C 
BRANCH   3   4
ATOM      4  O   UNL A   1      37.338  22.738  24.422  1.00  0.00    -0.376 OA
BRANCH   4   5
ATOM      5  C   UNL A   1      35.922  22.640  24.374  1.00  0.00     0.202 C 
BRANCH   5   6
ATOM      6  C   UNL A   1      35.240  21.292  24.669  1.00  0.00     0.261 C 
BRANCH   6   7
ATOM      7  O   UNL A   1      33.971  21.077  24.035  1.00  0.00    -0.460 OA
BRANCH   7   8
ATOM      8  C   UNL A   1      32.883  20.993  24.825  1.00  0.00     0.338 C 
ATOM      9  O   UNL A   1      32.383  19.975  25.267  1.00  0.00    -0.246 OA
BRANCH   8  10
ATOM     10  C   UNL A   1      32.499  22.369  25.214  1.00  0.00     0.087 C 
ATOM     11  C   UNL A   1      31.446  27.292  25.274  1.00  0.00    -0.025 A 
ATOM     12  C   UNL A   1      31.491  26.279  26.252  1.00  0.00     0.052 A 
ATOM     13  C   UNL A   1      31.629  26.925  23.932  1.00  0.00     0.045 A 
ATOM     14  C   UNL A   1      31.761  24.951  25.905  1.00  0.00     0.128 A 
ATOM     15  C   UNL A   1      31.875  25.593  23.583  1.00  0.00     0.032 A 
ATOM     16  Cl  UNL A   1      31.628  28.083  22.649  1.00  0.00    -0.084 Cl
ATOM     17  C   UNL A   1      31.976  24.611  24.572  1.00  0.00     0.019 A 
ATOM     18  O   UNL A   1      31.817  24.057  26.934  1.00  0.00    -0.475 OA
ATOM     19  C   UNL A   1      32.361  23.256  24.222  1.00  0.00     0.027 C 
ATOM     20  C   UNL A   1      32.209  22.681  26.662  1.00  0.00     0.316 C 
BRANCH  11  21
ATOM     21  C   UNL A   1      31.256  28.728  25.716  1.00  0.00     0.040 C 
BRANCH  21  22
ATOM     22  C   UNL A   1      32.423  29.327  26.523  1.00  0.00    -0.013 C 
ATOM     23  C   UNL A   1      33.765  29.158  25.808  1.00  0.00     0.008 C 
ATOM     24  C   UNL A   1      32.156  30.812  26.788  1.00  0.00     0.008 C 
ENDBRANCH  21  22
ENDBRANCH  11  21
BRANCH  20  25
ATOM     25  C   UNL A   1      33.390  22.323  27.577  1.00  0.00     0.430 C 
ATOM     26  F   UNL A   1      34.492  23.044  27.263  1.00  0.00    -0.167 F 
ATOM     27  F   UNL A   1      33.118  22.579  28.878  1.00  0.00    -0.167 F 
ATOM     28  F   UNL A   1      33.720  21.014  27.484  1.00  0.00    -0.167 F 
ENDBRANCH  20  25
ENDBRANCH   8  10
ENDBRANCH   7   8
ENDBRANCH   6   7
ENDBRANCH   5   6
ENDBRANCH   4   5
ENDBRANCH   3   4
ENDBRANCH   2   3
ENDBRANCH   1   2
BRANCH   1  29
ATOM     29  C   UNL A   1      39.925  24.895  26.785  1.00  0.00     0.188 C 
BRANCH  29  30
ATOM     30  C   UNL A   1      40.997  23.793  26.959  1.00  0.00     0.188 C 
BRANCH  30  31
ATOM     31  O   UNL A   1      42.002  23.806  25.948  1.00  0.00    -0.376 OA
BRANCH  31  32
ATOM     32  C   UNL A   1      42.605  22.566  25.610  1.00  0.00     0.202 C 
BRANCH  32  33
ATOM     33  C   UNL A   1      44.133  22.620  25.501  1.00  0.00     0.261 C 
BRANCH  33  34
ATOM     34  O   UNL A   1      44.836  22.583  26.752  1.00  0.00    -0.460 OA
BRANCH  34  35
ATOM     35  C   UNL A   1      45.667  23.610  27.038  1.00  0.00     0.338 C 
ATOM     36  O   UNL A   1      46.743  23.855  26.526  1.00  0.00    -0.246 OA
BRANCH  35  37
ATOM     37  C   UNL A   1      44.950  24.511  27.965  1.00  0.00     0.060 A 
ATOM     38  C   UNL A   1      44.081  23.986  28.924  1.00  0.00     0.016 A 
ATOM     39  C   UNL A   1      45.127  25.896  27.850  1.00  0.00     0.016 A 
ATOM     40  C   UNL A   1      43.413  24.846  29.792  1.00  0.00     0.010 A 
ATOM     41  C   UNL A   1      44.458  26.759  28.724  1.00  0.00     0.010 A 
ATOM     42  C   UNL A   1      43.616  26.237  29.717  1.00  0.00    -0.014 A 
BRANCH  42  43
ATOM     43  C   UNL A   1      43.081  27.098  30.797  1.00  0.00     0.031 A 
ATOM     44  C   UNL A   1      43.767  27.242  32.119  1.00  0.00     0.074 A 
ATOM     45  C   UNL A   1      41.953  27.789  30.542  1.00  0.00     0.049 A 
ATOM     46  N   UNL A   1      43.502  28.076  33.092  1.00  0.00    -0.248 NA
ATOM     47  C   UNL A   1      44.888  26.332  32.392  1.00  0.00     0.031 C 
ATOM     48  C   UNL A   1      41.177  27.689  29.304  1.00  0.00     0.029 A 
ATOM     49  N   UNL A   1      41.277  28.719  31.288  1.00  0.00    -0.354 N 
ATOM     50  C   UNL A   1      44.437  27.815  34.083  1.00  0.00     0.074 A 
ATOM     51  C   UNL A   1      45.243  26.705  33.616  1.00  0.00     0.031 C 
ATOM     52  C   UNL A   1      40.156  28.557  29.357  1.00  0.00     0.029 A 
ATOM     53  C   UNL A   1      40.194  29.258  30.637  1.00  0.00     0.049 A 
ATOM     54  H   UNL A   1      41.541  28.977  32.200  1.00  0.00     0.167 HD
ATOM     55  C   UNL A   1      44.616  28.465  35.258  1.00  0.00     0.037 A 
ATOM     56  C   UNL A   1      39.336  30.221  31.021  1.00  0.00     0.037 A 
ATOM     57  C   UNL A   1      43.799  29.562  35.716  1.00  0.00     0.049 A 
ATOM     58  C   UNL A   1      39.532  30.893  32.350  1.00  0.00     0.074 A 
ATOM     59  C   UNL A   1      43.942  30.322  36.864  1.00  0.00     0.029 A 
ATOM     60  N   UNL A   1      42.675  30.042  35.059  1.00  0.00    -0.354 N 
ATOM     61  N   UNL A   1      40.487  30.716  33.229  1.00  0.00    -0.248 NA
ATOM     62  C   UNL A   1      38.535  31.900  32.739  1.00  0.00     0.031 C 
ATOM     63  C   UNL A   1      42.875  31.223  36.930  1.00  0.00     0.029 A 
ATOM     64  C   UNL A   1      42.092  31.059  35.800  1.00  0.00     0.049 A 
ATOM     65  H   UNL A   1      42.341  29.709  34.195  1.00  0.00     0.167 HD
ATOM     66  C   UNL A   1      40.214  31.592  34.270  1.00  0.00     0.074 A 
ATOM     67  C   UNL A   1      39.017  32.320  33.901  1.00  0.00     0.031 C 
ATOM     68  C   UNL A   1      40.892  31.768  35.429  1.00  0.00     0.037 A 
BRANCH  55  69
ATOM     69  C   UNL A   1      45.753  28.032  36.137  1.00  0.00     0.064 A 
ATOM     70  C   UNL A   1      45.580  27.036  37.111  1.00  0.00     0.173 A 
ATOM     71  C   UNL A   1      47.046  28.540  35.942  1.00  0.00     0.173 A 
ATOM     72  F   UNL A   1      44.364  26.517  37.336  1.00  0.00    -0.203 F 
ATOM     73  C   UNL A   1      46.656  26.576  37.865  1.00  0.00     0.198 A 
ATOM     74  C   UNL A   1      48.125  28.059  36.681  1.00  0.00     0.198 A 
ATOM     75  F   UNL A   1      47.270  29.482  35.015  1.00  0.00    -0.203 F 
ATOM     76  F   UNL A   1      46.461  25.641  38.806  1.00  0.00    -0.200 F 
ATOM     77  C   UNL A   1      47.929  27.081  37.644  1.00  0.00     0.200 A 
ATOM     78  F   UNL A   1      49.358  28.534  36.453  1.00  0.00    -0.200 F 
ATOM     79  F   UNL A   1      48.966  26.622  38.357  1.00  0.00    -0.200 F 
ENDBRANCH  55  69
BRANCH  56  80
ATOM     80  C   UNL A   1      38.242  30.630  30.104  1.00  0.00     0.064 A 
ATOM     81  C   UNL A   1      38.283  31.866  29.445  1.00  0.00     0.173 A 
ATOM     82  C   UNL A   1      37.157  29.782  29.838  1.00  0.00     0.173 A 
ATOM     83  F   UNL A   1      39.292  32.717  29.679  1.00  0.00    -0.203 F 
ATOM     84  C   UNL A   1      37.275  32.242  28.560  1.00  0.00     0.198 A 
ATOM     85  C   UNL A   1      36.164  30.147  28.932  1.00  0.00     0.198 A 
ATOM     86  F   UNL A   1      37.077  28.586  30.439  1.00  0.00    -0.203 F 
ATOM     87  F   UNL A   1      37.322  33.441  27.964  1.00  0.00    -0.200 F 
ATOM     88  C   UNL A   1      36.221  31.378  28.297  1.00  0.00     0.200 A 
ATOM     89  F   UNL A   1      35.157  29.303  28.668  1.00  0.00    -0.200 F 
ATOM     90  F   UNL A   1      35.259  31.734  27.434  1.00  0.00    -0.200 F 
ENDBRANCH  56  80
BRANCH  68  91
ATOM     91  C   UNL A   1      40.351  32.772  36.406  1.00  0.00     0.064 A 
ATOM     92  C   UNL A   1      40.941  34.036  36.547  1.00  0.00     0.173 A 
ATOM     93  C   UNL A   1      39.184  32.505  37.139  1.00  0.00     0.173 A 
ATOM     94  F   UNL A   1      42.066  34.335  35.881  1.00  0.00    -0.203 F 
ATOM     95  C   UNL A   1      40.384  34.996  37.390  1.00  0.00     0.198 A 
ATOM     96  C   UNL A   1      38.615  33.476  37.958  1.00  0.00     0.198 A 
ATOM     97  F   UNL A   1      38.578  31.312  37.034  1.00  0.00    -0.203 F 
ATOM     98  F   UNL A   1      40.979  36.188  37.529  1.00  0.00    -0.200 F 
ATOM     99  C   UNL A   1      39.216  34.720  38.084  1.00  0.00     0.200 A 
ATOM    100  F   UNL A   1      37.478  33.212  38.616  1.00  0.00    -0.200 F 
ATOM    101  F   UNL A   1      38.669  35.652  38.875  1.00  0.00    -0.200 F 
ENDBRANCH  68  91
ENDBRANCH  42  43
ENDBRANCH  35  37
ENDBRANCH  34  35
ENDBRANCH  33  34
ENDBRANCH  32  33
ENDBRANCH  31  32
ENDBRANCH  30  31
ENDBRANCH  29  30
ENDBRANCH   1  29
TORSDOF 23
ENDMDL
