MODEL 1
REMARK VINA RESULT:      -9.8      0.000      0.000
REMARK SMILES CC[C@](C)(NC(=O)N[C@@H]1C[C@@H]1C)C(=O)OCCOCCOCCOCCOC(=O)c1ccc(-c2c3nc(c(-c4c(F)c(F)c(F)c(F)c4F)c4ccc([nH]4)c(-c4c(F)c(F)c(F)c(F)c4F)c4nc(c(-c5c(F)c(F)c(F)c(F)c5F)c5ccc2[nH]5)C=C4)C=C3)cc1
REMARK SMILES IDX 21 1 20 2 19 3 18 4 17 5 16 6 15 7 13 8 14 9 3 10 4 11 2 12
REMARK SMILES IDX 1 13 5 14 6 15 7 17 8 18 9 20 10 21 11 22 12 23 22 24 23 25
REMARK SMILES IDX 24 26 25 27 26 28 27 29 28 30 29 31 30 32 31 33 92 34 32 35
REMARK SMILES IDX 91 36 33 37 34 38 35 39 85 40 36 41 90 42 84 43 86 44 37 45
REMARK SMILES IDX 89 46 83 47 82 48 38 50 70 51 50 52 69 53 51 54 54 55 68 56
REMARK SMILES IDX 87 57 52 58 53 59 67 61 88 62 55 63 39 64 40 65 48 66 41 67
REMARK SMILES IDX 42 68 46 69 49 70 43 71 44 72 47 73 45 74 71 75 72 76 80 77
REMARK SMILES IDX 73 78 74 79 78 80 81 81 75 82 76 83 79 84 77 85 56 86 57 87
REMARK SMILES IDX 65 88 58 89 59 90 63 91 66 92 60 93 61 94 64 95 62 96
REMARK H PARENT 5 16 8 19 86 49 54 60
REMARK Flexibility Score: inf
ROOT
ATOM      1  O   UNL A   1      33.803  20.349  25.677  1.00  0.00    -0.377 OA
ENDROOT
BRANCH   1   2
ATOM      2  C   UNL A   1      32.649  19.948  24.973  1.00  0.00     0.188 C 
BRANCH   2   3
ATOM      3  C   UNL A   1      32.543  20.413  23.493  1.00  0.00     0.188 C 
BRANCH   3   4
ATOM      4  O   UNL A   1      32.446  21.796  23.119  1.00  0.00    -0.376 OA
BRANCH   4   5
ATOM      5  C   UNL A   1      33.465  22.789  22.971  1.00  0.00     0.202 C 
BRANCH   5   6
ATOM      6  C   UNL A   1      33.015  24.108  22.132  1.00  0.00     0.261 C 
BRANCH   6   7
ATOM      7  O   UNL A   1      31.941  24.927  22.743  1.00  0.00    -0.462 OA
BRANCH   7   8
ATOM      8  C   UNL A   1      32.181  26.024  23.599  1.00  0.00     0.331 C 
ATOM      9  O   UNL A   1      33.305  26.352  23.961  1.00  0.00    -0.249 OA
BRANCH   8  10
ATOM     10  C   UNL A   1      30.811  26.849  23.995  1.00  0.00     0.136 C 
ATOM     11  C   UNL A   1      29.488  26.171  24.462  1.00  0.00     0.047 C 
BRANCH  10  12
ATOM     12  C   UNL A   1      30.413  27.800  22.844  1.00  0.00     0.037 C 
ATOM     13  C   UNL A   1      29.780  29.100  23.343  1.00  0.00     0.007 C 
ENDBRANCH  10  12
BRANCH  10  14
ATOM     14  N   UNL A   1      31.216  27.616  25.129  1.00  0.00    -0.322 N 
ATOM     15  C   UNL A   1      31.307  27.070  26.343  1.00  0.00     0.315 C 
ATOM     16  H   UNL A   1      31.433  28.569  25.012  1.00  0.00     0.166 HD
ATOM     17  O   UNL A   1      31.766  27.805  27.218  1.00  0.00    -0.249 OA
ATOM     18  N   UNL A   1      31.004  25.752  26.585  1.00  0.00    -0.335 N 
ATOM     19  H   UNL A   1      30.756  25.642  27.531  1.00  0.00     0.165 HD
BRANCH  18  20
ATOM     20  C   UNL A   1      30.924  24.450  25.908  1.00  0.00     0.087 C 
ATOM     21  C   UNL A   1      30.522  23.039  26.120  1.00  0.00     0.030 C 
ATOM     22  C   UNL A   1      31.973  23.378  26.172  1.00  0.00     0.010 C 
ATOM     23  C   UNL A   1      32.643  23.093  27.463  1.00  0.00     0.010 C 
ENDBRANCH  18  20
ENDBRANCH  10  14
ENDBRANCH   8  10
ENDBRANCH   7   8
ENDBRANCH   6   7
ENDBRANCH   5   6
ENDBRANCH   4   5
ENDBRANCH   3   4
ENDBRANCH   2   3
ENDBRANCH   1   2
BRANCH   1  24
ATOM     24  C   UNL A   1      35.007  20.068  25.000  1.00  0.00     0.188 C 
BRANCH  24  25
ATOM     25  C   UNL A   1      36.199  21.014  25.267  1.00  0.00     0.188 C 
BRANCH  25  26
ATOM     26  O   UNL A   1      37.462  20.547  24.818  1.00  0.00    -0.376 OA
BRANCH  26  27
ATOM     27  C   UNL A   1      38.638  20.748  25.590  1.00  0.00     0.202 C 
BRANCH  27  28
ATOM     28  C   UNL A   1      39.749  19.686  25.735  1.00  0.00     0.261 C 
BRANCH  28  29
ATOM     29  O   UNL A   1      40.781  19.928  26.690  1.00  0.00    -0.460 OA
BRANCH  29  30
ATOM     30  C   UNL A   1      41.902  20.542  26.235  1.00  0.00     0.338 C 
ATOM     31  O   UNL A   1      42.620  20.183  25.352  1.00  0.00    -0.246 OA
BRANCH  30  32
ATOM     32  C   UNL A   1      41.917  21.900  26.851  1.00  0.00     0.060 A 
ATOM     33  C   UNL A   1      41.533  22.974  26.034  1.00  0.00     0.016 A 
ATOM     34  C   UNL A   1      42.180  22.103  28.211  1.00  0.00     0.016 A 
ATOM     35  C   UNL A   1      41.434  24.252  26.567  1.00  0.00     0.010 A 
ATOM     36  C   UNL A   1      42.153  23.401  28.732  1.00  0.00     0.010 A 
ATOM     37  C   UNL A   1      41.827  24.479  27.892  1.00  0.00    -0.014 A 
BRANCH  37  38
ATOM     38  C   UNL A   1      42.250  25.860  28.212  1.00  0.00     0.031 A 
ATOM     39  C   UNL A   1      43.587  26.289  27.667  1.00  0.00     0.074 A 
ATOM     40  C   UNL A   1      41.429  26.742  28.803  1.00  0.00     0.049 A 
ATOM     41  N   UNL A   1      44.146  27.470  27.656  1.00  0.00    -0.248 NA
ATOM     42  C   UNL A   1      44.392  25.238  27.019  1.00  0.00     0.031 C 
ATOM     43  C   UNL A   1      40.092  26.450  29.313  1.00  0.00     0.029 A 
ATOM     44  N   UNL A   1      41.602  28.080  29.051  1.00  0.00    -0.354 N 
ATOM     45  C   UNL A   1      45.347  27.305  26.978  1.00  0.00     0.074 A 
ATOM     46  C   UNL A   1      45.464  25.908  26.632  1.00  0.00     0.031 C 
ATOM     47  C   UNL A   1      39.565  27.579  29.822  1.00  0.00     0.029 A 
ATOM     48  C   UNL A   1      40.535  28.667  29.684  1.00  0.00     0.049 A 
ATOM     49  H   UNL A   1      42.416  28.575  28.797  1.00  0.00     0.167 HD
ATOM     50  C   UNL A   1      46.267  28.241  26.653  1.00  0.00     0.037 A 
ATOM     51  C   UNL A   1      40.377  29.935  30.110  1.00  0.00     0.037 A 
ATOM     52  C   UNL A   1      46.164  29.622  27.027  1.00  0.00     0.049 A 
ATOM     53  C   UNL A   1      41.465  30.942  29.822  1.00  0.00     0.074 A 
ATOM     54  C   UNL A   1      47.056  30.651  26.790  1.00  0.00     0.029 A 
ATOM     55  N   UNL A   1      45.098  30.165  27.731  1.00  0.00    -0.354 N 
ATOM     56  N   UNL A   1      42.595  30.783  29.174  1.00  0.00    -0.248 NA
ATOM     57  C   UNL A   1      41.246  32.310  30.313  1.00  0.00     0.031 C 
ATOM     58  C   UNL A   1      46.554  31.806  27.397  1.00  0.00     0.029 A 
ATOM     59  C   UNL A   1      45.320  31.513  27.955  1.00  0.00     0.049 A 
ATOM     60  H   UNL A   1      44.303  29.666  28.028  1.00  0.00     0.167 HD
ATOM     61  C   UNL A   1      43.210  32.030  29.160  1.00  0.00     0.074 A 
ATOM     62  C   UNL A   1      42.310  32.941  29.838  1.00  0.00     0.031 C 
ATOM     63  C   UNL A   1      44.408  32.395  28.638  1.00  0.00     0.037 A 
BRANCH  50  64
ATOM     64  C   UNL A   1      47.472  27.782  25.887  1.00  0.00     0.064 A 
ATOM     65  C   UNL A   1      47.452  27.652  24.489  1.00  0.00     0.173 A 
ATOM     66  C   UNL A   1      48.663  27.470  26.557  1.00  0.00     0.173 A 
ATOM     67  F   UNL A   1      46.327  27.907  23.802  1.00  0.00    -0.203 F 
ATOM     68  C   UNL A   1      48.574  27.209  23.794  1.00  0.00     0.198 A 
ATOM     69  C   UNL A   1      49.794  27.059  25.857  1.00  0.00     0.198 A 
ATOM     70  F   UNL A   1      48.732  27.567  27.894  1.00  0.00    -0.203 F 
ATOM     71  F   UNL A   1      48.517  27.045  22.465  1.00  0.00    -0.200 F 
ATOM     72  C   UNL A   1      49.747  26.923  24.478  1.00  0.00     0.200 A 
ATOM     73  F   UNL A   1      50.927  26.788  26.518  1.00  0.00    -0.200 F 
ATOM     74  F   UNL A   1      50.829  26.506  23.807  1.00  0.00    -0.200 F 
ENDBRANCH  50  64
BRANCH  51  75
ATOM     75  C   UNL A   1      39.160  30.324  30.872  1.00  0.00     0.064 A 
ATOM     76  C   UNL A   1      38.030  30.857  30.237  1.00  0.00     0.173 A 
ATOM     77  C   UNL A   1      39.124  30.210  32.271  1.00  0.00     0.173 A 
ATOM     78  F   UNL A   1      38.021  31.013  28.905  1.00  0.00    -0.203 F 
ATOM     79  C   UNL A   1      36.925  31.286  30.971  1.00  0.00     0.198 A 
ATOM     80  C   UNL A   1      38.005  30.607  33.001  1.00  0.00     0.198 A 
ATOM     81  F   UNL A   1      40.178  29.711  32.932  1.00  0.00    -0.203 F 
ATOM     82  F   UNL A   1      35.882  31.847  30.343  1.00  0.00    -0.200 F 
ATOM     83  C   UNL A   1      36.910  31.155  32.352  1.00  0.00     0.200 A 
ATOM     84  F   UNL A   1      37.993  30.466  34.333  1.00  0.00    -0.200 F 
ATOM     85  F   UNL A   1      35.849  31.569  33.056  1.00  0.00    -0.200 F 
ENDBRANCH  51  75
BRANCH  63  86
ATOM     86  C   UNL A   1      44.796  33.842  28.758  1.00  0.00     0.064 A 
ATOM     87  C   UNL A   1      44.429  34.788  27.789  1.00  0.00     0.173 A 
ATOM     88  C   UNL A   1      45.530  34.291  29.867  1.00  0.00     0.173 A 
ATOM     89  F   UNL A   1      43.734  34.409  26.706  1.00  0.00    -0.203 F 
ATOM     90  C   UNL A   1      44.822  36.118  27.902  1.00  0.00     0.198 A 
ATOM     91  C   UNL A   1      45.889  35.630  29.996  1.00  0.00     0.198 A 
ATOM     92  F   UNL A   1      45.894  33.432  30.831  1.00  0.00    -0.203 F 
ATOM     93  F   UNL A   1      44.520  36.989  26.929  1.00  0.00    -0.200 F 
ATOM     94  C   UNL A   1      45.547  36.539  29.007  1.00  0.00     0.200 A 
ATOM     95  F   UNL A   1      46.572  36.038  31.074  1.00  0.00    -0.200 F 
ATOM     96  F   UNL A   1      45.926  37.820  29.113  1.00  0.00    -0.200 F 
ENDBRANCH  63  86
ENDBRANCH  37  38
ENDBRANCH  30  32
ENDBRANCH  29  30
ENDBRANCH  28  29
ENDBRANCH  27  28
ENDBRANCH  26  27
ENDBRANCH  25  26
ENDBRANCH  24  25
ENDBRANCH   1  24
TORSDOF 23
ENDMDL
MODEL 2
REMARK VINA RESULT:      -9.5      1.350      7.625
REMARK SMILES CC[C@](C)(NC(=O)N[C@@H]1C[C@@H]1C)C(=O)OCCOCCOCCOCCOC(=O)c1ccc(-c2c3nc(c(-c4c(F)c(F)c(F)c(F)c4F)c4ccc([nH]4)c(-c4c(F)c(F)c(F)c(F)c4F)c4nc(c(-c5c(F)c(F)c(F)c(F)c5F)c5ccc2[nH]5)C=C4)C=C3)cc1
REMARK SMILES IDX 21 1 20 2 19 3 18 4 17 5 16 6 15 7 13 8 14 9 3 10 4 11 2 12
REMARK SMILES IDX 1 13 5 14 6 15 7 17 8 18 9 20 10 21 11 22 12 23 22 24 23 25
REMARK SMILES IDX 24 26 25 27 26 28 27 29 28 30 29 31 30 32 31 33 92 34 32 35
REMARK SMILES IDX 91 36 33 37 34 38 35 39 85 40 36 41 90 42 84 43 86 44 37 45
REMARK SMILES IDX 89 46 83 47 82 48 38 50 70 51 50 52 69 53 51 54 54 55 68 56
REMARK SMILES IDX 87 57 52 58 53 59 67 61 88 62 55 63 39 64 40 65 48 66 41 67
REMARK SMILES IDX 42 68 46 69 49 70 43 71 44 72 47 73 45 74 71 75 72 76 80 77
REMARK SMILES IDX 73 78 74 79 78 80 81 81 75 82 76 83 79 84 77 85 56 86 57 87
REMARK SMILES IDX 65 88 58 89 59 90 63 91 66 92 60 93 61 94 64 95 62 96
REMARK H PARENT 5 16 8 19 86 49 54 60
REMARK Flexibility Score: inf
ROOT
ATOM      1  O   UNL A   1      32.772  20.851  26.098  1.00  0.00    -0.377 OA
ENDROOT
BRANCH   1   2
ATOM      2  C   UNL A   1      33.450  21.592  27.089  1.00  0.00     0.188 C 
BRANCH   2   3
ATOM      3  C   UNL A   1      34.268  22.820  26.598  1.00  0.00     0.188 C 
BRANCH   3   4
ATOM      4  O   UNL A   1      33.673  24.105  26.364  1.00  0.00    -0.376 OA
BRANCH   4   5
ATOM      5  C   UNL A   1      32.480  24.459  25.659  1.00  0.00     0.202 C 
BRANCH   5   6
ATOM      6  C   UNL A   1      31.224  24.871  26.608  1.00  0.00     0.261 C 
BRANCH   6   7
ATOM      7  O   UNL A   1      30.681  26.235  26.402  1.00  0.00    -0.462 OA
BRANCH   7   8
ATOM      8  C   UNL A   1      30.706  26.911  25.163  1.00  0.00     0.331 C 
ATOM      9  O   UNL A   1      29.989  26.598  24.220  1.00  0.00    -0.249 OA
BRANCH   8  10
ATOM     10  C   UNL A   1      31.736  28.197  25.148  1.00  0.00     0.136 C 
ATOM     11  C   UNL A   1      33.221  28.121  24.679  1.00  0.00     0.047 C 
BRANCH  10  12
ATOM     12  C   UNL A   1      31.769  28.869  26.538  1.00  0.00     0.037 C 
ATOM     13  C   UNL A   1      31.904  30.391  26.457  1.00  0.00     0.007 C 
ENDBRANCH  10  12
BRANCH  10  14
ATOM     14  N   UNL A   1      31.130  29.081  24.205  1.00  0.00    -0.322 N 
ATOM     15  C   UNL A   1      31.283  28.911  22.890  1.00  0.00     0.315 C 
ATOM     16  H   UNL A   1      30.586  29.833  24.532  1.00  0.00     0.166 HD
ATOM     17  O   UNL A   1      30.628  29.673  22.180  1.00  0.00    -0.249 OA
ATOM     18  N   UNL A   1      32.042  27.894  22.361  1.00  0.00    -0.335 N 
ATOM     19  H   UNL A   1      32.349  28.150  21.461  1.00  0.00     0.165 HD
BRANCH  18  20
ATOM     20  C   UNL A   1      32.552  26.555  22.684  1.00  0.00     0.087 C 
ATOM     21  C   UNL A   1      33.687  25.637  22.429  1.00  0.00     0.030 C 
ATOM     22  C   UNL A   1      32.416  25.415  21.682  1.00  0.00     0.010 C 
ATOM     23  C   UNL A   1      32.524  25.516  20.207  1.00  0.00     0.010 C 
ENDBRANCH  18  20
ENDBRANCH  10  14
ENDBRANCH   8  10
ENDBRANCH   7   8
ENDBRANCH   6   7
ENDBRANCH   5   6
ENDBRANCH   4   5
ENDBRANCH   3   4
ENDBRANCH   2   3
ENDBRANCH   1   2
BRANCH   1  24
ATOM     24  C   UNL A   1      33.513  20.679  24.911  1.00  0.00     0.188 C 
BRANCH  24  25
ATOM     25  C   UNL A   1      34.053  19.261  24.622  1.00  0.00     0.188 C 
BRANCH  25  26
ATOM     26  O   UNL A   1      35.463  19.118  24.700  1.00  0.00    -0.376 OA
BRANCH  26  27
ATOM     27  C   UNL A   1      36.309  20.246  24.891  1.00  0.00     0.202 C 
BRANCH  27  28
ATOM     28  C   UNL A   1      37.842  20.140  25.035  1.00  0.00     0.261 C 
BRANCH  28  29
ATOM     29  O   UNL A   1      38.536  21.255  25.591  1.00  0.00    -0.460 OA
BRANCH  29  30
ATOM     30  C   UNL A   1      39.662  20.983  26.296  1.00  0.00     0.338 C 
ATOM     31  O   UNL A   1      40.261  19.951  26.340  1.00  0.00    -0.246 OA
BRANCH  30  32
ATOM     32  C   UNL A   1      40.180  22.293  26.785  1.00  0.00     0.060 A 
ATOM     33  C   UNL A   1      39.566  23.449  26.280  1.00  0.00     0.016 A 
ATOM     34  C   UNL A   1      41.149  22.387  27.791  1.00  0.00     0.016 A 
ATOM     35  C   UNL A   1      39.934  24.698  26.762  1.00  0.00     0.010 A 
ATOM     36  C   UNL A   1      41.574  23.648  28.223  1.00  0.00     0.010 A 
ATOM     37  C   UNL A   1      40.996  24.803  27.668  1.00  0.00    -0.014 A 
BRANCH  37  38
ATOM     38  C   UNL A   1      41.702  26.103  27.689  1.00  0.00     0.031 A 
ATOM     39  C   UNL A   1      41.024  27.215  28.445  1.00  0.00     0.074 A 
ATOM     40  C   UNL A   1      42.949  26.248  27.215  1.00  0.00     0.049 A 
ATOM     41  N   UNL A   1      41.467  28.403  28.760  1.00  0.00    -0.248 NA
ATOM     42  C   UNL A   1      39.665  26.932  28.939  1.00  0.00     0.031 C 
ATOM     43  C   UNL A   1      43.720  25.220  26.522  1.00  0.00     0.029 A 
ATOM     44  N   UNL A   1      43.795  27.327  27.272  1.00  0.00    -0.354 N 
ATOM     45  C   UNL A   1      40.454  28.990  29.508  1.00  0.00     0.074 A 
ATOM     46  C   UNL A   1      39.356  28.055  29.564  1.00  0.00     0.031 C 
ATOM     47  C   UNL A   1      44.930  25.722  26.209  1.00  0.00     0.029 A 
ATOM     48  C   UNL A   1      45.008  27.109  26.669  1.00  0.00     0.049 A 
ATOM     49  H   UNL A   1      43.554  28.178  27.705  1.00  0.00     0.167 HD
ATOM     50  C   UNL A   1      40.446  30.199  30.114  1.00  0.00     0.037 A 
ATOM     51  C   UNL A   1      46.051  27.946  26.505  1.00  0.00     0.037 A 
ATOM     52  C   UNL A   1      41.526  31.140  30.029  1.00  0.00     0.049 A 
ATOM     53  C   UNL A   1      45.978  29.330  27.106  1.00  0.00     0.074 A 
ATOM     54  C   UNL A   1      41.610  32.410  30.565  1.00  0.00     0.029 A 
ATOM     55  N   UNL A   1      42.714  30.909  29.348  1.00  0.00    -0.354 N 
ATOM     56  N   UNL A   1      45.021  29.877  27.818  1.00  0.00    -0.248 NA
ATOM     57  C   UNL A   1      47.138  30.205  26.892  1.00  0.00     0.031 C 
ATOM     58  C   UNL A   1      42.828  32.969  30.164  1.00  0.00     0.029 A 
ATOM     59  C   UNL A   1      43.530  32.023  29.435  1.00  0.00     0.049 A 
ATOM     60  H   UNL A   1      42.942  30.076  28.874  1.00  0.00     0.167 HD
ATOM     61  C   UNL A   1      45.472  31.148  28.156  1.00  0.00     0.074 A 
ATOM     62  C   UNL A   1      46.801  31.277  27.595  1.00  0.00     0.031 C 
ATOM     63  C   UNL A   1      44.849  32.125  28.862  1.00  0.00     0.037 A 
BRANCH  50  64
ATOM     64  C   UNL A   1      39.215  30.571  30.886  1.00  0.00     0.064 A 
ATOM     65  C   UNL A   1      39.105  30.321  32.263  1.00  0.00     0.173 A 
ATOM     66  C   UNL A   1      38.134  31.189  30.242  1.00  0.00     0.173 A 
ATOM     67  F   UNL A   1      40.099  29.704  32.920  1.00  0.00    -0.203 F 
ATOM     68  C   UNL A   1      37.949  30.658  32.962  1.00  0.00     0.198 A 
ATOM     69  C   UNL A   1      36.993  31.555  30.950  1.00  0.00     0.198 A 
ATOM     70  F   UNL A   1      38.184  31.440  28.925  1.00  0.00    -0.203 F 
ATOM     71  F   UNL A   1      37.846  30.365  34.266  1.00  0.00    -0.200 F 
ATOM     72  C   UNL A   1      36.898  31.283  32.307  1.00  0.00     0.200 A 
ATOM     73  F   UNL A   1      35.981  32.163  30.317  1.00  0.00    -0.200 F 
ATOM     74  F   UNL A   1      35.790  31.616  32.982  1.00  0.00    -0.200 F 
ENDBRANCH  50  64
BRANCH  51  75
ATOM     75  C   UNL A   1      47.240  27.517  25.720  1.00  0.00     0.064 A 
ATOM     76  C   UNL A   1      48.376  26.977  26.338  1.00  0.00     0.173 A 
ATOM     77  C   UNL A   1      47.278  27.685  24.327  1.00  0.00     0.173 A 
ATOM     78  F   UNL A   1      48.404  26.819  27.670  1.00  0.00    -0.203 F 
ATOM     79  C   UNL A   1      49.512  26.647  25.599  1.00  0.00     0.198 A 
ATOM     80  C   UNL A   1      48.401  27.324  23.585  1.00  0.00     0.198 A 
ATOM     81  F   UNL A   1      46.221  28.202  23.683  1.00  0.00    -0.203 F 
ATOM     82  F   UNL A   1      50.606  26.189  26.223  1.00  0.00    -0.200 F 
ATOM     83  C   UNL A   1      49.521  26.815  24.222  1.00  0.00     0.200 A 
ATOM     84  F   UNL A   1      48.399  27.477  22.254  1.00  0.00    -0.200 F 
ATOM     85  F   UNL A   1      50.613  26.501  23.513  1.00  0.00    -0.200 F 
ENDBRANCH  51  75
BRANCH  63  86
ATOM     86  C   UNL A   1      45.610  33.401  29.087  1.00  0.00     0.064 A 
ATOM     87  C   UNL A   1      45.487  34.497  28.220  1.00  0.00     0.173 A 
ATOM     88  C   UNL A   1      46.459  33.535  30.196  1.00  0.00     0.173 A 
ATOM     89  F   UNL A   1      44.694  34.418  27.141  1.00  0.00    -0.203 F 
ATOM     90  C   UNL A   1      46.222  35.660  28.428  1.00  0.00     0.198 A 
ATOM     91  C   UNL A   1      47.163  34.714  30.423  1.00  0.00     0.198 A 
ATOM     92  F   UNL A   1      46.603  32.523  31.066  1.00  0.00    -0.203 F 
ATOM     93  F   UNL A   1      46.141  36.668  27.548  1.00  0.00    -0.200 F 
ATOM     94  C   UNL A   1      47.055  35.771  29.532  1.00  0.00     0.200 A 
ATOM     95  F   UNL A   1      47.952  34.825  31.501  1.00  0.00    -0.200 F 
ATOM     96  F   UNL A   1      47.763  36.891  29.730  1.00  0.00    -0.200 F 
ENDBRANCH  63  86
ENDBRANCH  37  38
ENDBRANCH  30  32
ENDBRANCH  29  30
ENDBRANCH  28  29
ENDBRANCH  27  28
ENDBRANCH  26  27
ENDBRANCH  25  26
ENDBRANCH  24  25
ENDBRANCH   1  24
TORSDOF 23
ENDMDL
MODEL 3
REMARK VINA RESULT:      -9.4      1.250      7.693
REMARK SMILES CC[C@](C)(NC(=O)N[C@@H]1C[C@@H]1C)C(=O)OCCOCCOCCOCCOC(=O)c1ccc(-c2c3nc(c(-c4c(F)c(F)c(F)c(F)c4F)c4ccc([nH]4)c(-c4c(F)c(F)c(F)c(F)c4F)c4nc(c(-c5c(F)c(F)c(F)c(F)c5F)c5ccc2[nH]5)C=C4)C=C3)cc1
REMARK SMILES IDX 21 1 20 2 19 3 18 4 17 5 16 6 15 7 13 8 14 9 3 10 4 11 2 12
REMARK SMILES IDX 1 13 5 14 6 15 7 17 8 18 9 20 10 21 11 22 12 23 22 24 23 25
REMARK SMILES IDX 24 26 25 27 26 28 27 29 28 30 29 31 30 32 31 33 92 34 32 35
REMARK SMILES IDX 91 36 33 37 34 38 35 39 85 40 36 41 90 42 84 43 86 44 37 45
REMARK SMILES IDX 89 46 83 47 82 48 38 50 70 51 50 52 69 53 51 54 54 55 68 56
REMARK SMILES IDX 87 57 52 58 53 59 67 61 88 62 55 63 39 64 40 65 48 66 41 67
REMARK SMILES IDX 42 68 46 69 49 70 43 71 44 72 47 73 45 74 71 75 72 76 80 77
REMARK SMILES IDX 73 78 74 79 78 80 81 81 75 82 76 83 79 84 77 85 56 86 57 87
REMARK SMILES IDX 65 88 58 89 59 90 63 91 66 92 60 93 61 94 64 95 62 96
REMARK H PARENT 5 16 8 19 86 49 54 60
REMARK Flexibility Score: inf
ROOT
ATOM      1  O   UNL A   1      33.264  20.432  25.989  1.00  0.00    -0.377 OA
ENDROOT
BRANCH   1   2
ATOM      2  C   UNL A   1      33.925  21.473  26.673  1.00  0.00     0.188 C 
BRANCH   2   3
ATOM      3  C   UNL A   1      33.605  22.921  26.207  1.00  0.00     0.188 C 
BRANCH   3   4
ATOM      4  O   UNL A   1      32.265  23.389  25.992  1.00  0.00    -0.376 OA
BRANCH   4   5
ATOM      5  C   UNL A   1      31.371  24.072  26.875  1.00  0.00     0.202 C 
BRANCH   5   6
ATOM      6  C   UNL A   1      30.102  24.782  26.145  1.00  0.00     0.261 C 
BRANCH   6   7
ATOM      7  O   UNL A   1      30.345  26.142  25.608  1.00  0.00    -0.462 OA
BRANCH   7   8
ATOM      8  C   UNL A   1      29.980  26.548  24.306  1.00  0.00     0.331 C 
ATOM      9  O   UNL A   1      28.827  26.499  23.893  1.00  0.00    -0.249 OA
BRANCH   8  10
ATOM     10  C   UNL A   1      31.242  27.158  23.439  1.00  0.00     0.136 C 
ATOM     11  C   UNL A   1      31.080  28.020  22.151  1.00  0.00     0.047 C 
BRANCH  10  12
ATOM     12  C   UNL A   1      32.227  26.028  23.068  1.00  0.00     0.037 C 
ATOM     13  C   UNL A   1      33.643  26.282  23.589  1.00  0.00     0.007 C 
ENDBRANCH  10  12
BRANCH  10  14
ATOM     14  N   UNL A   1      31.864  28.049  24.365  1.00  0.00    -0.322 N 
ATOM     15  C   UNL A   1      31.414  29.292  24.548  1.00  0.00     0.315 C 
ATOM     16  H   UNL A   1      32.642  27.739  24.881  1.00  0.00     0.166 HD
ATOM     17  O   UNL A   1      31.967  29.926  25.446  1.00  0.00    -0.249 OA
ATOM     18  N   UNL A   1      30.343  29.799  23.851  1.00  0.00    -0.335 N 
ATOM     19  H   UNL A   1      30.408  30.781  23.823  1.00  0.00     0.165 HD
BRANCH  18  20
ATOM     20  C   UNL A   1      29.135  29.372  23.133  1.00  0.00     0.087 C 
ATOM     21  C   UNL A   1      28.284  29.702  21.965  1.00  0.00     0.030 C 
ATOM     22  C   UNL A   1      27.821  30.120  23.320  1.00  0.00     0.010 C 
ATOM     23  C   UNL A   1      27.653  31.581  23.508  1.00  0.00     0.010 C 
ENDBRANCH  18  20
ENDBRANCH  10  14
ENDBRANCH   8  10
ENDBRANCH   7   8
ENDBRANCH   6   7
ENDBRANCH   5   6
ENDBRANCH   4   5
ENDBRANCH   3   4
ENDBRANCH   2   3
ENDBRANCH   1   2
BRANCH   1  24
ATOM     24  C   UNL A   1      33.845  20.111  24.745  1.00  0.00     0.188 C 
BRANCH  24  25
ATOM     25  C   UNL A   1      34.521  18.728  24.623  1.00  0.00     0.188 C 
BRANCH  25  26
ATOM     26  O   UNL A   1      35.940  18.738  24.647  1.00  0.00    -0.376 OA
BRANCH  26  27
ATOM     27  C   UNL A   1      36.664  19.937  24.890  1.00  0.00     0.202 C 
BRANCH  27  28
ATOM     28  C   UNL A   1      38.193  19.977  25.096  1.00  0.00     0.261 C 
BRANCH  28  29
ATOM     29  O   UNL A   1      38.748  21.121  25.744  1.00  0.00    -0.460 OA
BRANCH  29  30
ATOM     30  C   UNL A   1      39.856  20.918  26.499  1.00  0.00     0.338 C 
ATOM     31  O   UNL A   1      40.481  19.907  26.615  1.00  0.00    -0.246 OA
BRANCH  30  32
ATOM     32  C   UNL A   1      40.320  22.265  26.936  1.00  0.00     0.060 A 
ATOM     33  C   UNL A   1      39.692  23.376  26.353  1.00  0.00     0.016 A 
ATOM     34  C   UNL A   1      41.253  22.438  27.966  1.00  0.00     0.016 A 
ATOM     35  C   UNL A   1      40.009  24.658  26.782  1.00  0.00     0.010 A 
ATOM     36  C   UNL A   1      41.627  23.732  28.347  1.00  0.00     0.010 A 
ATOM     37  C   UNL A   1      41.036  24.839  27.715  1.00  0.00    -0.014 A 
BRANCH  37  38
ATOM     38  C   UNL A   1      41.705  26.159  27.692  1.00  0.00     0.031 A 
ATOM     39  C   UNL A   1      41.002  27.273  28.422  1.00  0.00     0.074 A 
ATOM     40  C   UNL A   1      42.943  26.326  27.202  1.00  0.00     0.049 A 
ATOM     41  N   UNL A   1      41.413  28.482  28.698  1.00  0.00    -0.248 NA
ATOM     42  C   UNL A   1      39.655  26.966  28.936  1.00  0.00     0.031 C 
ATOM     43  C   UNL A   1      43.738  25.301  26.532  1.00  0.00     0.029 A 
ATOM     44  N   UNL A   1      43.758  27.429  27.219  1.00  0.00    -0.354 N 
ATOM     45  C   UNL A   1      40.390  29.062  29.438  1.00  0.00     0.074 A 
ATOM     46  C   UNL A   1      39.320  28.097  29.532  1.00  0.00     0.031 C 
ATOM     47  C   UNL A   1      44.929  25.827  26.193  1.00  0.00     0.029 A 
ATOM     48  C   UNL A   1      44.971  27.229  26.612  1.00  0.00     0.049 A 
ATOM     49  H   UNL A   1      43.496  28.286  27.630  1.00  0.00     0.167 HD
ATOM     50  C   UNL A   1      40.353  30.287  30.009  1.00  0.00     0.037 A 
ATOM     51  C   UNL A   1      45.989  28.090  26.414  1.00  0.00     0.037 A 
ATOM     52  C   UNL A   1      41.404  31.255  29.887  1.00  0.00     0.049 A 
ATOM     53  C   UNL A   1      45.880  29.488  26.975  1.00  0.00     0.074 A 
ATOM     54  C   UNL A   1      41.456  32.542  30.385  1.00  0.00     0.029 A 
ATOM     55  N   UNL A   1      42.593  31.038  29.202  1.00  0.00    -0.354 N 
ATOM     56  N   UNL A   1      44.915  30.029  27.681  1.00  0.00    -0.248 NA
ATOM     57  C   UNL A   1      47.014  30.389  26.726  1.00  0.00     0.031 C 
ATOM     58  C   UNL A   1      42.654  33.124  29.958  1.00  0.00     0.029 A 
ATOM     59  C   UNL A   1      43.377  32.177  29.249  1.00  0.00     0.049 A 
ATOM     60  H   UNL A   1      42.840  30.199  28.750  1.00  0.00     0.167 HD
ATOM     61  C   UNL A   1      45.332  31.321  27.978  1.00  0.00     0.074 A 
ATOM     62  C   UNL A   1      46.652  31.471  27.401  1.00  0.00     0.031 C 
ATOM     63  C   UNL A   1      44.687  32.300  28.661  1.00  0.00     0.037 A 
BRANCH  50  64
ATOM     64  C   UNL A   1      39.118  30.646  30.782  1.00  0.00     0.064 A 
ATOM     65  C   UNL A   1      39.023  30.422  32.164  1.00  0.00     0.173 A 
ATOM     66  C   UNL A   1      38.018  31.224  30.133  1.00  0.00     0.173 A 
ATOM     67  F   UNL A   1      40.035  29.842  32.828  1.00  0.00    -0.203 F 
ATOM     68  C   UNL A   1      37.864  30.746  32.864  1.00  0.00     0.198 A 
ATOM     69  C   UNL A   1      36.873  31.578  30.841  1.00  0.00     0.198 A 
ATOM     70  F   UNL A   1      38.054  31.449  28.810  1.00  0.00    -0.203 F 
ATOM     71  F   UNL A   1      37.775  30.478  34.175  1.00  0.00    -0.200 F 
ATOM     72  C   UNL A   1      36.794  31.333  32.204  1.00  0.00     0.200 A 
ATOM     73  F   UNL A   1      35.843  32.149  30.203  1.00  0.00    -0.200 F 
ATOM     74  F   UNL A   1      35.682  31.654  32.880  1.00  0.00    -0.200 F 
ENDBRANCH  50  64
BRANCH  51  75
ATOM     75  C   UNL A   1      47.183  27.673  25.631  1.00  0.00     0.064 A 
ATOM     76  C   UNL A   1      47.212  27.751  24.232  1.00  0.00     0.173 A 
ATOM     77  C   UNL A   1      48.310  27.138  26.274  1.00  0.00     0.173 A 
ATOM     78  F   UNL A   1      46.151  28.228  23.564  1.00  0.00    -0.203 F 
ATOM     79  C   UNL A   1      48.310  27.286  23.506  1.00  0.00     0.198 A 
ATOM     80  C   UNL A   1      49.420  26.707  25.551  1.00  0.00     0.198 A 
ATOM     81  F   UNL A   1      48.336  27.036  27.611  1.00  0.00    -0.203 F 
ATOM     82  F   UNL A   1      48.286  27.317  22.167  1.00  0.00    -0.200 F 
ATOM     83  C   UNL A   1      49.415  26.771  24.166  1.00  0.00     0.200 A 
ATOM     84  F   UNL A   1      50.490  26.221  26.195  1.00  0.00    -0.200 F 
ATOM     85  F   UNL A   1      50.467  26.323  23.468  1.00  0.00    -0.200 F 
ENDBRANCH  51  75
BRANCH  63  86
ATOM     86  C   UNL A   1      45.413  33.603  28.842  1.00  0.00     0.064 A 
ATOM     87  C   UNL A   1      46.229  33.844  29.958  1.00  0.00     0.173 A 
ATOM     88  C   UNL A   1      45.305  34.617  27.878  1.00  0.00     0.173 A 
ATOM     89  F   UNL A   1      46.361  32.910  30.912  1.00  0.00    -0.203 F 
ATOM     90  C   UNL A   1      46.871  35.068  30.124  1.00  0.00     0.198 A 
ATOM     91  C   UNL A   1      45.979  35.825  28.028  1.00  0.00     0.198 A 
ATOM     92  F   UNL A   1      44.549  34.434  26.785  1.00  0.00    -0.203 F 
ATOM     93  F   UNL A   1      47.589  35.300  31.231  1.00  0.00    -0.200 F 
ATOM     94  C   UNL A   1      46.750  36.055  29.157  1.00  0.00     0.200 A 
ATOM     95  F   UNL A   1      45.876  36.770  27.083  1.00  0.00    -0.200 F 
ATOM     96  F   UNL A   1      47.368  37.233  29.320  1.00  0.00    -0.200 F 
ENDBRANCH  63  86
ENDBRANCH  37  38
ENDBRANCH  30  32
ENDBRANCH  29  30
ENDBRANCH  28  29
ENDBRANCH  27  28
ENDBRANCH  26  27
ENDBRANCH  25  26
ENDBRANCH  24  25
ENDBRANCH   1  24
TORSDOF 23
ENDMDL
