MODEL 1
REMARK VINA RESULT:     -10.9      0.000      0.000
REMARK SMILES O=C(CN1CC2(CCC1=O)CC[NH+](Cc1nc3ccccc3[nH]1)CC2)OCCOCCOCCOCCOC(=O)c1ccc(-c2c3nc(c(-c4c(F)c(F)c(F)c(F)c4F)c4ccc([nH]4)c(-c4c(F)c(F)c(F)c(F)c4F)c4nc(c(-c5c(F)c(F)c(F)c(F)c5F)c5ccc2[nH]5)C=C4)C=C3)cc1
REMARK SMILES IDX 31 1 30 2 29 3 28 4 27 5 26 6 2 7 1 8 3 9 4 10 5 11 9 12
REMARK SMILES IDX 6 13 8 14 10 15 7 16 11 17 25 18 12 19 24 20 13 21 14 23
REMARK SMILES IDX 15 24 16 25 23 26 17 27 22 28 18 30 21 31 19 32 20 33 32 34
REMARK SMILES IDX 33 35 34 36 35 37 36 38 37 39 38 40 39 41 40 42 41 43 42 44
REMARK SMILES IDX 103 45 43 46 102 47 44 48 45 49 46 50 96 51 47 52 101 53
REMARK SMILES IDX 95 54 97 55 48 56 100 57 94 58 93 59 49 61 81 62 61 63 80 64
REMARK SMILES IDX 62 65 65 66 79 67 98 68 63 69 64 70 78 72 99 73 66 74 50 75
REMARK SMILES IDX 51 76 59 77 52 78 53 79 57 80 60 81 54 82 55 83 58 84 56 85
REMARK SMILES IDX 82 86 83 87 91 88 84 89 85 90 89 91 92 92 86 93 87 94 90 95
REMARK SMILES IDX 88 96 67 97 68 98 76 99 69 100 70 101 74 102 77 103 71 104
REMARK SMILES IDX 72 105 75 106 73 107
REMARK H PARENT 13 22 23 29 97 60 65 71
REMARK Flexibility Score: inf
ROOT
ATOM      1  C   UNL A   1      32.546  30.104  26.815  1.00  0.00     0.188 C 
ENDROOT
BRANCH   1   2
ATOM      2  C   UNL A   1      32.091  29.793  25.388  1.00  0.00     0.188 C 
BRANCH   2   3
ATOM      3  O   UNL A   1      31.590  28.485  25.147  1.00  0.00    -0.376 OA
BRANCH   3   4
ATOM      4  C   UNL A   1      31.125  27.589  26.147  1.00  0.00     0.202 C 
BRANCH   4   5
ATOM      5  C   UNL A   1      31.741  26.199  26.334  1.00  0.00     0.261 C 
BRANCH   5   6
ATOM      6  O   UNL A   1      30.896  25.046  26.150  1.00  0.00    -0.462 OA
BRANCH   6   7
ATOM      7  C   UNL A   1      31.197  23.804  26.589  1.00  0.00     0.325 C 
ATOM      8  O   UNL A   1      31.842  23.637  27.620  1.00  0.00    -0.250 OA
BRANCH   7   9
ATOM      9  C   UNL A   1      30.922  22.667  25.634  1.00  0.00     0.242 C 
BRANCH   9  10
ATOM     10  N   UNL A   1      31.602  22.651  24.363  1.00  0.00    -0.331 N 
ATOM     11  C   UNL A   1      32.837  21.906  24.288  1.00  0.00     0.127 C 
ATOM     12  C   UNL A   1      31.323  23.671  23.467  1.00  0.00     0.223 C 
ATOM     13  C   UNL A   1      34.061  22.823  24.170  1.00  0.00    -0.001 C 
ATOM     14  C   UNL A   1      32.512  24.515  23.065  1.00  0.00     0.101 C 
ATOM     15  O   UNL A   1      30.181  24.051  23.222  1.00  0.00    -0.275 OA
ATOM     16  C   UNL A   1      33.782  23.702  22.925  1.00  0.00     0.019 C 
ATOM     17  C   UNL A   1      34.262  23.729  25.422  1.00  0.00     0.070 C 
ATOM     18  C   UNL A   1      35.280  21.919  23.890  1.00  0.00     0.070 C 
ATOM     19  C   UNL A   1      35.094  23.136  26.559  1.00  0.00     0.263 C 
ATOM     20  C   UNL A   1      35.976  21.400  25.144  1.00  0.00     0.263 C 
ATOM     21  N   UNL A   1      36.285  22.424  26.135  1.00  0.00    -0.329 N 
ATOM     22  H   UNL A   1      36.597  21.935  26.974  1.00  0.00     0.348 HD
BRANCH  21  23
ATOM     23  C   UNL A   1      37.507  23.216  25.888  1.00  0.00     0.338 C 
BRANCH  23  24
ATOM     24  C   UNL A   1      38.803  22.661  26.401  1.00  0.00     0.162 A 
ATOM     25  N   UNL A   1      39.425  21.573  25.984  1.00  0.00    -0.227 NA
ATOM     26  N   UNL A   1      39.546  23.281  27.381  1.00  0.00    -0.337 N 
ATOM     27  C   UNL A   1      40.705  21.679  26.467  1.00  0.00     0.089 A 
ATOM     28  C   UNL A   1      40.819  22.767  27.325  1.00  0.00     0.066 A 
ATOM     29  H   UNL A   1      39.223  23.968  28.008  1.00  0.00     0.168 HD
ATOM     30  C   UNL A   1      41.852  20.944  26.132  1.00  0.00     0.030 A 
ATOM     31  C   UNL A   1      42.035  23.190  27.870  1.00  0.00     0.028 A 
ATOM     32  C   UNL A   1      43.090  21.369  26.633  1.00  0.00     0.002 A 
ATOM     33  C   UNL A   1      43.176  22.477  27.482  1.00  0.00     0.002 A 
ENDBRANCH  23  24
ENDBRANCH  21  23
ENDBRANCH   9  10
ENDBRANCH   7   9
ENDBRANCH   6   7
ENDBRANCH   5   6
ENDBRANCH   4   5
ENDBRANCH   3   4
ENDBRANCH   2   3
ENDBRANCH   1   2
BRANCH   1  34
ATOM     34  O   UNL A   1      33.915  30.448  26.947  1.00  0.00    -0.377 OA
BRANCH  34  35
ATOM     35  C   UNL A   1      34.232  31.211  28.099  1.00  0.00     0.188 C 
BRANCH  35  36
ATOM     36  C   UNL A   1      33.895  32.715  28.008  1.00  0.00     0.188 C 
BRANCH  36  37
ATOM     37  O   UNL A   1      34.373  33.652  28.960  1.00  0.00    -0.376 OA
BRANCH  37  38
ATOM     38  C   UNL A   1      34.081  35.032  28.840  1.00  0.00     0.202 C 
BRANCH  38  39
ATOM     39  C   UNL A   1      32.910  35.686  29.598  1.00  0.00     0.261 C 
BRANCH  39  40
ATOM     40  O   UNL A   1      33.200  36.256  30.880  1.00  0.00    -0.460 OA
BRANCH  40  41
ATOM     41  C   UNL A   1      32.820  35.526  31.952  1.00  0.00     0.338 C 
ATOM     42  O   UNL A   1      31.679  35.277  32.308  1.00  0.00    -0.246 OA
BRANCH  41  43
ATOM     43  C   UNL A   1      34.012  34.865  32.534  1.00  0.00     0.060 A 
ATOM     44  C   UNL A   1      35.244  35.527  32.418  1.00  0.00     0.016 A 
ATOM     45  C   UNL A   1      33.930  33.649  33.220  1.00  0.00     0.016 A 
ATOM     46  C   UNL A   1      36.399  34.958  32.944  1.00  0.00     0.010 A 
ATOM     47  C   UNL A   1      35.099  33.058  33.717  1.00  0.00     0.010 A 
ATOM     48  C   UNL A   1      36.343  33.692  33.540  1.00  0.00    -0.014 A 
BRANCH  48  49
ATOM     49  C   UNL A   1      37.615  32.955  33.718  1.00  0.00     0.031 A 
ATOM     50  C   UNL A   1      38.402  33.212  34.976  1.00  0.00     0.074 A 
ATOM     51  C   UNL A   1      38.010  32.006  32.852  1.00  0.00     0.049 A 
ATOM     52  N   UNL A   1      39.501  32.645  35.404  1.00  0.00    -0.248 NA
ATOM     53  C   UNL A   1      37.867  34.244  35.881  1.00  0.00     0.031 C 
ATOM     54  C   UNL A   1      37.311  31.638  31.624  1.00  0.00     0.029 A 
ATOM     55  N   UNL A   1      39.100  31.172  32.884  1.00  0.00    -0.354 N 
ATOM     56  C   UNL A   1      39.776  33.239  36.629  1.00  0.00     0.074 A 
ATOM     57  C   UNL A   1      38.761  34.243  36.857  1.00  0.00     0.031 C 
ATOM     58  C   UNL A   1      37.995  30.655  31.011  1.00  0.00     0.029 A 
ATOM     59  C   UNL A   1      39.189  30.339  31.798  1.00  0.00     0.049 A 
ATOM     60  H   UNL A   1      39.756  31.171  33.619  1.00  0.00     0.167 HD
ATOM     61  C   UNL A   1      40.776  32.961  37.498  1.00  0.00     0.037 A 
ATOM     62  C   UNL A   1      40.136  29.436  31.472  1.00  0.00     0.037 A 
ATOM     63  C   UNL A   1      41.796  31.976  37.264  1.00  0.00     0.049 A 
ATOM     64  C   UNL A   1      41.284  29.200  32.423  1.00  0.00     0.074 A 
ATOM     65  C   UNL A   1      42.864  31.629  38.073  1.00  0.00     0.029 A 
ATOM     66  N   UNL A   1      41.879  31.182  36.130  1.00  0.00    -0.354 N 
ATOM     67  N   UNL A   1      41.526  29.751  33.588  1.00  0.00    -0.248 NA
ATOM     68  C   UNL A   1      42.284  28.202  32.017  1.00  0.00     0.031 C 
ATOM     69  C   UNL A   1      43.621  30.661  37.405  1.00  0.00     0.029 A 
ATOM     70  C   UNL A   1      42.992  30.360  36.208  1.00  0.00     0.049 A 
ATOM     71  H   UNL A   1      41.241  31.200  35.379  1.00  0.00     0.167 HD
ATOM     72  C   UNL A   1      42.688  29.154  34.063  1.00  0.00     0.074 A 
ATOM     73  C   UNL A   1      43.084  28.174  33.072  1.00  0.00     0.031 C 
ATOM     74  C   UNL A   1      43.372  29.394  35.209  1.00  0.00     0.037 A 
BRANCH  61  75
ATOM     75  C   UNL A   1      40.819  33.749  38.775  1.00  0.00     0.064 A 
ATOM     76  C   UNL A   1      40.084  33.360  39.905  1.00  0.00     0.173 A 
ATOM     77  C   UNL A   1      41.631  34.888  38.880  1.00  0.00     0.173 A 
ATOM     78  F   UNL A   1      39.276  32.290  39.850  1.00  0.00    -0.203 F 
ATOM     79  C   UNL A   1      40.144  34.094  41.087  1.00  0.00     0.198 A 
ATOM     80  C   UNL A   1      41.712  35.602  40.073  1.00  0.00     0.198 A 
ATOM     81  F   UNL A   1      42.352  35.305  37.829  1.00  0.00    -0.203 F 
ATOM     82  F   UNL A   1      39.399  33.730  42.139  1.00  0.00    -0.200 F 
ATOM     83  C   UNL A   1      40.965  35.208  41.173  1.00  0.00     0.200 A 
ATOM     84  F   UNL A   1      42.514  36.672  40.157  1.00  0.00    -0.200 F 
ATOM     85  F   UNL A   1      41.032  35.906  42.314  1.00  0.00    -0.200 F 
ENDBRANCH  61  75
BRANCH  62  86
ATOM     86  C   UNL A   1      40.058  28.699  30.181  1.00  0.00     0.064 A 
ATOM     87  C   UNL A   1      39.337  27.503  30.061  1.00  0.00     0.173 A 
ATOM     88  C   UNL A   1      40.749  29.158  29.049  1.00  0.00     0.173 A 
ATOM     89  F   UNL A   1      38.682  27.006  31.120  1.00  0.00    -0.203 F 
ATOM     90  C   UNL A   1      39.336  26.779  28.870  1.00  0.00     0.198 A 
ATOM     91  C   UNL A   1      40.719  28.451  27.849  1.00  0.00     0.198 A 
ATOM     92  F   UNL A   1      41.458  30.295  29.109  1.00  0.00    -0.203 F 
ATOM     93  F   UNL A   1      38.692  25.605  28.802  1.00  0.00    -0.200 F 
ATOM     94  C   UNL A   1      40.022  27.255  27.763  1.00  0.00     0.200 A 
ATOM     95  F   UNL A   1      41.375  28.923  26.780  1.00  0.00    -0.200 F 
ATOM     96  F   UNL A   1      40.025  26.557  26.620  1.00  0.00    -0.200 F 
ENDBRANCH  62  86
BRANCH  74  97
ATOM     97  C   UNL A   1      44.601  28.566  35.462  1.00  0.00     0.064 A 
ATOM     98  C   UNL A   1      45.867  28.964  35.005  1.00  0.00     0.173 A 
ATOM     99  C   UNL A   1      44.513  27.362  36.177  1.00  0.00     0.173 A 
ATOM    100  F   UNL A   1      46.005  30.102  34.308  1.00  0.00    -0.203 F 
ATOM    101  C   UNL A   1      46.988  28.166  35.214  1.00  0.00     0.198 A 
ATOM    102  C   UNL A   1      45.643  26.585  36.418  1.00  0.00     0.198 A 
ATOM    103  F   UNL A   1      43.330  26.939  36.649  1.00  0.00    -0.203 F 
ATOM    104  F   UNL A   1      48.173  28.533  34.707  1.00  0.00    -0.200 F 
ATOM    105  C   UNL A   1      46.876  26.979  35.923  1.00  0.00     0.200 A 
ATOM    106  F   UNL A   1      45.536  25.448  37.120  1.00  0.00    -0.200 F 
ATOM    107  F   UNL A   1      47.956  26.211  36.121  1.00  0.00    -0.200 F 
ENDBRANCH  74  97
ENDBRANCH  48  49
ENDBRANCH  41  43
ENDBRANCH  40  41
ENDBRANCH  39  40
ENDBRANCH  38  39
ENDBRANCH  37  38
ENDBRANCH  36  37
ENDBRANCH  35  36
ENDBRANCH  34  35
ENDBRANCH   1  34
TORSDOF 23
ENDMDL
MODEL 2
REMARK VINA RESULT:     -10.9      1.828      3.345
REMARK SMILES O=C(CN1CC2(CCC1=O)CC[NH+](Cc1nc3ccccc3[nH]1)CC2)OCCOCCOCCOCCOC(=O)c1ccc(-c2c3nc(c(-c4c(F)c(F)c(F)c(F)c4F)c4ccc([nH]4)c(-c4c(F)c(F)c(F)c(F)c4F)c4nc(c(-c5c(F)c(F)c(F)c(F)c5F)c5ccc2[nH]5)C=C4)C=C3)cc1
REMARK SMILES IDX 31 1 30 2 29 3 28 4 27 5 26 6 2 7 1 8 3 9 4 10 5 11 9 12
REMARK SMILES IDX 6 13 8 14 10 15 7 16 11 17 25 18 12 19 24 20 13 21 14 23
REMARK SMILES IDX 15 24 16 25 23 26 17 27 22 28 18 30 21 31 19 32 20 33 32 34
REMARK SMILES IDX 33 35 34 36 35 37 36 38 37 39 38 40 39 41 40 42 41 43 42 44
REMARK SMILES IDX 103 45 43 46 102 47 44 48 45 49 46 50 96 51 47 52 101 53
REMARK SMILES IDX 95 54 97 55 48 56 100 57 94 58 93 59 49 61 81 62 61 63 80 64
REMARK SMILES IDX 62 65 65 66 79 67 98 68 63 69 64 70 78 72 99 73 66 74 50 75
REMARK SMILES IDX 51 76 59 77 52 78 53 79 57 80 60 81 54 82 55 83 58 84 56 85
REMARK SMILES IDX 82 86 83 87 91 88 84 89 85 90 89 91 92 92 86 93 87 94 90 95
REMARK SMILES IDX 88 96 67 97 68 98 76 99 69 100 70 101 74 102 77 103 71 104
REMARK SMILES IDX 72 105 75 106 73 107
REMARK H PARENT 13 22 23 29 97 60 65 71
REMARK Flexibility Score: inf
ROOT
ATOM      1  C   UNL A   1      34.785  29.384  27.707  1.00  0.00     0.188 C 
ENDROOT
BRANCH   1   2
ATOM      2  C   UNL A   1      34.032  28.584  26.643  1.00  0.00     0.188 C 
BRANCH   2   3
ATOM      3  O   UNL A   1      33.678  29.276  25.454  1.00  0.00    -0.376 OA
BRANCH   3   4
ATOM      4  C   UNL A   1      33.963  28.835  24.133  1.00  0.00     0.202 C 
BRANCH   4   5
ATOM      5  C   UNL A   1      32.921  28.913  23.014  1.00  0.00     0.261 C 
BRANCH   5   6
ATOM      6  O   UNL A   1      32.620  27.713  22.275  1.00  0.00    -0.462 OA
BRANCH   6   7
ATOM      7  C   UNL A   1      31.431  27.071  22.316  1.00  0.00     0.325 C 
ATOM      8  O   UNL A   1      30.400  27.627  21.947  1.00  0.00    -0.250 OA
BRANCH   7   9
ATOM      9  C   UNL A   1      31.401  25.757  23.059  1.00  0.00     0.242 C 
BRANCH   9  10
ATOM     10  N   UNL A   1      31.540  25.768  24.493  1.00  0.00    -0.331 N 
ATOM     11  C   UNL A   1      32.864  25.552  25.027  1.00  0.00     0.127 C 
ATOM     12  C   UNL A   1      30.409  25.518  25.255  1.00  0.00     0.223 C 
ATOM     13  C   UNL A   1      33.002  24.181  25.699  1.00  0.00    -0.001 C 
ATOM     14  C   UNL A   1      30.503  24.314  26.165  1.00  0.00     0.101 C 
ATOM     15  O   UNL A   1      29.322  26.041  25.028  1.00  0.00    -0.275 OA
ATOM     16  C   UNL A   1      31.882  24.146  26.769  1.00  0.00     0.019 C 
ATOM     17  C   UNL A   1      32.818  22.996  24.703  1.00  0.00     0.070 C 
ATOM     18  C   UNL A   1      34.376  24.156  26.403  1.00  0.00     0.070 C 
ATOM     19  C   UNL A   1      34.076  22.519  23.978  1.00  0.00     0.263 C 
ATOM     20  C   UNL A   1      35.523  23.672  25.520  1.00  0.00     0.263 C 
ATOM     21  N   UNL A   1      35.260  22.424  24.813  1.00  0.00    -0.329 N 
ATOM     22  H   UNL A   1      36.025  22.297  24.150  1.00  0.00     0.348 HD
BRANCH  21  23
ATOM     23  C   UNL A   1      35.451  21.185  25.594  1.00  0.00     0.338 C 
BRANCH  23  24
ATOM     24  C   UNL A   1      34.688  19.971  25.155  1.00  0.00     0.162 A 
ATOM     25  N   UNL A   1      35.064  19.070  24.266  1.00  0.00    -0.227 NA
ATOM     26  N   UNL A   1      33.469  19.619  25.692  1.00  0.00    -0.337 N 
ATOM     27  C   UNL A   1      34.244  17.989  24.473  1.00  0.00     0.089 A 
ATOM     28  C   UNL A   1      33.248  18.296  25.392  1.00  0.00     0.066 A 
ATOM     29  H   UNL A   1      32.865  20.209  26.199  1.00  0.00     0.168 HD
ATOM     30  C   UNL A   1      34.354  16.677  23.990  1.00  0.00     0.030 A 
ATOM     31  C   UNL A   1      32.344  17.352  25.887  1.00  0.00     0.028 A 
ATOM     32  C   UNL A   1      33.485  15.702  24.498  1.00  0.00     0.002 A 
ATOM     33  C   UNL A   1      32.502  16.036  25.434  1.00  0.00     0.002 A 
ENDBRANCH  23  24
ENDBRANCH  21  23
ENDBRANCH   9  10
ENDBRANCH   7   9
ENDBRANCH   6   7
ENDBRANCH   5   6
ENDBRANCH   4   5
ENDBRANCH   3   4
ENDBRANCH   2   3
ENDBRANCH   1   2
BRANCH   1  34
ATOM     34  O   UNL A   1      35.049  30.736  27.367  1.00  0.00    -0.377 OA
BRANCH  34  35
ATOM     35  C   UNL A   1      35.155  31.621  28.469  1.00  0.00     0.188 C 
BRANCH  35  36
ATOM     36  C   UNL A   1      34.333  32.923  28.353  1.00  0.00     0.188 C 
BRANCH  36  37
ATOM     37  O   UNL A   1      34.857  34.181  28.744  1.00  0.00    -0.376 OA
BRANCH  37  38
ATOM     38  C   UNL A   1      34.084  35.362  28.635  1.00  0.00     0.202 C 
BRANCH  38  39
ATOM     39  C   UNL A   1      32.904  35.653  29.581  1.00  0.00     0.261 C 
BRANCH  39  40
ATOM     40  O   UNL A   1      33.215  36.235  30.854  1.00  0.00    -0.460 OA
BRANCH  40  41
ATOM     41  C   UNL A   1      32.844  35.518  31.939  1.00  0.00     0.338 C 
ATOM     42  O   UNL A   1      31.706  35.276  32.309  1.00  0.00    -0.246 OA
BRANCH  41  43
ATOM     43  C   UNL A   1      34.041  34.862  32.516  1.00  0.00     0.060 A 
ATOM     44  C   UNL A   1      35.270  35.527  32.393  1.00  0.00     0.016 A 
ATOM     45  C   UNL A   1      33.966  33.646  33.204  1.00  0.00     0.016 A 
ATOM     46  C   UNL A   1      36.429  34.962  32.914  1.00  0.00     0.010 A 
ATOM     47  C   UNL A   1      35.138  33.060  33.697  1.00  0.00     0.010 A 
ATOM     48  C   UNL A   1      36.379  33.697  33.513  1.00  0.00    -0.014 A 
BRANCH  48  49
ATOM     49  C   UNL A   1      37.655  32.964  33.686  1.00  0.00     0.031 A 
ATOM     50  C   UNL A   1      38.444  33.221  34.942  1.00  0.00     0.074 A 
ATOM     51  C   UNL A   1      38.051  32.017  32.817  1.00  0.00     0.049 A 
ATOM     52  N   UNL A   1      39.547  32.658  35.366  1.00  0.00    -0.248 NA
ATOM     53  C   UNL A   1      37.909  34.250  35.850  1.00  0.00     0.031 C 
ATOM     54  C   UNL A   1      37.349  31.649  31.591  1.00  0.00     0.029 A 
ATOM     55  N   UNL A   1      39.144  31.187  32.845  1.00  0.00    -0.354 N 
ATOM     56  C   UNL A   1      39.823  33.251  36.591  1.00  0.00     0.074 A 
ATOM     57  C   UNL A   1      38.805  34.250  36.823  1.00  0.00     0.031 C 
ATOM     58  C   UNL A   1      38.035  30.669  30.975  1.00  0.00     0.029 A 
ATOM     59  C   UNL A   1      39.232  30.356  31.757  1.00  0.00     0.049 A 
ATOM     60  H   UNL A   1      39.801  31.187  33.578  1.00  0.00     0.167 HD
ATOM     61  C   UNL A   1      40.826  32.975  37.457  1.00  0.00     0.037 A 
ATOM     62  C   UNL A   1      40.181  29.457  31.427  1.00  0.00     0.037 A 
ATOM     63  C   UNL A   1      41.850  31.993  37.219  1.00  0.00     0.049 A 
ATOM     64  C   UNL A   1      41.333  29.223  32.374  1.00  0.00     0.074 A 
ATOM     65  C   UNL A   1      42.921  31.649  38.024  1.00  0.00     0.029 A 
ATOM     66  N   UNL A   1      41.931  31.201  36.083  1.00  0.00    -0.354 N 
ATOM     67  N   UNL A   1      41.576  29.773  33.540  1.00  0.00    -0.248 NA
ATOM     68  C   UNL A   1      42.335  28.229  31.964  1.00  0.00     0.031 C 
ATOM     69  C   UNL A   1      43.679  30.684  37.352  1.00  0.00     0.029 A 
ATOM     70  C   UNL A   1      43.048  30.383  36.156  1.00  0.00     0.049 A 
ATOM     71  H   UNL A   1      41.291  31.218  35.334  1.00  0.00     0.167 HD
ATOM     72  C   UNL A   1      42.741  29.179  34.010  1.00  0.00     0.074 A 
ATOM     73  C   UNL A   1      43.138  28.202  33.017  1.00  0.00     0.031 C 
ATOM     74  C   UNL A   1      43.428  29.420  35.155  1.00  0.00     0.037 A 
BRANCH  61  75
ATOM     75  C   UNL A   1      40.871  33.760  38.735  1.00  0.00     0.064 A 
ATOM     76  C   UNL A   1      40.095  33.401  39.847  1.00  0.00     0.173 A 
ATOM     77  C   UNL A   1      41.723  34.868  38.859  1.00  0.00     0.173 A 
ATOM     78  F   UNL A   1      39.248  32.363  39.773  1.00  0.00    -0.203 F 
ATOM     79  C   UNL A   1      40.157  34.133  41.031  1.00  0.00     0.198 A 
ATOM     80  C   UNL A   1      41.805  35.578  40.054  1.00  0.00     0.198 A 
ATOM     81  F   UNL A   1      42.485  35.256  37.825  1.00  0.00    -0.203 F 
ATOM     82  F   UNL A   1      39.374  33.798  42.065  1.00  0.00    -0.200 F 
ATOM     83  C   UNL A   1      41.018  35.214  41.136  1.00  0.00     0.200 A 
ATOM     84  F   UNL A   1      42.646  36.617  40.157  1.00  0.00    -0.200 F 
ATOM     85  F   UNL A   1      41.086  35.909  42.279  1.00  0.00    -0.200 F 
ENDBRANCH  61  75
BRANCH  62  86
ATOM     86  C   UNL A   1      40.101  28.722  30.136  1.00  0.00     0.064 A 
ATOM     87  C   UNL A   1      39.475  27.472  30.040  1.00  0.00     0.173 A 
ATOM     88  C   UNL A   1      40.699  29.239  28.976  1.00  0.00     0.173 A 
ATOM     89  F   UNL A   1      38.912  26.919  31.124  1.00  0.00    -0.203 F 
ATOM     90  C   UNL A   1      39.476  26.755  28.844  1.00  0.00     0.198 A 
ATOM     91  C   UNL A   1      40.670  28.538  27.773  1.00  0.00     0.198 A 
ATOM     92  F   UNL A   1      41.316  30.430  29.012  1.00  0.00    -0.203 F 
ATOM     93  F   UNL A   1      38.926  25.533  28.797  1.00  0.00    -0.200 F 
ATOM     94  C   UNL A   1      40.068  27.290  27.710  1.00  0.00     0.200 A 
ATOM     95  F   UNL A   1      41.234  29.066  26.678  1.00  0.00    -0.200 F 
ATOM     96  F   UNL A   1      40.073  26.599  26.563  1.00  0.00    -0.200 F 
ENDBRANCH  62  86
BRANCH  74  97
ATOM     97  C   UNL A   1      44.660  28.595  35.403  1.00  0.00     0.064 A 
ATOM     98  C   UNL A   1      44.587  27.302  35.945  1.00  0.00     0.173 A 
ATOM     99  C   UNL A   1      45.930  29.100  35.085  1.00  0.00     0.173 A 
ATOM    100  F   UNL A   1      43.398  26.776  36.276  1.00  0.00    -0.203 F 
ATOM    101  C   UNL A   1      45.740  26.567  36.204  1.00  0.00     0.198 A 
ATOM    102  C   UNL A   1      47.079  28.346  35.309  1.00  0.00     0.198 A 
ATOM    103  F   UNL A   1      46.059  30.324  34.551  1.00  0.00    -0.203 F 
ATOM    104  F   UNL A   1      45.648  25.364  36.788  1.00  0.00    -0.200 F 
ATOM    105  C   UNL A   1      46.985  27.087  35.883  1.00  0.00     0.200 A 
ATOM    106  F   UNL A   1      48.280  28.843  34.981  1.00  0.00    -0.200 F 
ATOM    107  F   UNL A   1      48.094  26.379  36.135  1.00  0.00    -0.200 F 
ENDBRANCH  74  97
ENDBRANCH  48  49
ENDBRANCH  41  43
ENDBRANCH  40  41
ENDBRANCH  39  40
ENDBRANCH  38  39
ENDBRANCH  37  38
ENDBRANCH  36  37
ENDBRANCH  35  36
ENDBRANCH  34  35
ENDBRANCH   1  34
TORSDOF 23
ENDMDL
MODEL 3
REMARK VINA RESULT:     -10.7      0.982      7.007
REMARK SMILES O=C(CN1CC2(CCC1=O)CC[NH+](Cc1nc3ccccc3[nH]1)CC2)OCCOCCOCCOCCOC(=O)c1ccc(-c2c3nc(c(-c4c(F)c(F)c(F)c(F)c4F)c4ccc([nH]4)c(-c4c(F)c(F)c(F)c(F)c4F)c4nc(c(-c5c(F)c(F)c(F)c(F)c5F)c5ccc2[nH]5)C=C4)C=C3)cc1
REMARK SMILES IDX 31 1 30 2 29 3 28 4 27 5 26 6 2 7 1 8 3 9 4 10 5 11 9 12
REMARK SMILES IDX 6 13 8 14 10 15 7 16 11 17 25 18 12 19 24 20 13 21 14 23
REMARK SMILES IDX 15 24 16 25 23 26 17 27 22 28 18 30 21 31 19 32 20 33 32 34
REMARK SMILES IDX 33 35 34 36 35 37 36 38 37 39 38 40 39 41 40 42 41 43 42 44
REMARK SMILES IDX 103 45 43 46 102 47 44 48 45 49 46 50 96 51 47 52 101 53
REMARK SMILES IDX 95 54 97 55 48 56 100 57 94 58 93 59 49 61 81 62 61 63 80 64
REMARK SMILES IDX 62 65 65 66 79 67 98 68 63 69 64 70 78 72 99 73 66 74 50 75
REMARK SMILES IDX 51 76 59 77 52 78 53 79 57 80 60 81 54 82 55 83 58 84 56 85
REMARK SMILES IDX 82 86 83 87 91 88 84 89 85 90 89 91 92 92 86 93 87 94 90 95
REMARK SMILES IDX 88 96 67 97 68 98 76 99 69 100 70 101 74 102 77 103 71 104
REMARK SMILES IDX 72 105 75 106 73 107
REMARK H PARENT 13 22 23 29 97 60 65 71
REMARK Flexibility Score: inf
ROOT
ATOM      1  C   UNL A   1      34.654  29.120  27.598  1.00  0.00     0.188 C 
ENDROOT
BRANCH   1   2
ATOM      2  C   UNL A   1      33.243  29.246  27.019  1.00  0.00     0.188 C 
BRANCH   2   3
ATOM      3  O   UNL A   1      33.119  29.930  25.780  1.00  0.00    -0.376 OA
BRANCH   3   4
ATOM      4  C   UNL A   1      32.455  29.427  24.629  1.00  0.00     0.202 C 
BRANCH   4   5
ATOM      5  C   UNL A   1      30.968  29.062  24.651  1.00  0.00     0.261 C 
BRANCH   5   6
ATOM      6  O   UNL A   1      30.604  27.670  24.562  1.00  0.00    -0.462 OA
BRANCH   6   7
ATOM      7  C   UNL A   1      31.096  26.701  25.365  1.00  0.00     0.325 C 
ATOM      8  O   UNL A   1      30.659  26.540  26.502  1.00  0.00    -0.250 OA
BRANCH   7   9
ATOM      9  C   UNL A   1      32.354  26.011  24.895  1.00  0.00     0.242 C 
BRANCH   9  10
ATOM     10  N   UNL A   1      32.239  24.731  24.243  1.00  0.00    -0.331 N 
ATOM     11  C   UNL A   1      32.715  23.577  24.971  1.00  0.00     0.127 C 
ATOM     12  C   UNL A   1      32.137  24.715  22.861  1.00  0.00     0.223 C 
ATOM     13  C   UNL A   1      34.009  23.009  24.376  1.00  0.00    -0.001 C 
ATOM     14  C   UNL A   1      33.236  23.962  22.145  1.00  0.00     0.101 C 
ATOM     15  O   UNL A   1      31.393  25.467  22.238  1.00  0.00    -0.275 OA
ATOM     16  C   UNL A   1      33.671  22.718  22.891  1.00  0.00     0.019 C 
ATOM     17  C   UNL A   1      35.204  24.005  24.461  1.00  0.00     0.070 C 
ATOM     18  C   UNL A   1      34.295  21.676  25.101  1.00  0.00     0.070 C 
ATOM     19  C   UNL A   1      36.035  23.958  25.742  1.00  0.00     0.263 C 
ATOM     20  C   UNL A   1      35.121  21.823  26.376  1.00  0.00     0.263 C 
ATOM     21  N   UNL A   1      36.332  22.622  26.226  1.00  0.00    -0.329 N 
ATOM     22  H   UNL A   1      36.701  22.772  27.165  1.00  0.00     0.348 HD
BRANCH  21  23
ATOM     23  C   UNL A   1      37.500  21.926  25.649  1.00  0.00     0.338 C 
BRANCH  23  24
ATOM     24  C   UNL A   1      38.860  22.399  26.071  1.00  0.00     0.162 A 
ATOM     25  N   UNL A   1      39.147  23.493  26.754  1.00  0.00    -0.227 NA
ATOM     26  N   UNL A   1      40.011  21.686  25.819  1.00  0.00    -0.337 N 
ATOM     27  C   UNL A   1      40.429  23.310  27.211  1.00  0.00     0.089 A 
ATOM     28  C   UNL A   1      40.986  22.160  26.663  1.00  0.00     0.066 A 
ATOM     29  H   UNL A   1      40.116  20.967  25.155  1.00  0.00     0.168 HD
ATOM     30  C   UNL A   1      41.145  24.028  28.179  1.00  0.00     0.030 A 
ATOM     31  C   UNL A   1      42.235  21.658  27.042  1.00  0.00     0.028 A 
ATOM     32  C   UNL A   1      42.382  23.526  28.605  1.00  0.00     0.002 A 
ATOM     33  C   UNL A   1      42.912  22.359  28.049  1.00  0.00     0.002 A 
ENDBRANCH  23  24
ENDBRANCH  21  23
ENDBRANCH   9  10
ENDBRANCH   7   9
ENDBRANCH   6   7
ENDBRANCH   5   6
ENDBRANCH   4   5
ENDBRANCH   3   4
ENDBRANCH   2   3
ENDBRANCH   1   2
BRANCH   1  34
ATOM     34  O   UNL A   1      35.543  30.169  27.248  1.00  0.00    -0.377 OA
BRANCH  34  35
ATOM     35  C   UNL A   1      35.676  31.189  28.222  1.00  0.00     0.188 C 
BRANCH  35  36
ATOM     36  C   UNL A   1      34.824  32.453  27.976  1.00  0.00     0.188 C 
BRANCH  36  37
ATOM     37  O   UNL A   1      35.202  33.725  28.477  1.00  0.00    -0.376 OA
BRANCH  37  38
ATOM     38  C   UNL A   1      34.380  34.862  28.284  1.00  0.00     0.202 C 
BRANCH  38  39
ATOM     39  C   UNL A   1      33.273  35.247  29.284  1.00  0.00     0.261 C 
BRANCH  39  40
ATOM     40  O   UNL A   1      33.687  35.859  30.512  1.00  0.00    -0.460 OA
BRANCH  40  41
ATOM     41  C   UNL A   1      33.168  35.329  31.642  1.00  0.00     0.338 C 
ATOM     42  O   UNL A   1      31.987  35.171  31.908  1.00  0.00    -0.246 OA
BRANCH  41  43
ATOM     43  C   UNL A   1      34.266  34.746  32.450  1.00  0.00     0.060 A 
ATOM     44  C   UNL A   1      35.516  35.380  32.402  1.00  0.00     0.016 A 
ATOM     45  C   UNL A   1      34.074  33.632  33.274  1.00  0.00     0.016 A 
ATOM     46  C   UNL A   1      36.585  34.881  33.138  1.00  0.00     0.010 A 
ATOM     47  C   UNL A   1      35.160  33.108  33.987  1.00  0.00     0.010 A 
ATOM     48  C   UNL A   1      36.429  33.707  33.884  1.00  0.00    -0.014 A 
BRANCH  48  49
ATOM     49  C   UNL A   1      37.655  32.994  34.315  1.00  0.00     0.031 A 
ATOM     50  C   UNL A   1      38.225  31.958  33.384  1.00  0.00     0.074 A 
ATOM     51  C   UNL A   1      38.307  33.328  35.442  1.00  0.00     0.049 A 
ATOM     52  N   UNL A   1      39.322  31.251  33.491  1.00  0.00    -0.248 NA
ATOM     53  C   UNL A   1      37.456  31.690  32.156  1.00  0.00     0.031 C 
ATOM     54  C   UNL A   1      37.877  34.343  36.400  1.00  0.00     0.029 A 
ATOM     55  N   UNL A   1      39.483  32.846  35.963  1.00  0.00    -0.354 N 
ATOM     56  C   UNL A   1      39.380  30.473  32.342  1.00  0.00     0.074 A 
ATOM     57  C   UNL A   1      38.188  30.754  31.574  1.00  0.00     0.031 C 
ATOM     58  C   UNL A   1      38.774  34.403  37.401  1.00  0.00     0.029 A 
ATOM     59  C   UNL A   1      39.829  33.419  37.161  1.00  0.00     0.049 A 
ATOM     60  H   UNL A   1      40.026  32.156  35.519  1.00  0.00     0.167 HD
ATOM     61  C   UNL A   1      40.349  29.614  31.951  1.00  0.00     0.037 A 
ATOM     62  C   UNL A   1      40.873  33.162  37.975  1.00  0.00     0.037 A 
ATOM     63  C   UNL A   1      41.526  29.321  32.723  1.00  0.00     0.049 A 
ATOM     64  C   UNL A   1      41.901  32.141  37.552  1.00  0.00     0.074 A 
ATOM     65  C   UNL A   1      42.561  28.452  32.425  1.00  0.00     0.029 A 
ATOM     66  N   UNL A   1      41.820  29.888  33.955  1.00  0.00    -0.354 N 
ATOM     67  N   UNL A   1      41.960  31.424  36.455  1.00  0.00    -0.248 NA
ATOM     68  C   UNL A   1      43.019  31.906  38.477  1.00  0.00     0.031 C 
ATOM     69  C   UNL A   1      43.457  28.455  33.500  1.00  0.00     0.029 A 
ATOM     70  C   UNL A   1      43.012  29.371  34.440  1.00  0.00     0.049 A 
ATOM     71  H   UNL A   1      41.265  30.557  34.417  1.00  0.00     0.167 HD
ATOM     72  C   UNL A   1      43.125  30.673  36.548  1.00  0.00     0.074 A 
ATOM     73  C   UNL A   1      43.760  31.046  37.795  1.00  0.00     0.031 C 
ATOM     74  C   UNL A   1      43.626  29.752  35.686  1.00  0.00     0.037 A 
BRANCH  61  75
ATOM     75  C   UNL A   1      40.165  28.918  30.634  1.00  0.00     0.064 A 
ATOM     76  C   UNL A   1      40.699  29.437  29.446  1.00  0.00     0.173 A 
ATOM     77  C   UNL A   1      39.472  27.699  30.565  1.00  0.00     0.173 A 
ATOM     78  F   UNL A   1      41.351  30.610  29.454  1.00  0.00    -0.203 F 
ATOM     79  C   UNL A   1      40.530  28.773  28.233  1.00  0.00     0.198 A 
ATOM     80  C   UNL A   1      39.332  27.023  29.357  1.00  0.00     0.198 A 
ATOM     81  F   UNL A   1      38.939  27.160  31.672  1.00  0.00    -0.203 F 
ATOM     82  F   UNL A   1      41.010  29.311  27.104  1.00  0.00    -0.200 F 
ATOM     83  C   UNL A   1      39.855  27.562  28.191  1.00  0.00     0.200 A 
ATOM     84  F   UNL A   1      38.689  25.848  29.320  1.00  0.00    -0.200 F 
ATOM     85  F   UNL A   1      39.705  26.918  27.027  1.00  0.00    -0.200 F 
ENDBRANCH  61  75
BRANCH  62  86
ATOM     86  C   UNL A   1      40.996  33.864  39.282  1.00  0.00     0.064 A 
ATOM     87  C   UNL A   1      41.820  34.987  39.437  1.00  0.00     0.173 A 
ATOM     88  C   UNL A   1      40.323  33.389  40.419  1.00  0.00     0.173 A 
ATOM     89  F   UNL A   1      42.506  35.465  38.390  1.00  0.00    -0.203 F 
ATOM     90  C   UNL A   1      41.990  35.588  40.684  1.00  0.00     0.198 A 
ATOM     91  C   UNL A   1      40.467  34.011  41.656  1.00  0.00     0.198 A 
ATOM     92  F   UNL A   1      39.525  32.315  40.327  1.00  0.00    -0.203 F 
ATOM     93  F   UNL A   1      42.834  36.621  40.817  1.00  0.00    -0.200 F 
ATOM     94  C   UNL A   1      41.310  35.104  41.791  1.00  0.00     0.200 A 
ATOM     95  F   UNL A   1      39.799  33.545  42.720  1.00  0.00    -0.200 F 
ATOM     96  F   UNL A   1      41.478  35.680  42.989  1.00  0.00    -0.200 F 
ENDBRANCH  62  86
BRANCH  74  97
ATOM     97  C   UNL A   1      44.934  29.109  36.053  1.00  0.00     0.064 A 
ATOM     98  C   UNL A   1      46.162  29.632  35.618  1.00  0.00     0.173 A 
ATOM     99  C   UNL A   1      44.961  27.960  36.857  1.00  0.00     0.173 A 
ATOM    100  F   UNL A   1      46.192  30.724  34.838  1.00  0.00    -0.203 F 
ATOM    101  C   UNL A   1      47.362  29.003  35.935  1.00  0.00     0.198 A 
ATOM    102  C   UNL A   1      46.166  27.354  37.205  1.00  0.00     0.198 A 
ATOM    103  F   UNL A   1      43.818  27.425  37.313  1.00  0.00    -0.203 F 
ATOM    104  F   UNL A   1      48.516  29.480  35.448  1.00  0.00    -0.200 F 
ATOM    105  C   UNL A   1      47.364  27.866  36.731  1.00  0.00     0.200 A 
ATOM    106  F   UNL A   1      46.167  26.268  37.990  1.00  0.00    -0.200 F 
ATOM    107  F   UNL A   1      48.520  27.260  37.032  1.00  0.00    -0.200 F 
ENDBRANCH  74  97
ENDBRANCH  48  49
ENDBRANCH  41  43
ENDBRANCH  40  41
ENDBRANCH  39  40
ENDBRANCH  38  39
ENDBRANCH  37  38
ENDBRANCH  36  37
ENDBRANCH  35  36
ENDBRANCH  34  35
ENDBRANCH   1  34
TORSDOF 23
ENDMDL
