MODEL 1
REMARK VINA RESULT:     -11.4      0.000      0.000
REMARK SMILES Cc1c(C(=O)OCCOCCOCCOCCOC(=O)c2ccc(-c3c4nc(c(-c5c(F)c(F)c(F)c(F)c5F)c5ccc([nH]5)c(-c5c(F)c(F)c(F)c(F)c5F)c5nc(c(-c6c(F)c(F)c(F)c(F)c6F)c6ccc3[nH]6)C=C5)C=C4)cc2)sc2ncnc(NCc3cn4c(n3)SCC4)c12
REMARK SMILES IDX 11 1 10 2 9 3 8 4 7 5 6 6 4 7 5 8 3 9 1 10 2 11 100 12 84 13
REMARK SMILES IDX 85 14 89 15 86 16 88 17 87 18 90 19 91 21 92 22 93 23 96 24
REMARK SMILES IDX 94 25 95 26 99 27 97 28 98 29 12 30 13 31 14 32 15 33 16 34
REMARK SMILES IDX 17 35 18 36 19 37 20 38 21 39 22 40 83 41 23 42 82 43 24 44
REMARK SMILES IDX 25 45 26 46 76 47 27 48 81 49 75 50 77 51 28 52 80 53 74 54
REMARK SMILES IDX 73 55 29 57 61 58 41 59 60 60 42 61 45 62 59 63 78 64 43 65
REMARK SMILES IDX 44 66 58 68 79 69 46 70 30 71 31 72 39 73 32 74 33 75 37 76
REMARK SMILES IDX 40 77 34 78 35 79 38 80 36 81 62 82 63 83 71 84 64 85 65 86
REMARK SMILES IDX 69 87 72 88 66 89 67 90 70 91 68 92 47 93 48 94 56 95 49 96
REMARK SMILES IDX 50 97 54 98 57 99 51 100 52 101 55 102 53 103
REMARK H PARENT 90 20 77 56 45 67
REMARK Flexibility Score: inf
ROOT
ATOM      1  C   UNL A   1      40.808  19.998  26.583  1.00  0.00     0.188 C 
ENDROOT
BRANCH   1   2
ATOM      2  C   UNL A   1      39.663  20.915  26.095  1.00  0.00     0.188 C 
BRANCH   2   3
ATOM      3  O   UNL A   1      39.690  22.227  26.627  1.00  0.00    -0.376 OA
BRANCH   3   4
ATOM      4  C   UNL A   1      38.610  23.090  26.348  1.00  0.00     0.202 C 
BRANCH   4   5
ATOM      5  C   UNL A   1      37.498  22.505  25.469  1.00  0.00     0.261 C 
BRANCH   5   6
ATOM      6  O   UNL A   1      36.176  22.969  25.784  1.00  0.00    -0.459 OA
BRANCH   6   7
ATOM      7  C   UNL A   1      35.136  22.249  25.292  1.00  0.00     0.348 C 
ATOM      8  O   UNL A   1      35.216  21.062  24.965  1.00  0.00    -0.245 OA
BRANCH   7   9
ATOM      9  C   UNL A   1      33.906  23.012  25.412  1.00  0.00     0.118 A 
ATOM     10  C   UNL A   1      33.942  24.053  23.118  1.00  0.00     0.047 C 
ATOM     11  C   UNL A   1      33.319  23.862  24.471  1.00  0.00    -0.012 A 
ATOM     12  C   UNL A   1      32.059  24.452  24.973  1.00  0.00     0.058 A 
ATOM     13  S   UNL A   1      32.986  22.876  26.830  1.00  0.00    -0.108 S 
ATOM     14  C   UNL A   1      31.818  23.966  26.258  1.00  0.00     0.129 A 
ATOM     15  C   UNL A   1      31.063  25.369  24.504  1.00  0.00     0.138 A 
ATOM     16  N   UNL A   1      30.792  24.257  27.072  1.00  0.00    -0.225 NA
ATOM     17  N   UNL A   1      30.048  25.699  25.339  1.00  0.00    -0.219 NA
ATOM     18  C   UNL A   1      29.958  25.140  26.545  1.00  0.00     0.225 A 
BRANCH  15  19
ATOM     19  N   UNL A   1      30.940  26.032  23.310  1.00  0.00    -0.364 N 
ATOM     20  H   UNL A   1      30.308  25.647  22.659  1.00  0.00     0.162 HD
BRANCH  19  21
ATOM     21  C   UNL A   1      31.627  27.217  22.903  1.00  0.00     0.172 C 
BRANCH  21  22
ATOM     22  C   UNL A   1      30.882  28.505  22.797  1.00  0.00     0.079 A 
ATOM     23  C   UNL A   1      30.629  29.374  23.853  1.00  0.00     0.113 A 
ATOM     24  N   UNL A   1      30.261  28.928  21.632  1.00  0.00    -0.226 NA
ATOM     25  N   UNL A   1      29.809  30.298  23.316  1.00  0.00    -0.325 N 
ATOM     26  C   UNL A   1      29.624  30.005  22.002  1.00  0.00     0.168 A 
ATOM     27  C   UNL A   1      28.905  31.255  23.916  1.00  0.00     0.135 C 
ATOM     28  S   UNL A   1      28.306  30.880  21.324  1.00  0.00    -0.086 SA
ATOM     29  C   UNL A   1      27.670  31.238  23.018  1.00  0.00     0.100 C 
ENDBRANCH  21  22
ENDBRANCH  19  21
ENDBRANCH  15  19
ENDBRANCH   7   9
ENDBRANCH   6   7
ENDBRANCH   5   6
ENDBRANCH   4   5
ENDBRANCH   3   4
ENDBRANCH   2   3
ENDBRANCH   1   2
BRANCH   1  30
ATOM     30  O   UNL A   1      41.427  19.045  25.726  1.00  0.00    -0.377 OA
BRANCH  30  31
ATOM     31  C   UNL A   1      42.675  18.464  26.083  1.00  0.00     0.188 C 
BRANCH  31  32
ATOM     32  C   UNL A   1      43.979  18.917  25.377  1.00  0.00     0.188 C 
BRANCH  32  33
ATOM     33  O   UNL A   1      43.861  20.099  24.599  1.00  0.00    -0.376 OA
BRANCH  33  34
ATOM     34  C   UNL A   1      44.390  21.340  25.020  1.00  0.00     0.202 C 
BRANCH  34  35
ATOM     35  C   UNL A   1      43.940  22.621  24.326  1.00  0.00     0.261 C 
BRANCH  35  36
ATOM     36  O   UNL A   1      43.045  23.401  25.088  1.00  0.00    -0.460 OA
BRANCH  36  37
ATOM     37  C   UNL A   1      43.484  24.631  25.378  1.00  0.00     0.338 C 
ATOM     38  O   UNL A   1      44.512  25.175  24.980  1.00  0.00    -0.246 OA
BRANCH  37  39
ATOM     39  C   UNL A   1      42.569  25.212  26.351  1.00  0.00     0.060 A 
ATOM     40  C   UNL A   1      41.510  25.957  25.837  1.00  0.00     0.016 A 
ATOM     41  C   UNL A   1      43.023  25.336  27.674  1.00  0.00     0.016 A 
ATOM     42  C   UNL A   1      41.111  27.050  26.558  1.00  0.00     0.010 A 
ATOM     43  C   UNL A   1      42.642  26.441  28.379  1.00  0.00     0.010 A 
ATOM     44  C   UNL A   1      41.780  27.333  27.756  1.00  0.00    -0.014 A 
BRANCH  44  45
ATOM     45  C   UNL A   1      41.517  28.604  28.377  1.00  0.00     0.031 A 
ATOM     46  C   UNL A   1      42.583  29.574  28.100  1.00  0.00     0.074 A 
ATOM     47  C   UNL A   1      40.394  28.835  29.081  1.00  0.00     0.049 A 
ATOM     48  N   UNL A   1      43.473  30.005  28.926  1.00  0.00    -0.248 NA
ATOM     49  C   UNL A   1      42.816  29.956  26.698  1.00  0.00     0.031 C 
ATOM     50  C   UNL A   1      39.186  28.006  29.151  1.00  0.00     0.029 A 
ATOM     51  N   UNL A   1      40.067  29.925  29.825  1.00  0.00    -0.354 N 
ATOM     52  C   UNL A   1      44.243  30.895  28.192  1.00  0.00     0.074 A 
ATOM     53  C   UNL A   1      43.939  30.667  26.806  1.00  0.00     0.031 C 
ATOM     54  C   UNL A   1      38.184  28.728  29.706  1.00  0.00     0.029 A 
ATOM     55  C   UNL A   1      38.722  29.999  30.162  1.00  0.00     0.049 A 
ATOM     56  H   UNL A   1      40.725  30.603  30.100  1.00  0.00     0.167 HD
ATOM     57  C   UNL A   1      44.809  31.964  28.808  1.00  0.00     0.037 A 
ATOM     58  C   UNL A   1      38.114  31.072  30.720  1.00  0.00     0.037 A 
ATOM     59  C   UNL A   1      44.814  31.802  30.238  1.00  0.00     0.049 A 
ATOM     60  C   UNL A   1      39.169  31.883  31.376  1.00  0.00     0.074 A 
ATOM     61  C   UNL A   1      45.569  31.113  31.161  1.00  0.00     0.029 A 
ATOM     62  N   UNL A   1      43.626  32.124  30.838  1.00  0.00    -0.354 N 
ATOM     63  N   UNL A   1      39.834  31.487  32.425  1.00  0.00    -0.248 NA
ATOM     64  C   UNL A   1      39.738  33.026  30.666  1.00  0.00     0.031 C 
ATOM     65  C   UNL A   1      44.731  30.917  32.300  1.00  0.00     0.029 A 
ATOM     66  C   UNL A   1      43.496  31.511  32.055  1.00  0.00     0.049 A 
ATOM     67  H   UNL A   1      42.949  32.721  30.444  1.00  0.00     0.167 HD
ATOM     68  C   UNL A   1      41.085  32.045  32.264  1.00  0.00     0.074 A 
ATOM     69  C   UNL A   1      40.917  33.111  31.288  1.00  0.00     0.031 C 
ATOM     70  C   UNL A   1      42.199  31.380  32.678  1.00  0.00     0.037 A 
BRANCH  57  71
ATOM     71  C   UNL A   1      44.893  33.328  28.175  1.00  0.00     0.064 A 
ATOM     72  C   UNL A   1      46.153  33.931  28.009  1.00  0.00     0.173 A 
ATOM     73  C   UNL A   1      43.780  34.181  28.002  1.00  0.00     0.173 A 
ATOM     74  F   UNL A   1      47.277  33.225  28.204  1.00  0.00    -0.203 F 
ATOM     75  C   UNL A   1      46.283  35.291  27.717  1.00  0.00     0.198 A 
ATOM     76  C   UNL A   1      43.912  35.521  27.651  1.00  0.00     0.198 A 
ATOM     77  F   UNL A   1      42.531  33.788  28.283  1.00  0.00    -0.203 F 
ATOM     78  F   UNL A   1      47.501  35.849  27.671  1.00  0.00    -0.200 F 
ATOM     79  C   UNL A   1      45.163  36.083  27.531  1.00  0.00     0.200 A 
ATOM     80  F   UNL A   1      42.812  36.276  27.510  1.00  0.00    -0.200 F 
ATOM     81  F   UNL A   1      45.286  37.394  27.290  1.00  0.00    -0.200 F 
ENDBRANCH  57  71
BRANCH  58  82
ATOM     82  C   UNL A   1      36.756  31.617  30.489  1.00  0.00     0.064 A 
ATOM     83  C   UNL A   1      35.906  31.873  31.580  1.00  0.00     0.173 A 
ATOM     84  C   UNL A   1      36.400  32.208  29.263  1.00  0.00     0.173 A 
ATOM     85  F   UNL A   1      36.184  31.358  32.787  1.00  0.00    -0.203 F 
ATOM     86  C   UNL A   1      34.815  32.738  31.473  1.00  0.00     0.198 A 
ATOM     87  C   UNL A   1      35.304  33.066  29.155  1.00  0.00     0.198 A 
ATOM     88  F   UNL A   1      37.169  32.055  28.176  1.00  0.00    -0.203 F 
ATOM     89  F   UNL A   1      34.089  33.034  32.559  1.00  0.00    -0.200 F 
ATOM     90  C   UNL A   1      34.529  33.351  30.265  1.00  0.00     0.200 A 
ATOM     91  F   UNL A   1      35.050  33.676  27.990  1.00  0.00    -0.200 F 
ATOM     92  F   UNL A   1      33.537  34.250  30.181  1.00  0.00    -0.200 F 
ENDBRANCH  58  82
BRANCH  70  93
ATOM     93  C   UNL A   1      42.016  30.334  33.731  1.00  0.00     0.064 A 
ATOM     94  C   UNL A   1      41.695  28.993  33.471  1.00  0.00     0.173 A 
ATOM     95  C   UNL A   1      42.249  30.701  35.063  1.00  0.00     0.173 A 
ATOM     96  F   UNL A   1      41.525  28.557  32.215  1.00  0.00    -0.203 F 
ATOM     97  C   UNL A   1      41.582  28.068  34.508  1.00  0.00     0.198 A 
ATOM     98  C   UNL A   1      42.172  29.769  36.091  1.00  0.00     0.198 A 
ATOM     99  F   UNL A   1      42.592  31.964  35.360  1.00  0.00    -0.203 F 
ATOM    100  F   UNL A   1      41.260  26.793  34.242  1.00  0.00    -0.200 F 
ATOM    101  C   UNL A   1      41.829  28.456  35.816  1.00  0.00     0.200 A 
ATOM    102  F   UNL A   1      42.450  30.142  37.348  1.00  0.00    -0.200 F 
ATOM    103  F   UNL A   1      41.759  27.559  36.809  1.00  0.00    -0.200 F 
ENDBRANCH  70  93
ENDBRANCH  44  45
ENDBRANCH  37  39
ENDBRANCH  36  37
ENDBRANCH  35  36
ENDBRANCH  34  35
ENDBRANCH  33  34
ENDBRANCH  32  33
ENDBRANCH  31  32
ENDBRANCH  30  31
ENDBRANCH   1  30
TORSDOF 23
ENDMDL
MODEL 2
REMARK VINA RESULT:     -11.0      3.935      9.342
REMARK SMILES Cc1c(C(=O)OCCOCCOCCOCCOC(=O)c2ccc(-c3c4nc(c(-c5c(F)c(F)c(F)c(F)c5F)c5ccc([nH]5)c(-c5c(F)c(F)c(F)c(F)c5F)c5nc(c(-c6c(F)c(F)c(F)c(F)c6F)c6ccc3[nH]6)C=C5)C=C4)cc2)sc2ncnc(NCc3cn4c(n3)SCC4)c12
REMARK SMILES IDX 11 1 10 2 9 3 8 4 7 5 6 6 4 7 5 8 3 9 1 10 2 11 100 12 84 13
REMARK SMILES IDX 85 14 89 15 86 16 88 17 87 18 90 19 91 21 92 22 93 23 96 24
REMARK SMILES IDX 94 25 95 26 99 27 97 28 98 29 12 30 13 31 14 32 15 33 16 34
REMARK SMILES IDX 17 35 18 36 19 37 20 38 21 39 22 40 83 41 23 42 82 43 24 44
REMARK SMILES IDX 25 45 26 46 76 47 27 48 81 49 75 50 77 51 28 52 80 53 74 54
REMARK SMILES IDX 73 55 29 57 61 58 41 59 60 60 42 61 45 62 59 63 78 64 43 65
REMARK SMILES IDX 44 66 58 68 79 69 46 70 30 71 31 72 39 73 32 74 33 75 37 76
REMARK SMILES IDX 40 77 34 78 35 79 38 80 36 81 62 82 63 83 71 84 64 85 65 86
REMARK SMILES IDX 69 87 72 88 66 89 67 90 70 91 68 92 47 93 48 94 56 95 49 96
REMARK SMILES IDX 50 97 54 98 57 99 51 100 52 101 55 102 53 103
REMARK H PARENT 90 20 77 56 45 67
REMARK Flexibility Score: inf
ROOT
ATOM      1  C   UNL A   1      32.985  29.254  26.744  1.00  0.00     0.188 C 
ENDROOT
BRANCH   1   2
ATOM      2  C   UNL A   1      33.892  28.680  25.631  1.00  0.00     0.188 C 
BRANCH   2   3
ATOM      3  O   UNL A   1      33.392  28.848  24.317  1.00  0.00    -0.376 OA
BRANCH   3   4
ATOM      4  C   UNL A   1      34.250  28.578  23.230  1.00  0.00     0.202 C 
BRANCH   4   5
ATOM      5  C   UNL A   1      33.572  28.043  21.962  1.00  0.00     0.261 C 
BRANCH   5   6
ATOM      6  O   UNL A   1      33.567  26.613  21.841  1.00  0.00    -0.459 OA
BRANCH   6   7
ATOM      7  C   UNL A   1      32.365  26.013  21.657  1.00  0.00     0.348 C 
ATOM      8  O   UNL A   1      31.757  26.007  20.583  1.00  0.00    -0.245 OA
BRANCH   7   9
ATOM      9  C   UNL A   1      32.022  25.223  22.827  1.00  0.00     0.118 A 
ATOM     10  C   UNL A   1      32.858  23.003  21.981  1.00  0.00     0.047 C 
ATOM     11  C   UNL A   1      32.202  23.853  23.030  1.00  0.00    -0.012 A 
ATOM     12  C   UNL A   1      31.724  23.427  24.364  1.00  0.00     0.058 A 
ATOM     13  S   UNL A   1      31.348  25.999  24.176  1.00  0.00    -0.108 S 
ATOM     14  C   UNL A   1      31.236  24.544  25.042  1.00  0.00     0.129 A 
ATOM     15  C   UNL A   1      31.625  22.207  25.109  1.00  0.00     0.138 A 
ATOM     16  N   UNL A   1      30.702  24.595  26.272  1.00  0.00    -0.225 NA
ATOM     17  N   UNL A   1      31.047  22.246  26.334  1.00  0.00    -0.219 NA
ATOM     18  C   UNL A   1      30.631  23.404  26.846  1.00  0.00     0.225 A 
BRANCH  15  19
ATOM     19  N   UNL A   1      32.008  20.928  24.797  1.00  0.00    -0.364 N 
ATOM     20  H   UNL A   1      31.399  20.419  24.212  1.00  0.00     0.162 HD
BRANCH  19  21
ATOM     21  C   UNL A   1      33.189  20.249  25.227  1.00  0.00     0.172 C 
BRANCH  21  22
ATOM     22  C   UNL A   1      34.521  20.898  25.053  1.00  0.00     0.079 A 
ATOM     23  C   UNL A   1      35.735  20.225  24.963  1.00  0.00     0.113 A 
ATOM     24  N   UNL A   1      34.703  22.273  25.067  1.00  0.00    -0.226 NA
ATOM     25  N   UNL A   1      36.649  21.214  24.971  1.00  0.00    -0.325 N 
ATOM     26  C   UNL A   1      36.000  22.407  25.025  1.00  0.00     0.168 A 
ATOM     27  C   UNL A   1      38.067  21.218  25.254  1.00  0.00     0.135 C 
ATOM     28  S   UNL A   1      37.060  23.702  25.428  1.00  0.00    -0.086 SA
ATOM     29  C   UNL A   1      38.298  22.493  26.063  1.00  0.00     0.100 C 
ENDBRANCH  21  22
ENDBRANCH  19  21
ENDBRANCH  15  19
ENDBRANCH   7   9
ENDBRANCH   6   7
ENDBRANCH   5   6
ENDBRANCH   4   5
ENDBRANCH   3   4
ENDBRANCH   2   3
ENDBRANCH   1   2
BRANCH   1  30
ATOM     30  O   UNL A   1      33.066  30.615  27.154  1.00  0.00    -0.377 OA
BRANCH  30  31
ATOM     31  C   UNL A   1      34.195  31.079  27.883  1.00  0.00     0.188 C 
BRANCH  31  32
ATOM     32  C   UNL A   1      34.588  32.579  27.845  1.00  0.00     0.188 C 
BRANCH  32  33
ATOM     33  O   UNL A   1      33.503  33.487  27.950  1.00  0.00    -0.376 OA
BRANCH  33  34
ATOM     34  C   UNL A   1      33.482  34.540  28.893  1.00  0.00     0.202 C 
BRANCH  34  35
ATOM     35  C   UNL A   1      34.553  34.597  29.976  1.00  0.00     0.261 C 
BRANCH  35  36
ATOM     36  O   UNL A   1      34.251  35.478  31.035  1.00  0.00    -0.460 OA
BRANCH  36  37
ATOM     37  C   UNL A   1      33.757  34.888  32.129  1.00  0.00     0.338 C 
ATOM     38  O   UNL A   1      32.608  34.949  32.561  1.00  0.00    -0.246 OA
BRANCH  37  39
ATOM     39  C   UNL A   1      34.856  34.216  32.808  1.00  0.00     0.060 A 
ATOM     40  C   UNL A   1      36.067  34.904  32.857  1.00  0.00     0.016 A 
ATOM     41  C   UNL A   1      34.757  32.827  32.986  1.00  0.00     0.016 A 
ATOM     42  C   UNL A   1      37.211  34.156  32.772  1.00  0.00     0.010 A 
ATOM     43  C   UNL A   1      35.897  32.085  32.874  1.00  0.00     0.010 A 
ATOM     44  C   UNL A   1      37.086  32.766  32.656  1.00  0.00    -0.014 A 
BRANCH  44  45
ATOM     45  C   UNL A   1      38.272  32.020  32.328  1.00  0.00     0.031 A 
ATOM     46  C   UNL A   1      39.103  31.773  33.514  1.00  0.00     0.074 A 
ATOM     47  C   UNL A   1      38.519  31.587  31.080  1.00  0.00     0.049 A 
ATOM     48  N   UNL A   1      40.229  32.329  33.799  1.00  0.00    -0.248 NA
ATOM     49  C   UNL A   1      38.523  30.973  34.603  1.00  0.00     0.031 C 
ATOM     50  C   UNL A   1      37.603  31.561  29.935  1.00  0.00     0.029 A 
ATOM     51  N   UNL A   1      39.640  30.991  30.593  1.00  0.00    -0.354 N 
ATOM     52  C   UNL A   1      40.610  31.768  35.009  1.00  0.00     0.074 A 
ATOM     53  C   UNL A   1      39.448  31.119  35.553  1.00  0.00     0.031 C 
ATOM     54  C   UNL A   1      38.128  30.777  28.964  1.00  0.00     0.029 A 
ATOM     55  C   UNL A   1      39.469  30.380  29.358  1.00  0.00     0.049 A 
ATOM     56  H   UNL A   1      40.499  30.992  31.074  1.00  0.00     0.167 HD
ATOM     57  C   UNL A   1      41.927  31.603  35.291  1.00  0.00     0.037 A 
ATOM     58  C   UNL A   1      40.364  29.560  28.760  1.00  0.00     0.037 A 
ATOM     59  C   UNL A   1      42.752  32.388  34.413  1.00  0.00     0.049 A 
ATOM     60  C   UNL A   1      41.693  29.856  29.350  1.00  0.00     0.074 A 
ATOM     61  C   UNL A   1      43.135  33.708  34.318  1.00  0.00     0.029 A 
ATOM     62  N   UNL A   1      42.973  31.808  33.192  1.00  0.00    -0.354 N 
ATOM     63  N   UNL A   1      42.328  30.979  29.167  1.00  0.00    -0.248 NA
ATOM     64  C   UNL A   1      42.195  29.021  30.438  1.00  0.00     0.031 C 
ATOM     65  C   UNL A   1      43.470  33.932  32.949  1.00  0.00     0.029 A 
ATOM     66  C   UNL A   1      43.308  32.741  32.247  1.00  0.00     0.049 A 
ATOM     67  H   UNL A   1      42.900  30.843  33.015  1.00  0.00     0.167 HD
ATOM     68  C   UNL A   1      43.015  31.177  30.347  1.00  0.00     0.074 A 
ATOM     69  C   UNL A   1      43.048  29.879  31.004  1.00  0.00     0.031 C 
ATOM     70  C   UNL A   1      43.199  32.433  30.840  1.00  0.00     0.037 A 
BRANCH  57  71
ATOM     71  C   UNL A   1      42.470  30.390  35.999  1.00  0.00     0.064 A 
ATOM     72  C   UNL A   1      43.409  30.561  37.032  1.00  0.00     0.173 A 
ATOM     73  C   UNL A   1      42.333  29.071  35.510  1.00  0.00     0.173 A 
ATOM     74  F   UNL A   1      43.657  31.781  37.533  1.00  0.00    -0.203 F 
ATOM     75  C   UNL A   1      44.170  29.493  37.517  1.00  0.00     0.198 A 
ATOM     76  C   UNL A   1      43.048  28.000  36.037  1.00  0.00     0.198 A 
ATOM     77  F   UNL A   1      41.599  28.786  34.427  1.00  0.00    -0.203 F 
ATOM     78  F   UNL A   1      45.128  29.718  38.428  1.00  0.00    -0.200 F 
ATOM     79  C   UNL A   1      43.984  28.213  37.024  1.00  0.00     0.200 A 
ATOM     80  F   UNL A   1      42.875  26.774  35.519  1.00  0.00    -0.200 F 
ATOM     81  F   UNL A   1      44.738  27.197  37.460  1.00  0.00    -0.200 F 
ENDBRANCH  57  71
BRANCH  58  82
ATOM     82  C   UNL A   1      40.137  28.344  27.945  1.00  0.00     0.064 A 
ATOM     83  C   UNL A   1      40.829  28.171  26.732  1.00  0.00     0.173 A 
ATOM     84  C   UNL A   1      39.524  27.200  28.487  1.00  0.00     0.173 A 
ATOM     85  F   UNL A   1      41.454  29.210  26.158  1.00  0.00    -0.203 F 
ATOM     86  C   UNL A   1      40.971  26.914  26.142  1.00  0.00     0.198 A 
ATOM     87  C   UNL A   1      39.660  25.945  27.891  1.00  0.00     0.198 A 
ATOM     88  F   UNL A   1      38.876  27.255  29.659  1.00  0.00    -0.203 F 
ATOM     89  F   UNL A   1      41.721  26.775  25.040  1.00  0.00    -0.200 F 
ATOM     90  C   UNL A   1      40.406  25.798  26.734  1.00  0.00     0.200 A 
ATOM     91  F   UNL A   1      39.132  24.866  28.485  1.00  0.00    -0.200 F 
ATOM     92  F   UNL A   1      40.616  24.579  26.218  1.00  0.00    -0.200 F 
ENDBRANCH  58  82
BRANCH  70  93
ATOM     93  C   UNL A   1      43.115  33.566  29.867  1.00  0.00     0.064 A 
ATOM     94  C   UNL A   1      41.943  34.287  29.588  1.00  0.00     0.173 A 
ATOM     95  C   UNL A   1      44.299  33.981  29.244  1.00  0.00     0.173 A 
ATOM     96  F   UNL A   1      40.789  33.987  30.198  1.00  0.00    -0.203 F 
ATOM     97  C   UNL A   1      41.956  35.359  28.696  1.00  0.00     0.198 A 
ATOM     98  C   UNL A   1      44.316  35.072  28.384  1.00  0.00     0.198 A 
ATOM     99  F   UNL A   1      45.452  33.345  29.505  1.00  0.00    -0.203 F 
ATOM    100  F   UNL A   1      40.824  36.027  28.430  1.00  0.00    -0.200 F 
ATOM    101  C   UNL A   1      43.145  35.755  28.102  1.00  0.00     0.200 A 
ATOM    102  F   UNL A   1      45.475  35.474  27.844  1.00  0.00    -0.200 F 
ATOM    103  F   UNL A   1      43.166  36.809  27.275  1.00  0.00    -0.200 F 
ENDBRANCH  70  93
ENDBRANCH  44  45
ENDBRANCH  37  39
ENDBRANCH  36  37
ENDBRANCH  35  36
ENDBRANCH  34  35
ENDBRANCH  33  34
ENDBRANCH  32  33
ENDBRANCH  31  32
ENDBRANCH  30  31
ENDBRANCH   1  30
TORSDOF 23
ENDMDL
MODEL 3
REMARK VINA RESULT:     -10.9      3.843      9.589
REMARK SMILES Cc1c(C(=O)OCCOCCOCCOCCOC(=O)c2ccc(-c3c4nc(c(-c5c(F)c(F)c(F)c(F)c5F)c5ccc([nH]5)c(-c5c(F)c(F)c(F)c(F)c5F)c5nc(c(-c6c(F)c(F)c(F)c(F)c6F)c6ccc3[nH]6)C=C5)C=C4)cc2)sc2ncnc(NCc3cn4c(n3)SCC4)c12
REMARK SMILES IDX 11 1 10 2 9 3 8 4 7 5 6 6 4 7 5 8 3 9 1 10 2 11 100 12 84 13
REMARK SMILES IDX 85 14 89 15 86 16 88 17 87 18 90 19 91 21 92 22 93 23 96 24
REMARK SMILES IDX 94 25 95 26 99 27 97 28 98 29 12 30 13 31 14 32 15 33 16 34
REMARK SMILES IDX 17 35 18 36 19 37 20 38 21 39 22 40 83 41 23 42 82 43 24 44
REMARK SMILES IDX 25 45 26 46 76 47 27 48 81 49 75 50 77 51 28 52 80 53 74 54
REMARK SMILES IDX 73 55 29 57 61 58 41 59 60 60 42 61 45 62 59 63 78 64 43 65
REMARK SMILES IDX 44 66 58 68 79 69 46 70 30 71 31 72 39 73 32 74 33 75 37 76
REMARK SMILES IDX 40 77 34 78 35 79 38 80 36 81 62 82 63 83 71 84 64 85 65 86
REMARK SMILES IDX 69 87 72 88 66 89 67 90 70 91 68 92 47 93 48 94 56 95 49 96
REMARK SMILES IDX 50 97 54 98 57 99 51 100 52 101 55 102 53 103
REMARK H PARENT 90 20 77 56 45 67
REMARK Flexibility Score: inf
ROOT
ATOM      1  C   UNL A   1      30.256  27.362  23.591  1.00  0.00     0.188 C 
ENDROOT
BRANCH   1   2
ATOM      2  C   UNL A   1      29.696  25.975  23.982  1.00  0.00     0.188 C 
BRANCH   2   3
ATOM      3  O   UNL A   1      30.275  25.411  25.145  1.00  0.00    -0.376 OA
BRANCH   3   4
ATOM      4  C   UNL A   1      31.519  24.758  25.030  1.00  0.00     0.202 C 
BRANCH   4   5
ATOM      5  C   UNL A   1      32.278  24.531  26.344  1.00  0.00     0.261 C 
BRANCH   5   6
ATOM      6  O   UNL A   1      33.702  24.679  26.249  1.00  0.00    -0.459 OA
BRANCH   6   7
ATOM      7  C   UNL A   1      34.266  24.456  25.035  1.00  0.00     0.348 C 
ATOM      8  O   UNL A   1      34.379  25.320  24.161  1.00  0.00    -0.245 OA
BRANCH   7   9
ATOM      9  C   UNL A   1      34.886  23.143  25.011  1.00  0.00     0.118 A 
ATOM     10  C   UNL A   1      37.261  23.894  25.380  1.00  0.00     0.047 C 
ATOM     11  C   UNL A   1      36.239  22.821  25.143  1.00  0.00    -0.012 A 
ATOM     12  C   UNL A   1      36.467  21.361  25.069  1.00  0.00     0.058 A 
ATOM     13  S   UNL A   1      33.903  21.770  24.845  1.00  0.00    -0.108 S 
ATOM     14  C   UNL A   1      35.238  20.724  24.897  1.00  0.00     0.129 A 
ATOM     15  C   UNL A   1      37.583  20.464  25.113  1.00  0.00     0.138 A 
ATOM     16  N   UNL A   1      35.000  19.410  24.773  1.00  0.00    -0.225 NA
ATOM     17  N   UNL A   1      37.352  19.139  24.945  1.00  0.00    -0.219 NA
ATOM     18  C   UNL A   1      36.108  18.686  24.794  1.00  0.00     0.225 A 
BRANCH  15  19
ATOM     19  N   UNL A   1      38.923  20.701  25.285  1.00  0.00    -0.364 N 
ATOM     20  H   UNL A   1      39.359  21.262  24.603  1.00  0.00     0.162 HD
BRANCH  19  21
ATOM     21  C   UNL A   1      39.757  20.225  26.343  1.00  0.00     0.172 C 
BRANCH  21  22
ATOM     22  C   UNL A   1      41.237  20.185  26.158  1.00  0.00     0.079 A 
ATOM     23  C   UNL A   1      42.096  21.265  26.332  1.00  0.00     0.113 A 
ATOM     24  N   UNL A   1      41.912  19.071  25.683  1.00  0.00    -0.226 NA
ATOM     25  N   UNL A   1      43.286  20.797  25.909  1.00  0.00    -0.325 N 
ATOM     26  C   UNL A   1      43.137  19.496  25.543  1.00  0.00     0.168 A 
ATOM     27  C   UNL A   1      44.497  21.469  25.492  1.00  0.00     0.135 C 
ATOM     28  S   UNL A   1      44.483  18.924  24.634  1.00  0.00    -0.086 SA
ATOM     29  C   UNL A   1      44.997  20.662  24.296  1.00  0.00     0.100 C 
ENDBRANCH  21  22
ENDBRANCH  19  21
ENDBRANCH  15  19
ENDBRANCH   7   9
ENDBRANCH   6   7
ENDBRANCH   5   6
ENDBRANCH   4   5
ENDBRANCH   3   4
ENDBRANCH   2   3
ENDBRANCH   1   2
BRANCH   1  30
ATOM     30  O   UNL A   1      31.160  27.531  22.504  1.00  0.00    -0.377 OA
BRANCH  30  31
ATOM     31  C   UNL A   1      32.412  28.174  22.705  1.00  0.00     0.188 C 
BRANCH  31  32
ATOM     32  C   UNL A   1      32.982  28.345  24.137  1.00  0.00     0.188 C 
BRANCH  32  33
ATOM     33  O   UNL A   1      32.706  29.596  24.747  1.00  0.00    -0.376 OA
BRANCH  33  34
ATOM     34  C   UNL A   1      32.076  29.703  26.008  1.00  0.00     0.202 C 
BRANCH  34  35
ATOM     35  C   UNL A   1      31.803  31.082  26.597  1.00  0.00     0.261 C 
BRANCH  35  36
ATOM     36  O   UNL A   1      32.859  31.588  27.384  1.00  0.00    -0.460 OA
BRANCH  36  37
ATOM     37  C   UNL A   1      32.755  32.886  27.690  1.00  0.00     0.338 C 
ATOM     38  O   UNL A   1      31.878  33.672  27.339  1.00  0.00    -0.246 OA
BRANCH  37  39
ATOM     39  C   UNL A   1      33.938  33.259  28.453  1.00  0.00     0.060 A 
ATOM     40  C   UNL A   1      34.932  33.944  27.758  1.00  0.00     0.016 A 
ATOM     41  C   UNL A   1      34.176  32.577  29.657  1.00  0.00     0.016 A 
ATOM     42  C   UNL A   1      36.230  33.680  28.107  1.00  0.00     0.010 A 
ATOM     43  C   UNL A   1      35.470  32.293  29.986  1.00  0.00     0.010 A 
ATOM     44  C   UNL A   1      36.463  32.760  29.136  1.00  0.00    -0.014 A 
BRANCH  44  45
ATOM     45  C   UNL A   1      37.818  32.313  29.330  1.00  0.00     0.031 A 
ATOM     46  C   UNL A   1      37.970  30.887  29.015  1.00  0.00     0.074 A 
ATOM     47  C   UNL A   1      38.796  33.152  29.714  1.00  0.00     0.049 A 
ATOM     48  N   UNL A   1      38.143  29.923  29.852  1.00  0.00    -0.248 NA
ATOM     49  C   UNL A   1      37.696  30.456  27.635  1.00  0.00     0.031 C 
ATOM     50  C   UNL A   1      38.760  34.617  29.768  1.00  0.00     0.029 A 
ATOM     51  N   UNL A   1      40.079  32.860  30.059  1.00  0.00    -0.354 N 
ATOM     52  C   UNL A   1      38.228  28.780  29.070  1.00  0.00     0.074 A 
ATOM     53  C   UNL A   1      37.740  29.130  27.763  1.00  0.00     0.031 C 
ATOM     54  C   UNL A   1      40.022  35.087  29.903  1.00  0.00     0.029 A 
ATOM     55  C   UNL A   1      40.922  33.963  30.097  1.00  0.00     0.049 A 
ATOM     56  H   UNL A   1      40.383  31.947  30.265  1.00  0.00     0.167 HD
ATOM     57  C   UNL A   1      39.005  27.743  29.474  1.00  0.00     0.037 A 
ATOM     58  C   UNL A   1      42.269  33.913  30.218  1.00  0.00     0.037 A 
ATOM     59  C   UNL A   1      39.344  27.856  30.867  1.00  0.00     0.049 A 
ATOM     60  C   UNL A   1      42.608  32.602  30.823  1.00  0.00     0.074 A 
ATOM     61  C   UNL A   1      38.721  27.608  32.070  1.00  0.00     0.029 A 
ATOM     62  N   UNL A   1      40.395  28.699  31.117  1.00  0.00    -0.354 N 
ATOM     63  N   UNL A   1      42.305  32.275  32.049  1.00  0.00    -0.248 NA
ATOM     64  C   UNL A   1      43.004  31.494  29.958  1.00  0.00     0.031 C 
ATOM     65  C   UNL A   1      39.359  28.444  33.034  1.00  0.00     0.029 A 
ATOM     66  C   UNL A   1      40.371  29.163  32.405  1.00  0.00     0.049 A 
ATOM     67  H   UNL A   1      41.081  28.942  30.453  1.00  0.00     0.167 HD
ATOM     68  C   UNL A   1      42.073  30.916  31.990  1.00  0.00     0.074 A 
ATOM     69  C   UNL A   1      42.688  30.466  30.750  1.00  0.00     0.031 C 
ATOM     70  C   UNL A   1      41.120  30.341  32.775  1.00  0.00     0.037 A 
BRANCH  57  71
ATOM     71  C   UNL A   1      39.845  26.927  28.527  1.00  0.00     0.064 A 
ATOM     72  C   UNL A   1      39.690  25.530  28.501  1.00  0.00     0.173 A 
ATOM     73  C   UNL A   1      40.991  27.428  27.868  1.00  0.00     0.173 A 
ATOM     74  F   UNL A   1      38.665  24.946  29.142  1.00  0.00    -0.203 F 
ATOM     75  C   UNL A   1      40.628  24.698  27.884  1.00  0.00     0.198 A 
ATOM     76  C   UNL A   1      41.891  26.601  27.202  1.00  0.00     0.198 A 
ATOM     77  F   UNL A   1      41.353  28.714  27.946  1.00  0.00    -0.203 F 
ATOM     78  F   UNL A   1      40.498  23.367  27.973  1.00  0.00    -0.200 F 
ATOM     79  C   UNL A   1      41.724  25.235  27.229  1.00  0.00     0.200 A 
ATOM     80  F   UNL A   1      42.963  27.142  26.604  1.00  0.00    -0.200 F 
ATOM     81  F   UNL A   1      42.643  24.438  26.671  1.00  0.00    -0.200 F 
ENDBRANCH  57  71
BRANCH  58  82
ATOM     82  C   UNL A   1      43.308  34.762  29.590  1.00  0.00     0.064 A 
ATOM     83  C   UNL A   1      43.616  34.603  28.227  1.00  0.00     0.173 A 
ATOM     84  C   UNL A   1      43.758  35.946  30.202  1.00  0.00     0.173 A 
ATOM     85  F   UNL A   1      43.209  33.509  27.566  1.00  0.00    -0.203 F 
ATOM     86  C   UNL A   1      44.260  35.605  27.499  1.00  0.00     0.198 A 
ATOM     87  C   UNL A   1      44.410  36.944  29.475  1.00  0.00     0.198 A 
ATOM     88  F   UNL A   1      43.479  36.207  31.487  1.00  0.00    -0.203 F 
ATOM     89  F   UNL A   1      44.447  35.457  26.181  1.00  0.00    -0.200 F 
ATOM     90  C   UNL A   1      44.636  36.785  28.119  1.00  0.00     0.200 A 
ATOM     91  F   UNL A   1      44.746  38.093  30.077  1.00  0.00    -0.200 F 
ATOM     92  F   UNL A   1      45.174  37.783  27.404  1.00  0.00    -0.200 F 
ENDBRANCH  58  82
BRANCH  70  93
ATOM     93  C   UNL A   1      40.723  31.079  34.015  1.00  0.00     0.064 A 
ATOM     94  C   UNL A   1      41.470  31.095  35.203  1.00  0.00     0.173 A 
ATOM     95  C   UNL A   1      39.563  31.862  33.964  1.00  0.00     0.173 A 
ATOM     96  F   UNL A   1      42.624  30.422  35.299  1.00  0.00    -0.203 F 
ATOM     97  C   UNL A   1      41.051  31.841  36.303  1.00  0.00     0.198 A 
ATOM     98  C   UNL A   1      39.167  32.634  35.049  1.00  0.00     0.198 A 
ATOM     99  F   UNL A   1      38.832  31.907  32.838  1.00  0.00    -0.203 F 
ATOM    100  F   UNL A   1      41.769  31.833  37.436  1.00  0.00    -0.200 F 
ATOM    101  C   UNL A   1      39.904  32.617  36.222  1.00  0.00     0.200 A 
ATOM    102  F   UNL A   1      38.079  33.412  34.951  1.00  0.00    -0.200 F 
ATOM    103  F   UNL A   1      39.522  33.366  37.265  1.00  0.00    -0.200 F 
ENDBRANCH  70  93
ENDBRANCH  44  45
ENDBRANCH  37  39
ENDBRANCH  36  37
ENDBRANCH  35  36
ENDBRANCH  34  35
ENDBRANCH  33  34
ENDBRANCH  32  33
ENDBRANCH  31  32
ENDBRANCH  30  31
ENDBRANCH   1  30
TORSDOF 23
ENDMDL
