MODEL 1
REMARK VINA RESULT:      -6.0      0.000      0.000
REMARK SMILES CCC(CC)(NC(=O)NC[C@H](C)[NH+]1CCCCC1)C(=O)OCCOCCOCCOCCOC(=O)c1ccc(-c2c3nc(c(-c4c(F)c(F)c(F)c(F)c4F)c4ccc([nH]4)c(-c4c(F)c(F)c(F)c(F)c4F)c4nc(c(-c5c(F)c(F)c(F)c(F)c5F)c5ccc2[nH]5)C=C4)C=C3)cc1
REMARK SMILES IDX 26 1 25 2 24 3 23 4 22 5 21 6 19 7 20 8 3 9 2 10 1 11 4 12
REMARK SMILES IDX 5 13 6 14 7 15 8 17 9 18 10 20 11 21 12 22 13 23 14 24 18 25
REMARK SMILES IDX 15 27 17 28 16 29 27 30 28 31 29 32 30 33 31 34 32 35 33 36
REMARK SMILES IDX 34 37 35 38 36 39 37 40 98 41 38 42 97 43 39 44 40 45 41 46
REMARK SMILES IDX 91 47 42 48 96 49 90 50 92 51 43 52 95 53 89 54 88 55 44 57
REMARK SMILES IDX 76 58 56 59 75 60 57 61 60 62 74 63 93 64 58 65 59 66 73 68
REMARK SMILES IDX 94 69 61 70 45 71 46 72 54 73 47 74 48 75 52 76 55 77 49 78
REMARK SMILES IDX 50 79 53 80 51 81 77 82 78 83 86 84 79 85 80 86 84 87 87 88
REMARK SMILES IDX 81 89 82 90 85 91 83 92 62 93 63 94 71 95 64 96 65 97 69 98
REMARK SMILES IDX 72 99 66 100 67 101 70 102 68 103
REMARK H PARENT 6 16 9 19 13 26 92 56 60 67
REMARK Flexibility Score: inf
ROOT
ATOM      1  C   UNL A   1      43.349  23.293  25.120  1.00  0.00     0.188 C 
ENDROOT
BRANCH   1   2
ATOM      2  C   UNL A   1      43.281  23.505  26.642  1.00  0.00     0.188 C 
BRANCH   2   3
ATOM      3  O   UNL A   1      42.521  24.610  27.130  1.00  0.00    -0.376 OA
BRANCH   3   4
ATOM      4  C   UNL A   1      41.570  25.263  26.291  1.00  0.00     0.202 C 
BRANCH   4   5
ATOM      5  C   UNL A   1      40.395  25.986  26.954  1.00  0.00     0.261 C 
BRANCH   5   6
ATOM      6  O   UNL A   1      40.768  26.337  28.297  1.00  0.00    -0.461 OA
BRANCH   6   7
ATOM      7  C   UNL A   1      40.522  27.593  28.723  1.00  0.00     0.331 C 
ATOM      8  O   UNL A   1      39.403  28.093  28.667  1.00  0.00    -0.249 OA
BRANCH   7   9
ATOM      9  C   UNL A   1      41.773  28.256  29.416  1.00  0.00     0.139 C 
BRANCH   9  10
ATOM     10  C   UNL A   1      41.849  29.666  28.735  1.00  0.00     0.037 C 
ATOM     11  C   UNL A   1      42.032  30.865  29.654  1.00  0.00     0.007 C 
ENDBRANCH   9  10
BRANCH   9  12
ATOM     12  C   UNL A   1      43.003  27.362  29.106  1.00  0.00     0.037 C 
ATOM     13  C   UNL A   1      43.598  26.605  30.282  1.00  0.00     0.007 C 
ENDBRANCH   9  12
BRANCH   9  14
ATOM     14  N   UNL A   1      41.786  28.585  30.897  1.00  0.00    -0.322 N 
ATOM     15  C   UNL A   1      40.908  28.475  31.910  1.00  0.00     0.315 C 
ATOM     16  H   UNL A   1      42.644  28.975  31.186  1.00  0.00     0.166 HD
ATOM     17  O   UNL A   1      41.338  28.076  32.995  1.00  0.00    -0.249 OA
ATOM     18  N   UNL A   1      39.612  28.807  31.826  1.00  0.00    -0.332 N 
ATOM     19  H   UNL A   1      38.989  28.286  32.382  1.00  0.00     0.165 HD
BRANCH  18  20
ATOM     20  C   UNL A   1      39.032  29.842  31.011  1.00  0.00     0.182 C 
BRANCH  20  21
ATOM     21  C   UNL A   1      37.632  30.394  31.370  1.00  0.00     0.200 C 
ATOM     22  C   UNL A   1      36.552  29.731  30.507  1.00  0.00     0.077 C 
BRANCH  21  23
ATOM     23  N   UNL A   1      37.486  31.867  31.497  1.00  0.00    -0.331 N 
ATOM     24  C   UNL A   1      36.582  32.214  32.607  1.00  0.00     0.262 C 
ATOM     25  C   UNL A   1      38.759  32.590  31.566  1.00  0.00     0.262 C 
ATOM     26  H   UNL A   1      37.056  32.184  30.629  1.00  0.00     0.348 HD
ATOM     27  C   UNL A   1      36.395  33.707  32.870  1.00  0.00     0.062 C 
ATOM     28  C   UNL A   1      38.538  34.100  31.674  1.00  0.00     0.062 C 
ATOM     29  C   UNL A   1      37.728  34.436  32.919  1.00  0.00     0.012 C 
ENDBRANCH  21  23
ENDBRANCH  20  21
ENDBRANCH  18  20
ENDBRANCH   9  14
ENDBRANCH   7   9
ENDBRANCH   6   7
ENDBRANCH   5   6
ENDBRANCH   4   5
ENDBRANCH   3   4
ENDBRANCH   2   3
ENDBRANCH   1   2
BRANCH   1  30
ATOM     30  O   UNL A   1      44.390  23.912  24.398  1.00  0.00    -0.377 OA
BRANCH  30  31
ATOM     31  C   UNL A   1      45.187  24.844  25.103  1.00  0.00     0.188 C 
BRANCH  31  32
ATOM     32  C   UNL A   1      46.674  24.472  25.103  1.00  0.00     0.188 C 
BRANCH  32  33
ATOM     33  O   UNL A   1      47.531  24.925  24.055  1.00  0.00    -0.376 OA
BRANCH  33  34
ATOM     34  C   UNL A   1      47.998  26.267  24.077  1.00  0.00     0.202 C 
BRANCH  34  35
ATOM     35  C   UNL A   1      49.509  26.384  24.356  1.00  0.00     0.261 C 
BRANCH  35  36
ATOM     36  O   UNL A   1      49.869  26.731  25.707  1.00  0.00    -0.460 OA
BRANCH  36  37
ATOM     37  C   UNL A   1      49.778  28.049  26.007  1.00  0.00     0.338 C 
ATOM     38  O   UNL A   1      50.220  28.993  25.381  1.00  0.00    -0.246 OA
BRANCH  37  39
ATOM     39  C   UNL A   1      48.998  28.224  27.248  1.00  0.00     0.060 A 
ATOM     40  C   UNL A   1      47.640  27.881  27.250  1.00  0.00     0.016 A 
ATOM     41  C   UNL A   1      49.568  28.866  28.350  1.00  0.00     0.016 A 
ATOM     42  C   UNL A   1      46.832  28.233  28.333  1.00  0.00     0.010 A 
ATOM     43  C   UNL A   1      48.754  29.238  29.424  1.00  0.00     0.010 A 
ATOM     44  C   UNL A   1      47.373  28.967  29.397  1.00  0.00    -0.014 A 
BRANCH  44  45
ATOM     45  C   UNL A   1      46.463  29.641  30.357  1.00  0.00     0.031 A 
ATOM     46  C   UNL A   1      46.067  28.902  31.607  1.00  0.00     0.074 A 
ATOM     47  C   UNL A   1      46.026  30.894  30.145  1.00  0.00     0.049 A 
ATOM     48  N   UNL A   1      45.236  29.252  32.557  1.00  0.00    -0.248 NA
ATOM     49  C   UNL A   1      46.694  27.586  31.814  1.00  0.00     0.031 C 
ATOM     50  C   UNL A   1      46.390  31.734  29.008  1.00  0.00     0.029 A 
ATOM     51  N   UNL A   1      45.171  31.674  30.882  1.00  0.00    -0.354 N 
ATOM     52  C   UNL A   1      45.234  28.199  33.463  1.00  0.00     0.074 A 
ATOM     53  C   UNL A   1      46.125  27.187  32.942  1.00  0.00     0.031 C 
ATOM     54  C   UNL A   1      45.747  32.910  29.112  1.00  0.00     0.029 A 
ATOM     55  C   UNL A   1      44.897  32.888  30.303  1.00  0.00     0.049 A 
ATOM     56  H   UNL A   1      44.789  31.391  31.745  1.00  0.00     0.167 HD
ATOM     57  C   UNL A   1      44.553  28.090  34.629  1.00  0.00     0.037 A 
ATOM     58  C   UNL A   1      44.035  33.854  30.678  1.00  0.00     0.037 A 
ATOM     59  C   UNL A   1      43.670  29.101  35.146  1.00  0.00     0.049 A 
ATOM     60  C   UNL A   1      43.225  33.673  31.937  1.00  0.00     0.074 A 
ATOM     61  C   UNL A   1      42.940  29.092  36.321  1.00  0.00     0.029 A 
ATOM     62  N   UNL A   1      43.392  30.303  34.512  1.00  0.00    -0.354 N 
ATOM     63  N   UNL A   1      43.233  32.680  32.794  1.00  0.00    -0.248 NA
ATOM     64  C   UNL A   1      42.283  34.748  32.281  1.00  0.00     0.031 C 
ATOM     65  C   UNL A   1      42.177  30.262  36.371  1.00  0.00     0.029 A 
ATOM     66  C   UNL A   1      42.480  31.032  35.258  1.00  0.00     0.049 A 
ATOM     67  H   UNL A   1      43.784  30.595  33.657  1.00  0.00     0.167 HD
ATOM     68  C   UNL A   1      42.329  33.026  33.792  1.00  0.00     0.074 A 
ATOM     69  C   UNL A   1      41.799  34.325  33.440  1.00  0.00     0.031 C 
ATOM     70  C   UNL A   1      41.973  32.332  34.902  1.00  0.00     0.037 A 
BRANCH  57  71
ATOM     71  C   UNL A   1      44.709  26.816  35.409  1.00  0.00     0.064 A 
ATOM     72  C   UNL A   1      45.643  26.693  36.448  1.00  0.00     0.173 A 
ATOM     73  C   UNL A   1      43.883  25.714  35.136  1.00  0.00     0.173 A 
ATOM     74  F   UNL A   1      46.465  27.712  36.742  1.00  0.00    -0.203 F 
ATOM     75  C   UNL A   1      45.760  25.507  37.169  1.00  0.00     0.198 A 
ATOM     76  C   UNL A   1      43.983  24.541  35.878  1.00  0.00     0.198 A 
ATOM     77  F   UNL A   1      42.970  25.780  34.155  1.00  0.00    -0.203 F 
ATOM     78  F   UNL A   1      46.690  25.396  38.128  1.00  0.00    -0.200 F 
ATOM     79  C   UNL A   1      44.925  24.435  36.889  1.00  0.00     0.200 A 
ATOM     80  F   UNL A   1      43.165  23.513  35.616  1.00  0.00    -0.200 F 
ATOM     81  F   UNL A   1      45.033  23.298  37.591  1.00  0.00    -0.200 F 
ENDBRANCH  57  71
BRANCH  58  82
ATOM     82  C   UNL A   1      43.872  35.072  29.841  1.00  0.00     0.064 A 
ATOM     83  C   UNL A   1      43.084  35.057  28.681  1.00  0.00     0.173 A 
ATOM     84  C   UNL A   1      44.525  36.271  30.167  1.00  0.00     0.173 A 
ATOM     85  F   UNL A   1      42.462  33.928  28.310  1.00  0.00    -0.203 F 
ATOM     86  C   UNL A   1      42.974  36.184  27.869  1.00  0.00     0.198 A 
ATOM     87  C   UNL A   1      44.388  37.407  29.372  1.00  0.00     0.198 A 
ATOM     88  F   UNL A   1      45.294  36.341  31.264  1.00  0.00    -0.203 F 
ATOM     89  F   UNL A   1      42.258  36.125  26.737  1.00  0.00    -0.200 F 
ATOM     90  C   UNL A   1      43.620  37.360  28.218  1.00  0.00     0.200 A 
ATOM     91  F   UNL A   1      45.005  38.544  29.720  1.00  0.00    -0.200 F 
ATOM     92  F   UNL A   1      43.513  38.444  27.438  1.00  0.00    -0.200 F 
ENDBRANCH  58  82
BRANCH  70  93
ATOM     93  C   UNL A   1      41.002  32.983  35.846  1.00  0.00     0.064 A 
ATOM     94  C   UNL A   1      39.620  32.767  35.753  1.00  0.00     0.173 A 
ATOM     95  C   UNL A   1      41.471  33.797  36.889  1.00  0.00     0.173 A 
ATOM     96  F   UNL A   1      39.120  32.008  34.767  1.00  0.00    -0.203 F 
ATOM     97  C   UNL A   1      38.741  33.364  36.654  1.00  0.00     0.198 A 
ATOM     98  C   UNL A   1      40.592  34.365  37.808  1.00  0.00     0.198 A 
ATOM     99  F   UNL A   1      42.786  34.029  37.029  1.00  0.00    -0.203 F 
ATOM    100  F   UNL A   1      37.420  33.184  36.517  1.00  0.00    -0.200 F 
ATOM    101  C   UNL A   1      39.227  34.154  37.685  1.00  0.00     0.200 A 
ATOM    102  F   UNL A   1      41.066  35.113  38.813  1.00  0.00    -0.200 F 
ATOM    103  F   UNL A   1      38.381  34.719  38.556  1.00  0.00    -0.200 F 
ENDBRANCH  70  93
ENDBRANCH  44  45
ENDBRANCH  37  39
ENDBRANCH  36  37
ENDBRANCH  35  36
ENDBRANCH  34  35
ENDBRANCH  33  34
ENDBRANCH  32  33
ENDBRANCH  31  32
ENDBRANCH  30  31
ENDBRANCH   1  30
TORSDOF 26
ENDMDL
MODEL 2
REMARK VINA RESULT:      -5.8      5.308     12.264
REMARK SMILES CCC(CC)(NC(=O)NC[C@H](C)[NH+]1CCCCC1)C(=O)OCCOCCOCCOCCOC(=O)c1ccc(-c2c3nc(c(-c4c(F)c(F)c(F)c(F)c4F)c4ccc([nH]4)c(-c4c(F)c(F)c(F)c(F)c4F)c4nc(c(-c5c(F)c(F)c(F)c(F)c5F)c5ccc2[nH]5)C=C4)C=C3)cc1
REMARK SMILES IDX 26 1 25 2 24 3 23 4 22 5 21 6 19 7 20 8 3 9 2 10 1 11 4 12
REMARK SMILES IDX 5 13 6 14 7 15 8 17 9 18 10 20 11 21 12 22 13 23 14 24 18 25
REMARK SMILES IDX 15 27 17 28 16 29 27 30 28 31 29 32 30 33 31 34 32 35 33 36
REMARK SMILES IDX 34 37 35 38 36 39 37 40 98 41 38 42 97 43 39 44 40 45 41 46
REMARK SMILES IDX 91 47 42 48 96 49 90 50 92 51 43 52 95 53 89 54 88 55 44 57
REMARK SMILES IDX 76 58 56 59 75 60 57 61 60 62 74 63 93 64 58 65 59 66 73 68
REMARK SMILES IDX 94 69 61 70 45 71 46 72 54 73 47 74 48 75 52 76 55 77 49 78
REMARK SMILES IDX 50 79 53 80 51 81 77 82 78 83 86 84 79 85 80 86 84 87 87 88
REMARK SMILES IDX 81 89 82 90 85 91 83 92 62 93 63 94 71 95 64 96 65 97 69 98
REMARK SMILES IDX 72 99 66 100 67 101 70 102 68 103
REMARK H PARENT 6 16 9 19 13 26 92 56 60 67
REMARK Flexibility Score: inf
ROOT
ATOM      1  C   UNL A   1      34.826  32.444  31.143  1.00  0.00     0.188 C 
ENDROOT
BRANCH   1   2
ATOM      2  C   UNL A   1      35.861  31.760  30.235  1.00  0.00     0.188 C 
BRANCH   2   3
ATOM      3  O   UNL A   1      36.262  30.429  30.561  1.00  0.00    -0.376 OA
BRANCH   3   4
ATOM      4  C   UNL A   1      36.599  29.501  29.532  1.00  0.00     0.202 C 
BRANCH   4   5
ATOM      5  C   UNL A   1      36.400  29.930  28.076  1.00  0.00     0.261 C 
BRANCH   5   6
ATOM      6  O   UNL A   1      35.355  29.130  27.498  1.00  0.00    -0.461 OA
BRANCH   6   7
ATOM      7  C   UNL A   1      34.272  29.757  26.994  1.00  0.00     0.331 C 
ATOM      8  O   UNL A   1      34.090  30.961  27.139  1.00  0.00    -0.249 OA
BRANCH   7   9
ATOM      9  C   UNL A   1      33.384  28.810  26.098  1.00  0.00     0.139 C 
BRANCH   9  10
ATOM     10  C   UNL A   1      34.294  28.555  24.847  1.00  0.00     0.037 C 
ATOM     11  C   UNL A   1      33.777  29.060  23.507  1.00  0.00     0.007 C 
ENDBRANCH   9  10
BRANCH   9  12
ATOM     12  C   UNL A   1      32.082  29.582  25.758  1.00  0.00     0.037 C 
ATOM     13  C   UNL A   1      31.511  30.457  26.861  1.00  0.00     0.007 C 
ENDBRANCH   9  12
BRANCH   9  14
ATOM     14  N   UNL A   1      33.006  27.411  26.544  1.00  0.00    -0.322 N 
ATOM     15  C   UNL A   1      32.725  26.251  25.924  1.00  0.00     0.315 C 
ATOM     16  H   UNL A   1      32.951  27.333  27.525  1.00  0.00     0.166 HD
ATOM     17  O   UNL A   1      33.197  25.219  26.405  1.00  0.00    -0.249 OA
ATOM     18  N   UNL A   1      31.936  26.144  24.845  1.00  0.00    -0.332 N 
ATOM     19  H   UNL A   1      32.155  25.422  24.212  1.00  0.00     0.165 HD
BRANCH  18  20
ATOM     20  C   UNL A   1      30.804  26.968  24.511  1.00  0.00     0.182 C 
BRANCH  20  21
ATOM     21  C   UNL A   1      30.300  27.008  23.049  1.00  0.00     0.200 C 
ATOM     22  C   UNL A   1      31.448  26.719  22.074  1.00  0.00     0.077 C 
BRANCH  21  23
ATOM     23  N   UNL A   1      29.439  28.151  22.649  1.00  0.00    -0.331 N 
ATOM     24  C   UNL A   1      28.138  28.099  23.338  1.00  0.00     0.262 C 
ATOM     25  C   UNL A   1      30.087  29.461  22.776  1.00  0.00     0.262 C 
ATOM     26  H   UNL A   1      29.272  28.042  21.649  1.00  0.00     0.348 HD
ATOM     27  C   UNL A   1      27.185  29.256  23.046  1.00  0.00     0.062 C 
ATOM     28  C   UNL A   1      29.156  30.589  22.329  1.00  0.00     0.062 C 
ATOM     29  C   UNL A   1      27.885  30.600  23.167  1.00  0.00     0.012 C 
ENDBRANCH  21  23
ENDBRANCH  20  21
ENDBRANCH  18  20
ENDBRANCH   9  14
ENDBRANCH   7   9
ENDBRANCH   6   7
ENDBRANCH   5   6
ENDBRANCH   4   5
ENDBRANCH   3   4
ENDBRANCH   2   3
ENDBRANCH   1   2
BRANCH   1  30
ATOM     30  O   UNL A   1      34.062  33.506  30.616  1.00  0.00    -0.377 OA
BRANCH  30  31
ATOM     31  C   UNL A   1      34.450  34.815  30.987  1.00  0.00     0.188 C 
BRANCH  31  32
ATOM     32  C   UNL A   1      34.242  35.093  32.480  1.00  0.00     0.188 C 
BRANCH  32  33
ATOM     33  O   UNL A   1      35.365  35.278  33.342  1.00  0.00    -0.376 OA
BRANCH  33  34
ATOM     34  C   UNL A   1      35.617  34.323  34.363  1.00  0.00     0.202 C 
BRANCH  34  35
ATOM     35  C   UNL A   1      37.068  33.806  34.374  1.00  0.00     0.261 C 
BRANCH  35  36
ATOM     36  O   UNL A   1      38.033  34.644  33.710  1.00  0.00    -0.460 OA
BRANCH  36  37
ATOM     37  C   UNL A   1      38.325  34.287  32.435  1.00  0.00     0.338 C 
ATOM     38  O   UNL A   1      37.838  34.716  31.406  1.00  0.00    -0.246 OA
BRANCH  37  39
ATOM     39  C   UNL A   1      39.398  33.274  32.435  1.00  0.00     0.060 A 
ATOM     40  C   UNL A   1      40.521  33.474  33.249  1.00  0.00     0.016 A 
ATOM     41  C   UNL A   1      39.365  32.216  31.524  1.00  0.00     0.016 A 
ATOM     42  C   UNL A   1      41.640  32.651  33.112  1.00  0.00     0.010 A 
ATOM     43  C   UNL A   1      40.494  31.406  31.371  1.00  0.00     0.010 A 
ATOM     44  C   UNL A   1      41.653  31.652  32.130  1.00  0.00    -0.014 A 
BRANCH  44  45
ATOM     45  C   UNL A   1      42.943  31.025  31.743  1.00  0.00     0.031 A 
ATOM     46  C   UNL A   1      43.812  31.736  30.742  1.00  0.00     0.074 A 
ATOM     47  C   UNL A   1      43.351  29.869  32.293  1.00  0.00     0.049 A 
ATOM     48  N   UNL A   1      44.943  31.359  30.200  1.00  0.00    -0.248 NA
ATOM     49  C   UNL A   1      43.342  33.056  30.289  1.00  0.00     0.031 C 
ATOM     50  C   UNL A   1      42.630  29.121  33.319  1.00  0.00     0.029 A 
ATOM     51  N   UNL A   1      44.477  29.121  32.056  1.00  0.00    -0.354 N 
ATOM     52  C   UNL A   1      45.310  32.385  29.338  1.00  0.00     0.074 A 
ATOM     53  C   UNL A   1      44.273  33.391  29.409  1.00  0.00     0.031 C 
ATOM     54  C   UNL A   1      43.323  28.006  33.611  1.00  0.00     0.029 A 
ATOM     55  C   UNL A   1      44.515  27.946  32.765  1.00  0.00     0.049 A 
ATOM     56  H   UNL A   1      45.190  29.399  31.437  1.00  0.00     0.167 HD
ATOM     57  C   UNL A   1      46.415  32.481  28.562  1.00  0.00     0.037 A 
ATOM     58  C   UNL A   1      45.396  26.928  32.711  1.00  0.00     0.037 A 
ATOM     59  C   UNL A   1      47.446  31.480  28.497  1.00  0.00     0.049 A 
ATOM     60  C   UNL A   1      46.576  27.021  31.776  1.00  0.00     0.074 A 
ATOM     61  C   UNL A   1      48.610  31.485  27.750  1.00  0.00     0.029 A 
ATOM     62  N   UNL A   1      47.431  30.286  29.205  1.00  0.00    -0.354 N 
ATOM     63  N   UNL A   1      46.922  27.996  30.971  1.00  0.00    -0.248 NA
ATOM     64  C   UNL A   1      47.489  25.869  31.743  1.00  0.00     0.031 C 
ATOM     65  C   UNL A   1      49.271  30.271  27.961  1.00  0.00     0.029 A 
ATOM     66  C   UNL A   1      48.552  29.536  28.890  1.00  0.00     0.049 A 
ATOM     67  H   UNL A   1      46.727  30.013  29.837  1.00  0.00     0.167 HD
ATOM     68  C   UNL A   1      48.106  27.592  30.365  1.00  0.00     0.074 A 
ATOM     69  C   UNL A   1      48.424  26.287  30.903  1.00  0.00     0.031 C 
ATOM     70  C   UNL A   1      48.864  28.244  29.447  1.00  0.00     0.037 A 
BRANCH  57  71
ATOM     71  C   UNL A   1      46.551  33.698  27.691  1.00  0.00     0.064 A 
ATOM     72  C   UNL A   1      45.992  33.755  26.406  1.00  0.00     0.173 A 
ATOM     73  C   UNL A   1      47.218  34.837  28.168  1.00  0.00     0.173 A 
ATOM     74  F   UNL A   1      45.354  32.690  25.898  1.00  0.00    -0.203 F 
ATOM     75  C   UNL A   1      46.117  34.900  25.621  1.00  0.00     0.198 A 
ATOM     76  C   UNL A   1      47.315  35.989  27.393  1.00  0.00     0.198 A 
ATOM     77  F   UNL A   1      47.767  34.837  29.392  1.00  0.00    -0.203 F 
ATOM     78  F   UNL A   1      45.614  34.916  24.379  1.00  0.00    -0.200 F 
ATOM     79  C   UNL A   1      46.771  36.018  26.118  1.00  0.00     0.200 A 
ATOM     80  F   UNL A   1      47.934  37.073  27.880  1.00  0.00    -0.200 F 
ATOM     81  F   UNL A   1      46.881  37.121  25.365  1.00  0.00    -0.200 F 
ENDBRANCH  57  71
BRANCH  58  82
ATOM     82  C   UNL A   1      45.188  25.717  33.550  1.00  0.00     0.064 A 
ATOM     83  C   UNL A   1      44.457  24.619  33.072  1.00  0.00     0.173 A 
ATOM     84  C   UNL A   1      45.690  25.643  34.859  1.00  0.00     0.173 A 
ATOM     85  F   UNL A   1      43.932  24.651  31.839  1.00  0.00    -0.203 F 
ATOM     86  C   UNL A   1      44.218  23.507  33.877  1.00  0.00     0.198 A 
ATOM     87  C   UNL A   1      45.478  24.518  35.651  1.00  0.00     0.198 A 
ATOM     88  F   UNL A   1      46.392  26.667  35.367  1.00  0.00    -0.203 F 
ATOM     89  F   UNL A   1      43.470  22.496  33.414  1.00  0.00    -0.200 F 
ATOM     90  C   UNL A   1      44.734  23.454  35.163  1.00  0.00     0.200 A 
ATOM     91  F   UNL A   1      45.988  24.467  36.889  1.00  0.00    -0.200 F 
ATOM     92  F   UNL A   1      44.504  22.384  35.937  1.00  0.00    -0.200 F 
ENDBRANCH  58  82
BRANCH  70  93
ATOM     93  C   UNL A   1      50.138  27.584  29.004  1.00  0.00     0.064 A 
ATOM     94  C   UNL A   1      51.352  27.792  29.672  1.00  0.00     0.173 A 
ATOM     95  C   UNL A   1      50.130  26.690  27.921  1.00  0.00     0.173 A 
ATOM     96  F   UNL A   1      51.417  28.647  30.705  1.00  0.00    -0.203 F 
ATOM     97  C   UNL A   1      52.517  27.152  29.256  1.00  0.00     0.198 A 
ATOM     98  C   UNL A   1      51.289  26.026  27.529  1.00  0.00     0.198 A 
ATOM     99  F   UNL A   1      48.992  26.447  27.252  1.00  0.00    -0.203 F 
ATOM    100  F   UNL A   1      53.677  27.403  29.879  1.00  0.00    -0.200 F 
ATOM    101  C   UNL A   1      52.483  26.263  28.192  1.00  0.00     0.200 A 
ATOM    102  F   UNL A   1      51.249  25.155  26.512  1.00  0.00    -0.200 F 
ATOM    103  F   UNL A   1      53.602  25.640  27.800  1.00  0.00    -0.200 F 
ENDBRANCH  70  93
ENDBRANCH  44  45
ENDBRANCH  37  39
ENDBRANCH  36  37
ENDBRANCH  35  36
ENDBRANCH  34  35
ENDBRANCH  33  34
ENDBRANCH  32  33
ENDBRANCH  31  32
ENDBRANCH  30  31
ENDBRANCH   1  30
TORSDOF 26
ENDMDL
MODEL 3
REMARK VINA RESULT:      -5.7      1.405      3.845
REMARK SMILES CCC(CC)(NC(=O)NC[C@H](C)[NH+]1CCCCC1)C(=O)OCCOCCOCCOCCOC(=O)c1ccc(-c2c3nc(c(-c4c(F)c(F)c(F)c(F)c4F)c4ccc([nH]4)c(-c4c(F)c(F)c(F)c(F)c4F)c4nc(c(-c5c(F)c(F)c(F)c(F)c5F)c5ccc2[nH]5)C=C4)C=C3)cc1
REMARK SMILES IDX 26 1 25 2 24 3 23 4 22 5 21 6 19 7 20 8 3 9 2 10 1 11 4 12
REMARK SMILES IDX 5 13 6 14 7 15 8 17 9 18 10 20 11 21 12 22 13 23 14 24 18 25
REMARK SMILES IDX 15 27 17 28 16 29 27 30 28 31 29 32 30 33 31 34 32 35 33 36
REMARK SMILES IDX 34 37 35 38 36 39 37 40 98 41 38 42 97 43 39 44 40 45 41 46
REMARK SMILES IDX 91 47 42 48 96 49 90 50 92 51 43 52 95 53 89 54 88 55 44 57
REMARK SMILES IDX 76 58 56 59 75 60 57 61 60 62 74 63 93 64 58 65 59 66 73 68
REMARK SMILES IDX 94 69 61 70 45 71 46 72 54 73 47 74 48 75 52 76 55 77 49 78
REMARK SMILES IDX 50 79 53 80 51 81 77 82 78 83 86 84 79 85 80 86 84 87 87 88
REMARK SMILES IDX 81 89 82 90 85 91 83 92 62 93 63 94 71 95 64 96 65 97 69 98
REMARK SMILES IDX 72 99 66 100 67 101 70 102 68 103
REMARK H PARENT 6 16 9 19 13 26 92 56 60 67
REMARK Flexibility Score: inf
ROOT
ATOM      1  C   UNL A   1      43.534  26.401  28.275  1.00  0.00     0.188 C 
ENDROOT
BRANCH   1   2
ATOM      2  C   UNL A   1      43.088  26.600  29.733  1.00  0.00     0.188 C 
BRANCH   2   3
ATOM      3  O   UNL A   1      42.711  27.914  30.144  1.00  0.00    -0.376 OA
BRANCH   3   4
ATOM      4  C   UNL A   1      41.677  28.102  31.108  1.00  0.00     0.202 C 
BRANCH   4   5
ATOM      5  C   UNL A   1      41.600  29.448  31.834  1.00  0.00     0.261 C 
BRANCH   5   6
ATOM      6  O   UNL A   1      40.297  30.014  31.617  1.00  0.00    -0.461 OA
BRANCH   6   7
ATOM      7  C   UNL A   1      40.198  31.118  30.848  1.00  0.00     0.331 C 
ATOM      8  O   UNL A   1      41.178  31.638  30.324  1.00  0.00    -0.249 OA
BRANCH   7   9
ATOM      9  C   UNL A   1      38.702  31.549  30.592  1.00  0.00     0.139 C 
BRANCH   9  10
ATOM     10  C   UNL A   1      38.722  33.088  30.889  1.00  0.00     0.037 C 
ATOM     11  C   UNL A   1      38.907  33.505  32.341  1.00  0.00     0.007 C 
ENDBRANCH   9  10
BRANCH   9  12
ATOM     12  C   UNL A   1      37.814  30.748  31.580  1.00  0.00     0.037 C 
ATOM     13  C   UNL A   1      36.324  31.043  31.536  1.00  0.00     0.007 C 
ENDBRANCH   9  12
BRANCH   9  14
ATOM     14  N   UNL A   1      38.072  31.469  29.214  1.00  0.00    -0.322 N 
ATOM     15  C   UNL A   1      37.743  30.477  28.368  1.00  0.00     0.315 C 
ATOM     16  H   UNL A   1      37.852  32.358  28.852  1.00  0.00     0.166 HD
ATOM     17  O   UNL A   1      36.660  30.564  27.783  1.00  0.00    -0.249 OA
ATOM     18  N   UNL A   1      38.530  29.428  28.092  1.00  0.00    -0.332 N 
ATOM     19  H   UNL A   1      38.073  28.581  27.881  1.00  0.00     0.165 HD
BRANCH  18  20
ATOM     20  C   UNL A   1      39.969  29.404  28.068  1.00  0.00     0.182 C 
BRANCH  20  21
ATOM     21  C   UNL A   1      40.696  28.246  27.344  1.00  0.00     0.200 C 
ATOM     22  C   UNL A   1      41.295  28.729  26.018  1.00  0.00     0.077 C 
BRANCH  21  23
ATOM     23  N   UNL A   1      39.990  26.943  27.251  1.00  0.00    -0.331 N 
ATOM     24  C   UNL A   1      40.644  26.055  26.275  1.00  0.00     0.262 C 
ATOM     25  C   UNL A   1      39.771  26.287  28.544  1.00  0.00     0.262 C 
ATOM     26  H   UNL A   1      39.053  27.153  26.908  1.00  0.00     0.348 HD
ATOM     27  C   UNL A   1      40.036  24.662  26.131  1.00  0.00     0.062 C 
ATOM     28  C   UNL A   1      39.021  24.964  28.379  1.00  0.00     0.062 C 
ATOM     29  C   UNL A   1      39.803  24.011  27.486  1.00  0.00     0.012 C 
ENDBRANCH  21  23
ENDBRANCH  20  21
ENDBRANCH  18  20
ENDBRANCH   9  14
ENDBRANCH   7   9
ENDBRANCH   6   7
ENDBRANCH   5   6
ENDBRANCH   4   5
ENDBRANCH   3   4
ENDBRANCH   2   3
ENDBRANCH   1   2
BRANCH   1  30
ATOM     30  O   UNL A   1      43.657  25.086  27.780  1.00  0.00    -0.377 OA
BRANCH  30  31
ATOM     31  C   UNL A   1      44.866  24.765  27.119  1.00  0.00     0.188 C 
BRANCH  31  32
ATOM     32  C   UNL A   1      44.790  24.986  25.604  1.00  0.00     0.188 C 
BRANCH  32  33
ATOM     33  O   UNL A   1      45.980  24.988  24.815  1.00  0.00    -0.376 OA
BRANCH  33  34
ATOM     34  C   UNL A   1      47.239  24.901  25.467  1.00  0.00     0.202 C 
BRANCH  34  35
ATOM     35  C   UNL A   1      48.303  25.844  24.871  1.00  0.00     0.261 C 
BRANCH  35  36
ATOM     36  O   UNL A   1      47.938  27.235  24.809  1.00  0.00    -0.460 OA
BRANCH  36  37
ATOM     37  C   UNL A   1      48.659  28.056  25.610  1.00  0.00     0.338 C 
ATOM     38  O   UNL A   1      49.722  28.597  25.369  1.00  0.00    -0.246 OA
BRANCH  37  39
ATOM     39  C   UNL A   1      47.944  28.261  26.885  1.00  0.00     0.060 A 
ATOM     40  C   UNL A   1      46.542  28.244  26.887  1.00  0.00     0.016 A 
ATOM     41  C   UNL A   1      48.648  28.622  28.035  1.00  0.00     0.016 A 
ATOM     42  C   UNL A   1      45.840  28.644  28.025  1.00  0.00     0.010 A 
ATOM     43  C   UNL A   1      47.945  29.044  29.167  1.00  0.00     0.010 A 
ATOM     44  C   UNL A   1      46.539  29.105  29.149  1.00  0.00    -0.014 A 
BRANCH  44  45
ATOM     45  C   UNL A   1      45.813  29.855  30.204  1.00  0.00     0.031 A 
ATOM     46  C   UNL A   1      45.511  29.154  31.502  1.00  0.00     0.074 A 
ATOM     47  C   UNL A   1      45.458  31.139  30.032  1.00  0.00     0.049 A 
ATOM     48  N   UNL A   1      44.835  29.574  32.541  1.00  0.00    -0.248 NA
ATOM     49  C   UNL A   1      46.047  27.790  31.647  1.00  0.00     0.031 C 
ATOM     50  C   UNL A   1      45.750  31.944  28.849  1.00  0.00     0.029 A 
ATOM     51  N   UNL A   1      44.768  31.990  30.859  1.00  0.00    -0.354 N 
ATOM     52  C   UNL A   1      44.856  28.527  33.454  1.00  0.00     0.074 A 
ATOM     53  C   UNL A   1      45.590  27.442  32.840  1.00  0.00     0.031 C 
ATOM     54  C   UNL A   1      45.225  33.171  29.017  1.00  0.00     0.029 A 
ATOM     55  C   UNL A   1      44.528  33.222  30.302  1.00  0.00     0.049 A 
ATOM     56  H   UNL A   1      44.472  31.741  31.764  1.00  0.00     0.167 HD
ATOM     57  C   UNL A   1      44.316  28.477  34.694  1.00  0.00     0.037 A 
ATOM     58  C   UNL A   1      43.802  34.258  30.768  1.00  0.00     0.037 A 
ATOM     59  C   UNL A   1      43.589  29.559  35.303  1.00  0.00     0.049 A 
ATOM     60  C   UNL A   1      43.138  34.147  32.119  1.00  0.00     0.074 A 
ATOM     61  C   UNL A   1      43.011  29.613  36.558  1.00  0.00     0.029 A 
ATOM     62  N   UNL A   1      43.337  30.780  34.693  1.00  0.00    -0.354 N 
ATOM     63  N   UNL A   1      43.168  33.159  32.979  1.00  0.00    -0.248 NA
ATOM     64  C   UNL A   1      42.339  35.299  32.561  1.00  0.00     0.031 C 
ATOM     65  C   UNL A   1      42.359  30.844  36.687  1.00  0.00     0.029 A 
ATOM     66  C   UNL A   1      42.587  31.584  35.537  1.00  0.00     0.049 A 
ATOM     67  H   UNL A   1      43.645  31.036  33.794  1.00  0.00     0.167 HD
ATOM     68  C   UNL A   1      42.425  33.581  34.076  1.00  0.00     0.074 A 
ATOM     69  C   UNL A   1      41.966  34.920  33.775  1.00  0.00     0.031 C 
ATOM     70  C   UNL A   1      42.151  32.921  35.229  1.00  0.00     0.037 A 
BRANCH  57  71
ATOM     71  C   UNL A   1      44.459  27.195  35.465  1.00  0.00     0.064 A 
ATOM     72  C   UNL A   1      45.532  26.974  36.341  1.00  0.00     0.173 A 
ATOM     73  C   UNL A   1      43.485  26.191  35.353  1.00  0.00     0.173 A 
ATOM     74  F   UNL A   1      46.496  27.897  36.476  1.00  0.00    -0.203 F 
ATOM     75  C   UNL A   1      45.637  25.783  37.057  1.00  0.00     0.198 A 
ATOM     76  C   UNL A   1      43.578  25.016  36.093  1.00  0.00     0.198 A 
ATOM     77  F   UNL A   1      42.437  26.353  34.533  1.00  0.00    -0.203 F 
ATOM     78  F   UNL A   1      46.694  25.574  37.854  1.00  0.00    -0.200 F 
ATOM     79  C   UNL A   1      44.657  24.809  36.939  1.00  0.00     0.200 A 
ATOM     80  F   UNL A   1      42.622  24.083  35.989  1.00  0.00    -0.200 F 
ATOM     81  F   UNL A   1      44.755  23.669  37.637  1.00  0.00    -0.200 F 
ENDBRANCH  57  71
BRANCH  58  82
ATOM     82  C   UNL A   1      43.639  35.484  29.942  1.00  0.00     0.064 A 
ATOM     83  C   UNL A   1      44.552  36.545  30.030  1.00  0.00     0.173 A 
ATOM     84  C   UNL A   1      42.551  35.633  29.068  1.00  0.00     0.173 A 
ATOM     85  F   UNL A   1      45.593  36.464  30.871  1.00  0.00    -0.203 F 
ATOM     86  C   UNL A   1      44.370  37.715  29.294  1.00  0.00     0.198 A 
ATOM     87  C   UNL A   1      42.388  36.789  28.310  1.00  0.00     0.198 A 
ATOM     88  F   UNL A   1      41.646  34.650  28.948  1.00  0.00    -0.203 F 
ATOM     89  F   UNL A   1      45.227  38.735  29.439  1.00  0.00    -0.200 F 
ATOM     90  C   UNL A   1      43.292  37.834  28.430  1.00  0.00     0.200 A 
ATOM     91  F   UNL A   1      41.351  36.895  27.467  1.00  0.00    -0.200 F 
ATOM     92  F   UNL A   1      43.118  38.958  27.722  1.00  0.00    -0.200 F 
ENDBRANCH  58  82
BRANCH  70  93
ATOM     93  C   UNL A   1      41.360  33.654  36.276  1.00  0.00     0.064 A 
ATOM     94  C   UNL A   1      41.966  34.539  37.178  1.00  0.00     0.173 A 
ATOM     95  C   UNL A   1      39.966  33.501  36.343  1.00  0.00     0.173 A 
ATOM     96  F   UNL A   1      43.297  34.711  37.165  1.00  0.00    -0.203 F 
ATOM     97  C   UNL A   1      41.209  35.224  38.126  1.00  0.00     0.198 A 
ATOM     98  C   UNL A   1      39.208  34.212  37.269  1.00  0.00     0.198 A 
ATOM     99  F   UNL A   1      39.334  32.673  35.495  1.00  0.00    -0.203 F 
ATOM    100  F   UNL A   1      41.815  36.028  39.011  1.00  0.00    -0.200 F 
ATOM    101  C   UNL A   1      39.831  35.068  38.165  1.00  0.00     0.200 A 
ATOM    102  F   UNL A   1      37.877  34.073  37.293  1.00  0.00    -0.200 F 
ATOM    103  F   UNL A   1      39.105  35.735  39.071  1.00  0.00    -0.200 F 
ENDBRANCH  70  93
ENDBRANCH  44  45
ENDBRANCH  37  39
ENDBRANCH  36  37
ENDBRANCH  35  36
ENDBRANCH  34  35
ENDBRANCH  33  34
ENDBRANCH  32  33
ENDBRANCH  31  32
ENDBRANCH  30  31
ENDBRANCH   1  30
TORSDOF 26
ENDMDL
