MODEL 1
REMARK VINA RESULT:     -10.0      0.000      0.000
REMARK SMILES C[C@@H]1[NH2+]CC[C@H]1C(=O)NCc1cccc(C(=O)OCCOCCOCCOCCOC(=O)c2ccc(-c3c4nc(c(-c5c(F)c(F)c(F)c(F)c5F)c5ccc([nH]5)c(-c5c(F)c(F)c(F)c(F)c5F)c5nc(c(-c6c(F)c(F)c(F)c(F)c6F)c6ccc3[nH]6)C=C5)C=C4)cc2)c1
REMARK SMILES IDX 23 1 22 2 21 3 20 4 19 5 18 6 16 7 17 8 15 9 11 10 12 11
REMARK SMILES IDX 96 12 13 13 14 14 10 15 9 16 7 17 8 18 6 20 1 21 2 22 3 23
REMARK SMILES IDX 4 24 5 27 24 28 25 29 26 30 27 31 28 32 29 33 30 34 31 35
REMARK SMILES IDX 32 36 33 37 34 38 95 39 35 40 94 41 36 42 37 43 38 44 88 45
REMARK SMILES IDX 39 46 93 47 87 48 89 49 40 50 92 51 86 52 85 53 41 55 73 56
REMARK SMILES IDX 53 57 72 58 54 59 57 60 71 61 90 62 55 63 56 64 70 66 91 67
REMARK SMILES IDX 58 68 42 69 43 70 51 71 44 72 45 73 49 74 52 75 46 76 47 77
REMARK SMILES IDX 50 78 48 79 74 80 75 81 83 82 76 83 77 84 81 85 84 86 78 87
REMARK SMILES IDX 79 88 82 89 80 90 59 91 60 92 68 93 61 94 62 95 66 96 69 97
REMARK SMILES IDX 63 98 64 99 67 100 65 101
REMARK H PARENT 9 19 3 25 3 26 89 54 57 65
REMARK Flexibility Score: inf
ROOT
ATOM      1  C   UNL A   1      33.254  30.821  27.024  1.00  0.00     0.188 C 
ENDROOT
BRANCH   1   2
ATOM      2  C   UNL A   1      34.045  29.537  27.348  1.00  0.00     0.188 C 
BRANCH   2   3
ATOM      3  O   UNL A   1      34.256  28.703  26.218  1.00  0.00    -0.376 OA
BRANCH   3   4
ATOM      4  C   UNL A   1      33.297  28.721  25.179  1.00  0.00     0.202 C 
BRANCH   4   5
ATOM      5  C   UNL A   1      31.975  27.976  25.413  1.00  0.00     0.261 C 
BRANCH   5   6
ATOM      6  O   UNL A   1      31.506  27.186  24.314  1.00  0.00    -0.460 OA
BRANCH   6   7
ATOM      7  C   UNL A   1      30.377  26.462  24.492  1.00  0.00     0.338 C 
ATOM      8  O   UNL A   1      29.246  26.789  24.181  1.00  0.00    -0.246 OA
BRANCH   7   9
ATOM      9  C   UNL A   1      30.794  25.097  24.907  1.00  0.00     0.060 A 
ATOM     10  C   UNL A   1      31.721  22.910  24.354  1.00  0.00    -0.028 A 
ATOM     11  C   UNL A   1      31.262  22.434  25.594  1.00  0.00     0.005 A 
ATOM     12  C   UNL A   1      31.470  24.250  24.018  1.00  0.00     0.021 A 
ATOM     13  C   UNL A   1      30.595  23.280  26.485  1.00  0.00     0.001 A 
ATOM     14  C   UNL A   1      30.368  24.613  26.148  1.00  0.00     0.016 A 
BRANCH  10  15
ATOM     15  C   UNL A   1      32.402  21.952  23.404  1.00  0.00     0.151 C 
BRANCH  15  16
ATOM     16  N   UNL A   1      33.106  20.875  24.073  1.00  0.00    -0.352 N 
ATOM     17  C   UNL A   1      34.369  20.786  24.561  1.00  0.00     0.229 C 
ATOM     18  O   UNL A   1      34.732  19.680  24.975  1.00  0.00    -0.275 OA
ATOM     19  H   UNL A   1      32.569  20.059  24.195  1.00  0.00     0.163 HD
BRANCH  17  20
ATOM     20  C   UNL A   1      35.317  21.973  24.636  1.00  0.00     0.142 C 
ATOM     21  C   UNL A   1      34.717  24.123  25.840  1.00  0.00     0.076 C 
ATOM     22  C   UNL A   1      35.291  22.714  25.973  1.00  0.00     0.192 C 
ATOM     23  N   UNL A   1      36.683  22.797  26.451  1.00  0.00    -0.343 N 
ATOM     24  C   UNL A   1      37.559  22.496  25.319  1.00  0.00     0.261 C 
ATOM     25  H   UNL A   1      36.835  22.121  27.199  1.00  0.00     0.346 HD
ATOM     26  H   UNL A   1      36.881  23.728  26.818  1.00  0.00     0.346 HD
ATOM     27  C   UNL A   1      36.769  21.617  24.369  1.00  0.00     0.081 C 
ENDBRANCH  17  20
ENDBRANCH  15  16
ENDBRANCH  10  15
ENDBRANCH   7   9
ENDBRANCH   6   7
ENDBRANCH   5   6
ENDBRANCH   4   5
ENDBRANCH   3   4
ENDBRANCH   2   3
ENDBRANCH   1   2
BRANCH   1  28
ATOM     28  O   UNL A   1      33.634  32.032  27.662  1.00  0.00    -0.377 OA
BRANCH  28  29
ATOM     29  C   UNL A   1      34.761  32.043  28.537  1.00  0.00     0.188 C 
BRANCH  29  30
ATOM     30  C   UNL A   1      35.032  33.216  29.512  1.00  0.00     0.188 C 
BRANCH  30  31
ATOM     31  O   UNL A   1      34.562  34.479  29.072  1.00  0.00    -0.376 OA
BRANCH  31  32
ATOM     32  C   UNL A   1      33.207  34.799  29.335  1.00  0.00     0.202 C 
BRANCH  32  33
ATOM     33  C   UNL A   1      32.932  36.238  29.790  1.00  0.00     0.261 C 
BRANCH  33  34
ATOM     34  O   UNL A   1      33.224  36.526  31.167  1.00  0.00    -0.460 OA
BRANCH  34  35
ATOM     35  C   UNL A   1      32.805  35.635  32.091  1.00  0.00     0.338 C 
ATOM     36  O   UNL A   1      31.655  35.343  32.372  1.00  0.00    -0.246 OA
BRANCH  35  37
ATOM     37  C   UNL A   1      34.000  34.922  32.588  1.00  0.00     0.060 A 
ATOM     38  C   UNL A   1      35.256  35.537  32.495  1.00  0.00     0.016 A 
ATOM     39  C   UNL A   1      33.869  33.660  33.170  1.00  0.00     0.016 A 
ATOM     40  C   UNL A   1      36.391  34.878  32.970  1.00  0.00     0.010 A 
ATOM     41  C   UNL A   1      35.008  32.993  33.623  1.00  0.00     0.010 A 
ATOM     42  C   UNL A   1      36.277  33.587  33.503  1.00  0.00    -0.014 A 
BRANCH  42  43
ATOM     43  C   UNL A   1      37.492  32.779  33.766  1.00  0.00     0.031 A 
ATOM     44  C   UNL A   1      38.258  33.037  35.032  1.00  0.00     0.074 A 
ATOM     45  C   UNL A   1      37.911  31.839  32.901  1.00  0.00     0.049 A 
ATOM     46  N   UNL A   1      39.389  32.525  35.443  1.00  0.00    -0.248 NA
ATOM     47  C   UNL A   1      37.665  34.012  35.961  1.00  0.00     0.031 C 
ATOM     48  C   UNL A   1      37.232  31.466  31.664  1.00  0.00     0.029 A 
ATOM     49  N   UNL A   1      39.025  31.038  32.932  1.00  0.00    -0.354 N 
ATOM     50  C   UNL A   1      39.647  33.121  36.670  1.00  0.00     0.074 A 
ATOM     51  C   UNL A   1      38.572  34.055  36.925  1.00  0.00     0.031 C 
ATOM     52  C   UNL A   1      37.953  30.517  31.043  1.00  0.00     0.029 A 
ATOM     53  C   UNL A   1      39.162  30.245  31.819  1.00  0.00     0.049 A 
ATOM     54  H   UNL A   1      39.664  31.030  33.680  1.00  0.00     0.167 HD
ATOM     55  C   UNL A   1      40.685  32.902  37.514  1.00  0.00     0.037 A 
ATOM     56  C   UNL A   1      40.166  29.421  31.459  1.00  0.00     0.037 A 
ATOM     57  C   UNL A   1      41.757  31.979  37.252  1.00  0.00     0.049 A 
ATOM     58  C   UNL A   1      41.358  29.265  32.370  1.00  0.00     0.074 A 
ATOM     59  C   UNL A   1      42.844  31.671  38.050  1.00  0.00     0.029 A 
ATOM     60  N   UNL A   1      41.882  31.223  36.095  1.00  0.00    -0.354 N 
ATOM     61  N   UNL A   1      41.585  29.808  33.542  1.00  0.00    -0.248 NA
ATOM     62  C   UNL A   1      42.436  28.381  31.904  1.00  0.00     0.031 C 
ATOM     63  C   UNL A   1      43.662  30.778  37.348  1.00  0.00     0.029 A 
ATOM     64  C   UNL A   1      43.050  30.477  36.142  1.00  0.00     0.049 A 
ATOM     65  H   UNL A   1      41.238  31.217  35.351  1.00  0.00     0.167 HD
ATOM     66  C   UNL A   1      42.813  29.313  33.965  1.00  0.00     0.074 A 
ATOM     67  C   UNL A   1      43.275  28.411  32.930  1.00  0.00     0.031 C 
ATOM     68  C   UNL A   1      43.497  29.582  35.104  1.00  0.00     0.037 A 
BRANCH  55  69
ATOM     69  C   UNL A   1      40.727  33.707  38.780  1.00  0.00     0.064 A 
ATOM     70  C   UNL A   1      39.968  33.355  39.908  1.00  0.00     0.173 A 
ATOM     71  C   UNL A   1      41.553  34.836  38.874  1.00  0.00     0.173 A 
ATOM     72  F   UNL A   1      39.148  32.293  39.865  1.00  0.00    -0.203 F 
ATOM     73  C   UNL A   1      40.010  34.123  41.069  1.00  0.00     0.198 A 
ATOM     74  C   UNL A   1      41.620  35.582  40.049  1.00  0.00     0.198 A 
ATOM     75  F   UNL A   1      42.302  35.216  37.828  1.00  0.00    -0.203 F 
ATOM     76  F   UNL A   1      39.234  33.801  42.112  1.00  0.00    -0.200 F 
ATOM     77  C   UNL A   1      40.841  35.230  41.141  1.00  0.00     0.200 A 
ATOM     78  F   UNL A   1      42.434  36.644  40.121  1.00  0.00    -0.200 F 
ATOM     79  F   UNL A   1      40.886  35.965  42.261  1.00  0.00    -0.200 F 
ENDBRANCH  55  69
BRANCH  56  80
ATOM     80  C   UNL A   1      40.104  28.692  30.164  1.00  0.00     0.064 A 
ATOM     81  C   UNL A   1      39.502  27.429  30.072  1.00  0.00     0.173 A 
ATOM     82  C   UNL A   1      40.668  29.229  28.997  1.00  0.00     0.173 A 
ATOM     83  F   UNL A   1      38.976  26.858  31.166  1.00  0.00    -0.203 F 
ATOM     84  C   UNL A   1      39.483  26.725  28.870  1.00  0.00     0.198 A 
ATOM     85  C   UNL A   1      40.621  28.538  27.788  1.00  0.00     0.198 A 
ATOM     86  F   UNL A   1      41.264  30.430  29.031  1.00  0.00    -0.203 F 
ATOM     87  F   UNL A   1      38.948  25.497  28.824  1.00  0.00    -0.200 F 
ATOM     88  C   UNL A   1      40.036  27.282  27.727  1.00  0.00     0.200 A 
ATOM     89  F   UNL A   1      41.151  29.084  26.685  1.00  0.00    -0.200 F 
ATOM     90  F   UNL A   1      40.016  26.605  26.571  1.00  0.00    -0.200 F 
ENDBRANCH  56  80
BRANCH  68  91
ATOM     91  C   UNL A   1      44.806  28.870  35.313  1.00  0.00     0.064 A 
ATOM     92  C   UNL A   1      46.025  29.429  34.901  1.00  0.00     0.173 A 
ATOM     93  C   UNL A   1      44.843  27.631  35.973  1.00  0.00     0.173 A 
ATOM     94  F   UNL A   1      46.045  30.604  34.254  1.00  0.00    -0.203 F 
ATOM     95  C   UNL A   1      47.229  28.762  35.117  1.00  0.00     0.198 A 
ATOM     96  C   UNL A   1      46.052  26.984  36.219  1.00  0.00     0.198 A 
ATOM     97  F   UNL A   1      43.708  27.055  36.397  1.00  0.00    -0.203 F 
ATOM     98  F   UNL A   1      48.375  29.291  34.668  1.00  0.00    -0.200 F 
ATOM     99  C   UNL A   1      47.242  27.545  35.783  1.00  0.00     0.200 A 
ATOM    100  F   UNL A   1      46.064  25.818  36.879  1.00  0.00    -0.200 F 
ATOM    101  F   UNL A   1      48.402  26.910  35.999  1.00  0.00    -0.200 F 
ENDBRANCH  68  91
ENDBRANCH  42  43
ENDBRANCH  35  37
ENDBRANCH  34  35
ENDBRANCH  33  34
ENDBRANCH  32  33
ENDBRANCH  31  32
ENDBRANCH  30  31
ENDBRANCH  29  30
ENDBRANCH  28  29
ENDBRANCH   1  28
TORSDOF 23
ENDMDL
MODEL 2
REMARK VINA RESULT:      -9.8      0.965      2.080
REMARK SMILES C[C@@H]1[NH2+]CC[C@H]1C(=O)NCc1cccc(C(=O)OCCOCCOCCOCCOC(=O)c2ccc(-c3c4nc(c(-c5c(F)c(F)c(F)c(F)c5F)c5ccc([nH]5)c(-c5c(F)c(F)c(F)c(F)c5F)c5nc(c(-c6c(F)c(F)c(F)c(F)c6F)c6ccc3[nH]6)C=C5)C=C4)cc2)c1
REMARK SMILES IDX 23 1 22 2 21 3 20 4 19 5 18 6 16 7 17 8 15 9 11 10 12 11
REMARK SMILES IDX 96 12 13 13 14 14 10 15 9 16 7 17 8 18 6 20 1 21 2 22 3 23
REMARK SMILES IDX 4 24 5 27 24 28 25 29 26 30 27 31 28 32 29 33 30 34 31 35
REMARK SMILES IDX 32 36 33 37 34 38 95 39 35 40 94 41 36 42 37 43 38 44 88 45
REMARK SMILES IDX 39 46 93 47 87 48 89 49 40 50 92 51 86 52 85 53 41 55 73 56
REMARK SMILES IDX 53 57 72 58 54 59 57 60 71 61 90 62 55 63 56 64 70 66 91 67
REMARK SMILES IDX 58 68 42 69 43 70 51 71 44 72 45 73 49 74 52 75 46 76 47 77
REMARK SMILES IDX 50 78 48 79 74 80 75 81 83 82 76 83 77 84 81 85 84 86 78 87
REMARK SMILES IDX 79 88 82 89 80 90 59 91 60 92 68 93 61 94 62 95 66 96 69 97
REMARK SMILES IDX 63 98 64 99 67 100 65 101
REMARK H PARENT 9 19 3 25 3 26 89 54 57 65
REMARK Flexibility Score: inf
ROOT
ATOM      1  C   UNL A   1      33.613  30.828  27.132  1.00  0.00     0.188 C 
ENDROOT
BRANCH   1   2
ATOM      2  C   UNL A   1      34.455  29.631  27.621  1.00  0.00     0.188 C 
BRANCH   2   3
ATOM      3  O   UNL A   1      34.407  28.513  26.748  1.00  0.00    -0.376 OA
BRANCH   3   4
ATOM      4  C   UNL A   1      33.202  28.249  26.056  1.00  0.00     0.202 C 
BRANCH   4   5
ATOM      5  C   UNL A   1      32.114  27.454  26.792  1.00  0.00     0.261 C 
BRANCH   5   6
ATOM      6  O   UNL A   1      30.889  27.270  26.074  1.00  0.00    -0.460 OA
BRANCH   6   7
ATOM      7  C   UNL A   1      30.480  26.002  25.837  1.00  0.00     0.338 C 
ATOM      8  O   UNL A   1      29.695  25.353  26.504  1.00  0.00    -0.246 OA
BRANCH   7   9
ATOM      9  C   UNL A   1      30.969  25.631  24.483  1.00  0.00     0.060 A 
ATOM     10  C   UNL A   1      32.241  24.143  23.027  1.00  0.00    -0.028 A 
ATOM     11  C   UNL A   1      32.165  25.116  22.016  1.00  0.00     0.005 A 
ATOM     12  C   UNL A   1      31.641  24.420  24.266  1.00  0.00     0.021 A 
ATOM     13  C   UNL A   1      31.488  26.320  22.227  1.00  0.00     0.001 A 
ATOM     14  C   UNL A   1      30.881  26.576  23.455  1.00  0.00     0.016 A 
BRANCH  10  15
ATOM     15  C   UNL A   1      33.018  22.873  22.771  1.00  0.00     0.151 C 
BRANCH  15  16
ATOM     16  N   UNL A   1      34.403  22.946  23.195  1.00  0.00    -0.352 N 
ATOM     17  C   UNL A   1      35.062  22.376  24.235  1.00  0.00     0.229 C 
ATOM     18  O   UNL A   1      36.233  22.726  24.415  1.00  0.00    -0.275 OA
ATOM     19  H   UNL A   1      34.968  23.513  22.622  1.00  0.00     0.163 HD
BRANCH  17  20
ATOM     20  C   UNL A   1      34.434  21.332  25.145  1.00  0.00     0.142 C 
ATOM     21  C   UNL A   1      33.828  21.816  27.559  1.00  0.00     0.076 C 
ATOM     22  C   UNL A   1      33.378  21.886  26.101  1.00  0.00     0.192 C 
ATOM     23  N   UNL A   1      32.162  21.072  25.926  1.00  0.00    -0.343 N 
ATOM     24  C   UNL A   1      32.545  19.851  25.216  1.00  0.00     0.261 C 
ATOM     25  H   UNL A   1      31.472  21.590  25.382  1.00  0.00     0.346 HD
ATOM     26  H   UNL A   1      31.749  20.845  26.831  1.00  0.00     0.346 HD
ATOM     27  C   UNL A   1      33.779  20.182  24.400  1.00  0.00     0.081 C 
ENDBRANCH  17  20
ENDBRANCH  15  16
ENDBRANCH  10  15
ENDBRANCH   7   9
ENDBRANCH   6   7
ENDBRANCH   5   6
ENDBRANCH   4   5
ENDBRANCH   3   4
ENDBRANCH   2   3
ENDBRANCH   1   2
BRANCH   1  28
ATOM     28  O   UNL A   1      33.925  32.124  27.624  1.00  0.00    -0.377 OA
BRANCH  28  29
ATOM     29  C   UNL A   1      34.974  32.281  28.578  1.00  0.00     0.188 C 
BRANCH  29  30
ATOM     30  C   UNL A   1      35.088  33.541  29.473  1.00  0.00     0.188 C 
BRANCH  30  31
ATOM     31  O   UNL A   1      34.511  34.715  28.926  1.00  0.00    -0.376 OA
BRANCH  31  32
ATOM     32  C   UNL A   1      33.130  34.931  29.156  1.00  0.00     0.202 C 
BRANCH  32  33
ATOM     33  C   UNL A   1      32.749  36.303  29.724  1.00  0.00     0.261 C 
BRANCH  33  34
ATOM     34  O   UNL A   1      33.164  36.558  31.076  1.00  0.00    -0.460 OA
BRANCH  34  35
ATOM     35  C   UNL A   1      32.737  35.703  32.029  1.00  0.00     0.338 C 
ATOM     36  O   UNL A   1      31.584  35.433  32.321  1.00  0.00    -0.246 OA
BRANCH  35  37
ATOM     37  C   UNL A   1      33.924  34.995  32.550  1.00  0.00     0.060 A 
ATOM     38  C   UNL A   1      35.182  35.604  32.460  1.00  0.00     0.016 A 
ATOM     39  C   UNL A   1      33.783  33.742  33.151  1.00  0.00     0.016 A 
ATOM     40  C   UNL A   1      36.311  34.950  32.956  1.00  0.00     0.010 A 
ATOM     41  C   UNL A   1      34.916  33.079  33.626  1.00  0.00     0.010 A 
ATOM     42  C   UNL A   1      36.188  33.668  33.509  1.00  0.00    -0.014 A 
BRANCH  42  43
ATOM     43  C   UNL A   1      37.398  32.861  33.797  1.00  0.00     0.031 A 
ATOM     44  C   UNL A   1      38.145  33.129  35.073  1.00  0.00     0.074 A 
ATOM     45  C   UNL A   1      37.828  31.914  32.947  1.00  0.00     0.049 A 
ATOM     46  N   UNL A   1      39.269  32.619  35.504  1.00  0.00    -0.248 NA
ATOM     47  C   UNL A   1      37.540  34.113  35.984  1.00  0.00     0.031 C 
ATOM     48  C   UNL A   1      37.168  31.531  31.702  1.00  0.00     0.029 A 
ATOM     49  N   UNL A   1      38.941  31.111  33.001  1.00  0.00    -0.354 N 
ATOM     50  C   UNL A   1      39.510  33.225  36.731  1.00  0.00     0.074 A 
ATOM     51  C   UNL A   1      38.432  34.162  36.961  1.00  0.00     0.031 C 
ATOM     52  C   UNL A   1      37.897  30.575  31.100  1.00  0.00     0.029 A 
ATOM     53  C   UNL A   1      39.094  30.309  31.897  1.00  0.00     0.049 A 
ATOM     54  H   UNL A   1      39.569  31.110  33.759  1.00  0.00     0.167 HD
ATOM     55  C   UNL A   1      40.534  33.012  37.591  1.00  0.00     0.037 A 
ATOM     56  C   UNL A   1      40.102  29.481  31.559  1.00  0.00     0.037 A 
ATOM     57  C   UNL A   1      41.609  32.086  37.353  1.00  0.00     0.049 A 
ATOM     58  C   UNL A   1      41.280  29.332  32.489  1.00  0.00     0.074 A 
ATOM     59  C   UNL A   1      42.684  31.783  38.170  1.00  0.00     0.029 A 
ATOM     60  N   UNL A   1      41.751  31.319  36.205  1.00  0.00    -0.354 N 
ATOM     61  N   UNL A   1      41.490  29.884  33.660  1.00  0.00    -0.248 NA
ATOM     62  C   UNL A   1      42.364  28.442  32.047  1.00  0.00     0.031 C 
ATOM     63  C   UNL A   1      43.510  30.883  37.489  1.00  0.00     0.029 A 
ATOM     64  C   UNL A   1      42.916  30.573  36.276  1.00  0.00     0.049 A 
ATOM     65  H   UNL A   1      41.118  31.309  35.452  1.00  0.00     0.167 HD
ATOM     66  C   UNL A   1      42.711  29.391  34.105  1.00  0.00     0.074 A 
ATOM     67  C   UNL A   1      43.188  28.480  33.085  1.00  0.00     0.031 C 
ATOM     68  C   UNL A   1      43.378  29.668  35.253  1.00  0.00     0.037 A 
BRANCH  55  69
ATOM     69  C   UNL A   1      40.558  33.827  38.852  1.00  0.00     0.064 A 
ATOM     70  C   UNL A   1      41.321  35.001  38.961  1.00  0.00     0.173 A 
ATOM     71  C   UNL A   1      39.792  33.439  39.961  1.00  0.00     0.173 A 
ATOM     72  F   UNL A   1      42.084  35.407  37.935  1.00  0.00    -0.203 F 
ATOM     73  C   UNL A   1      41.341  35.736  40.143  1.00  0.00     0.198 A 
ATOM     74  C   UNL A   1      39.788  34.196  41.130  1.00  0.00     0.198 A 
ATOM     75  F   UNL A   1      39.043  32.328  39.911  1.00  0.00    -0.203 F 
ATOM     76  F   UNL A   1      42.121  36.821  40.243  1.00  0.00    -0.200 F 
ATOM     77  C   UNL A   1      40.569  35.337  41.224  1.00  0.00     0.200 A 
ATOM     78  F   UNL A   1      39.030  33.816  42.169  1.00  0.00    -0.200 F 
ATOM     79  F   UNL A   1      40.584  36.049  42.360  1.00  0.00    -0.200 F 
ENDBRANCH  55  69
BRANCH  56  80
ATOM     80  C   UNL A   1      40.058  28.741  30.269  1.00  0.00     0.064 A 
ATOM     81  C   UNL A   1      39.452  27.481  30.178  1.00  0.00     0.173 A 
ATOM     82  C   UNL A   1      40.645  29.265  29.108  1.00  0.00     0.173 A 
ATOM     83  F   UNL A   1      38.904  26.921  31.268  1.00  0.00    -0.203 F 
ATOM     84  C   UNL A   1      39.450  26.766  28.981  1.00  0.00     0.198 A 
ATOM     85  C   UNL A   1      40.616  28.564  27.904  1.00  0.00     0.198 A 
ATOM     86  F   UNL A   1      41.247  30.463  29.142  1.00  0.00    -0.203 F 
ATOM     87  F   UNL A   1      38.910  25.541  28.937  1.00  0.00    -0.200 F 
ATOM     88  C   UNL A   1      40.026  27.311  27.844  1.00  0.00     0.200 A 
ATOM     89  F   UNL A   1      41.167  29.098  26.805  1.00  0.00    -0.200 F 
ATOM     90  F   UNL A   1      40.022  26.624  26.693  1.00  0.00    -0.200 F 
ENDBRANCH  56  80
BRANCH  68  91
ATOM     91  C   UNL A   1      44.683  28.957  35.487  1.00  0.00     0.064 A 
ATOM     92  C   UNL A   1      44.738  27.702  36.112  1.00  0.00     0.173 A 
ATOM     93  C   UNL A   1      45.889  29.519  35.040  1.00  0.00     0.173 A 
ATOM     94  F   UNL A   1      43.617  27.126  36.571  1.00  0.00    -0.203 F 
ATOM     95  C   UNL A   1      45.954  27.051  36.307  1.00  0.00     0.198 A 
ATOM     96  C   UNL A   1      47.099  28.850  35.203  1.00  0.00     0.198 A 
ATOM     97  F   UNL A   1      45.893  30.713  34.427  1.00  0.00    -0.203 F 
ATOM     98  F   UNL A   1      45.988  25.878  36.953  1.00  0.00    -0.200 F 
ATOM     99  C   UNL A   1      47.132  27.621  35.845  1.00  0.00     0.200 A 
ATOM    100  F   UNL A   1      48.233  29.393  34.739  1.00  0.00    -0.200 F 
ATOM    101  F   UNL A   1      48.300  26.988  36.023  1.00  0.00    -0.200 F 
ENDBRANCH  68  91
ENDBRANCH  42  43
ENDBRANCH  35  37
ENDBRANCH  34  35
ENDBRANCH  33  34
ENDBRANCH  32  33
ENDBRANCH  31  32
ENDBRANCH  30  31
ENDBRANCH  29  30
ENDBRANCH  28  29
ENDBRANCH   1  28
TORSDOF 23
ENDMDL
MODEL 3
REMARK VINA RESULT:      -9.7      3.179      5.421
REMARK SMILES C[C@@H]1[NH2+]CC[C@H]1C(=O)NCc1cccc(C(=O)OCCOCCOCCOCCOC(=O)c2ccc(-c3c4nc(c(-c5c(F)c(F)c(F)c(F)c5F)c5ccc([nH]5)c(-c5c(F)c(F)c(F)c(F)c5F)c5nc(c(-c6c(F)c(F)c(F)c(F)c6F)c6ccc3[nH]6)C=C5)C=C4)cc2)c1
REMARK SMILES IDX 23 1 22 2 21 3 20 4 19 5 18 6 16 7 17 8 15 9 11 10 12 11
REMARK SMILES IDX 96 12 13 13 14 14 10 15 9 16 7 17 8 18 6 20 1 21 2 22 3 23
REMARK SMILES IDX 4 24 5 27 24 28 25 29 26 30 27 31 28 32 29 33 30 34 31 35
REMARK SMILES IDX 32 36 33 37 34 38 95 39 35 40 94 41 36 42 37 43 38 44 88 45
REMARK SMILES IDX 39 46 93 47 87 48 89 49 40 50 92 51 86 52 85 53 41 55 73 56
REMARK SMILES IDX 53 57 72 58 54 59 57 60 71 61 90 62 55 63 56 64 70 66 91 67
REMARK SMILES IDX 58 68 42 69 43 70 51 71 44 72 45 73 49 74 52 75 46 76 47 77
REMARK SMILES IDX 50 78 48 79 74 80 75 81 83 82 76 83 77 84 81 85 84 86 78 87
REMARK SMILES IDX 79 88 82 89 80 90 59 91 60 92 68 93 61 94 62 95 66 96 69 97
REMARK SMILES IDX 63 98 64 99 67 100 65 101
REMARK H PARENT 9 19 3 25 3 26 89 54 57 65
REMARK Flexibility Score: inf
ROOT
ATOM      1  C   UNL A   1      31.958  27.263  24.236  1.00  0.00     0.188 C 
ENDROOT
BRANCH   1   2
ATOM      2  C   UNL A   1      33.172  26.318  24.346  1.00  0.00     0.188 C 
BRANCH   2   3
ATOM      3  O   UNL A   1      33.115  25.452  25.470  1.00  0.00    -0.376 OA
BRANCH   3   4
ATOM      4  C   UNL A   1      33.271  24.062  25.259  1.00  0.00     0.202 C 
BRANCH   4   5
ATOM      5  C   UNL A   1      34.483  23.373  25.901  1.00  0.00     0.261 C 
BRANCH   5   6
ATOM      6  O   UNL A   1      35.585  23.114  25.023  1.00  0.00    -0.460 OA
BRANCH   6   7
ATOM      7  C   UNL A   1      36.834  23.329  25.496  1.00  0.00     0.338 C 
ATOM      8  O   UNL A   1      37.262  24.362  25.980  1.00  0.00    -0.246 OA
BRANCH   7   9
ATOM      9  C   UNL A   1      37.515  22.009  25.549  1.00  0.00     0.060 A 
ATOM     10  C   UNL A   1      39.502  20.671  26.008  1.00  0.00    -0.028 A 
ATOM     11  C   UNL A   1      38.900  19.597  25.330  1.00  0.00     0.005 A 
ATOM     12  C   UNL A   1      38.796  21.881  26.102  1.00  0.00     0.021 A 
ATOM     13  C   UNL A   1      37.619  19.720  24.785  1.00  0.00     0.001 A 
ATOM     14  C   UNL A   1      36.921  20.921  24.901  1.00  0.00     0.016 A 
BRANCH  10  15
ATOM     15  C   UNL A   1      40.904  20.509  26.546  1.00  0.00     0.151 C 
BRANCH  15  16
ATOM     16  N   UNL A   1      41.448  19.178  26.354  1.00  0.00    -0.352 N 
ATOM     17  C   UNL A   1      42.677  18.750  25.970  1.00  0.00     0.229 C 
ATOM     18  O   UNL A   1      42.812  17.538  25.773  1.00  0.00    -0.275 OA
ATOM     19  H   UNL A   1      40.808  18.453  26.535  1.00  0.00     0.163 HD
BRANCH  17  20
ATOM     20  C   UNL A   1      43.868  19.682  25.803  1.00  0.00     0.142 C 
ATOM     21  C   UNL A   1      46.225  18.828  25.425  1.00  0.00     0.076 C 
ATOM     22  C   UNL A   1      44.897  19.209  24.776  1.00  0.00     0.192 C 
ATOM     23  N   UNL A   1      45.115  20.322  23.835  1.00  0.00    -0.343 N 
ATOM     24  C   UNL A   1      44.577  21.535  24.450  1.00  0.00     0.261 C 
ATOM     25  H   UNL A   1      44.632  20.134  22.956  1.00  0.00     0.346 HD
ATOM     26  H   UNL A   1      46.109  20.432  23.635  1.00  0.00     0.346 HD
ATOM     27  C   UNL A   1      43.487  21.099  25.410  1.00  0.00     0.081 C 
ENDBRANCH  17  20
ENDBRANCH  15  16
ENDBRANCH  10  15
ENDBRANCH   7   9
ENDBRANCH   6   7
ENDBRANCH   5   6
ENDBRANCH   4   5
ENDBRANCH   3   4
ENDBRANCH   2   3
ENDBRANCH   1   2
BRANCH   1  28
ATOM     28  O   UNL A   1      32.061  28.568  24.787  1.00  0.00    -0.377 OA
BRANCH  28  29
ATOM     29  C   UNL A   1      32.229  28.726  26.195  1.00  0.00     0.188 C 
BRANCH  29  30
ATOM     30  C   UNL A   1      32.385  30.121  26.852  1.00  0.00     0.188 C 
BRANCH  30  31
ATOM     31  O   UNL A   1      31.810  31.192  26.121  1.00  0.00    -0.376 OA
BRANCH  31  32
ATOM     32  C   UNL A   1      31.228  32.249  26.863  1.00  0.00     0.202 C 
BRANCH  32  33
ATOM     33  C   UNL A   1      32.137  33.450  27.151  1.00  0.00     0.261 C 
BRANCH  33  34
ATOM     34  O   UNL A   1      33.547  33.172  27.188  1.00  0.00    -0.460 OA
BRANCH  34  35
ATOM     35  C   UNL A   1      34.315  33.960  27.970  1.00  0.00     0.338 C 
ATOM     36  O   UNL A   1      34.076  35.097  28.340  1.00  0.00    -0.246 OA
BRANCH  35  37
ATOM     37  C   UNL A   1      35.433  33.132  28.466  1.00  0.00     0.060 A 
ATOM     38  C   UNL A   1      35.207  31.783  28.770  1.00  0.00     0.016 A 
ATOM     39  C   UNL A   1      36.707  33.686  28.602  1.00  0.00     0.016 A 
ATOM     40  C   UNL A   1      36.258  30.987  29.231  1.00  0.00     0.010 A 
ATOM     41  C   UNL A   1      37.751  32.895  29.085  1.00  0.00     0.010 A 
ATOM     42  C   UNL A   1      37.526  31.549  29.425  1.00  0.00    -0.014 A 
BRANCH  42  43
ATOM     43  C   UNL A   1      38.573  30.792  30.153  1.00  0.00     0.031 A 
ATOM     44  C   UNL A   1      38.797  31.105  31.605  1.00  0.00     0.074 A 
ATOM     45  C   UNL A   1      39.312  29.851  29.541  1.00  0.00     0.049 A 
ATOM     46  N   UNL A   1      39.704  30.644  32.428  1.00  0.00    -0.248 NA
ATOM     47  C   UNL A   1      37.873  32.077  32.210  1.00  0.00     0.031 C 
ATOM     48  C   UNL A   1      39.160  29.427  28.152  1.00  0.00     0.029 A 
ATOM     49  N   UNL A   1      40.352  29.092  30.016  1.00  0.00    -0.354 N 
ATOM     50  C   UNL A   1      39.463  31.274  33.642  1.00  0.00     0.074 A 
ATOM     51  C   UNL A   1      38.347  32.173  33.441  1.00  0.00     0.031 C 
ATOM     52  C   UNL A   1      40.087  28.492  27.880  1.00  0.00     0.029 A 
ATOM     53  C   UNL A   1      40.920  28.282  29.063  1.00  0.00     0.049 A 
ATOM     54  H   UNL A   1      40.663  29.124  30.950  1.00  0.00     0.167 HD
ATOM     55  C   UNL A   1      40.111  31.112  34.820  1.00  0.00     0.037 A 
ATOM     56  C   UNL A   1      42.007  27.488  29.136  1.00  0.00     0.037 A 
ATOM     57  C   UNL A   1      41.227  30.224  35.012  1.00  0.00     0.049 A 
ATOM     58  C   UNL A   1      42.772  27.396  30.432  1.00  0.00     0.074 A 
ATOM     59  C   UNL A   1      41.941  29.973  36.171  1.00  0.00     0.029 A 
ATOM     60  N   UNL A   1      41.800  29.449  34.013  1.00  0.00    -0.354 N 
ATOM     61  N   UNL A   1      42.525  27.972  31.585  1.00  0.00    -0.248 NA
ATOM     62  C   UNL A   1      43.969  26.543  30.437  1.00  0.00     0.031 C 
ATOM     63  C   UNL A   1      42.986  29.097  35.859  1.00  0.00     0.029 A 
ATOM     64  C   UNL A   1      42.883  28.748  34.521  1.00  0.00     0.049 A 
ATOM     65  H   UNL A   1      41.484  29.404  33.083  1.00  0.00     0.167 HD
ATOM     66  C   UNL A   1      43.516  27.531  32.455  1.00  0.00     0.074 A 
ATOM     67  C   UNL A   1      44.358  26.625  31.702  1.00  0.00     0.031 C 
ATOM     68  C   UNL A   1      43.712  27.849  33.759  1.00  0.00     0.037 A 
BRANCH  55  69
ATOM     69  C   UNL A   1      39.651  31.944  35.982  1.00  0.00     0.064 A 
ATOM     70  C   UNL A   1      40.282  33.150  36.326  1.00  0.00     0.173 A 
ATOM     71  C   UNL A   1      38.551  31.539  36.752  1.00  0.00     0.173 A 
ATOM     72  F   UNL A   1      41.349  33.575  35.632  1.00  0.00    -0.203 F 
ATOM     73  C   UNL A   1      39.850  33.900  37.416  1.00  0.00     0.198 A 
ATOM     74  C   UNL A   1      38.099  32.310  37.820  1.00  0.00     0.198 A 
ATOM     75  F   UNL A   1      37.910  30.396  36.467  1.00  0.00    -0.203 F 
ATOM     76  F   UNL A   1      40.502  35.019  37.760  1.00  0.00    -0.200 F 
ATOM     77  C   UNL A   1      38.754  33.484  38.157  1.00  0.00     0.200 A 
ATOM     78  F   UNL A   1      37.032  31.911  38.527  1.00  0.00    -0.200 F 
ATOM     79  F   UNL A   1      38.334  34.210  39.203  1.00  0.00    -0.200 F 
ENDBRANCH  55  69
BRANCH  56  80
ATOM     80  C   UNL A   1      42.458  26.730  27.937  1.00  0.00     0.064 A 
ATOM     81  C   UNL A   1      43.456  27.237  27.094  1.00  0.00     0.173 A 
ATOM     82  C   UNL A   1      41.882  25.497  27.596  1.00  0.00     0.173 A 
ATOM     83  F   UNL A   1      44.015  28.427  27.359  1.00  0.00    -0.203 F 
ATOM     84  C   UNL A   1      43.847  26.549  25.946  1.00  0.00     0.198 A 
ATOM     85  C   UNL A   1      42.295  24.795  26.465  1.00  0.00     0.198 A 
ATOM     86  F   UNL A   1      40.917  24.971  28.364  1.00  0.00    -0.203 F 
ATOM     87  F   UNL A   1      44.765  27.083  25.129  1.00  0.00    -0.200 F 
ATOM     88  C   UNL A   1      43.272  25.326  25.636  1.00  0.00     0.200 A 
ATOM     89  F   UNL A   1      41.742  23.610  26.174  1.00  0.00    -0.200 F 
ATOM     90  F   UNL A   1      43.650  24.666  24.534  1.00  0.00    -0.200 F 
ENDBRANCH  56  80
BRANCH  68  91
ATOM     91  C   UNL A   1      44.863  27.191  34.468  1.00  0.00     0.064 A 
ATOM     92  C   UNL A   1      44.741  25.924  35.059  1.00  0.00     0.173 A 
ATOM     93  C   UNL A   1      46.118  27.818  34.519  1.00  0.00     0.173 A 
ATOM     94  F   UNL A   1      43.561  25.286  35.051  1.00  0.00    -0.203 F 
ATOM     95  C   UNL A   1      45.823  25.323  35.698  1.00  0.00     0.198 A 
ATOM     96  C   UNL A   1      47.208  27.199  35.128  1.00  0.00     0.198 A 
ATOM     97  F   UNL A   1      46.295  29.026  33.963  1.00  0.00    -0.203 F 
ATOM     98  F   UNL A   1      45.668  24.136  36.300  1.00  0.00    -0.200 F 
ATOM     99  C   UNL A   1      47.057  25.957  35.725  1.00  0.00     0.200 A 
ATOM    100  F   UNL A   1      48.403  27.805  35.135  1.00  0.00    -0.200 F 
ATOM    101  F   UNL A   1      48.100  25.372  36.331  1.00  0.00    -0.200 F 
ENDBRANCH  68  91
ENDBRANCH  42  43
ENDBRANCH  35  37
ENDBRANCH  34  35
ENDBRANCH  33  34
ENDBRANCH  32  33
ENDBRANCH  31  32
ENDBRANCH  30  31
ENDBRANCH  29  30
ENDBRANCH  28  29
ENDBRANCH   1  28
TORSDOF 23
ENDMDL
