MODEL 1
REMARK VINA RESULT:      -8.5      0.000      0.000
REMARK SMILES C[C@@H](C(=O)OCCOCCOCCOCCOC(=O)c1ccc(-c2c3nc(c(-c4c(F)c(F)c(F)c(F)c4F)c4ccc([nH]4)c(-c4c(F)c(F)c(F)c(F)c4F)c4nc(c(-c5c(F)c(F)c(F)c(F)c5F)c5ccc2[nH]5)C=C4)C=C3)cc1)c1ccc(-c2cccc(OC(=O)NCCCc3ccccc3)c2)c(F)c1
REMARK SMILES IDX 8 1 7 2 6 3 5 4 3 5 4 6 2 7 1 8 83 9 84 10 108 11 85 12
REMARK SMILES IDX 106 13 86 14 107 15 87 16 88 17 105 18 89 19 91 20 90 21
REMARK SMILES IDX 92 22 93 23 94 24 95 25 96 27 97 28 98 29 99 30 100 31
REMARK SMILES IDX 104 32 101 33 103 34 102 35 9 36 10 37 11 38 12 39 13 40
REMARK SMILES IDX 14 41 15 42 16 43 17 44 18 45 19 46 20 47 21 48 82 49 22 50
REMARK SMILES IDX 81 51 23 52 24 53 25 54 75 55 26 56 80 57 74 58 76 59 27 60
REMARK SMILES IDX 79 61 73 62 72 63 28 65 60 66 40 67 59 68 41 69 44 70 58 71
REMARK SMILES IDX 77 72 42 73 43 74 57 76 78 77 45 78 29 79 30 80 38 81 31 82
REMARK SMILES IDX 32 83 36 84 39 85 33 86 34 87 37 88 35 89 61 90 62 91 70 92
REMARK SMILES IDX 63 93 64 94 68 95 71 96 65 97 66 98 69 99 67 100 46 101
REMARK SMILES IDX 47 102 55 103 48 104 49 105 53 106 56 107 50 108 51 109
REMARK SMILES IDX 54 110 52 111
REMARK H PARENT 95 26 76 64 44 75
REMARK Flexibility Score: inf
ROOT
ATOM      1  O   UNL A   1      34.377  29.462  27.635  1.00  0.00    -0.376 OA
ENDROOT
BRANCH   1   2
ATOM      2  C   UNL A   1      33.957  28.494  26.688  1.00  0.00     0.202 C 
BRANCH   2   3
ATOM      3  C   UNL A   1      32.905  28.817  25.610  1.00  0.00     0.261 C 
BRANCH   3   4
ATOM      4  O   UNL A   1      31.665  28.089  25.671  1.00  0.00    -0.463 OA
BRANCH   4   5
ATOM      5  C   UNL A   1      31.265  27.493  24.521  1.00  0.00     0.313 C 
ATOM      6  O   UNL A   1      31.248  28.061  23.432  1.00  0.00    -0.252 OA
BRANCH   5   7
ATOM      7  C   UNL A   1      30.849  26.017  24.681  1.00  0.00     0.126 C 
ATOM      8  C   UNL A   1      29.738  25.661  25.680  1.00  0.00     0.025 C 
BRANCH   7   9
ATOM      9  C   UNL A   1      32.099  25.148  24.795  1.00  0.00    -0.031 A 
ATOM     10  C   UNL A   1      33.092  25.278  23.814  1.00  0.00     0.005 A 
ATOM     11  C   UNL A   1      32.372  24.324  25.896  1.00  0.00     0.044 A 
ATOM     12  C   UNL A   1      34.313  24.609  23.926  1.00  0.00     0.012 A 
ATOM     13  C   UNL A   1      33.605  23.684  26.017  1.00  0.00     0.131 A 
ATOM     14  C   UNL A   1      34.593  23.793  25.031  1.00  0.00     0.018 A 
ATOM     15  F   UNL A   1      33.821  22.949  27.120  1.00  0.00    -0.206 F 
BRANCH  14  16
ATOM     16  C   UNL A   1      35.830  23.003  25.077  1.00  0.00    -0.012 A 
ATOM     17  C   UNL A   1      35.918  21.703  24.554  1.00  0.00     0.009 A 
ATOM     18  C   UNL A   1      36.947  23.529  25.742  1.00  0.00     0.056 A 
ATOM     19  C   UNL A   1      37.079  20.942  24.723  1.00  0.00     0.004 A 
ATOM     20  C   UNL A   1      38.093  22.769  25.922  1.00  0.00     0.133 A 
ATOM     21  C   UNL A   1      38.165  21.472  25.416  1.00  0.00     0.047 A 
BRANCH  20  22
ATOM     22  O   UNL A   1      39.238  23.230  26.610  1.00  0.00    -0.410 OA
BRANCH  22  23
ATOM     23  C   UNL A   1      40.492  22.623  26.604  1.00  0.00     0.412 C 
ATOM     24  O   UNL A   1      40.745  21.445  26.387  1.00  0.00    -0.224 OA
ATOM     25  N   UNL A   1      41.507  23.502  26.856  1.00  0.00    -0.321 N 
ATOM     26  H   UNL A   1      42.409  23.128  26.974  1.00  0.00     0.167 HD
BRANCH  25  27
ATOM     27  C   UNL A   1      41.365  24.932  26.965  1.00  0.00     0.120 C 
BRANCH  27  28
ATOM     28  C   UNL A   1      40.700  25.395  28.259  1.00  0.00     0.026 C 
BRANCH  28  29
ATOM     29  C   UNL A   1      41.247  26.653  28.947  1.00  0.00     0.037 C 
BRANCH  29  30
ATOM     30  C   UNL A   1      40.360  27.854  29.179  1.00  0.00    -0.048 A 
ATOM     31  C   UNL A   1      40.775  29.185  29.083  1.00  0.00     0.004 A 
ATOM     32  C   UNL A   1      39.034  27.609  29.584  1.00  0.00     0.004 A 
ATOM     33  C   UNL A   1      39.906  30.236  29.394  1.00  0.00     0.000 A 
ATOM     34  C   UNL A   1      38.160  28.657  29.883  1.00  0.00     0.000 A 
ATOM     35  C   UNL A   1      38.600  29.973  29.795  1.00  0.00     0.000 A 
ENDBRANCH  29  30
ENDBRANCH  28  29
ENDBRANCH  27  28
ENDBRANCH  25  27
ENDBRANCH  22  23
ENDBRANCH  20  22
ENDBRANCH  14  16
ENDBRANCH   7   9
ENDBRANCH   5   7
ENDBRANCH   4   5
ENDBRANCH   3   4
ENDBRANCH   2   3
ENDBRANCH   1   2
BRANCH   1  36
ATOM     36  C   UNL A   1      34.420  30.836  27.282  1.00  0.00     0.188 C 
BRANCH  36  37
ATOM     37  C   UNL A   1      33.787  31.907  28.196  1.00  0.00     0.188 C 
BRANCH  37  38
ATOM     38  O   UNL A   1      34.648  32.968  28.561  1.00  0.00    -0.377 OA
BRANCH  38  39
ATOM     39  C   UNL A   1      35.853  32.574  29.200  1.00  0.00     0.188 C 
BRANCH  39  40
ATOM     40  C   UNL A   1      35.707  31.851  30.553  1.00  0.00     0.188 C 
BRANCH  40  41
ATOM     41  O   UNL A   1      35.770  32.728  31.673  1.00  0.00    -0.376 OA
BRANCH  41  42
ATOM     42  C   UNL A   1      36.934  33.525  31.844  1.00  0.00     0.202 C 
BRANCH  42  43
ATOM     43  C   UNL A   1      38.289  32.813  31.691  1.00  0.00     0.261 C 
BRANCH  43  44
ATOM     44  O   UNL A   1      38.950  32.438  32.911  1.00  0.00    -0.460 OA
BRANCH  44  45
ATOM     45  C   UNL A   1      38.812  31.168  33.342  1.00  0.00     0.338 C 
ATOM     46  O   UNL A   1      37.782  30.610  33.680  1.00  0.00    -0.246 OA
BRANCH  45  47
ATOM     47  C   UNL A   1      40.100  30.476  33.125  1.00  0.00     0.060 A 
ATOM     48  C   UNL A   1      40.100  29.079  33.009  1.00  0.00     0.016 A 
ATOM     49  C   UNL A   1      41.293  31.195  33.014  1.00  0.00     0.016 A 
ATOM     50  C   UNL A   1      41.298  28.393  32.814  1.00  0.00     0.010 A 
ATOM     51  C   UNL A   1      42.498  30.504  32.850  1.00  0.00     0.010 A 
ATOM     52  C   UNL A   1      42.507  29.099  32.785  1.00  0.00    -0.014 A 
BRANCH  52  53
ATOM     53  C   UNL A   1      43.784  28.356  32.920  1.00  0.00     0.031 A 
ATOM     54  C   UNL A   1      44.294  28.081  34.308  1.00  0.00     0.074 A 
ATOM     55  C   UNL A   1      44.456  27.904  31.848  1.00  0.00     0.049 A 
ATOM     56  N   UNL A   1      45.399  27.494  34.690  1.00  0.00    -0.248 NA
ATOM     57  C   UNL A   1      43.439  28.534  35.417  1.00  0.00     0.031 C 
ATOM     58  C   UNL A   1      44.034  28.060  30.458  1.00  0.00     0.029 A 
ATOM     59  N   UNL A   1      45.645  27.225  31.767  1.00  0.00    -0.354 N 
ATOM     60  C   UNL A   1      45.374  27.516  36.079  1.00  0.00     0.074 A 
ATOM     61  C   UNL A   1      44.163  28.200  36.473  1.00  0.00     0.031 C 
ATOM     62  C   UNL A   1      44.960  27.500  29.659  1.00  0.00     0.029 A 
ATOM     63  C   UNL A   1      46.054  26.981  30.479  1.00  0.00     0.049 A 
ATOM     64  H   UNL A   1      46.157  26.938  32.558  1.00  0.00     0.167 HD
ATOM     65  C   UNL A   1      46.276  27.002  36.948  1.00  0.00     0.037 A 
ATOM     66  C   UNL A   1      47.194  26.428  30.021  1.00  0.00     0.037 A 
ATOM     67  C   UNL A   1      47.480  26.325  36.550  1.00  0.00     0.049 A 
ATOM     68  C   UNL A   1      48.227  25.943  31.010  1.00  0.00     0.074 A 
ATOM     69  C   UNL A   1      48.455  25.757  37.351  1.00  0.00     0.029 A 
ATOM     70  N   UNL A   1      47.881  26.135  35.236  1.00  0.00    -0.354 N 
ATOM     71  N   UNL A   1      48.189  25.945  32.321  1.00  0.00    -0.248 NA
ATOM     72  C   UNL A   1      49.463  25.375  30.452  1.00  0.00     0.031 C 
ATOM     73  C   UNL A   1      49.477  25.282  36.523  1.00  0.00     0.029 A 
ATOM     74  C   UNL A   1      49.105  25.487  35.204  1.00  0.00     0.049 A 
ATOM     75  H   UNL A   1      47.371  26.419  34.443  1.00  0.00     0.167 HD
ATOM     76  C   UNL A   1      49.373  25.350  32.741  1.00  0.00     0.074 A 
ATOM     77  C   UNL A   1      50.103  24.987  31.545  1.00  0.00     0.031 C 
ATOM     78  C   UNL A   1      49.815  25.122  34.004  1.00  0.00     0.037 A 
BRANCH  65  79
ATOM     79  C   UNL A   1      46.011  27.189  38.414  1.00  0.00     0.064 A 
ATOM     80  C   UNL A   1      45.219  26.290  39.146  1.00  0.00     0.173 A 
ATOM     81  C   UNL A   1      46.577  28.273  39.101  1.00  0.00     0.173 A 
ATOM     82  F   UNL A   1      44.639  25.247  38.534  1.00  0.00    -0.203 F 
ATOM     83  C   UNL A   1      44.983  26.487  40.505  1.00  0.00     0.198 A 
ATOM     84  C   UNL A   1      46.368  28.447  40.467  1.00  0.00     0.198 A 
ATOM     85  F   UNL A   1      47.343  29.162  38.450  1.00  0.00    -0.203 F 
ATOM     86  F   UNL A   1      44.180  25.646  41.171  1.00  0.00    -0.200 F 
ATOM     87  C   UNL A   1      45.564  27.559  41.165  1.00  0.00     0.200 A 
ATOM     88  F   UNL A   1      46.940  29.476  41.105  1.00  0.00    -0.200 F 
ATOM     89  F   UNL A   1      45.342  27.742  42.473  1.00  0.00    -0.200 F 
ENDBRANCH  65  79
BRANCH  66  90
ATOM     90  C   UNL A   1      47.435  26.315  28.558  1.00  0.00     0.064 A 
ATOM     91  C   UNL A   1      48.028  27.361  27.836  1.00  0.00     0.173 A 
ATOM     92  C   UNL A   1      47.046  25.172  27.841  1.00  0.00     0.173 A 
ATOM     93  F   UNL A   1      48.392  28.487  28.468  1.00  0.00    -0.203 F 
ATOM     94  C   UNL A   1      48.202  27.278  26.456  1.00  0.00     0.198 A 
ATOM     95  C   UNL A   1      47.251  25.077  26.466  1.00  0.00     0.198 A 
ATOM     96  F   UNL A   1      46.469  24.143  28.479  1.00  0.00    -0.203 F 
ATOM     97  F   UNL A   1      48.720  28.317  25.784  1.00  0.00    -0.200 F 
ATOM     98  C   UNL A   1      47.819  26.134  25.773  1.00  0.00     0.200 A 
ATOM     99  F   UNL A   1      46.889  23.964  25.813  1.00  0.00    -0.200 F 
ATOM    100  F   UNL A   1      47.986  26.055  24.446  1.00  0.00    -0.200 F 
ENDBRANCH  66  90
BRANCH  78 101
ATOM    101  C   UNL A   1      51.127  24.404  34.162  1.00  0.00     0.064 A 
ATOM    102  C   UNL A   1      51.206  23.005  34.211  1.00  0.00     0.173 A 
ATOM    103  C   UNL A   1      52.328  25.131  34.216  1.00  0.00     0.173 A 
ATOM    104  F   UNL A   1      50.089  22.263  34.173  1.00  0.00    -0.203 F 
ATOM    105  C   UNL A   1      52.436  22.361  34.339  1.00  0.00     0.198 A 
ATOM    106  C   UNL A   1      53.557  24.483  34.307  1.00  0.00     0.198 A 
ATOM    107  F   UNL A   1      52.311  26.471  34.162  1.00  0.00    -0.203 F 
ATOM    108  F   UNL A   1      52.483  21.026  34.439  1.00  0.00    -0.200 F 
ATOM    109  C   UNL A   1      53.609  23.100  34.379  1.00  0.00     0.200 A 
ATOM    110  F   UNL A   1      54.690  25.199  34.325  1.00  0.00    -0.200 F 
ATOM    111  F   UNL A   1      54.791  22.478  34.492  1.00  0.00    -0.200 F 
ENDBRANCH  78 101
ENDBRANCH  52  53
ENDBRANCH  45  47
ENDBRANCH  44  45
ENDBRANCH  43  44
ENDBRANCH  42  43
ENDBRANCH  41  42
ENDBRANCH  40  41
ENDBRANCH  39  40
ENDBRANCH  38  39
ENDBRANCH  37  38
ENDBRANCH  36  37
ENDBRANCH   1  36
TORSDOF 28
ENDMDL
MODEL 2
REMARK VINA RESULT:      -8.5      1.625      3.039
REMARK SMILES C[C@@H](C(=O)OCCOCCOCCOCCOC(=O)c1ccc(-c2c3nc(c(-c4c(F)c(F)c(F)c(F)c4F)c4ccc([nH]4)c(-c4c(F)c(F)c(F)c(F)c4F)c4nc(c(-c5c(F)c(F)c(F)c(F)c5F)c5ccc2[nH]5)C=C4)C=C3)cc1)c1ccc(-c2cccc(OC(=O)NCCCc3ccccc3)c2)c(F)c1
REMARK SMILES IDX 8 1 7 2 6 3 5 4 3 5 4 6 2 7 1 8 83 9 84 10 108 11 85 12
REMARK SMILES IDX 106 13 86 14 107 15 87 16 88 17 105 18 89 19 91 20 90 21
REMARK SMILES IDX 92 22 93 23 94 24 95 25 96 27 97 28 98 29 99 30 100 31
REMARK SMILES IDX 104 32 101 33 103 34 102 35 9 36 10 37 11 38 12 39 13 40
REMARK SMILES IDX 14 41 15 42 16 43 17 44 18 45 19 46 20 47 21 48 82 49 22 50
REMARK SMILES IDX 81 51 23 52 24 53 25 54 75 55 26 56 80 57 74 58 76 59 27 60
REMARK SMILES IDX 79 61 73 62 72 63 28 65 60 66 40 67 59 68 41 69 44 70 58 71
REMARK SMILES IDX 77 72 42 73 43 74 57 76 78 77 45 78 29 79 30 80 38 81 31 82
REMARK SMILES IDX 32 83 36 84 39 85 33 86 34 87 37 88 35 89 61 90 62 91 70 92
REMARK SMILES IDX 63 93 64 94 68 95 71 96 65 97 66 98 69 99 67 100 46 101
REMARK SMILES IDX 47 102 55 103 48 104 49 105 53 106 56 107 50 108 51 109
REMARK SMILES IDX 54 110 52 111
REMARK H PARENT 95 26 76 64 44 75
REMARK Flexibility Score: inf
ROOT
ATOM      1  O   UNL A   1      33.719  28.158  27.078  1.00  0.00    -0.376 OA
ENDROOT
BRANCH   1   2
ATOM      2  C   UNL A   1      33.284  27.142  26.190  1.00  0.00     0.202 C 
BRANCH   2   3
ATOM      3  C   UNL A   1      33.857  27.010  24.765  1.00  0.00     0.261 C 
BRANCH   3   4
ATOM      4  O   UNL A   1      32.996  26.427  23.769  1.00  0.00    -0.463 OA
BRANCH   4   5
ATOM      5  C   UNL A   1      33.504  25.374  23.083  1.00  0.00     0.313 C 
ATOM      6  O   UNL A   1      34.240  25.491  22.107  1.00  0.00    -0.252 OA
BRANCH   5   7
ATOM      7  C   UNL A   1      33.101  23.996  23.645  1.00  0.00     0.126 C 
ATOM      8  C   UNL A   1      31.920  23.907  24.622  1.00  0.00     0.025 C 
BRANCH   7   9
ATOM      9  C   UNL A   1      34.352  23.249  24.102  1.00  0.00    -0.031 A 
ATOM     10  C   UNL A   1      35.499  23.321  23.300  1.00  0.00     0.005 A 
ATOM     11  C   UNL A   1      34.460  22.606  25.342  1.00  0.00     0.044 A 
ATOM     12  C   UNL A   1      36.712  22.768  23.720  1.00  0.00     0.012 A 
ATOM     13  C   UNL A   1      35.681  22.085  25.769  1.00  0.00     0.131 A 
ATOM     14  C   UNL A   1      36.826  22.135  24.965  1.00  0.00     0.018 A 
ATOM     15  F   UNL A   1      35.729  21.526  26.989  1.00  0.00    -0.206 F 
BRANCH  14  16
ATOM     16  C   UNL A   1      38.073  21.456  25.341  1.00  0.00    -0.012 A 
ATOM     17  C   UNL A   1      38.267  20.077  25.165  1.00  0.00     0.009 A 
ATOM     18  C   UNL A   1      39.080  22.193  25.980  1.00  0.00     0.056 A 
ATOM     19  C   UNL A   1      39.421  19.450  25.644  1.00  0.00     0.004 A 
ATOM     20  C   UNL A   1      40.220  21.569  26.468  1.00  0.00     0.133 A 
ATOM     21  C   UNL A   1      40.396  20.195  26.305  1.00  0.00     0.047 A 
BRANCH  20  22
ATOM     22  O   UNL A   1      41.254  22.250  27.147  1.00  0.00    -0.410 OA
BRANCH  22  23
ATOM     23  C   UNL A   1      42.619  22.116  26.899  1.00  0.00     0.412 C 
ATOM     24  O   UNL A   1      43.155  21.836  25.834  1.00  0.00    -0.224 OA
ATOM     25  N   UNL A   1      43.384  22.357  28.003  1.00  0.00    -0.321 N 
ATOM     26  H   UNL A   1      44.350  22.177  27.932  1.00  0.00     0.167 HD
BRANCH  25  27
ATOM     27  C   UNL A   1      42.896  22.851  29.266  1.00  0.00     0.120 C 
BRANCH  27  28
ATOM     28  C   UNL A   1      43.961  23.532  30.122  1.00  0.00     0.026 C 
BRANCH  28  29
ATOM     29  C   UNL A   1      43.529  24.167  31.450  1.00  0.00     0.037 C 
BRANCH  29  30
ATOM     30  C   UNL A   1      44.212  23.791  32.744  1.00  0.00    -0.048 A 
ATOM     31  C   UNL A   1      45.593  23.826  32.959  1.00  0.00     0.004 A 
ATOM     32  C   UNL A   1      43.399  23.310  33.787  1.00  0.00     0.004 A 
ATOM     33  C   UNL A   1      46.147  23.383  34.165  1.00  0.00     0.000 A 
ATOM     34  C   UNL A   1      43.949  22.878  34.997  1.00  0.00     0.000 A 
ATOM     35  C   UNL A   1      45.326  22.909  35.183  1.00  0.00     0.000 A 
ENDBRANCH  29  30
ENDBRANCH  28  29
ENDBRANCH  27  28
ENDBRANCH  25  27
ENDBRANCH  22  23
ENDBRANCH  20  22
ENDBRANCH  14  16
ENDBRANCH   7   9
ENDBRANCH   5   7
ENDBRANCH   4   5
ENDBRANCH   3   4
ENDBRANCH   2   3
ENDBRANCH   1   2
BRANCH   1  36
ATOM     36  C   UNL A   1      33.929  29.480  26.604  1.00  0.00     0.188 C 
BRANCH  36  37
ATOM     37  C   UNL A   1      33.585  30.698  27.486  1.00  0.00     0.188 C 
BRANCH  37  38
ATOM     38  O   UNL A   1      34.647  31.612  27.685  1.00  0.00    -0.377 OA
BRANCH  38  39
ATOM     39  C   UNL A   1      35.883  31.028  28.064  1.00  0.00     0.188 C 
BRANCH  39  40
ATOM     40  C   UNL A   1      35.936  30.381  29.462  1.00  0.00     0.188 C 
BRANCH  40  41
ATOM     41  O   UNL A   1      35.932  31.329  30.525  1.00  0.00    -0.376 OA
BRANCH  41  42
ATOM     42  C   UNL A   1      36.905  32.365  30.513  1.00  0.00     0.202 C 
BRANCH  42  43
ATOM     43  C   UNL A   1      38.375  31.933  30.649  1.00  0.00     0.261 C 
BRANCH  43  44
ATOM     44  O   UNL A   1      38.942  32.019  31.967  1.00  0.00    -0.460 OA
BRANCH  44  45
ATOM     45  C   UNL A   1      38.945  30.906  32.730  1.00  0.00     0.338 C 
ATOM     46  O   UNL A   1      38.004  30.425  33.337  1.00  0.00    -0.246 OA
BRANCH  45  47
ATOM     47  C   UNL A   1      40.242  30.227  32.530  1.00  0.00     0.060 A 
ATOM     48  C   UNL A   1      40.258  28.830  32.417  1.00  0.00     0.016 A 
ATOM     49  C   UNL A   1      41.430  30.957  32.434  1.00  0.00     0.016 A 
ATOM     50  C   UNL A   1      41.465  28.155  32.240  1.00  0.00     0.010 A 
ATOM     51  C   UNL A   1      42.643  30.278  32.287  1.00  0.00     0.010 A 
ATOM     52  C   UNL A   1      42.667  28.873  32.225  1.00  0.00    -0.014 A 
BRANCH  52  53
ATOM     53  C   UNL A   1      43.949  28.143  32.378  1.00  0.00     0.031 A 
ATOM     54  C   UNL A   1      44.451  27.888  33.773  1.00  0.00     0.074 A 
ATOM     55  C   UNL A   1      44.633  27.685  31.316  1.00  0.00     0.049 A 
ATOM     56  N   UNL A   1      45.558  27.315  34.170  1.00  0.00    -0.248 NA
ATOM     57  C   UNL A   1      43.583  28.346  34.870  1.00  0.00     0.031 C 
ATOM     58  C   UNL A   1      44.220  27.821  29.922  1.00  0.00     0.029 A 
ATOM     59  N   UNL A   1      45.829  27.015  31.252  1.00  0.00    -0.354 N 
ATOM     60  C   UNL A   1      45.522  27.352  35.558  1.00  0.00     0.074 A 
ATOM     61  C   UNL A   1      44.302  28.031  35.936  1.00  0.00     0.031 C 
ATOM     62  C   UNL A   1      45.157  27.260  29.136  1.00  0.00     0.029 A 
ATOM     63  C   UNL A   1      46.250  26.760  29.970  1.00  0.00     0.049 A 
ATOM     64  H   UNL A   1      46.337  26.741  32.050  1.00  0.00     0.167 HD
ATOM     65  C   UNL A   1      46.422  26.857  36.440  1.00  0.00     0.037 A 
ATOM     66  C   UNL A   1      47.398  26.211  29.528  1.00  0.00     0.037 A 
ATOM     67  C   UNL A   1      47.635  26.185  36.059  1.00  0.00     0.049 A 
ATOM     68  C   UNL A   1      48.427  25.747  30.529  1.00  0.00     0.074 A 
ATOM     69  C   UNL A   1      48.608  25.635  36.874  1.00  0.00     0.029 A 
ATOM     70  N   UNL A   1      48.048  25.984  34.750  1.00  0.00    -0.354 N 
ATOM     71  N   UNL A   1      48.379  25.764  31.840  1.00  0.00    -0.248 NA
ATOM     72  C   UNL A   1      49.673  25.184  29.987  1.00  0.00     0.031 C 
ATOM     73  C   UNL A   1      49.640  25.159  36.059  1.00  0.00     0.029 A 
ATOM     74  C   UNL A   1      49.277  25.347  34.735  1.00  0.00     0.049 A 
ATOM     75  H   UNL A   1      47.541  26.254  33.950  1.00  0.00     0.167 HD
ATOM     76  C   UNL A   1      49.565  25.184  32.276  1.00  0.00     0.074 A 
ATOM     77  C   UNL A   1      50.307  24.814  31.090  1.00  0.00     0.031 C 
ATOM     78  C   UNL A   1      50.000  24.974  33.544  1.00  0.00     0.037 A 
BRANCH  65  79
ATOM     79  C   UNL A   1      46.144  27.058  37.902  1.00  0.00     0.064 A 
ATOM     80  C   UNL A   1      46.547  28.218  38.582  1.00  0.00     0.173 A 
ATOM     81  C   UNL A   1      45.443  26.083  38.627  1.00  0.00     0.173 A 
ATOM     82  F   UNL A   1      47.236  29.173  37.941  1.00  0.00    -0.203 F 
ATOM     83  C   UNL A   1      46.281  28.379  39.940  1.00  0.00     0.198 A 
ATOM     84  C   UNL A   1      45.149  26.264  39.976  1.00  0.00     0.198 A 
ATOM     85  F   UNL A   1      45.034  24.955  38.025  1.00  0.00    -0.203 F 
ATOM     86  F   UNL A   1      46.724  29.470  40.581  1.00  0.00    -0.200 F 
ATOM     87  C   UNL A   1      45.576  27.407  40.633  1.00  0.00     0.200 A 
ATOM     88  F   UNL A   1      44.456  25.329  40.640  1.00  0.00    -0.200 F 
ATOM     89  F   UNL A   1      45.316  27.569  41.937  1.00  0.00    -0.200 F 
ENDBRANCH  65  79
BRANCH  66  90
ATOM     90  C   UNL A   1      47.652  26.084  28.067  1.00  0.00     0.064 A 
ATOM     91  C   UNL A   1      48.315  27.093  27.355  1.00  0.00     0.173 A 
ATOM     92  C   UNL A   1      47.204  24.967  27.345  1.00  0.00     0.173 A 
ATOM     93  F   UNL A   1      48.739  28.194  27.992  1.00  0.00    -0.203 F 
ATOM     94  C   UNL A   1      48.502  26.999  25.977  1.00  0.00     0.198 A 
ATOM     95  C   UNL A   1      47.420  24.860  25.973  1.00  0.00     0.198 A 
ATOM     96  F   UNL A   1      46.557  23.975  27.975  1.00  0.00    -0.203 F 
ATOM     97  F   UNL A   1      49.091  28.005  25.313  1.00  0.00    -0.200 F 
ATOM     98  C   UNL A   1      48.060  25.880  25.288  1.00  0.00     0.200 A 
ATOM     99  F   UNL A   1      47.000  23.770  25.314  1.00  0.00    -0.200 F 
ATOM    100  F   UNL A   1      48.240  25.791  23.963  1.00  0.00    -0.200 F 
ENDBRANCH  66  90
BRANCH  78 101
ATOM    101  C   UNL A   1      51.317  24.270  33.720  1.00  0.00     0.064 A 
ATOM    102  C   UNL A   1      52.497  24.966  34.017  1.00  0.00     0.173 A 
ATOM    103  C   UNL A   1      51.385  22.869  33.638  1.00  0.00     0.173 A 
ATOM    104  F   UNL A   1      52.490  26.306  34.096  1.00  0.00    -0.203 F 
ATOM    105  C   UNL A   1      53.703  24.290  34.194  1.00  0.00     0.198 A 
ATOM    106  C   UNL A   1      52.583  22.194  33.852  1.00  0.00     0.198 A 
ATOM    107  F   UNL A   1      50.283  22.153  33.368  1.00  0.00    -0.203 F 
ATOM    108  F   UNL A   1      54.828  24.980  34.423  1.00  0.00    -0.200 F 
ATOM    109  C   UNL A   1      53.743  22.905  34.120  1.00  0.00     0.200 A 
ATOM    110  F   UNL A   1      52.615  20.856  33.800  1.00  0.00    -0.200 F 
ATOM    111  F   UNL A   1      54.901  22.256  34.301  1.00  0.00    -0.200 F 
ENDBRANCH  78 101
ENDBRANCH  52  53
ENDBRANCH  45  47
ENDBRANCH  44  45
ENDBRANCH  43  44
ENDBRANCH  42  43
ENDBRANCH  41  42
ENDBRANCH  40  41
ENDBRANCH  39  40
ENDBRANCH  38  39
ENDBRANCH  37  38
ENDBRANCH  36  37
ENDBRANCH   1  36
TORSDOF 28
ENDMDL
MODEL 3
REMARK VINA RESULT:      -8.0      4.510     11.801
REMARK SMILES C[C@@H](C(=O)OCCOCCOCCOCCOC(=O)c1ccc(-c2c3nc(c(-c4c(F)c(F)c(F)c(F)c4F)c4ccc([nH]4)c(-c4c(F)c(F)c(F)c(F)c4F)c4nc(c(-c5c(F)c(F)c(F)c(F)c5F)c5ccc2[nH]5)C=C4)C=C3)cc1)c1ccc(-c2cccc(OC(=O)NCCCc3ccccc3)c2)c(F)c1
REMARK SMILES IDX 8 1 7 2 6 3 5 4 3 5 4 6 2 7 1 8 83 9 84 10 108 11 85 12
REMARK SMILES IDX 106 13 86 14 107 15 87 16 88 17 105 18 89 19 91 20 90 21
REMARK SMILES IDX 92 22 93 23 94 24 95 25 96 27 97 28 98 29 99 30 100 31
REMARK SMILES IDX 104 32 101 33 103 34 102 35 9 36 10 37 11 38 12 39 13 40
REMARK SMILES IDX 14 41 15 42 16 43 17 44 18 45 19 46 20 47 21 48 82 49 22 50
REMARK SMILES IDX 81 51 23 52 24 53 25 54 75 55 26 56 80 57 74 58 76 59 27 60
REMARK SMILES IDX 79 61 73 62 72 63 28 65 60 66 40 67 59 68 41 69 44 70 58 71
REMARK SMILES IDX 77 72 42 73 43 74 57 76 78 77 45 78 29 79 30 80 38 81 31 82
REMARK SMILES IDX 32 83 36 84 39 85 33 86 34 87 37 88 35 89 61 90 62 91 70 92
REMARK SMILES IDX 63 93 64 94 68 95 71 96 65 97 66 98 69 99 67 100 46 101
REMARK SMILES IDX 47 102 55 103 48 104 49 105 53 106 56 107 50 108 51 109
REMARK SMILES IDX 54 110 52 111
REMARK H PARENT 95 26 76 64 44 75
REMARK Flexibility Score: inf
ROOT
ATOM      1  O   UNL A   1      39.533  29.507  33.862  1.00  0.00    -0.376 OA
ENDROOT
BRANCH   1   2
ATOM      2  C   UNL A   1      40.500  29.870  34.834  1.00  0.00     0.202 C 
BRANCH   2   3
ATOM      3  C   UNL A   1      41.594  28.888  35.295  1.00  0.00     0.261 C 
BRANCH   3   4
ATOM      4  O   UNL A   1      41.173  27.785  36.120  1.00  0.00    -0.463 OA
BRANCH   4   5
ATOM      5  C   UNL A   1      42.135  26.893  36.460  1.00  0.00     0.313 C 
ATOM      6  O   UNL A   1      42.929  27.069  37.381  1.00  0.00    -0.252 OA
BRANCH   5   7
ATOM      7  C   UNL A   1      42.142  25.609  35.607  1.00  0.00     0.126 C 
ATOM      8  C   UNL A   1      41.184  24.467  35.973  1.00  0.00     0.025 C 
BRANCH   7   9
ATOM      9  C   UNL A   1      43.584  25.167  35.368  1.00  0.00    -0.031 A 
ATOM     10  C   UNL A   1      44.366  25.906  34.469  1.00  0.00     0.005 A 
ATOM     11  C   UNL A   1      44.212  24.146  36.094  1.00  0.00     0.044 A 
ATOM     12  C   UNL A   1      45.726  25.635  34.299  1.00  0.00     0.012 A 
ATOM     13  C   UNL A   1      45.576  23.902  35.943  1.00  0.00     0.131 A 
ATOM     14  C   UNL A   1      46.359  24.622  35.033  1.00  0.00     0.018 A 
ATOM     15  F   UNL A   1      46.127  22.942  36.705  1.00  0.00    -0.206 F 
BRANCH  14  16
ATOM     16  C   UNL A   1      47.758  24.269  34.758  1.00  0.00    -0.012 A 
ATOM     17  C   UNL A   1      48.792  25.218  34.758  1.00  0.00     0.009 A 
ATOM     18  C   UNL A   1      48.066  22.950  34.397  1.00  0.00     0.056 A 
ATOM     19  C   UNL A   1      50.089  24.863  34.377  1.00  0.00     0.004 A 
ATOM     20  C   UNL A   1      49.350  22.599  34.004  1.00  0.00     0.133 A 
ATOM     21  C   UNL A   1      50.368  23.553  33.989  1.00  0.00     0.047 A 
BRANCH  20  22
ATOM     22  O   UNL A   1      49.717  21.297  33.600  1.00  0.00    -0.410 OA
BRANCH  22  23
ATOM     23  C   UNL A   1      51.019  20.813  33.490  1.00  0.00     0.412 C 
ATOM     24  O   UNL A   1      51.843  21.091  32.628  1.00  0.00    -0.224 OA
ATOM     25  N   UNL A   1      51.352  19.954  34.497  1.00  0.00    -0.321 N 
ATOM     26  H   UNL A   1      52.217  19.489  34.427  1.00  0.00     0.167 HD
BRANCH  25  27
ATOM     27  C   UNL A   1      50.541  19.670  35.654  1.00  0.00     0.120 C 
BRANCH  27  28
ATOM     28  C   UNL A   1      51.061  20.295  36.947  1.00  0.00     0.026 C 
BRANCH  28  29
ATOM     29  C   UNL A   1      51.859  21.602  36.852  1.00  0.00     0.037 C 
BRANCH  29  30
ATOM     30  C   UNL A   1      51.254  22.911  37.302  1.00  0.00    -0.048 A 
ATOM     31  C   UNL A   1      51.949  24.118  37.409  1.00  0.00     0.004 A 
ATOM     32  C   UNL A   1      49.905  22.895  37.703  1.00  0.00     0.004 A 
ATOM     33  C   UNL A   1      51.328  25.267  37.911  1.00  0.00     0.000 A 
ATOM     34  C   UNL A   1      49.279  24.043  38.194  1.00  0.00     0.000 A 
ATOM     35  C   UNL A   1      49.995  25.230  38.305  1.00  0.00     0.000 A 
ENDBRANCH  29  30
ENDBRANCH  28  29
ENDBRANCH  27  28
ENDBRANCH  25  27
ENDBRANCH  22  23
ENDBRANCH  20  22
ENDBRANCH  14  16
ENDBRANCH   7   9
ENDBRANCH   5   7
ENDBRANCH   4   5
ENDBRANCH   3   4
ENDBRANCH   2   3
ENDBRANCH   1   2
BRANCH   1  36
ATOM     36  C   UNL A   1      39.802  28.459  32.942  1.00  0.00     0.188 C 
BRANCH  36  37
ATOM     37  C   UNL A   1      38.662  27.810  32.129  1.00  0.00     0.188 C 
BRANCH  37  38
ATOM     38  O   UNL A   1      38.244  28.543  30.993  1.00  0.00    -0.377 OA
BRANCH  38  39
ATOM     39  C   UNL A   1      37.108  29.369  31.192  1.00  0.00     0.188 C 
BRANCH  39  40
ATOM     40  C   UNL A   1      36.229  29.637  29.956  1.00  0.00     0.188 C 
BRANCH  40  41
ATOM     41  O   UNL A   1      36.979  29.879  28.770  1.00  0.00    -0.376 OA
BRANCH  41  42
ATOM     42  C   UNL A   1      36.317  30.461  27.656  1.00  0.00     0.202 C 
BRANCH  42  43
ATOM     43  C   UNL A   1      35.011  31.221  27.947  1.00  0.00     0.261 C 
BRANCH  43  44
ATOM     44  O   UNL A   1      35.014  32.626  27.646  1.00  0.00    -0.460 OA
BRANCH  44  45
ATOM     45  C   UNL A   1      34.831  33.493  28.663  1.00  0.00     0.338 C 
ATOM     46  O   UNL A   1      33.812  34.105  28.936  1.00  0.00    -0.246 OA
BRANCH  45  47
ATOM     47  C   UNL A   1      36.015  33.415  29.543  1.00  0.00     0.060 A 
ATOM     48  C   UNL A   1      37.255  33.829  29.038  1.00  0.00     0.016 A 
ATOM     49  C   UNL A   1      35.905  32.958  30.859  1.00  0.00     0.016 A 
ATOM     50  C   UNL A   1      38.395  33.758  29.837  1.00  0.00     0.010 A 
ATOM     51  C   UNL A   1      37.054  32.859  31.650  1.00  0.00     0.010 A 
ATOM     52  C   UNL A   1      38.308  33.225  31.128  1.00  0.00    -0.014 A 
BRANCH  52  53
ATOM     53  C   UNL A   1      39.551  32.838  31.839  1.00  0.00     0.031 A 
ATOM     54  C   UNL A   1      40.441  31.813  31.193  1.00  0.00     0.074 A 
ATOM     55  C   UNL A   1      39.903  33.405  33.006  1.00  0.00     0.049 A 
ATOM     56  N   UNL A   1      41.552  31.277  31.629  1.00  0.00    -0.248 NA
ATOM     57  C   UNL A   1      40.015  31.323  29.872  1.00  0.00     0.031 C 
ATOM     58  C   UNL A   1      39.153  34.447  33.701  1.00  0.00     0.029 A 
ATOM     59  N   UNL A   1      40.987  33.171  33.815  1.00  0.00    -0.354 N 
ATOM     60  C   UNL A   1      41.951  30.385  30.643  1.00  0.00     0.074 A 
ATOM     61  C   UNL A   1      40.950  30.426  29.600  1.00  0.00     0.031 C 
ATOM     62  C   UNL A   1      39.795  34.757  34.842  1.00  0.00     0.029 A 
ATOM     63  C   UNL A   1      40.979  33.908  34.973  1.00  0.00     0.049 A 
ATOM     64  H   UNL A   1      41.704  32.536  33.585  1.00  0.00     0.167 HD
ATOM     65  C   UNL A   1      43.059  29.607  30.605  1.00  0.00     0.037 A 
ATOM     66  C   UNL A   1      41.820  33.877  36.026  1.00  0.00     0.037 A 
ATOM     67  C   UNL A   1      44.050  29.569  31.646  1.00  0.00     0.049 A 
ATOM     68  C   UNL A   1      43.000  32.936  36.001  1.00  0.00     0.074 A 
ATOM     69  C   UNL A   1      45.215  28.825  31.700  1.00  0.00     0.029 A 
ATOM     70  N   UNL A   1      43.985  30.299  32.824  1.00  0.00    -0.354 N 
ATOM     71  N   UNL A   1      43.385  32.111  35.057  1.00  0.00    -0.248 NA
ATOM     72  C   UNL A   1      43.864  32.925  37.190  1.00  0.00     0.031 C 
ATOM     73  C   UNL A   1      45.821  29.055  32.940  1.00  0.00     0.029 A 
ATOM     74  C   UNL A   1      45.073  29.997  33.627  1.00  0.00     0.049 A 
ATOM     75  H   UNL A   1      43.271  30.936  33.056  1.00  0.00     0.167 HD
ATOM     76  C   UNL A   1      44.550  31.512  35.521  1.00  0.00     0.074 A 
ATOM     77  C   UNL A   1      44.816  32.078  36.826  1.00  0.00     0.031 C 
ATOM     78  C   UNL A   1      45.331  30.579  34.921  1.00  0.00     0.037 A 
BRANCH  65  79
ATOM     79  C   UNL A   1      43.234  28.707  29.416  1.00  0.00     0.064 A 
ATOM     80  C   UNL A   1      42.554  27.485  29.303  1.00  0.00     0.173 A 
ATOM     81  C   UNL A   1      44.080  29.087  28.363  1.00  0.00     0.173 A 
ATOM     82  F   UNL A   1      41.748  27.066  30.289  1.00  0.00    -0.203 F 
ATOM     83  C   UNL A   1      42.737  26.664  28.192  1.00  0.00     0.198 A 
ATOM     84  C   UNL A   1      44.233  28.281  27.238  1.00  0.00     0.198 A 
ATOM     85  F   UNL A   1      44.753  30.246  28.420  1.00  0.00    -0.203 F 
ATOM     86  F   UNL A   1      42.120  25.476  28.131  1.00  0.00    -0.200 F 
ATOM     87  C   UNL A   1      43.569  27.067  27.158  1.00  0.00     0.200 A 
ATOM     88  F   UNL A   1      45.027  28.677  26.235  1.00  0.00    -0.200 F 
ATOM     89  F   UNL A   1      43.737  26.279  26.087  1.00  0.00    -0.200 F 
ENDBRANCH  65  79
BRANCH  66  90
ATOM     90  C   UNL A   1      41.572  34.749  37.206  1.00  0.00     0.064 A 
ATOM     91  C   UNL A   1      42.201  35.995  37.333  1.00  0.00     0.173 A 
ATOM     92  C   UNL A   1      40.728  34.339  38.250  1.00  0.00     0.173 A 
ATOM     93  F   UNL A   1      43.039  36.422  36.377  1.00  0.00    -0.203 F 
ATOM     94  C   UNL A   1      42.012  36.787  38.465  1.00  0.00     0.198 A 
ATOM     95  C   UNL A   1      40.515  35.145  39.366  1.00  0.00     0.198 A 
ATOM     96  F   UNL A   1      40.105  33.152  38.184  1.00  0.00    -0.203 F 
ATOM     97  F   UNL A   1      42.670  37.949  38.584  1.00  0.00    -0.200 F 
ATOM     98  C   UNL A   1      41.165  36.364  39.477  1.00  0.00     0.200 A 
ATOM     99  F   UNL A   1      39.686  34.736  40.336  1.00  0.00    -0.200 F 
ATOM    100  F   UNL A   1      40.984  37.125  40.566  1.00  0.00    -0.200 F 
ENDBRANCH  66  90
BRANCH  78 101
ATOM    101  C   UNL A   1      46.577  30.145  35.643  1.00  0.00     0.064 A 
ATOM    102  C   UNL A   1      47.756  30.902  35.609  1.00  0.00     0.173 A 
ATOM    103  C   UNL A   1      46.571  28.975  36.421  1.00  0.00     0.173 A 
ATOM    104  F   UNL A   1      47.819  32.022  34.873  1.00  0.00    -0.203 F 
ATOM    105  C   UNL A   1      48.893  30.490  36.302  1.00  0.00     0.198 A 
ATOM    106  C   UNL A   1      47.696  28.586  37.141  1.00  0.00     0.198 A 
ATOM    107  F   UNL A   1      45.465  28.220  36.498  1.00  0.00    -0.203 F 
ATOM    108  F   UNL A   1      50.025  31.200  36.211  1.00  0.00    -0.200 F 
ATOM    109  C   UNL A   1      48.859  29.337  37.074  1.00  0.00     0.200 A 
ATOM    110  F   UNL A   1      47.654  27.483  37.902  1.00  0.00    -0.200 F 
ATOM    111  F   UNL A   1      49.950  28.948  37.748  1.00  0.00    -0.200 F 
ENDBRANCH  78 101
ENDBRANCH  52  53
ENDBRANCH  45  47
ENDBRANCH  44  45
ENDBRANCH  43  44
ENDBRANCH  42  43
ENDBRANCH  41  42
ENDBRANCH  40  41
ENDBRANCH  39  40
ENDBRANCH  38  39
ENDBRANCH  37  38
ENDBRANCH  36  37
ENDBRANCH   1  36
TORSDOF 28
ENDMDL
