MODEL 1
REMARK VINA RESULT:     -10.7      0.000      0.000
REMARK SMILES Cc1cc(-c2cncc(C(=O)OCCOCCOCCOCCOC(=O)c3ccc(-c4c5nc(c(-c6c(F)c(F)c(F)c(F)c6F)c6ccc([nH]6)c(-c6c(F)c(F)c(F)c(F)c6F)c6nc(c(-c7c(F)c(F)c(F)c(F)c7F)c7ccc4[nH]7)C=C6)C=C5)cc3)c2)ccc1F
REMARK SMILES IDX 19 1 18 2 17 3 16 4 15 5 14 6 13 7 12 8 10 9 11 10 9 11 5 12
REMARK SMILES IDX 6 13 90 14 7 15 8 16 4 17 1 18 2 19 3 20 93 21 92 22 94 23
REMARK SMILES IDX 91 24 20 25 21 26 22 27 23 28 24 29 25 30 26 31 27 32 28 33
REMARK SMILES IDX 89 34 29 35 88 36 30 37 31 38 32 39 82 40 33 41 87 42 81 43
REMARK SMILES IDX 83 44 34 45 86 46 80 47 79 48 35 50 67 51 47 52 66 53 48 54
REMARK SMILES IDX 51 55 65 56 84 57 49 58 50 59 64 61 85 62 52 63 36 64 37 65
REMARK SMILES IDX 45 66 38 67 39 68 43 69 46 70 40 71 41 72 44 73 42 74 68 75
REMARK SMILES IDX 69 76 77 77 70 78 71 79 75 80 78 81 72 82 73 83 76 84 74 85
REMARK SMILES IDX 53 86 54 87 62 88 55 89 56 90 60 91 63 92 57 93 58 94 61 95
REMARK SMILES IDX 59 96
REMARK H PARENT 83 49 51 60
REMARK Flexibility Score: inf
ROOT
ATOM      1  C   UNL A   1      39.331  21.570  26.277  1.00  0.00     0.188 C 
ENDROOT
BRANCH   1   2
ATOM      2  O   UNL A   1      38.067  21.620  25.617  1.00  0.00    -0.377 OA
BRANCH   2   3
ATOM      3  C   UNL A   1      37.455  22.886  25.409  1.00  0.00     0.188 C 
BRANCH   3   4
ATOM      4  C   UNL A   1      36.325  22.985  24.353  1.00  0.00     0.188 C 
BRANCH   4   5
ATOM      5  O   UNL A   1      35.496  21.842  24.256  1.00  0.00    -0.376 OA
BRANCH   5   6
ATOM      6  C   UNL A   1      34.119  21.890  24.573  1.00  0.00     0.202 C 
BRANCH   6   7
ATOM      7  C   UNL A   1      33.014  21.673  23.521  1.00  0.00     0.261 C 
BRANCH   7   8
ATOM      8  O   UNL A   1      32.220  22.809  23.170  1.00  0.00    -0.460 OA
BRANCH   8   9
ATOM      9  C   UNL A   1      32.853  23.996  23.100  1.00  0.00     0.339 C 
ATOM     10  O   UNL A   1      33.734  24.307  22.312  1.00  0.00    -0.246 OA
BRANCH   9  11
ATOM     11  C   UNL A   1      32.132  24.949  23.963  1.00  0.00     0.079 A 
ATOM     12  C   UNL A   1      32.023  26.850  25.470  1.00  0.00     0.001 A 
ATOM     13  C   UNL A   1      30.682  26.510  25.667  1.00  0.00     0.119 A 
ATOM     14  C   UNL A   1      32.764  25.999  24.632  1.00  0.00     0.027 A 
ATOM     15  N   UNL A   1      30.051  25.466  25.073  1.00  0.00    -0.263 NA
ATOM     16  C   UNL A   1      30.784  24.731  24.207  1.00  0.00     0.126 A 
BRANCH  12  17
ATOM     17  C   UNL A   1      32.599  28.099  25.999  1.00  0.00    -0.016 A 
ATOM     18  C   UNL A   1      31.403  31.696  26.504  1.00  0.00     0.047 C 
ATOM     19  C   UNL A   1      32.267  30.474  26.536  1.00  0.00    -0.015 A 
ATOM     20  C   UNL A   1      31.822  29.276  25.969  1.00  0.00     0.015 A 
ATOM     21  C   UNL A   1      33.517  30.494  27.148  1.00  0.00     0.126 A 
ATOM     22  C   UNL A   1      34.316  29.356  27.187  1.00  0.00     0.040 A 
ATOM     23  F   UNL A   1      33.961  31.622  27.721  1.00  0.00    -0.207 F 
ATOM     24  C   UNL A   1      33.861  28.163  26.611  1.00  0.00     0.012 A 
ENDBRANCH  12  17
ENDBRANCH   9  11
ENDBRANCH   8   9
ENDBRANCH   7   8
ENDBRANCH   6   7
ENDBRANCH   5   6
ENDBRANCH   4   5
ENDBRANCH   3   4
ENDBRANCH   2   3
ENDBRANCH   1   2
BRANCH   1  25
ATOM     25  C   UNL A   1      40.311  20.370  26.126  1.00  0.00     0.188 C 
BRANCH  25  26
ATOM     26  O   UNL A   1      41.576  20.557  26.728  1.00  0.00    -0.376 OA
BRANCH  26  27
ATOM     27  C   UNL A   1      42.675  21.145  26.074  1.00  0.00     0.202 C 
BRANCH  27  28
ATOM     28  C   UNL A   1      43.049  22.609  26.337  1.00  0.00     0.261 C 
BRANCH  28  29
ATOM     29  O   UNL A   1      42.028  23.562  26.058  1.00  0.00    -0.460 OA
BRANCH  29  30
ATOM     30  C   UNL A   1      41.531  24.097  27.186  1.00  0.00     0.338 C 
ATOM     31  O   UNL A   1      41.968  23.930  28.311  1.00  0.00    -0.246 OA
BRANCH  30  32
ATOM     32  C   UNL A   1      40.298  24.879  26.967  1.00  0.00     0.060 A 
ATOM     33  C   UNL A   1      40.583  25.984  26.135  1.00  0.00     0.016 A 
ATOM     34  C   UNL A   1      39.650  25.024  28.186  1.00  0.00     0.016 A 
ATOM     35  C   UNL A   1      40.777  27.197  26.752  1.00  0.00     0.010 A 
ATOM     36  C   UNL A   1      39.862  26.218  28.814  1.00  0.00     0.010 A 
ATOM     37  C   UNL A   1      40.520  27.245  28.114  1.00  0.00    -0.014 A 
BRANCH  37  38
ATOM     38  C   UNL A   1      40.751  28.428  28.886  1.00  0.00     0.031 A 
ATOM     39  C   UNL A   1      39.664  29.408  28.831  1.00  0.00     0.074 A 
ATOM     40  C   UNL A   1      41.816  28.468  29.712  1.00  0.00     0.049 A 
ATOM     41  N   UNL A   1      39.805  30.650  29.103  1.00  0.00    -0.248 NA
ATOM     42  C   UNL A   1      38.325  29.070  28.333  1.00  0.00     0.031 C 
ATOM     43  C   UNL A   1      41.947  29.251  30.927  1.00  0.00     0.029 A 
ATOM     44  N   UNL A   1      43.055  27.824  29.574  1.00  0.00    -0.354 N 
ATOM     45  C   UNL A   1      38.533  31.167  29.190  1.00  0.00     0.074 A 
ATOM     46  C   UNL A   1      37.676  30.220  28.527  1.00  0.00     0.031 C 
ATOM     47  C   UNL A   1      43.230  29.228  31.325  1.00  0.00     0.029 A 
ATOM     48  C   UNL A   1      44.013  28.594  30.278  1.00  0.00     0.049 A 
ATOM     49  H   UNL A   1      43.228  26.991  29.078  1.00  0.00     0.167 HD
ATOM     50  C   UNL A   1      38.329  32.226  30.019  1.00  0.00     0.037 A 
ATOM     51  C   UNL A   1      45.030  29.231  29.611  1.00  0.00     0.037 A 
ATOM     52  C   UNL A   1      39.585  32.602  30.666  1.00  0.00     0.049 A 
ATOM     53  C   UNL A   1      44.862  30.716  29.481  1.00  0.00     0.074 A 
ATOM     54  C   UNL A   1      40.167  32.273  31.881  1.00  0.00     0.029 A 
ATOM     55  N   UNL A   1      40.615  33.072  29.877  1.00  0.00    -0.354 N 
ATOM     56  N   UNL A   1      43.846  31.381  29.944  1.00  0.00    -0.248 NA
ATOM     57  C   UNL A   1      45.790  31.547  28.719  1.00  0.00     0.031 C 
ATOM     58  C   UNL A   1      41.556  32.594  31.810  1.00  0.00     0.029 A 
ATOM     59  C   UNL A   1      41.811  33.128  30.561  1.00  0.00     0.049 A 
ATOM     60  H   UNL A   1      40.508  33.336  28.934  1.00  0.00     0.167 HD
ATOM     61  C   UNL A   1      43.934  32.679  29.533  1.00  0.00     0.074 A 
ATOM     62  C   UNL A   1      45.157  32.729  28.749  1.00  0.00     0.031 C 
ATOM     63  C   UNL A   1      42.983  33.606  29.846  1.00  0.00     0.037 A 
BRANCH  50  64
ATOM     64  C   UNL A   1      36.974  32.694  30.469  1.00  0.00     0.064 A 
ATOM     65  C   UNL A   1      36.191  33.503  29.622  1.00  0.00     0.173 A 
ATOM     66  C   UNL A   1      36.391  32.398  31.717  1.00  0.00     0.173 A 
ATOM     67  F   UNL A   1      36.584  33.799  28.377  1.00  0.00    -0.203 F 
ATOM     68  C   UNL A   1      34.969  34.041  30.020  1.00  0.00     0.198 A 
ATOM     69  C   UNL A   1      35.189  32.977  32.136  1.00  0.00     0.198 A 
ATOM     70  F   UNL A   1      36.935  31.500  32.550  1.00  0.00    -0.203 F 
ATOM     71  F   UNL A   1      34.271  34.801  29.164  1.00  0.00    -0.200 F 
ATOM     72  C   UNL A   1      34.480  33.803  31.287  1.00  0.00     0.200 A 
ATOM     73  F   UNL A   1      34.718  32.724  33.365  1.00  0.00    -0.200 F 
ATOM     74  F   UNL A   1      33.318  34.343  31.677  1.00  0.00    -0.200 F 
ENDBRANCH  50  64
BRANCH  51  75
ATOM     75  C   UNL A   1      45.693  28.393  28.577  1.00  0.00     0.064 A 
ATOM     76  C   UNL A   1      46.603  27.468  29.103  1.00  0.00     0.173 A 
ATOM     77  C   UNL A   1      44.931  28.036  27.459  1.00  0.00     0.173 A 
ATOM     78  F   UNL A   1      47.448  27.830  30.080  1.00  0.00    -0.203 F 
ATOM     79  C   UNL A   1      46.460  26.131  28.794  1.00  0.00     0.198 A 
ATOM     80  C   UNL A   1      44.793  26.691  27.142  1.00  0.00     0.198 A 
ATOM     81  F   UNL A   1      44.175  28.951  26.834  1.00  0.00    -0.203 F 
ATOM     82  F   UNL A   1      47.134  25.204  29.488  1.00  0.00    -0.200 F 
ATOM     83  C   UNL A   1      45.511  25.740  27.867  1.00  0.00     0.200 A 
ATOM     84  F   UNL A   1      43.886  26.330  26.224  1.00  0.00    -0.200 F 
ATOM     85  F   UNL A   1      45.295  24.428  27.730  1.00  0.00    -0.200 F 
ENDBRANCH  51  75
BRANCH  63  86
ATOM     86  C   UNL A   1      43.083  35.052  29.454  1.00  0.00     0.064 A 
ATOM     87  C   UNL A   1      43.333  36.063  30.393  1.00  0.00     0.173 A 
ATOM     88  C   UNL A   1      42.841  35.492  28.134  1.00  0.00     0.173 A 
ATOM     89  F   UNL A   1      43.422  35.785  31.703  1.00  0.00    -0.203 F 
ATOM     90  C   UNL A   1      43.470  37.397  30.016  1.00  0.00     0.198 A 
ATOM     91  C   UNL A   1      42.911  36.831  27.771  1.00  0.00     0.198 A 
ATOM     92  F   UNL A   1      42.549  34.649  27.135  1.00  0.00    -0.203 F 
ATOM     93  F   UNL A   1      43.806  38.313  30.934  1.00  0.00    -0.200 F 
ATOM     94  C   UNL A   1      43.260  37.781  28.705  1.00  0.00     0.200 A 
ATOM     95  F   UNL A   1      42.647  37.186  26.506  1.00  0.00    -0.200 F 
ATOM     96  F   UNL A   1      43.384  39.064  28.342  1.00  0.00    -0.200 F 
ENDBRANCH  63  86
ENDBRANCH  37  38
ENDBRANCH  30  32
ENDBRANCH  29  30
ENDBRANCH  28  29
ENDBRANCH  27  28
ENDBRANCH  26  27
ENDBRANCH  25  26
ENDBRANCH   1  25
TORSDOF 21
ENDMDL
MODEL 2
REMARK VINA RESULT:     -10.3      2.043      3.731
REMARK SMILES Cc1cc(-c2cncc(C(=O)OCCOCCOCCOCCOC(=O)c3ccc(-c4c5nc(c(-c6c(F)c(F)c(F)c(F)c6F)c6ccc([nH]6)c(-c6c(F)c(F)c(F)c(F)c6F)c6nc(c(-c7c(F)c(F)c(F)c(F)c7F)c7ccc4[nH]7)C=C6)C=C5)cc3)c2)ccc1F
REMARK SMILES IDX 19 1 18 2 17 3 16 4 15 5 14 6 13 7 12 8 10 9 11 10 9 11 5 12
REMARK SMILES IDX 6 13 90 14 7 15 8 16 4 17 1 18 2 19 3 20 93 21 92 22 94 23
REMARK SMILES IDX 91 24 20 25 21 26 22 27 23 28 24 29 25 30 26 31 27 32 28 33
REMARK SMILES IDX 89 34 29 35 88 36 30 37 31 38 32 39 82 40 33 41 87 42 81 43
REMARK SMILES IDX 83 44 34 45 86 46 80 47 79 48 35 50 67 51 47 52 66 53 48 54
REMARK SMILES IDX 51 55 65 56 84 57 49 58 50 59 64 61 85 62 52 63 36 64 37 65
REMARK SMILES IDX 45 66 38 67 39 68 43 69 46 70 40 71 41 72 44 73 42 74 68 75
REMARK SMILES IDX 69 76 77 77 70 78 71 79 75 80 78 81 72 82 73 83 76 84 74 85
REMARK SMILES IDX 53 86 54 87 62 88 55 89 56 90 60 91 63 92 57 93 58 94 61 95
REMARK SMILES IDX 59 96
REMARK H PARENT 83 49 51 60
REMARK Flexibility Score: inf
ROOT
ATOM      1  C   UNL A   1      36.122  22.347  24.849  1.00  0.00     0.188 C 
ENDROOT
BRANCH   1   2
ATOM      2  O   UNL A   1      35.457  22.402  26.110  1.00  0.00    -0.377 OA
BRANCH   2   3
ATOM      3  C   UNL A   1      35.037  23.666  26.605  1.00  0.00     0.188 C 
BRANCH   3   4
ATOM      4  C   UNL A   1      33.995  24.463  25.779  1.00  0.00     0.188 C 
BRANCH   4   5
ATOM      5  O   UNL A   1      33.924  25.844  26.079  1.00  0.00    -0.376 OA
BRANCH   5   6
ATOM      6  C   UNL A   1      33.853  26.826  25.063  1.00  0.00     0.202 C 
BRANCH   6   7
ATOM      7  C   UNL A   1      32.541  27.539  24.684  1.00  0.00     0.261 C 
BRANCH   7   8
ATOM      8  O   UNL A   1      31.389  26.715  24.488  1.00  0.00    -0.460 OA
BRANCH   8   9
ATOM      9  C   UNL A   1      30.997  26.507  23.217  1.00  0.00     0.339 C 
ATOM     10  O   UNL A   1      30.326  27.262  22.528  1.00  0.00    -0.246 OA
BRANCH   9  11
ATOM     11  C   UNL A   1      31.722  25.332  22.701  1.00  0.00     0.079 A 
ATOM     12  C   UNL A   1      32.513  23.041  22.847  1.00  0.00     0.001 A 
ATOM     13  C   UNL A   1      33.262  23.315  21.700  1.00  0.00     0.119 A 
ATOM     14  C   UNL A   1      31.772  24.112  23.377  1.00  0.00     0.027 A 
ATOM     15  N   UNL A   1      33.277  24.505  21.049  1.00  0.00    -0.263 NA
ATOM     16  C   UNL A   1      32.477  25.475  21.546  1.00  0.00     0.126 A 
BRANCH  12  17
ATOM     17  C   UNL A   1      32.398  21.680  23.399  1.00  0.00    -0.016 A 
ATOM     18  C   UNL A   1      32.148  18.136  21.982  1.00  0.00     0.047 C 
ATOM     19  C   UNL A   1      32.255  19.266  22.958  1.00  0.00    -0.015 A 
ATOM     20  C   UNL A   1      32.276  20.591  22.511  1.00  0.00     0.015 A 
ATOM     21  C   UNL A   1      32.361  19.026  24.326  1.00  0.00     0.126 A 
ATOM     22  C   UNL A   1      32.472  20.075  25.232  1.00  0.00     0.040 A 
ATOM     23  F   UNL A   1      32.367  17.766  24.783  1.00  0.00    -0.207 F 
ATOM     24  C   UNL A   1      32.486  21.398  24.772  1.00  0.00     0.012 A 
ENDBRANCH  12  17
ENDBRANCH   9  11
ENDBRANCH   8   9
ENDBRANCH   7   8
ENDBRANCH   6   7
ENDBRANCH   5   6
ENDBRANCH   4   5
ENDBRANCH   3   4
ENDBRANCH   2   3
ENDBRANCH   1   2
BRANCH   1  25
ATOM     25  C   UNL A   1      37.446  21.559  24.630  1.00  0.00     0.188 C 
BRANCH  25  26
ATOM     26  O   UNL A   1      38.518  21.955  25.462  1.00  0.00    -0.376 OA
BRANCH  26  27
ATOM     27  C   UNL A   1      39.359  21.052  26.139  1.00  0.00     0.202 C 
BRANCH  27  28
ATOM     28  C   UNL A   1      40.803  21.436  26.479  1.00  0.00     0.261 C 
BRANCH  28  29
ATOM     29  O   UNL A   1      41.178  22.769  26.149  1.00  0.00    -0.460 OA
BRANCH  29  30
ATOM     30  C   UNL A   1      40.905  23.622  27.151  1.00  0.00     0.338 C 
ATOM     31  O   UNL A   1      41.423  23.619  28.255  1.00  0.00    -0.246 OA
BRANCH  30  32
ATOM     32  C   UNL A   1      39.814  24.564  26.836  1.00  0.00     0.060 A 
ATOM     33  C   UNL A   1      40.314  25.609  26.028  1.00  0.00     0.016 A 
ATOM     34  C   UNL A   1      39.099  24.811  28.000  1.00  0.00     0.016 A 
ATOM     35  C   UNL A   1      40.626  26.791  26.658  1.00  0.00     0.010 A 
ATOM     36  C   UNL A   1      39.425  25.972  28.642  1.00  0.00     0.010 A 
ATOM     37  C   UNL A   1      40.272  26.890  27.995  1.00  0.00    -0.014 A 
BRANCH  37  38
ATOM     38  C   UNL A   1      40.605  28.038  28.783  1.00  0.00     0.031 A 
ATOM     39  C   UNL A   1      39.577  29.081  28.794  1.00  0.00     0.074 A 
ATOM     40  C   UNL A   1      41.702  27.994  29.564  1.00  0.00     0.049 A 
ATOM     41  N   UNL A   1      39.803  30.306  29.087  1.00  0.00    -0.248 NA
ATOM     42  C   UNL A   1      38.202  28.835  28.344  1.00  0.00     0.031 C 
ATOM     43  C   UNL A   1      41.929  28.739  30.790  1.00  0.00     0.029 A 
ATOM     44  N   UNL A   1      42.894  27.282  29.361  1.00  0.00    -0.354 N 
ATOM     45  C   UNL A   1      38.569  30.895  29.238  1.00  0.00     0.074 A 
ATOM     46  C   UNL A   1      37.630  30.016  28.590  1.00  0.00     0.031 C 
ATOM     47  C   UNL A   1      43.223  28.630  31.133  1.00  0.00     0.029 A 
ATOM     48  C   UNL A   1      43.923  27.978  30.042  1.00  0.00     0.049 A 
ATOM     49  H   UNL A   1      42.997  26.453  28.840  1.00  0.00     0.167 HD
ATOM     50  C   UNL A   1      38.462  31.944  30.097  1.00  0.00     0.037 A 
ATOM     51  C   UNL A   1      44.950  28.569  29.347  1.00  0.00     0.037 A 
ATOM     52  C   UNL A   1      39.763  32.229  30.700  1.00  0.00     0.049 A 
ATOM     53  C   UNL A   1      44.866  30.064  29.257  1.00  0.00     0.074 A 
ATOM     54  C   UNL A   1      40.373  31.837  31.882  1.00  0.00     0.029 A 
ATOM     55  N   UNL A   1      40.787  32.656  29.879  1.00  0.00    -0.354 N 
ATOM     56  N   UNL A   1      43.911  30.777  29.776  1.00  0.00    -0.248 NA
ATOM     57  C   UNL A   1      45.810  30.857  28.475  1.00  0.00     0.031 C 
ATOM     58  C   UNL A   1      41.774  32.077  31.761  1.00  0.00     0.029 A 
ATOM     59  C   UNL A   1      42.011  32.625  30.514  1.00  0.00     0.049 A 
ATOM     60  H   UNL A   1      40.659  32.949  28.948  1.00  0.00     0.167 HD
ATOM     61  C   UNL A   1      44.060  32.076  29.389  1.00  0.00     0.074 A 
ATOM     62  C   UNL A   1      45.251  32.074  28.557  1.00  0.00     0.031 C 
ATOM     63  C   UNL A   1      43.179  33.050  29.762  1.00  0.00     0.037 A 
BRANCH  50  64
ATOM     64  C   UNL A   1      37.157  32.479  30.614  1.00  0.00     0.064 A 
ATOM     65  C   UNL A   1      36.361  33.303  29.793  1.00  0.00     0.173 A 
ATOM     66  C   UNL A   1      36.636  32.236  31.899  1.00  0.00     0.173 A 
ATOM     67  F   UNL A   1      36.692  33.556  28.521  1.00  0.00    -0.203 F 
ATOM     68  C   UNL A   1      35.187  33.903  30.248  1.00  0.00     0.198 A 
ATOM     69  C   UNL A   1      35.485  32.876  32.373  1.00  0.00     0.198 A 
ATOM     70  F   UNL A   1      37.189  31.333  32.720  1.00  0.00    -0.203 F 
ATOM     71  F   UNL A   1      34.474  34.674  29.416  1.00  0.00    -0.200 F 
ATOM     72  C   UNL A   1      34.763  33.713  31.547  1.00  0.00     0.200 A 
ATOM     73  F   UNL A   1      35.077  32.669  33.632  1.00  0.00    -0.200 F 
ATOM     74  F   UNL A   1      33.650  34.312  31.989  1.00  0.00    -0.200 F 
ENDBRANCH  50  64
BRANCH  51  75
ATOM     75  C   UNL A   1      45.519  27.719  28.269  1.00  0.00     0.064 A 
ATOM     76  C   UNL A   1      46.111  26.540  28.737  1.00  0.00     0.173 A 
ATOM     77  C   UNL A   1      44.840  27.698  27.045  1.00  0.00     0.173 A 
ATOM     78  F   UNL A   1      46.889  26.560  29.830  1.00  0.00    -0.203 F 
ATOM     79  C   UNL A   1      45.695  25.327  28.226  1.00  0.00     0.198 A 
ATOM     80  C   UNL A   1      44.428  26.478  26.526  1.00  0.00     0.198 A 
ATOM     81  F   UNL A   1      44.407  28.841  26.492  1.00  0.00    -0.203 F 
ATOM     82  F   UNL A   1      46.038  24.186  28.838  1.00  0.00    -0.200 F 
ATOM     83  C   UNL A   1      44.804  25.299  27.169  1.00  0.00     0.200 A 
ATOM     84  F   UNL A   1      43.584  26.467  25.485  1.00  0.00    -0.200 F 
ATOM     85  F   UNL A   1      44.303  24.109  26.825  1.00  0.00    -0.200 F 
ENDBRANCH  51  75
BRANCH  63  86
ATOM     86  C   UNL A   1      43.351  34.497  29.398  1.00  0.00     0.064 A 
ATOM     87  C   UNL A   1      43.530  35.493  30.368  1.00  0.00     0.173 A 
ATOM     88  C   UNL A   1      43.249  34.954  28.065  1.00  0.00     0.173 A 
ATOM     89  F   UNL A   1      43.484  35.202  31.677  1.00  0.00    -0.203 F 
ATOM     90  C   UNL A   1      43.734  36.827  30.020  1.00  0.00     0.198 A 
ATOM     91  C   UNL A   1      43.384  36.295  27.726  1.00  0.00     0.198 A 
ATOM     92  F   UNL A   1      43.037  34.127  27.033  1.00  0.00    -0.203 F 
ATOM     93  F   UNL A   1      43.999  37.727  30.977  1.00  0.00    -0.200 F 
ATOM     94  C   UNL A   1      43.662  37.227  28.699  1.00  0.00     0.200 A 
ATOM     95  F   UNL A   1      43.254  36.667  26.445  1.00  0.00    -0.200 F 
ATOM     96  F   UNL A   1      43.851  38.510  28.365  1.00  0.00    -0.200 F 
ENDBRANCH  63  86
ENDBRANCH  37  38
ENDBRANCH  30  32
ENDBRANCH  29  30
ENDBRANCH  28  29
ENDBRANCH  27  28
ENDBRANCH  26  27
ENDBRANCH  25  26
ENDBRANCH   1  25
TORSDOF 21
ENDMDL
MODEL 3
REMARK VINA RESULT:     -10.2      3.879     10.064
REMARK SMILES Cc1cc(-c2cncc(C(=O)OCCOCCOCCOCCOC(=O)c3ccc(-c4c5nc(c(-c6c(F)c(F)c(F)c(F)c6F)c6ccc([nH]6)c(-c6c(F)c(F)c(F)c(F)c6F)c6nc(c(-c7c(F)c(F)c(F)c(F)c7F)c7ccc4[nH]7)C=C6)C=C5)cc3)c2)ccc1F
REMARK SMILES IDX 19 1 18 2 17 3 16 4 15 5 14 6 13 7 12 8 10 9 11 10 9 11 5 12
REMARK SMILES IDX 6 13 90 14 7 15 8 16 4 17 1 18 2 19 3 20 93 21 92 22 94 23
REMARK SMILES IDX 91 24 20 25 21 26 22 27 23 28 24 29 25 30 26 31 27 32 28 33
REMARK SMILES IDX 89 34 29 35 88 36 30 37 31 38 32 39 82 40 33 41 87 42 81 43
REMARK SMILES IDX 83 44 34 45 86 46 80 47 79 48 35 50 67 51 47 52 66 53 48 54
REMARK SMILES IDX 51 55 65 56 84 57 49 58 50 59 64 61 85 62 52 63 36 64 37 65
REMARK SMILES IDX 45 66 38 67 39 68 43 69 46 70 40 71 41 72 44 73 42 74 68 75
REMARK SMILES IDX 69 76 77 77 70 78 71 79 75 80 78 81 72 82 73 83 76 84 74 85
REMARK SMILES IDX 53 86 54 87 62 88 55 89 56 90 60 91 63 92 57 93 58 94 61 95
REMARK SMILES IDX 59 96
REMARK H PARENT 83 49 51 60
REMARK Flexibility Score: inf
ROOT
ATOM      1  C   UNL A   1      33.961  32.909  28.039  1.00  0.00     0.188 C 
ENDROOT
BRANCH   1   2
ATOM      2  O   UNL A   1      34.349  31.783  27.254  1.00  0.00    -0.377 OA
BRANCH   2   3
ATOM      3  C   UNL A   1      33.910  30.491  27.650  1.00  0.00     0.188 C 
BRANCH   3   4
ATOM      4  C   UNL A   1      34.324  29.280  26.775  1.00  0.00     0.188 C 
BRANCH   4   5
ATOM      5  O   UNL A   1      33.665  29.193  25.525  1.00  0.00    -0.376 OA
BRANCH   5   6
ATOM      6  C   UNL A   1      32.325  29.615  25.358  1.00  0.00     0.202 C 
BRANCH   6   7
ATOM      7  C   UNL A   1      31.327  28.875  24.446  1.00  0.00     0.261 C 
BRANCH   7   8
ATOM      8  O   UNL A   1      31.641  27.523  24.103  1.00  0.00    -0.460 OA
BRANCH   8   9
ATOM      9  C   UNL A   1      30.646  26.621  24.206  1.00  0.00     0.339 C 
ATOM     10  O   UNL A   1      29.606  26.606  23.563  1.00  0.00    -0.246 OA
BRANCH   9  11
ATOM     11  C   UNL A   1      31.125  25.505  25.042  1.00  0.00     0.079 A 
ATOM     12  C   UNL A   1      32.647  23.684  25.556  1.00  0.00     0.001 A 
ATOM     13  C   UNL A   1      31.770  23.357  26.595  1.00  0.00     0.119 A 
ATOM     14  C   UNL A   1      32.264  24.760  24.736  1.00  0.00     0.027 A 
ATOM     15  N   UNL A   1      30.629  24.029  26.887  1.00  0.00    -0.263 NA
ATOM     16  C   UNL A   1      30.352  25.110  26.124  1.00  0.00     0.126 A 
BRANCH  12  17
ATOM     17  C   UNL A   1      33.958  23.030  25.405  1.00  0.00    -0.016 A 
ATOM     18  C   UNL A   1      37.600  23.942  26.128  1.00  0.00     0.047 C 
ATOM     19  C   UNL A   1      36.391  23.158  25.726  1.00  0.00    -0.015 A 
ATOM     20  C   UNL A   1      35.122  23.744  25.756  1.00  0.00     0.015 A 
ATOM     21  C   UNL A   1      36.496  21.825  25.337  1.00  0.00     0.126 A 
ATOM     22  C   UNL A   1      35.371  21.092  24.973  1.00  0.00     0.040 A 
ATOM     23  F   UNL A   1      37.696  21.228  25.320  1.00  0.00    -0.207 F 
ATOM     24  C   UNL A   1      34.106  21.692  25.002  1.00  0.00     0.012 A 
ENDBRANCH  12  17
ENDBRANCH   9  11
ENDBRANCH   8   9
ENDBRANCH   7   8
ENDBRANCH   6   7
ENDBRANCH   5   6
ENDBRANCH   4   5
ENDBRANCH   3   4
ENDBRANCH   2   3
ENDBRANCH   1   2
BRANCH   1  25
ATOM     25  C   UNL A   1      34.802  34.217  28.109  1.00  0.00     0.188 C 
BRANCH  25  26
ATOM     26  O   UNL A   1      35.838  34.206  29.069  1.00  0.00    -0.376 OA
BRANCH  26  27
ATOM     27  C   UNL A   1      37.185  33.927  28.766  1.00  0.00     0.202 C 
BRANCH  27  28
ATOM     28  C   UNL A   1      38.081  33.211  29.783  1.00  0.00     0.261 C 
BRANCH  28  29
ATOM     29  O   UNL A   1      38.349  31.840  29.506  1.00  0.00    -0.460 OA
BRANCH  29  30
ATOM     30  C   UNL A   1      37.275  31.069  29.747  1.00  0.00     0.338 C 
ATOM     31  O   UNL A   1      36.383  31.311  30.542  1.00  0.00    -0.246 OA
BRANCH  30  32
ATOM     32  C   UNL A   1      37.293  29.794  29.003  1.00  0.00     0.060 A 
ATOM     33  C   UNL A   1      37.283  28.717  29.916  1.00  0.00     0.016 A 
ATOM     34  C   UNL A   1      38.237  29.892  27.991  1.00  0.00     0.016 A 
ATOM     35  C   UNL A   1      38.490  28.121  30.193  1.00  0.00     0.010 A 
ATOM     36  C   UNL A   1      39.447  29.324  28.273  1.00  0.00     0.010 A 
ATOM     37  C   UNL A   1      39.573  28.536  29.431  1.00  0.00    -0.014 A 
BRANCH  37  38
ATOM     38  C   UNL A   1      40.897  28.047  29.669  1.00  0.00     0.031 A 
ATOM     39  C   UNL A   1      41.177  26.744  29.060  1.00  0.00     0.074 A 
ATOM     40  C   UNL A   1      41.798  28.865  30.247  1.00  0.00     0.049 A 
ATOM     41  N   UNL A   1      42.112  25.960  29.447  1.00  0.00    -0.248 NA
ATOM     42  C   UNL A   1      40.322  26.161  28.020  1.00  0.00     0.031 C 
ATOM     43  C   UNL A   1      43.241  28.821  30.091  1.00  0.00     0.029 A 
ATOM     44  N   UNL A   1      41.577  29.900  31.168  1.00  0.00    -0.354 N 
ATOM     45  C   UNL A   1      42.215  24.987  28.481  1.00  0.00     0.074 A 
ATOM     46  C   UNL A   1      40.985  25.039  27.735  1.00  0.00     0.031 C 
ATOM     47  C   UNL A   1      43.804  29.616  31.016  1.00  0.00     0.029 A 
ATOM     48  C   UNL A   1      42.762  30.051  31.929  1.00  0.00     0.049 A 
ATOM     49  H   UNL A   1      40.750  30.425  31.269  1.00  0.00     0.167 HD
ATOM     50  C   UNL A   1      43.431  24.409  28.284  1.00  0.00     0.037 A 
ATOM     51  C   UNL A   1      42.775  29.768  33.273  1.00  0.00     0.037 A 
ATOM     52  C   UNL A   1      44.412  24.984  29.203  1.00  0.00     0.049 A 
ATOM     53  C   UNL A   1      43.456  28.483  33.637  1.00  0.00     0.074 A 
ATOM     54  C   UNL A   1      45.329  26.018  29.094  1.00  0.00     0.029 A 
ATOM     55  N   UNL A   1      44.235  24.787  30.558  1.00  0.00    -0.354 N 
ATOM     56  N   UNL A   1      43.996  27.671  32.778  1.00  0.00    -0.248 NA
ATOM     57  C   UNL A   1      43.480  27.968  35.003  1.00  0.00     0.031 C 
ATOM     58  C   UNL A   1      45.724  26.403  30.410  1.00  0.00     0.029 A 
ATOM     59  C   UNL A   1      45.057  25.597  31.313  1.00  0.00     0.049 A 
ATOM     60  H   UNL A   1      43.597  24.143  30.941  1.00  0.00     0.167 HD
ATOM     61  C   UNL A   1      44.397  26.537  33.421  1.00  0.00     0.074 A 
ATOM     62  C   UNL A   1      44.032  26.760  34.811  1.00  0.00     0.031 C 
ATOM     63  C   UNL A   1      44.974  25.492  32.760  1.00  0.00     0.037 A 
BRANCH  50  64
ATOM     64  C   UNL A   1      43.785  23.584  27.080  1.00  0.00     0.064 A 
ATOM     65  C   UNL A   1      43.251  22.288  26.932  1.00  0.00     0.173 A 
ATOM     66  C   UNL A   1      44.648  23.995  26.045  1.00  0.00     0.173 A 
ATOM     67  F   UNL A   1      42.357  21.796  27.797  1.00  0.00    -0.203 F 
ATOM     68  C   UNL A   1      43.615  21.443  25.885  1.00  0.00     0.198 A 
ATOM     69  C   UNL A   1      45.052  23.130  25.021  1.00  0.00     0.198 A 
ATOM     70  F   UNL A   1      45.087  25.257  25.958  1.00  0.00    -0.203 F 
ATOM     71  F   UNL A   1      43.067  20.223  25.800  1.00  0.00    -0.200 F 
ATOM     72  C   UNL A   1      44.537  21.852  24.945  1.00  0.00     0.200 A 
ATOM     73  F   UNL A   1      45.937  23.548  24.106  1.00  0.00    -0.200 F 
ATOM     74  F   UNL A   1      44.905  21.029  23.955  1.00  0.00    -0.200 F 
ENDBRANCH  50  64
BRANCH  51  75
ATOM     75  C   UNL A   1      41.606  30.310  34.015  1.00  0.00     0.064 A 
ATOM     76  C   UNL A   1      41.674  31.690  34.239  1.00  0.00     0.173 A 
ATOM     77  C   UNL A   1      40.360  29.722  33.764  1.00  0.00     0.173 A 
ATOM     78  F   UNL A   1      42.826  32.258  34.625  1.00  0.00    -0.203 F 
ATOM     79  C   UNL A   1      40.630  32.492  33.824  1.00  0.00     0.198 A 
ATOM     80  C   UNL A   1      39.308  30.530  33.353  1.00  0.00     0.198 A 
ATOM     81  F   UNL A   1      40.240  28.387  33.709  1.00  0.00    -0.203 F 
ATOM     82  F   UNL A   1      40.783  33.822  33.776  1.00  0.00    -0.200 F 
ATOM     83  C   UNL A   1      39.480  31.913  33.320  1.00  0.00     0.200 A 
ATOM     84  F   UNL A   1      38.190  29.954  32.890  1.00  0.00    -0.200 F 
ATOM     85  F   UNL A   1      38.573  32.731  32.776  1.00  0.00    -0.200 F 
ENDBRANCH  51  75
BRANCH  63  86
ATOM     86  C   UNL A   1      45.475  24.257  33.452  1.00  0.00     0.064 A 
ATOM     87  C   UNL A   1      46.829  24.078  33.769  1.00  0.00     0.173 A 
ATOM     88  C   UNL A   1      44.630  23.162  33.741  1.00  0.00     0.173 A 
ATOM     89  F   UNL A   1      47.752  24.979  33.400  1.00  0.00    -0.203 F 
ATOM     90  C   UNL A   1      47.279  22.949  34.452  1.00  0.00     0.198 A 
ATOM     91  C   UNL A   1      45.093  22.008  34.361  1.00  0.00     0.198 A 
ATOM     92  F   UNL A   1      43.321  23.167  33.460  1.00  0.00    -0.203 F 
ATOM     93  F   UNL A   1      48.565  22.868  34.820  1.00  0.00    -0.200 F 
ATOM     94  C   UNL A   1      46.411  21.915  34.748  1.00  0.00     0.200 A 
ATOM     95  F   UNL A   1      44.245  20.995  34.587  1.00  0.00    -0.200 F 
ATOM     96  F   UNL A   1      46.844  20.827  35.398  1.00  0.00    -0.200 F 
ENDBRANCH  63  86
ENDBRANCH  37  38
ENDBRANCH  30  32
ENDBRANCH  29  30
ENDBRANCH  28  29
ENDBRANCH  27  28
ENDBRANCH  26  27
ENDBRANCH  25  26
ENDBRANCH   1  25
TORSDOF 21
ENDMDL
