MODEL 1
REMARK VINA RESULT:     -11.4      0.000      0.000
REMARK SMILES Nc1c(Cl)ccc2c1C=C(C(=O)OCCOCCOCCOCCOC(=O)c1ccc(-c3c4nc(c(-c5c(F)c(F)c(F)c(F)c5F)c5ccc([nH]5)c(-c5c(F)c(F)c(F)c(F)c5F)c5nc(c(-c6c(F)c(F)c(F)c(F)c6F)c6ccc3[nH]6)C=C5)C=C4)cc1)[C@@H](C(F)(F)F)O2
REMARK SMILES IDX 20 1 19 2 18 3 17 4 16 5 15 6 14 7 13 8 11 9 12 10 10 11
REMARK SMILES IDX 2 12 3 13 8 14 4 15 5 16 7 17 9 18 6 19 96 20 91 21 1 22
REMARK SMILES IDX 92 25 93 26 94 27 95 28 21 29 22 30 23 31 24 32 25 33 26 34
REMARK SMILES IDX 27 35 28 36 29 37 90 38 30 39 89 40 31 41 32 42 33 43 83 44
REMARK SMILES IDX 34 45 88 46 82 47 84 48 35 49 87 50 81 51 80 52 36 54 68 55
REMARK SMILES IDX 48 56 67 57 49 58 52 59 66 60 85 61 50 62 51 63 65 65 86 66
REMARK SMILES IDX 53 67 37 68 38 69 46 70 39 71 40 72 44 73 47 74 41 75 42 76
REMARK SMILES IDX 45 77 43 78 69 79 70 80 78 81 71 82 72 83 76 84 79 85 73 86
REMARK SMILES IDX 74 87 77 88 75 89 54 90 55 91 63 92 56 93 57 94 61 95 64 96
REMARK SMILES IDX 58 97 59 98 62 99 60 100
REMARK H PARENT 1 23 1 24 84 53 52 64
REMARK Flexibility Score: inf
ROOT
ATOM      1  C   UNL A   1      39.787  21.601  25.863  1.00  0.00     0.188 C 
ENDROOT
BRANCH   1   2
ATOM      2  O   UNL A   1      38.375  21.467  25.686  1.00  0.00    -0.377 OA
BRANCH   2   3
ATOM      3  C   UNL A   1      37.577  22.636  25.783  1.00  0.00     0.188 C 
BRANCH   3   4
ATOM      4  C   UNL A   1      37.004  23.102  24.431  1.00  0.00     0.188 C 
BRANCH   4   5
ATOM      5  O   UNL A   1      35.876  22.346  24.020  1.00  0.00    -0.376 OA
BRANCH   5   6
ATOM      6  C   UNL A   1      34.621  22.977  23.826  1.00  0.00     0.202 C 
BRANCH   6   7
ATOM      7  C   UNL A   1      34.251  24.306  24.511  1.00  0.00     0.261 C 
BRANCH   7   8
ATOM      8  O   UNL A   1      33.209  25.079  23.909  1.00  0.00    -0.460 OA
BRANCH   8   9
ATOM      9  C   UNL A   1      33.019  26.332  24.359  1.00  0.00     0.338 C 
ATOM     10  O   UNL A   1      33.865  27.079  24.814  1.00  0.00    -0.246 OA
BRANCH   9  11
ATOM     11  C   UNL A   1      31.626  26.715  24.031  1.00  0.00     0.088 C 
ATOM     12  C   UNL A   1      29.861  29.382  22.146  1.00  0.00     0.061 A 
ATOM     13  C   UNL A   1      28.536  29.862  22.076  1.00  0.00     0.064 A 
ATOM     14  C   UNL A   1      30.111  28.233  22.931  1.00  0.00     0.042 A 
ATOM     15  Cl  UNL A   1      28.175  31.343  21.255  1.00  0.00    -0.082 Cl
ATOM     16  C   UNL A   1      27.479  29.159  22.654  1.00  0.00     0.026 A 
ATOM     17  C   UNL A   1      29.038  27.500  23.456  1.00  0.00     0.130 A 
ATOM     18  C   UNL A   1      31.465  27.822  23.294  1.00  0.00     0.029 C 
ATOM     19  C   UNL A   1      27.728  27.958  23.311  1.00  0.00     0.049 A 
ATOM     20  O   UNL A   1      29.167  26.330  24.148  1.00  0.00    -0.475 OA
ATOM     21  C   UNL A   1      30.493  25.821  24.454  1.00  0.00     0.316 C 
BRANCH  12  22
ATOM     22  N   UNL A   1      30.904  30.104  21.548  1.00  0.00    -0.397 N 
ATOM     23  H   UNL A   1      31.166  30.982  21.909  1.00  0.00     0.156 HD
ATOM     24  H   UNL A   1      31.376  29.733  20.768  1.00  0.00     0.156 HD
ENDBRANCH  12  22
BRANCH  21  25
ATOM     25  C   UNL A   1      30.532  25.502  25.955  1.00  0.00     0.430 C 
ATOM     26  F   UNL A   1      31.136  26.494  26.654  1.00  0.00    -0.167 F 
ATOM     27  F   UNL A   1      29.292  25.362  26.481  1.00  0.00    -0.167 F 
ATOM     28  F   UNL A   1      31.210  24.359  26.207  1.00  0.00    -0.167 F 
ENDBRANCH  21  25
ENDBRANCH   9  11
ENDBRANCH   8   9
ENDBRANCH   7   8
ENDBRANCH   6   7
ENDBRANCH   5   6
ENDBRANCH   4   5
ENDBRANCH   3   4
ENDBRANCH   2   3
ENDBRANCH   1   2
BRANCH   1  29
ATOM     29  C   UNL A   1      40.539  20.995  27.076  1.00  0.00     0.188 C 
BRANCH  29  30
ATOM     30  O   UNL A   1      41.927  21.294  27.112  1.00  0.00    -0.376 OA
BRANCH  30  31
ATOM     31  C   UNL A   1      42.740  20.825  26.051  1.00  0.00     0.202 C 
BRANCH  31  32
ATOM     32  C   UNL A   1      43.570  21.886  25.317  1.00  0.00     0.261 C 
BRANCH  32  33
ATOM     33  O   UNL A   1      42.915  23.140  25.079  1.00  0.00    -0.460 OA
BRANCH  33  34
ATOM     34  C   UNL A   1      43.667  24.259  25.119  1.00  0.00     0.338 C 
ATOM     35  O   UNL A   1      44.650  24.519  24.447  1.00  0.00    -0.246 OA
BRANCH  34  36
ATOM     36  C   UNL A   1      42.979  25.208  26.015  1.00  0.00     0.060 A 
ATOM     37  C   UNL A   1      43.414  26.539  26.078  1.00  0.00     0.016 A 
ATOM     38  C   UNL A   1      41.889  24.778  26.773  1.00  0.00     0.016 A 
ATOM     39  C   UNL A   1      42.767  27.443  26.920  1.00  0.00     0.010 A 
ATOM     40  C   UNL A   1      41.265  25.674  27.644  1.00  0.00     0.010 A 
ATOM     41  C   UNL A   1      41.723  26.999  27.742  1.00  0.00    -0.014 A 
BRANCH  41  42
ATOM     42  C   UNL A   1      41.285  27.837  28.881  1.00  0.00     0.031 A 
ATOM     43  C   UNL A   1      42.070  27.739  30.159  1.00  0.00     0.074 A 
ATOM     44  C   UNL A   1      40.234  28.668  28.788  1.00  0.00     0.049 A 
ATOM     45  N   UNL A   1      41.870  28.333  31.307  1.00  0.00    -0.248 NA
ATOM     46  C   UNL A   1      43.241  26.847  30.137  1.00  0.00     0.031 C 
ATOM     47  C   UNL A   1      39.433  28.887  27.588  1.00  0.00     0.029 A 
ATOM     48  N   UNL A   1      39.660  29.480  29.735  1.00  0.00    -0.354 N 
ATOM     49  C   UNL A   1      42.896  27.897  32.134  1.00  0.00     0.074 A 
ATOM     50  C   UNL A   1      43.691  26.957  31.376  1.00  0.00     0.031 C 
ATOM     51  C   UNL A   1      38.461  29.773  27.872  1.00  0.00     0.029 A 
ATOM     52  C   UNL A   1      38.555  30.157  29.281  1.00  0.00     0.049 A 
ATOM     53  H   UNL A   1      40.008  29.569  30.652  1.00  0.00     0.167 HD
ATOM     54  C   UNL A   1      43.158  28.258  33.411  1.00  0.00     0.037 A 
ATOM     55  C   UNL A   1      37.713  30.978  29.940  1.00  0.00     0.037 A 
ATOM     56  C   UNL A   1      42.349  29.170  34.171  1.00  0.00     0.049 A 
ATOM     57  C   UNL A   1      37.957  31.275  31.399  1.00  0.00     0.074 A 
ATOM     58  C   UNL A   1      42.525  29.596  35.475  1.00  0.00     0.029 A 
ATOM     59  N   UNL A   1      41.200  29.787  33.698  1.00  0.00    -0.354 N 
ATOM     60  N   UNL A   1      38.939  30.878  32.171  1.00  0.00    -0.248 NA
ATOM     61  C   UNL A   1      36.973  32.132  32.077  1.00  0.00     0.031 C 
ATOM     62  C   UNL A   1      41.450  30.423  35.810  1.00  0.00     0.029 A 
ATOM     63  C   UNL A   1      40.638  30.565  34.695  1.00  0.00     0.049 A 
ATOM     64  H   UNL A   1      40.839  29.686  32.788  1.00  0.00     0.167 HD
ATOM     65  C   UNL A   1      38.708  31.456  33.414  1.00  0.00     0.074 A 
ATOM     66  C   UNL A   1      37.498  32.241  33.290  1.00  0.00     0.031 C 
ATOM     67  C   UNL A   1      39.434  31.345  34.555  1.00  0.00     0.037 A 
BRANCH  54  68
ATOM     68  C   UNL A   1      44.361  27.648  34.067  1.00  0.00     0.064 A 
ATOM     69  C   UNL A   1      44.271  26.456  34.802  1.00  0.00     0.173 A 
ATOM     70  C   UNL A   1      45.625  28.243  33.935  1.00  0.00     0.173 A 
ATOM     71  F   UNL A   1      43.082  25.858  34.975  1.00  0.00    -0.203 F 
ATOM     72  C   UNL A   1      45.397  25.893  35.396  1.00  0.00     0.198 A 
ATOM     73  C   UNL A   1      46.753  27.660  34.503  1.00  0.00     0.198 A 
ATOM     74  F   UNL A   1      45.766  29.385  33.245  1.00  0.00    -0.203 F 
ATOM     75  F   UNL A   1      45.278  24.779  36.131  1.00  0.00    -0.200 F 
ATOM     76  C   UNL A   1      46.639  26.489  35.238  1.00  0.00     0.200 A 
ATOM     77  F   UNL A   1      47.954  28.232  34.340  1.00  0.00    -0.200 F 
ATOM     78  F   UNL A   1      47.724  25.940  35.800  1.00  0.00    -0.200 F 
ENDBRANCH  54  68
BRANCH  55  79
ATOM     79  C   UNL A   1      36.565  31.588  29.217  1.00  0.00     0.064 A 
ATOM     80  C   UNL A   1      35.459  30.814  28.843  1.00  0.00     0.173 A 
ATOM     81  C   UNL A   1      36.541  32.954  28.899  1.00  0.00     0.173 A 
ATOM     82  F   UNL A   1      35.447  29.497  29.099  1.00  0.00    -0.203 F 
ATOM     83  C   UNL A   1      34.373  31.381  28.179  1.00  0.00     0.198 A 
ATOM     84  C   UNL A   1      35.444  33.526  28.258  1.00  0.00     0.198 A 
ATOM     85  F   UNL A   1      37.578  33.739  29.227  1.00  0.00    -0.203 F 
ATOM     86  F   UNL A   1      33.343  30.610  27.805  1.00  0.00    -0.200 F 
ATOM     87  C   UNL A   1      34.362  32.738  27.896  1.00  0.00     0.200 A 
ATOM     88  F   UNL A   1      35.434  34.840  27.996  1.00  0.00    -0.200 F 
ATOM     89  F   UNL A   1      33.312  33.286  27.270  1.00  0.00    -0.200 F 
ENDBRANCH  55  79
BRANCH  67  90
ATOM     90  C   UNL A   1      38.963  32.101  35.766  1.00  0.00     0.064 A 
ATOM     91  C   UNL A   1      38.184  31.488  36.757  1.00  0.00     0.173 A 
ATOM     92  C   UNL A   1      39.380  33.425  35.984  1.00  0.00     0.173 A 
ATOM     93  F   UNL A   1      37.751  30.229  36.593  1.00  0.00    -0.203 F 
ATOM     94  C   UNL A   1      37.830  32.175  37.915  1.00  0.00     0.198 A 
ATOM     95  C   UNL A   1      39.051  34.096  37.157  1.00  0.00     0.198 A 
ATOM     96  F   UNL A   1      40.137  34.054  35.073  1.00  0.00    -0.203 F 
ATOM     97  F   UNL A   1      37.057  31.579  38.835  1.00  0.00    -0.200 F 
ATOM     98  C   UNL A   1      38.274  33.473  38.121  1.00  0.00     0.200 A 
ATOM     99  F   UNL A   1      39.500  35.343  37.363  1.00  0.00    -0.200 F 
ATOM    100  F   UNL A   1      37.952  34.123  39.247  1.00  0.00    -0.200 F 
ENDBRANCH  67  90
ENDBRANCH  41  42
ENDBRANCH  34  36
ENDBRANCH  33  34
ENDBRANCH  32  33
ENDBRANCH  31  32
ENDBRANCH  30  31
ENDBRANCH  29  30
ENDBRANCH   1  29
TORSDOF 22
ENDMDL
MODEL 2
REMARK VINA RESULT:     -11.0      1.497      2.312
REMARK SMILES Nc1c(Cl)ccc2c1C=C(C(=O)OCCOCCOCCOCCOC(=O)c1ccc(-c3c4nc(c(-c5c(F)c(F)c(F)c(F)c5F)c5ccc([nH]5)c(-c5c(F)c(F)c(F)c(F)c5F)c5nc(c(-c6c(F)c(F)c(F)c(F)c6F)c6ccc3[nH]6)C=C5)C=C4)cc1)[C@@H](C(F)(F)F)O2
REMARK SMILES IDX 20 1 19 2 18 3 17 4 16 5 15 6 14 7 13 8 11 9 12 10 10 11
REMARK SMILES IDX 2 12 3 13 8 14 4 15 5 16 7 17 9 18 6 19 96 20 91 21 1 22
REMARK SMILES IDX 92 25 93 26 94 27 95 28 21 29 22 30 23 31 24 32 25 33 26 34
REMARK SMILES IDX 27 35 28 36 29 37 90 38 30 39 89 40 31 41 32 42 33 43 83 44
REMARK SMILES IDX 34 45 88 46 82 47 84 48 35 49 87 50 81 51 80 52 36 54 68 55
REMARK SMILES IDX 48 56 67 57 49 58 52 59 66 60 85 61 50 62 51 63 65 65 86 66
REMARK SMILES IDX 53 67 37 68 38 69 46 70 39 71 40 72 44 73 47 74 41 75 42 76
REMARK SMILES IDX 45 77 43 78 69 79 70 80 78 81 71 82 72 83 76 84 79 85 73 86
REMARK SMILES IDX 74 87 77 88 75 89 54 90 55 91 63 92 56 93 57 94 61 95 64 96
REMARK SMILES IDX 58 97 59 98 62 99 60 100
REMARK H PARENT 1 23 1 24 84 53 52 64
REMARK Flexibility Score: inf
ROOT
ATOM      1  C   UNL A   1      41.681  20.353  27.260  1.00  0.00     0.188 C 
ENDROOT
BRANCH   1   2
ATOM      2  O   UNL A   1      40.315  20.773  27.237  1.00  0.00    -0.377 OA
BRANCH   2   3
ATOM      3  C   UNL A   1      39.923  21.712  26.249  1.00  0.00     0.188 C 
BRANCH   3   4
ATOM      4  C   UNL A   1      39.265  22.978  26.832  1.00  0.00     0.188 C 
BRANCH   4   5
ATOM      5  O   UNL A   1      38.571  23.738  25.855  1.00  0.00    -0.376 OA
BRANCH   5   6
ATOM      6  C   UNL A   1      37.184  23.992  25.995  1.00  0.00     0.202 C 
BRANCH   6   7
ATOM      7  C   UNL A   1      36.124  22.882  25.865  1.00  0.00     0.261 C 
BRANCH   7   8
ATOM      8  O   UNL A   1      34.921  23.212  25.166  1.00  0.00    -0.460 OA
BRANCH   8   9
ATOM      9  C   UNL A   1      35.036  23.718  23.925  1.00  0.00     0.338 C 
ATOM     10  O   UNL A   1      35.836  23.379  23.072  1.00  0.00    -0.246 OA
BRANCH   9  11
ATOM     11  C   UNL A   1      33.892  24.634  23.710  1.00  0.00     0.088 C 
ATOM     12  C   UNL A   1      32.904  28.091  24.635  1.00  0.00     0.061 A 
ATOM     13  C   UNL A   1      31.703  28.832  24.636  1.00  0.00     0.064 A 
ATOM     14  C   UNL A   1      32.882  26.791  24.080  1.00  0.00     0.042 A 
ATOM     15  Cl  UNL A   1      31.616  30.371  25.425  1.00  0.00    -0.082 Cl
ATOM     16  C   UNL A   1      30.557  28.357  23.999  1.00  0.00     0.026 A 
ATOM     17  C   UNL A   1      31.745  26.346  23.389  1.00  0.00     0.130 A 
ATOM     18  C   UNL A   1      33.978  25.845  24.275  1.00  0.00     0.029 C 
ATOM     19  C   UNL A   1      30.592  27.131  23.343  1.00  0.00     0.049 A 
ATOM     20  O   UNL A   1      31.655  25.148  22.741  1.00  0.00    -0.475 OA
ATOM     21  C   UNL A   1      32.758  24.206  22.820  1.00  0.00     0.316 C 
BRANCH  12  22
ATOM     22  N   UNL A   1      34.044  28.596  25.275  1.00  0.00    -0.397 N 
ATOM     23  H   UNL A   1      34.034  28.756  26.247  1.00  0.00     0.156 HD
ATOM     24  H   UNL A   1      34.857  28.790  24.754  1.00  0.00     0.156 HD
ENDBRANCH  12  22
BRANCH  21  25
ATOM     25  C   UNL A   1      32.176  22.845  23.230  1.00  0.00     0.430 C 
ATOM     26  F   UNL A   1      30.969  22.632  22.652  1.00  0.00    -0.167 F 
ATOM     27  F   UNL A   1      32.971  21.815  22.854  1.00  0.00    -0.167 F 
ATOM     28  F   UNL A   1      32.005  22.757  24.569  1.00  0.00    -0.167 F 
ENDBRANCH  21  25
ENDBRANCH   9  11
ENDBRANCH   8   9
ENDBRANCH   7   8
ENDBRANCH   6   7
ENDBRANCH   5   6
ENDBRANCH   4   5
ENDBRANCH   3   4
ENDBRANCH   2   3
ENDBRANCH   1   2
BRANCH   1  29
ATOM     29  C   UNL A   1      42.322  19.528  26.114  1.00  0.00     0.188 C 
BRANCH  29  30
ATOM     30  O   UNL A   1      43.007  20.308  25.145  1.00  0.00    -0.376 OA
BRANCH  30  31
ATOM     31  C   UNL A   1      44.412  20.443  25.268  1.00  0.00     0.202 C 
BRANCH  31  32
ATOM     32  C   UNL A   1      44.923  21.838  25.652  1.00  0.00     0.261 C 
BRANCH  32  33
ATOM     33  O   UNL A   1      43.931  22.873  25.723  1.00  0.00    -0.460 OA
BRANCH  33  34
ATOM     34  C   UNL A   1      44.303  24.123  25.382  1.00  0.00     0.338 C 
ATOM     35  O   UNL A   1      45.014  24.461  24.451  1.00  0.00    -0.246 OA
BRANCH  34  36
ATOM     36  C   UNL A   1      43.545  25.049  26.245  1.00  0.00     0.060 A 
ATOM     37  C   UNL A   1      43.796  26.426  26.173  1.00  0.00     0.016 A 
ATOM     38  C   UNL A   1      42.570  24.547  27.109  1.00  0.00     0.016 A 
ATOM     39  C   UNL A   1      43.081  27.307  26.984  1.00  0.00     0.010 A 
ATOM     40  C   UNL A   1      41.880  25.426  27.947  1.00  0.00     0.010 A 
ATOM     41  C   UNL A   1      42.157  26.803  27.909  1.00  0.00    -0.014 A 
BRANCH  41  42
ATOM     42  C   UNL A   1      41.676  27.673  29.005  1.00  0.00     0.031 A 
ATOM     43  C   UNL A   1      42.453  27.666  30.291  1.00  0.00     0.074 A 
ATOM     44  C   UNL A   1      40.591  28.453  28.868  1.00  0.00     0.049 A 
ATOM     45  N   UNL A   1      42.220  28.302  31.410  1.00  0.00    -0.248 NA
ATOM     46  C   UNL A   1      43.661  26.824  30.317  1.00  0.00     0.031 C 
ATOM     47  C   UNL A   1      39.791  28.582  27.655  1.00  0.00     0.029 A 
ATOM     48  N   UNL A   1      39.976  29.282  29.774  1.00  0.00    -0.354 N 
ATOM     49  C   UNL A   1      43.257  27.948  32.262  1.00  0.00     0.074 A 
ATOM     50  C   UNL A   1      44.096  27.010  31.552  1.00  0.00     0.031 C 
ATOM     51  C   UNL A   1      38.781  29.438  27.893  1.00  0.00     0.029 A 
ATOM     52  C   UNL A   1      38.847  29.889  29.283  1.00  0.00     0.049 A 
ATOM     53  H   UNL A   1      40.313  29.428  30.687  1.00  0.00     0.167 HD
ATOM     54  C   UNL A   1      43.494  28.378  33.522  1.00  0.00     0.037 A 
ATOM     55  C   UNL A   1      37.966  30.704  29.898  1.00  0.00     0.037 A 
ATOM     56  C   UNL A   1      42.641  29.289  34.235  1.00  0.00     0.049 A 
ATOM     57  C   UNL A   1      38.186  31.076  31.343  1.00  0.00     0.074 A 
ATOM     58  C   UNL A   1      42.789  29.780  35.520  1.00  0.00     0.029 A 
ATOM     59  N   UNL A   1      41.471  29.834  33.728  1.00  0.00    -0.354 N 
ATOM     60  N   UNL A   1      39.178  30.757  32.139  1.00  0.00    -0.248 NA
ATOM     61  C   UNL A   1      37.161  31.921  31.976  1.00  0.00     0.031 C 
ATOM     62  C   UNL A   1      41.677  30.575  35.810  1.00  0.00     0.029 A 
ATOM     63  C   UNL A   1      40.868  30.631  34.685  1.00  0.00     0.049 A 
ATOM     64  H   UNL A   1      41.121  29.676  32.821  1.00  0.00     0.167 HD
ATOM     65  C   UNL A   1      38.912  31.380  33.353  1.00  0.00     0.074 A 
ATOM     66  C   UNL A   1      37.672  32.107  33.186  1.00  0.00     0.031 C 
ATOM     67  C   UNL A   1      39.634  31.353  34.502  1.00  0.00     0.037 A 
BRANCH  54  68
ATOM     68  C   UNL A   1      44.716  27.850  34.213  1.00  0.00     0.064 A 
ATOM     69  C   UNL A   1      45.925  28.563  34.214  1.00  0.00     0.173 A 
ATOM     70  C   UNL A   1      44.672  26.634  34.910  1.00  0.00     0.173 A 
ATOM     71  F   UNL A   1      46.025  29.723  33.545  1.00  0.00    -0.203 F 
ATOM     72  C   UNL A   1      47.048  28.068  34.870  1.00  0.00     0.198 A 
ATOM     73  C   UNL A   1      45.789  26.158  35.591  1.00  0.00     0.198 A 
ATOM     74  F   UNL A   1      43.542  25.911  34.939  1.00  0.00    -0.203 F 
ATOM     75  F   UNL A   1      48.205  28.745  34.818  1.00  0.00    -0.200 F 
ATOM     76  C   UNL A   1      46.977  26.872  35.566  1.00  0.00     0.200 A 
ATOM     77  F   UNL A   1      45.714  25.007  36.273  1.00  0.00    -0.200 F 
ATOM     78  F   UNL A   1      48.056  26.402  36.206  1.00  0.00    -0.200 F 
ENDBRANCH  54  68
BRANCH  55  79
ATOM     79  C   UNL A   1      36.799  31.231  29.142  1.00  0.00     0.064 A 
ATOM     80  C   UNL A   1      35.693  30.416  28.869  1.00  0.00     0.173 A 
ATOM     81  C   UNL A   1      36.757  32.558  28.690  1.00  0.00     0.173 A 
ATOM     82  F   UNL A   1      35.697  29.130  29.254  1.00  0.00    -0.203 F 
ATOM     83  C   UNL A   1      34.590  30.906  28.173  1.00  0.00     0.198 A 
ATOM     84  C   UNL A   1      35.643  33.056  28.017  1.00  0.00     0.198 A 
ATOM     85  F   UNL A   1      37.793  33.379  28.918  1.00  0.00    -0.203 F 
ATOM     86  F   UNL A   1      33.559  30.095  27.899  1.00  0.00    -0.200 F 
ATOM     87  C   UNL A   1      34.561  32.229  27.757  1.00  0.00     0.200 A 
ATOM     88  F   UNL A   1      35.616  34.337  27.626  1.00  0.00    -0.200 F 
ATOM     89  F   UNL A   1      33.494  32.705  27.101  1.00  0.00    -0.200 F 
ENDBRANCH  55  79
BRANCH  67  90
ATOM     90  C   UNL A   1      39.122  32.142  35.674  1.00  0.00     0.064 A 
ATOM     91  C   UNL A   1      38.345  31.547  36.678  1.00  0.00     0.173 A 
ATOM     92  C   UNL A   1      39.496  33.486  35.844  1.00  0.00     0.173 A 
ATOM     93  F   UNL A   1      37.953  30.269  36.559  1.00  0.00    -0.203 F 
ATOM     94  C   UNL A   1      37.953  32.268  37.802  1.00  0.00     0.198 A 
ATOM     95  C   UNL A   1      39.129  34.194  36.984  1.00  0.00     0.198 A 
ATOM     96  F   UNL A   1      40.249  34.100  34.919  1.00  0.00    -0.203 F 
ATOM     97  F   UNL A   1      37.184  31.687  38.734  1.00  0.00    -0.200 F 
ATOM     98  C   UNL A   1      38.356  33.586  37.961  1.00  0.00     0.200 A 
ATOM     99  F   UNL A   1      39.538  35.461  37.146  1.00  0.00    -0.200 F 
ATOM    100  F   UNL A   1      37.997  34.271  39.056  1.00  0.00    -0.200 F 
ENDBRANCH  67  90
ENDBRANCH  41  42
ENDBRANCH  34  36
ENDBRANCH  33  34
ENDBRANCH  32  33
ENDBRANCH  31  32
ENDBRANCH  30  31
ENDBRANCH  29  30
ENDBRANCH   1  29
TORSDOF 22
ENDMDL
MODEL 3
REMARK VINA RESULT:     -10.9      3.189      4.125
REMARK SMILES Nc1c(Cl)ccc2c1C=C(C(=O)OCCOCCOCCOCCOC(=O)c1ccc(-c3c4nc(c(-c5c(F)c(F)c(F)c(F)c5F)c5ccc([nH]5)c(-c5c(F)c(F)c(F)c(F)c5F)c5nc(c(-c6c(F)c(F)c(F)c(F)c6F)c6ccc3[nH]6)C=C5)C=C4)cc1)[C@@H](C(F)(F)F)O2
REMARK SMILES IDX 20 1 19 2 18 3 17 4 16 5 15 6 14 7 13 8 11 9 12 10 10 11
REMARK SMILES IDX 2 12 3 13 8 14 4 15 5 16 7 17 9 18 6 19 96 20 91 21 1 22
REMARK SMILES IDX 92 25 93 26 94 27 95 28 21 29 22 30 23 31 24 32 25 33 26 34
REMARK SMILES IDX 27 35 28 36 29 37 90 38 30 39 89 40 31 41 32 42 33 43 83 44
REMARK SMILES IDX 34 45 88 46 82 47 84 48 35 49 87 50 81 51 80 52 36 54 68 55
REMARK SMILES IDX 48 56 67 57 49 58 52 59 66 60 85 61 50 62 51 63 65 65 86 66
REMARK SMILES IDX 53 67 37 68 38 69 46 70 39 71 40 72 44 73 47 74 41 75 42 76
REMARK SMILES IDX 45 77 43 78 69 79 70 80 78 81 71 82 72 83 76 84 79 85 73 86
REMARK SMILES IDX 74 87 77 88 75 89 54 90 55 91 63 92 56 93 57 94 61 95 64 96
REMARK SMILES IDX 58 97 59 98 62 99 60 100
REMARK H PARENT 1 23 1 24 84 53 52 64
REMARK Flexibility Score: inf
ROOT
ATOM      1  C   UNL A   1      41.356  20.903  27.181  1.00  0.00     0.188 C 
ENDROOT
BRANCH   1   2
ATOM      2  O   UNL A   1      39.982  21.296  27.213  1.00  0.00    -0.377 OA
BRANCH   2   3
ATOM      3  C   UNL A   1      39.526  22.208  26.227  1.00  0.00     0.188 C 
BRANCH   3   4
ATOM      4  C   UNL A   1      38.710  23.381  26.807  1.00  0.00     0.188 C 
BRANCH   4   5
ATOM      5  O   UNL A   1      38.069  24.154  25.806  1.00  0.00    -0.376 OA
BRANCH   5   6
ATOM      6  C   UNL A   1      36.667  24.062  25.615  1.00  0.00     0.202 C 
BRANCH   6   7
ATOM      7  C   UNL A   1      35.868  22.794  25.967  1.00  0.00     0.261 C 
BRANCH   7   8
ATOM      8  O   UNL A   1      34.653  22.974  26.699  1.00  0.00    -0.460 OA
BRANCH   8   9
ATOM      9  C   UNL A   1      33.561  23.361  26.015  1.00  0.00     0.338 C 
ATOM     10  O   UNL A   1      33.066  24.473  26.004  1.00  0.00    -0.246 OA
BRANCH   9  11
ATOM     11  C   UNL A   1      33.173  22.242  25.126  1.00  0.00     0.088 C 
ATOM     12  C   UNL A   1      32.697  18.568  25.349  1.00  0.00     0.061 A 
ATOM     13  C   UNL A   1      32.584  17.506  24.426  1.00  0.00     0.064 A 
ATOM     14  C   UNL A   1      32.757  19.885  24.841  1.00  0.00     0.042 A 
ATOM     15  Cl  UNL A   1      32.649  15.860  24.962  1.00  0.00    -0.082 Cl
ATOM     16  C   UNL A   1      32.410  17.744  23.063  1.00  0.00     0.026 A 
ATOM     17  C   UNL A   1      32.520  20.120  23.479  1.00  0.00     0.130 A 
ATOM     18  C   UNL A   1      33.149  21.020  25.673  1.00  0.00     0.029 C 
ATOM     19  C   UNL A   1      32.339  19.054  22.598  1.00  0.00     0.049 A 
ATOM     20  O   UNL A   1      32.465  21.358  22.907  1.00  0.00    -0.475 OA
ATOM     21  C   UNL A   1      32.751  22.533  23.712  1.00  0.00     0.316 C 
BRANCH  12  22
ATOM     22  N   UNL A   1      32.863  18.299  26.715  1.00  0.00    -0.397 N 
ATOM     23  H   UNL A   1      32.944  17.369  27.029  1.00  0.00     0.156 HD
ATOM     24  H   UNL A   1      32.899  19.041  27.362  1.00  0.00     0.156 HD
ENDBRANCH  12  22
BRANCH  21  25
ATOM     25  C   UNL A   1      33.790  23.373  22.955  1.00  0.00     0.430 C 
ATOM     26  F   UNL A   1      35.015  22.794  22.996  1.00  0.00    -0.167 F 
ATOM     27  F   UNL A   1      33.476  23.516  21.645  1.00  0.00    -0.167 F 
ATOM     28  F   UNL A   1      33.910  24.613  23.480  1.00  0.00    -0.167 F 
ENDBRANCH  21  25
ENDBRANCH   9  11
ENDBRANCH   8   9
ENDBRANCH   7   8
ENDBRANCH   6   7
ENDBRANCH   5   6
ENDBRANCH   4   5
ENDBRANCH   3   4
ENDBRANCH   2   3
ENDBRANCH   1   2
BRANCH   1  29
ATOM     29  C   UNL A   1      41.864  19.704  26.339  1.00  0.00     0.188 C 
BRANCH  29  30
ATOM     30  O   UNL A   1      42.761  20.059  25.297  1.00  0.00    -0.376 OA
BRANCH  30  31
ATOM     31  C   UNL A   1      44.080  20.437  25.649  1.00  0.00     0.202 C 
BRANCH  31  32
ATOM     32  C   UNL A   1      44.558  21.794  25.117  1.00  0.00     0.261 C 
BRANCH  32  33
ATOM     33  O   UNL A   1      43.686  22.907  25.363  1.00  0.00    -0.460 OA
BRANCH  33  34
ATOM     34  C   UNL A   1      44.185  24.147  25.185  1.00  0.00     0.338 C 
ATOM     35  O   UNL A   1      45.000  24.509  24.354  1.00  0.00    -0.246 OA
BRANCH  34  36
ATOM     36  C   UNL A   1      43.429  25.048  26.077  1.00  0.00     0.060 A 
ATOM     37  C   UNL A   1      43.595  26.434  25.963  1.00  0.00     0.016 A 
ATOM     38  C   UNL A   1      42.538  24.511  27.008  1.00  0.00     0.016 A 
ATOM     39  C   UNL A   1      42.882  27.291  26.800  1.00  0.00     0.010 A 
ATOM     40  C   UNL A   1      41.852  25.368  27.871  1.00  0.00     0.010 A 
ATOM     41  C   UNL A   1      42.046  26.757  27.790  1.00  0.00    -0.014 A 
BRANCH  41  42
ATOM     42  C   UNL A   1      41.583  27.623  28.897  1.00  0.00     0.031 A 
ATOM     43  C   UNL A   1      42.379  27.607  30.173  1.00  0.00     0.074 A 
ATOM     44  C   UNL A   1      40.499  28.407  28.780  1.00  0.00     0.049 A 
ATOM     45  N   UNL A   1      42.163  28.238  31.298  1.00  0.00    -0.248 NA
ATOM     46  C   UNL A   1      43.584  26.760  30.177  1.00  0.00     0.031 C 
ATOM     47  C   UNL A   1      39.683  28.546  27.578  1.00  0.00     0.029 A 
ATOM     48  N   UNL A   1      39.900  29.234  29.698  1.00  0.00    -0.354 N 
ATOM     49  C   UNL A   1      43.210  27.875  32.133  1.00  0.00     0.074 A 
ATOM     50  C   UNL A   1      44.037  26.938  31.407  1.00  0.00     0.031 C 
ATOM     51  C   UNL A   1      38.679  29.404  27.835  1.00  0.00     0.029 A 
ATOM     52  C   UNL A   1      38.767  29.848  29.227  1.00  0.00     0.049 A 
ATOM     53  H   UNL A   1      40.250  29.373  30.608  1.00  0.00     0.167 HD
ATOM     54  C   UNL A   1      43.467  28.298  33.392  1.00  0.00     0.037 A 
ATOM     55  C   UNL A   1      37.897  30.662  29.858  1.00  0.00     0.037 A 
ATOM     56  C   UNL A   1      42.627  29.207  34.122  1.00  0.00     0.049 A 
ATOM     57  C   UNL A   1      38.138  31.026  31.302  1.00  0.00     0.074 A 
ATOM     58  C   UNL A   1      42.795  29.691  35.407  1.00  0.00     0.029 A 
ATOM     59  N   UNL A   1      41.452  29.759  33.633  1.00  0.00    -0.354 N 
ATOM     60  N   UNL A   1      39.140  30.699  32.083  1.00  0.00    -0.248 NA
ATOM     61  C   UNL A   1      37.125  31.870  31.954  1.00  0.00     0.031 C 
ATOM     62  C   UNL A   1      41.690  30.488  35.716  1.00  0.00     0.029 A 
ATOM     63  C   UNL A   1      40.866  30.554  34.604  1.00  0.00     0.049 A 
ATOM     64  H   UNL A   1      41.089  29.608  32.731  1.00  0.00     0.167 HD
ATOM     65  C   UNL A   1      38.894  31.316  33.303  1.00  0.00     0.074 A 
ATOM     66  C   UNL A   1      37.654  32.049  33.157  1.00  0.00     0.031 C 
ATOM     67  C   UNL A   1      39.631  31.281  34.442  1.00  0.00     0.037 A 
BRANCH  54  68
ATOM     68  C   UNL A   1      44.697  27.762  34.063  1.00  0.00     0.064 A 
ATOM     69  C   UNL A   1      44.674  26.559  34.785  1.00  0.00     0.173 A 
ATOM     70  C   UNL A   1      45.920  28.440  33.957  1.00  0.00     0.173 A 
ATOM     71  F   UNL A   1      43.525  25.882  34.933  1.00  0.00    -0.203 F 
ATOM     72  C   UNL A   1      45.825  26.066  35.393  1.00  0.00     0.198 A 
ATOM     73  C   UNL A   1      47.076  27.928  34.539  1.00  0.00     0.198 A 
ATOM     74  F   UNL A   1      45.997  29.596  33.280  1.00  0.00    -0.203 F 
ATOM     75  F   UNL A   1      45.769  24.939  36.116  1.00  0.00    -0.200 F 
ATOM     76  C   UNL A   1      47.027  26.745  35.260  1.00  0.00     0.200 A 
ATOM     77  F   UNL A   1      48.239  28.579  34.400  1.00  0.00    -0.200 F 
ATOM     78  F   UNL A   1      48.137  26.263  35.836  1.00  0.00    -0.200 F 
ENDBRANCH  54  68
BRANCH  55  79
ATOM     79  C   UNL A   1      36.721  31.197  29.121  1.00  0.00     0.064 A 
ATOM     80  C   UNL A   1      36.673  32.540  28.727  1.00  0.00     0.173 A 
ATOM     81  C   UNL A   1      35.633  30.379  28.782  1.00  0.00     0.173 A 
ATOM     82  F   UNL A   1      37.675  33.370  29.052  1.00  0.00    -0.203 F 
ATOM     83  C   UNL A   1      35.581  33.046  28.023  1.00  0.00     0.198 A 
ATOM     84  C   UNL A   1      34.554  30.879  28.056  1.00  0.00     0.198 A 
ATOM     85  F   UNL A   1      35.626  29.087  29.143  1.00  0.00    -0.203 F 
ATOM     86  F   UNL A   1      35.547  34.342  27.686  1.00  0.00    -0.200 F 
ATOM     87  C   UNL A   1      34.528  32.213  27.679  1.00  0.00     0.200 A 
ATOM     88  F   UNL A   1      33.543  30.067  27.718  1.00  0.00    -0.200 F 
ATOM     89  F   UNL A   1      33.485  32.695  26.990  1.00  0.00    -0.200 F 
ENDBRANCH  55  79
BRANCH  67  90
ATOM     90  C   UNL A   1      39.139  32.065  35.625  1.00  0.00     0.064 A 
ATOM     91  C   UNL A   1      38.372  31.468  36.635  1.00  0.00     0.173 A 
ATOM     92  C   UNL A   1      39.522  33.406  35.799  1.00  0.00     0.173 A 
ATOM     93  F   UNL A   1      37.971  30.193  36.514  1.00  0.00    -0.203 F 
ATOM     94  C   UNL A   1      37.998  32.185  37.768  1.00  0.00     0.198 A 
ATOM     95  C   UNL A   1      39.173  34.108  36.948  1.00  0.00     0.198 A 
ATOM     96  F   UNL A   1      40.266  34.022  34.868  1.00  0.00    -0.203 F 
ATOM     97  F   UNL A   1      37.238  31.601  38.706  1.00  0.00    -0.200 F 
ATOM     98  C   UNL A   1      38.410  33.499  37.930  1.00  0.00     0.200 A 
ATOM     99  F   UNL A   1      39.591  35.372  37.112  1.00  0.00    -0.200 F 
ATOM    100  F   UNL A   1      38.068  34.179  39.034  1.00  0.00    -0.200 F 
ENDBRANCH  67  90
ENDBRANCH  41  42
ENDBRANCH  34  36
ENDBRANCH  33  34
ENDBRANCH  32  33
ENDBRANCH  31  32
ENDBRANCH  30  31
ENDBRANCH  29  30
ENDBRANCH   1  29
TORSDOF 22
ENDMDL
