MODEL 1
REMARK VINA RESULT:     -10.8      0.000      0.000
REMARK SMILES CC(C)Cc1ccc([C@H](C)C(=O)OCCOCCOCCOCCOC(=O)c2ccc(-c3c4nc(c(-c5c(F)c(F)c(F)c(F)c5F)c5ccc([nH]5)c(-c5c(F)c(F)c(F)c(F)c5F)c5nc(c(-c6c(F)c(F)c(F)c(F)c6F)c6ccc3[nH]6)C=C5)C=C4)cc2)cc1
REMARK SMILES IDX 18 1 17 2 16 3 15 4 14 5 13 6 11 7 12 8 9 9 10 10 8 11 5 12
REMARK SMILES IDX 6 13 92 14 7 15 91 16 4 17 2 18 1 19 3 20 19 21 20 22 21 23
REMARK SMILES IDX 22 24 23 25 24 26 25 27 26 28 27 29 28 30 29 31 90 32 30 33
REMARK SMILES IDX 89 34 31 35 32 36 33 37 83 38 34 39 88 40 82 41 84 42 35 43
REMARK SMILES IDX 87 44 81 45 80 46 36 48 68 49 48 50 67 51 49 52 52 53 66 54
REMARK SMILES IDX 85 55 50 56 51 57 65 59 86 60 53 61 37 62 38 63 46 64 39 65
REMARK SMILES IDX 40 66 44 67 47 68 41 69 42 70 45 71 43 72 69 73 70 74 78 75
REMARK SMILES IDX 71 76 72 77 76 78 79 79 73 80 74 81 77 82 75 83 54 84 55 85
REMARK SMILES IDX 63 86 56 87 57 88 61 89 64 90 58 91 59 92 62 93 60 94
REMARK H PARENT 84 47 52 58
REMARK Flexibility Score: inf
ROOT
ATOM      1  C   UNL A   1      35.411  32.687  27.960  1.00  0.00     0.188 C 
ENDROOT
BRANCH   1   2
ATOM      2  C   UNL A   1      34.505  31.463  28.154  1.00  0.00     0.188 C 
BRANCH   2   3
ATOM      3  O   UNL A   1      33.427  31.205  27.274  1.00  0.00    -0.376 OA
BRANCH   3   4
ATOM      4  C   UNL A   1      32.774  29.947  27.177  1.00  0.00     0.202 C 
BRANCH   4   5
ATOM      5  C   UNL A   1      33.475  28.581  27.229  1.00  0.00     0.261 C 
BRANCH   5   6
ATOM      6  O   UNL A   1      32.839  27.507  26.530  1.00  0.00    -0.463 OA
BRANCH   6   7
ATOM      7  C   UNL A   1      32.935  27.567  25.182  1.00  0.00     0.313 C 
ATOM      8  O   UNL A   1      33.862  28.114  24.589  1.00  0.00    -0.252 OA
BRANCH   7   9
ATOM      9  C   UNL A   1      31.770  26.910  24.442  1.00  0.00     0.126 C 
ATOM     10  C   UNL A   1      31.133  25.665  25.061  1.00  0.00     0.025 C 
BRANCH   9  11
ATOM     11  C   UNL A   1      30.695  27.921  24.102  1.00  0.00    -0.034 A 
ATOM     12  C   UNL A   1      28.772  29.742  23.213  1.00  0.00    -0.048 A 
ATOM     13  C   UNL A   1      28.551  28.367  23.093  1.00  0.00     0.004 A 
ATOM     14  C   UNL A   1      29.910  30.202  23.877  1.00  0.00     0.004 A 
ATOM     15  C   UNL A   1      29.524  27.465  23.490  1.00  0.00     0.005 A 
ATOM     16  C   UNL A   1      30.851  29.294  24.346  1.00  0.00     0.005 A 
BRANCH  12  17
ATOM     17  C   UNL A   1      27.837  30.707  22.540  1.00  0.00     0.038 C 
BRANCH  17  18
ATOM     18  C   UNL A   1      28.581  31.849  21.808  1.00  0.00    -0.013 C 
ATOM     19  C   UNL A   1      27.962  32.233  20.458  1.00  0.00     0.008 C 
ATOM     20  C   UNL A   1      28.609  33.078  22.713  1.00  0.00     0.008 C 
ENDBRANCH  17  18
ENDBRANCH  12  17
ENDBRANCH   9  11
ENDBRANCH   7   9
ENDBRANCH   6   7
ENDBRANCH   5   6
ENDBRANCH   4   5
ENDBRANCH   3   4
ENDBRANCH   2   3
ENDBRANCH   1   2
BRANCH   1  21
ATOM     21  O   UNL A   1      34.736  33.877  27.607  1.00  0.00    -0.377 OA
BRANCH  21  22
ATOM     22  C   UNL A   1      34.586  34.905  28.573  1.00  0.00     0.188 C 
BRANCH  22  23
ATOM     23  C   UNL A   1      33.249  35.061  29.320  1.00  0.00     0.188 C 
BRANCH  23  24
ATOM     24  O   UNL A   1      33.280  34.647  30.676  1.00  0.00    -0.376 OA
BRANCH  24  25
ATOM     25  C   UNL A   1      34.533  34.361  31.277  1.00  0.00     0.202 C 
BRANCH  25  26
ATOM     26  C   UNL A   1      34.534  33.570  32.596  1.00  0.00     0.261 C 
BRANCH  26  27
ATOM     27  O   UNL A   1      35.094  32.246  32.551  1.00  0.00    -0.460 OA
BRANCH  27  28
ATOM     28  C   UNL A   1      36.271  32.037  33.164  1.00  0.00     0.338 C 
ATOM     29  O   UNL A   1      36.587  32.372  34.298  1.00  0.00    -0.246 OA
BRANCH  28  30
ATOM     30  C   UNL A   1      37.093  31.156  32.314  1.00  0.00     0.060 A 
ATOM     31  C   UNL A   1      38.104  30.396  32.916  1.00  0.00     0.016 A 
ATOM     32  C   UNL A   1      36.908  31.122  30.929  1.00  0.00     0.016 A 
ATOM     33  C   UNL A   1      38.990  29.667  32.127  1.00  0.00     0.010 A 
ATOM     34  C   UNL A   1      37.809  30.406  30.137  1.00  0.00     0.010 A 
ATOM     35  C   UNL A   1      38.890  29.729  30.732  1.00  0.00    -0.014 A 
BRANCH  35  36
ATOM     36  C   UNL A   1      40.063  29.330  29.915  1.00  0.00     0.031 A 
ATOM     37  C   UNL A   1      41.149  30.352  29.698  1.00  0.00     0.074 A 
ATOM     38  C   UNL A   1      40.205  28.080  29.444  1.00  0.00     0.049 A 
ATOM     39  N   UNL A   1      42.269  30.253  29.030  1.00  0.00    -0.248 NA
ATOM     40  C   UNL A   1      40.936  31.670  30.319  1.00  0.00     0.031 C 
ATOM     41  C   UNL A   1      39.253  26.989  29.639  1.00  0.00     0.029 A 
ATOM     42  N   UNL A   1      41.216  27.521  28.704  1.00  0.00    -0.354 N 
ATOM     43  C   UNL A   1      42.889  31.492  29.149  1.00  0.00     0.074 A 
ATOM     44  C   UNL A   1      42.002  32.340  29.912  1.00  0.00     0.031 C 
ATOM     45  C   UNL A   1      39.726  25.888  29.029  1.00  0.00     0.029 A 
ATOM     46  C   UNL A   1      40.996  26.207  28.376  1.00  0.00     0.049 A 
ATOM     47  H   UNL A   1      42.022  28.016  28.431  1.00  0.00     0.167 HD
ATOM     48  C   UNL A   1      44.096  31.884  28.677  1.00  0.00     0.037 A 
ATOM     49  C   UNL A   1      41.732  25.366  27.623  1.00  0.00     0.037 A 
ATOM     50  C   UNL A   1      44.975  31.038  27.915  1.00  0.00     0.049 A 
ATOM     51  C   UNL A   1      43.035  25.853  27.037  1.00  0.00     0.074 A 
ATOM     52  C   UNL A   1      46.218  31.336  27.387  1.00  0.00     0.029 A 
ATOM     53  N   UNL A   1      44.696  29.724  27.567  1.00  0.00    -0.354 N 
ATOM     54  N   UNL A   1      43.621  27.019  27.163  1.00  0.00    -0.248 NA
ATOM     55  C   UNL A   1      43.784  24.897  26.209  1.00  0.00     0.031 C 
ATOM     56  C   UNL A   1      46.665  30.222  26.668  1.00  0.00     0.029 A 
ATOM     57  C   UNL A   1      45.735  29.205  26.811  1.00  0.00     0.049 A 
ATOM     58  H   UNL A   1      43.881  29.233  27.819  1.00  0.00     0.167 HD
ATOM     59  C   UNL A   1      44.823  26.923  26.471  1.00  0.00     0.074 A 
ATOM     60  C   UNL A   1      44.886  25.580  25.935  1.00  0.00     0.031 C 
ATOM     61  C   UNL A   1      45.790  27.859  26.300  1.00  0.00     0.037 A 
BRANCH  48  62
ATOM     62  C   UNL A   1      44.515  33.302  28.945  1.00  0.00     0.064 A 
ATOM     63  C   UNL A   1      45.222  33.660  30.104  1.00  0.00     0.173 A 
ATOM     64  C   UNL A   1      44.215  34.315  28.023  1.00  0.00     0.173 A 
ATOM     65  F   UNL A   1      45.519  32.734  31.029  1.00  0.00    -0.203 F 
ATOM     66  C   UNL A   1      45.581  34.985  30.344  1.00  0.00     0.198 A 
ATOM     67  C   UNL A   1      44.609  35.631  28.248  1.00  0.00     0.198 A 
ATOM     68  F   UNL A   1      43.543  34.029  26.897  1.00  0.00    -0.203 F 
ATOM     69  F   UNL A   1      46.202  35.312  31.486  1.00  0.00    -0.200 F 
ATOM     70  C   UNL A   1      45.282  35.967  29.413  1.00  0.00     0.200 A 
ATOM     71  F   UNL A   1      44.330  36.578  27.340  1.00  0.00    -0.200 F 
ATOM     72  F   UNL A   1      45.633  37.240  29.643  1.00  0.00    -0.200 F 
ENDBRANCH  48  62
BRANCH  49  73
ATOM     73  C   UNL A   1      41.263  23.977  27.376  1.00  0.00     0.064 A 
ATOM     74  C   UNL A   1      41.948  22.874  27.907  1.00  0.00     0.173 A 
ATOM     75  C   UNL A   1      40.138  23.720  26.577  1.00  0.00     0.173 A 
ATOM     76  F   UNL A   1      43.043  23.065  28.657  1.00  0.00    -0.203 F 
ATOM     77  C   UNL A   1      41.543  21.571  27.627  1.00  0.00     0.198 A 
ATOM     78  C   UNL A   1      39.715  22.417  26.325  1.00  0.00     0.198 A 
ATOM     79  F   UNL A   1      39.449  24.738  26.041  1.00  0.00    -0.203 F 
ATOM     80  F   UNL A   1      42.250  20.536  28.100  1.00  0.00    -0.200 F 
ATOM     81  C   UNL A   1      40.424  21.343  26.841  1.00  0.00     0.200 A 
ATOM     82  F   UNL A   1      38.626  22.202  25.574  1.00  0.00    -0.200 F 
ATOM     83  F   UNL A   1      40.034  20.090  26.573  1.00  0.00    -0.200 F 
ENDBRANCH  49  73
BRANCH  61  84
ATOM     84  C   UNL A   1      47.033  27.445  25.559  1.00  0.00     0.064 A 
ATOM     85  C   UNL A   1      47.186  27.658  24.181  1.00  0.00     0.173 A 
ATOM     86  C   UNL A   1      48.101  26.852  26.252  1.00  0.00     0.173 A 
ATOM     87  F   UNL A   1      46.193  28.212  23.468  1.00  0.00    -0.203 F 
ATOM     88  C   UNL A   1      48.344  27.257  23.519  1.00  0.00     0.198 A 
ATOM     89  C   UNL A   1      49.272  26.489  25.594  1.00  0.00     0.198 A 
ATOM     90  F   UNL A   1      48.013  26.636  27.573  1.00  0.00    -0.203 F 
ATOM     91  F   UNL A   1      48.442  27.413  22.191  1.00  0.00    -0.200 F 
ATOM     92  C   UNL A   1      49.388  26.680  24.226  1.00  0.00     0.200 A 
ATOM     93  F   UNL A   1      50.286  25.950  26.284  1.00  0.00    -0.200 F 
ATOM     94  F   UNL A   1      50.503  26.300  23.587  1.00  0.00    -0.200 F 
ENDBRANCH  61  84
ENDBRANCH  35  36
ENDBRANCH  28  30
ENDBRANCH  27  28
ENDBRANCH  26  27
ENDBRANCH  25  26
ENDBRANCH  24  25
ENDBRANCH  23  24
ENDBRANCH  22  23
ENDBRANCH  21  22
ENDBRANCH   1  21
TORSDOF 23
ENDMDL
MODEL 2
REMARK VINA RESULT:     -10.4      1.593      3.374
REMARK SMILES CC(C)Cc1ccc([C@H](C)C(=O)OCCOCCOCCOCCOC(=O)c2ccc(-c3c4nc(c(-c5c(F)c(F)c(F)c(F)c5F)c5ccc([nH]5)c(-c5c(F)c(F)c(F)c(F)c5F)c5nc(c(-c6c(F)c(F)c(F)c(F)c6F)c6ccc3[nH]6)C=C5)C=C4)cc2)cc1
REMARK SMILES IDX 18 1 17 2 16 3 15 4 14 5 13 6 11 7 12 8 9 9 10 10 8 11 5 12
REMARK SMILES IDX 6 13 92 14 7 15 91 16 4 17 2 18 1 19 3 20 19 21 20 22 21 23
REMARK SMILES IDX 22 24 23 25 24 26 25 27 26 28 27 29 28 30 29 31 90 32 30 33
REMARK SMILES IDX 89 34 31 35 32 36 33 37 83 38 34 39 88 40 82 41 84 42 35 43
REMARK SMILES IDX 87 44 81 45 80 46 36 48 68 49 48 50 67 51 49 52 52 53 66 54
REMARK SMILES IDX 85 55 50 56 51 57 65 59 86 60 53 61 37 62 38 63 46 64 39 65
REMARK SMILES IDX 40 66 44 67 47 68 41 69 42 70 45 71 43 72 69 73 70 74 78 75
REMARK SMILES IDX 71 76 72 77 76 78 79 79 73 80 74 81 77 82 75 83 54 84 55 85
REMARK SMILES IDX 63 86 56 87 57 88 61 89 64 90 58 91 59 92 62 93 60 94
REMARK H PARENT 84 47 52 58
REMARK Flexibility Score: inf
ROOT
ATOM      1  C   UNL A   1      35.588  32.982  27.960  1.00  0.00     0.188 C 
ENDROOT
BRANCH   1   2
ATOM      2  C   UNL A   1      34.837  31.668  28.218  1.00  0.00     0.188 C 
BRANCH   2   3
ATOM      3  O   UNL A   1      33.500  31.493  27.786  1.00  0.00    -0.376 OA
BRANCH   3   4
ATOM      4  C   UNL A   1      33.090  30.466  26.894  1.00  0.00     0.202 C 
BRANCH   4   5
ATOM      5  C   UNL A   1      33.992  29.340  26.369  1.00  0.00     0.261 C 
BRANCH   5   6
ATOM      6  O   UNL A   1      33.882  29.025  24.977  1.00  0.00    -0.463 OA
BRANCH   6   7
ATOM      7  C   UNL A   1      32.632  28.724  24.558  1.00  0.00     0.313 C 
ATOM      8  O   UNL A   1      31.651  29.434  24.775  1.00  0.00    -0.252 OA
BRANCH   7   9
ATOM      9  C   UNL A   1      32.528  27.401  23.800  1.00  0.00     0.126 C 
ATOM     10  C   UNL A   1      33.164  27.315  22.411  1.00  0.00     0.025 C 
BRANCH   9  11
ATOM     11  C   UNL A   1      32.998  26.241  24.652  1.00  0.00    -0.034 A 
ATOM     12  C   UNL A   1      33.816  23.940  26.008  1.00  0.00    -0.048 A 
ATOM     13  C   UNL A   1      34.635  24.512  25.031  1.00  0.00     0.004 A 
ATOM     14  C   UNL A   1      32.635  24.584  26.381  1.00  0.00     0.004 A 
ATOM     15  C   UNL A   1      34.209  25.625  24.325  1.00  0.00     0.005 A 
ATOM     16  C   UNL A   1      32.245  25.746  25.727  1.00  0.00     0.005 A 
BRANCH  12  17
ATOM     17  C   UNL A   1      34.162  22.591  26.574  1.00  0.00     0.038 C 
BRANCH  17  18
ATOM     18  C   UNL A   1      34.277  21.498  25.486  1.00  0.00    -0.013 C 
ATOM     19  C   UNL A   1      35.690  20.920  25.329  1.00  0.00     0.008 C 
ATOM     20  C   UNL A   1      33.308  20.367  25.819  1.00  0.00     0.008 C 
ENDBRANCH  17  18
ENDBRANCH  12  17
ENDBRANCH   9  11
ENDBRANCH   7   9
ENDBRANCH   6   7
ENDBRANCH   5   6
ENDBRANCH   4   5
ENDBRANCH   3   4
ENDBRANCH   2   3
ENDBRANCH   1   2
BRANCH   1  21
ATOM     21  O   UNL A   1      34.773  34.067  27.569  1.00  0.00    -0.377 OA
BRANCH  21  22
ATOM     22  C   UNL A   1      34.557  35.138  28.474  1.00  0.00     0.188 C 
BRANCH  22  23
ATOM     23  C   UNL A   1      33.190  35.290  29.165  1.00  0.00     0.188 C 
BRANCH  23  24
ATOM     24  O   UNL A   1      33.125  34.738  30.470  1.00  0.00    -0.376 OA
BRANCH  24  25
ATOM     25  C   UNL A   1      34.334  34.438  31.149  1.00  0.00     0.202 C 
BRANCH  25  26
ATOM     26  C   UNL A   1      34.251  33.575  32.419  1.00  0.00     0.261 C 
BRANCH  26  27
ATOM     27  O   UNL A   1      34.881  32.284  32.360  1.00  0.00    -0.460 OA
BRANCH  27  28
ATOM     28  C   UNL A   1      36.020  32.105  33.052  1.00  0.00     0.338 C 
ATOM     29  O   UNL A   1      36.265  32.484  34.189  1.00  0.00    -0.246 OA
BRANCH  28  30
ATOM     30  C   UNL A   1      36.895  31.198  32.286  1.00  0.00     0.060 A 
ATOM     31  C   UNL A   1      37.973  30.592  32.944  1.00  0.00     0.016 A 
ATOM     32  C   UNL A   1      36.691  30.991  30.919  1.00  0.00     0.016 A 
ATOM     33  C   UNL A   1      38.901  29.848  32.221  1.00  0.00     0.010 A 
ATOM     34  C   UNL A   1      37.633  30.260  30.191  1.00  0.00     0.010 A 
ATOM     35  C   UNL A   1      38.774  29.740  30.831  1.00  0.00    -0.014 A 
BRANCH  35  36
ATOM     36  C   UNL A   1      39.961  29.342  30.036  1.00  0.00     0.031 A 
ATOM     37  C   UNL A   1      41.057  30.360  29.849  1.00  0.00     0.074 A 
ATOM     38  C   UNL A   1      40.106  28.095  29.557  1.00  0.00     0.049 A 
ATOM     39  N   UNL A   1      42.190  30.260  29.204  1.00  0.00    -0.248 NA
ATOM     40  C   UNL A   1      40.839  31.674  30.478  1.00  0.00     0.031 C 
ATOM     41  C   UNL A   1      39.145  27.008  29.723  1.00  0.00     0.029 A 
ATOM     42  N   UNL A   1      41.129  27.537  28.833  1.00  0.00    -0.354 N 
ATOM     43  C   UNL A   1      42.814  31.494  29.346  1.00  0.00     0.074 A 
ATOM     44  C   UNL A   1      41.916  32.341  30.098  1.00  0.00     0.031 C 
ATOM     45  C   UNL A   1      39.624  25.909  29.114  1.00  0.00     0.029 A 
ATOM     46  C   UNL A   1      40.909  26.226  28.490  1.00  0.00     0.049 A 
ATOM     47  H   UNL A   1      41.943  28.029  28.581  1.00  0.00     0.167 HD
ATOM     48  C   UNL A   1      44.033  31.884  28.903  1.00  0.00     0.037 A 
ATOM     49  C   UNL A   1      41.656  25.388  27.745  1.00  0.00     0.037 A 
ATOM     50  C   UNL A   1      44.923  31.039  28.152  1.00  0.00     0.049 A 
ATOM     51  C   UNL A   1      42.973  25.872  27.190  1.00  0.00     0.074 A 
ATOM     52  C   UNL A   1      46.178  31.335  27.652  1.00  0.00     0.029 A 
ATOM     53  N   UNL A   1      44.644  29.729  27.787  1.00  0.00    -0.354 N 
ATOM     54  N   UNL A   1      43.563  27.035  27.339  1.00  0.00    -0.248 NA
ATOM     55  C   UNL A   1      43.734  24.919  26.370  1.00  0.00     0.031 C 
ATOM     56  C   UNL A   1      46.634  30.225  26.933  1.00  0.00     0.029 A 
ATOM     57  C   UNL A   1      45.696  29.211  27.049  1.00  0.00     0.049 A 
ATOM     58  H   UNL A   1      43.821  29.241  28.019  1.00  0.00     0.167 HD
ATOM     59  C   UNL A   1      44.779  26.938  26.670  1.00  0.00     0.074 A 
ATOM     60  C   UNL A   1      44.845  25.598  26.125  1.00  0.00     0.031 C 
ATOM     61  C   UNL A   1      45.754  27.869  26.527  1.00  0.00     0.037 A 
BRANCH  48  62
ATOM     62  C   UNL A   1      44.454  33.297  29.192  1.00  0.00     0.064 A 
ATOM     63  C   UNL A   1      45.114  33.647  30.380  1.00  0.00     0.173 A 
ATOM     64  C   UNL A   1      44.204  34.314  28.259  1.00  0.00     0.173 A 
ATOM     65  F   UNL A   1      45.361  32.716  31.315  1.00  0.00    -0.203 F 
ATOM     66  C   UNL A   1      45.475  34.967  30.638  1.00  0.00     0.198 A 
ATOM     67  C   UNL A   1      44.601  35.627  28.504  1.00  0.00     0.198 A 
ATOM     68  F   UNL A   1      43.578  34.037  27.105  1.00  0.00    -0.203 F 
ATOM     69  F   UNL A   1      46.049  35.286  31.807  1.00  0.00    -0.200 F 
ATOM     70  C   UNL A   1      45.225  35.953  29.697  1.00  0.00     0.200 A 
ATOM     71  F   UNL A   1      44.370  36.577  27.587  1.00  0.00    -0.200 F 
ATOM     72  F   UNL A   1      45.579  37.222  29.944  1.00  0.00    -0.200 F 
ENDBRANCH  48  62
BRANCH  49  73
ATOM     73  C   UNL A   1      41.184  24.003  27.477  1.00  0.00     0.064 A 
ATOM     74  C   UNL A   1      41.819  22.895  28.057  1.00  0.00     0.173 A 
ATOM     75  C   UNL A   1      40.110  23.756  26.609  1.00  0.00     0.173 A 
ATOM     76  F   UNL A   1      42.867  23.077  28.874  1.00  0.00    -0.203 F 
ATOM     77  C   UNL A   1      41.415  21.596  27.759  1.00  0.00     0.198 A 
ATOM     78  C   UNL A   1      39.685  22.457  26.338  1.00  0.00     0.198 A 
ATOM     79  F   UNL A   1      39.469  24.780  26.025  1.00  0.00    -0.203 F 
ATOM     80  F   UNL A   1      42.077  20.554  28.282  1.00  0.00    -0.200 F 
ATOM     81  C   UNL A   1      40.345  21.378  26.904  1.00  0.00     0.200 A 
ATOM     82  F   UNL A   1      38.643  22.252  25.521  1.00  0.00    -0.200 F 
ATOM     83  F   UNL A   1      39.957  20.128  26.619  1.00  0.00    -0.200 F 
ENDBRANCH  49  73
BRANCH  61  84
ATOM     84  C   UNL A   1      47.010  27.455  25.808  1.00  0.00     0.064 A 
ATOM     85  C   UNL A   1      48.063  26.798  26.462  1.00  0.00     0.173 A 
ATOM     86  C   UNL A   1      47.143  27.694  24.431  1.00  0.00     0.173 A 
ATOM     87  F   UNL A   1      47.992  26.554  27.780  1.00  0.00    -0.203 F 
ATOM     88  C   UNL A   1      49.217  26.434  25.774  1.00  0.00     0.198 A 
ATOM     89  C   UNL A   1      48.281  27.293  23.739  1.00  0.00     0.198 A 
ATOM     90  F   UNL A   1      46.161  28.307  23.753  1.00  0.00    -0.203 F 
ATOM     91  F   UNL A   1      50.236  25.866  26.433  1.00  0.00    -0.200 F 
ATOM     92  C   UNL A   1      49.322  26.675  24.412  1.00  0.00     0.200 A 
ATOM     93  F   UNL A   1      48.372  27.510  22.419  1.00  0.00    -0.200 F 
ATOM     94  F   UNL A   1      50.432  26.318  23.751  1.00  0.00    -0.200 F 
ENDBRANCH  61  84
ENDBRANCH  35  36
ENDBRANCH  28  30
ENDBRANCH  27  28
ENDBRANCH  26  27
ENDBRANCH  25  26
ENDBRANCH  24  25
ENDBRANCH  23  24
ENDBRANCH  22  23
ENDBRANCH  21  22
ENDBRANCH   1  21
TORSDOF 23
ENDMDL
MODEL 3
REMARK VINA RESULT:      -9.9      3.691      8.770
REMARK SMILES CC(C)Cc1ccc([C@H](C)C(=O)OCCOCCOCCOCCOC(=O)c2ccc(-c3c4nc(c(-c5c(F)c(F)c(F)c(F)c5F)c5ccc([nH]5)c(-c5c(F)c(F)c(F)c(F)c5F)c5nc(c(-c6c(F)c(F)c(F)c(F)c6F)c6ccc3[nH]6)C=C5)C=C4)cc2)cc1
REMARK SMILES IDX 18 1 17 2 16 3 15 4 14 5 13 6 11 7 12 8 9 9 10 10 8 11 5 12
REMARK SMILES IDX 6 13 92 14 7 15 91 16 4 17 2 18 1 19 3 20 19 21 20 22 21 23
REMARK SMILES IDX 22 24 23 25 24 26 25 27 26 28 27 29 28 30 29 31 90 32 30 33
REMARK SMILES IDX 89 34 31 35 32 36 33 37 83 38 34 39 88 40 82 41 84 42 35 43
REMARK SMILES IDX 87 44 81 45 80 46 36 48 68 49 48 50 67 51 49 52 52 53 66 54
REMARK SMILES IDX 85 55 50 56 51 57 65 59 86 60 53 61 37 62 38 63 46 64 39 65
REMARK SMILES IDX 40 66 44 67 47 68 41 69 42 70 45 71 43 72 69 73 70 74 78 75
REMARK SMILES IDX 71 76 72 77 76 78 79 79 73 80 74 81 77 82 75 83 54 84 55 85
REMARK SMILES IDX 63 86 56 87 57 88 61 89 64 90 58 91 59 92 62 93 60 94
REMARK H PARENT 84 47 52 58
REMARK Flexibility Score: inf
ROOT
ATOM      1  C   UNL A   1      35.171  21.398  24.506  1.00  0.00     0.188 C 
ENDROOT
BRANCH   1   2
ATOM      2  C   UNL A   1      33.657  21.151  24.556  1.00  0.00     0.188 C 
BRANCH   2   3
ATOM      3  O   UNL A   1      32.919  21.370  25.743  1.00  0.00    -0.376 OA
BRANCH   3   4
ATOM      4  C   UNL A   1      31.585  21.857  25.763  1.00  0.00     0.202 C 
BRANCH   4   5
ATOM      5  C   UNL A   1      31.077  23.074  24.975  1.00  0.00     0.261 C 
BRANCH   5   6
ATOM      6  O   UNL A   1      31.795  24.299  25.153  1.00  0.00    -0.463 OA
BRANCH   6   7
ATOM      7  C   UNL A   1      31.265  25.144  26.066  1.00  0.00     0.313 C 
ATOM      8  O   UNL A   1      30.325  24.849  26.802  1.00  0.00    -0.252 OA
BRANCH   7   9
ATOM      9  C   UNL A   1      31.921  26.524  26.097  1.00  0.00     0.126 C 
ATOM     10  C   UNL A   1      33.436  26.606  25.903  1.00  0.00     0.025 C 
BRANCH   9  11
ATOM     11  C   UNL A   1      31.230  27.482  25.150  1.00  0.00    -0.034 A 
ATOM     12  C   UNL A   1      30.123  29.157  23.207  1.00  0.00    -0.048 A 
ATOM     13  C   UNL A   1      29.832  27.789  23.208  1.00  0.00     0.004 A 
ATOM     14  C   UNL A   1      30.882  29.702  24.244  1.00  0.00     0.004 A 
ATOM     15  C   UNL A   1      30.418  26.951  24.142  1.00  0.00     0.005 A 
ATOM     16  C   UNL A   1      31.406  28.872  25.227  1.00  0.00     0.005 A 
BRANCH  12  17
ATOM     17  C   UNL A   1      29.701  30.006  22.040  1.00  0.00     0.038 C 
BRANCH  17  18
ATOM     18  C   UNL A   1      28.442  30.853  22.341  1.00  0.00    -0.013 C 
ATOM     19  C   UNL A   1      28.630  31.866  23.478  1.00  0.00     0.008 C 
ATOM     20  C   UNL A   1      28.033  31.595  21.072  1.00  0.00     0.008 C 
ENDBRANCH  17  18
ENDBRANCH  12  17
ENDBRANCH   9  11
ENDBRANCH   7   9
ENDBRANCH   6   7
ENDBRANCH   5   6
ENDBRANCH   4   5
ENDBRANCH   3   4
ENDBRANCH   2   3
ENDBRANCH   1   2
BRANCH   1  21
ATOM     21  O   UNL A   1      35.566  22.522  23.748  1.00  0.00    -0.377 OA
BRANCH  21  22
ATOM     22  C   UNL A   1      36.689  23.284  24.164  1.00  0.00     0.188 C 
BRANCH  22  23
ATOM     23  C   UNL A   1      36.767  23.799  25.612  1.00  0.00     0.188 C 
BRANCH  23  24
ATOM     24  O   UNL A   1      37.498  22.965  26.496  1.00  0.00    -0.376 OA
BRANCH  24  25
ATOM     25  C   UNL A   1      38.804  22.551  26.125  1.00  0.00     0.202 C 
BRANCH  25  26
ATOM     26  C   UNL A   1      39.023  21.064  25.803  1.00  0.00     0.261 C 
BRANCH  26  27
ATOM     27  O   UNL A   1      39.829  20.318  26.732  1.00  0.00    -0.460 OA
BRANCH  27  28
ATOM     28  C   UNL A   1      41.033  19.886  26.318  1.00  0.00     0.338 C 
ATOM     29  O   UNL A   1      41.289  18.832  25.753  1.00  0.00    -0.246 OA
BRANCH  28  30
ATOM     30  C   UNL A   1      42.006  20.982  26.485  1.00  0.00     0.060 A 
ATOM     31  C   UNL A   1      42.301  21.424  27.780  1.00  0.00     0.016 A 
ATOM     32  C   UNL A   1      42.578  21.606  25.373  1.00  0.00     0.016 A 
ATOM     33  C   UNL A   1      43.102  22.549  27.966  1.00  0.00     0.010 A 
ATOM     34  C   UNL A   1      43.365  22.745  25.559  1.00  0.00     0.010 A 
ATOM     35  C   UNL A   1      43.576  23.255  26.854  1.00  0.00    -0.014 A 
BRANCH  35  36
ATOM     36  C   UNL A   1      44.035  24.653  27.042  1.00  0.00     0.031 A 
ATOM     37  C   UNL A   1      43.035  25.659  27.552  1.00  0.00     0.074 A 
ATOM     38  C   UNL A   1      45.314  25.011  26.842  1.00  0.00     0.049 A 
ATOM     39  N   UNL A   1      43.184  26.934  27.802  1.00  0.00    -0.248 NA
ATOM     40  C   UNL A   1      41.677  25.152  27.814  1.00  0.00     0.031 C 
ATOM     41  C   UNL A   1      46.384  24.118  26.408  1.00  0.00     0.029 A 
ATOM     42  N   UNL A   1      45.926  26.231  26.987  1.00  0.00    -0.354 N 
ATOM     43  C   UNL A   1      41.943  27.379  28.243  1.00  0.00     0.074 A 
ATOM     44  C   UNL A   1      41.041  26.251  28.185  1.00  0.00     0.031 C 
ATOM     45  C   UNL A   1      47.527  24.822  26.317  1.00  0.00     0.029 A 
ATOM     46  C   UNL A   1      47.259  26.219  26.658  1.00  0.00     0.049 A 
ATOM     47  H   UNL A   1      45.455  27.038  27.295  1.00  0.00     0.167 HD
ATOM     48  C   UNL A   1      41.590  28.613  28.674  1.00  0.00     0.037 A 
ATOM     49  C   UNL A   1      48.151  27.228  26.623  1.00  0.00     0.037 A 
ATOM     50  C   UNL A   1      42.490  29.734  28.728  1.00  0.00     0.049 A 
ATOM     51  C   UNL A   1      47.712  28.614  27.028  1.00  0.00     0.074 A 
ATOM     52  C   UNL A   1      42.234  31.028  29.145  1.00  0.00     0.029 A 
ATOM     53  N   UNL A   1      43.823  29.693  28.344  1.00  0.00    -0.354 N 
ATOM     54  N   UNL A   1      46.542  29.025  27.457  1.00  0.00    -0.248 NA
ATOM     55  C   UNL A   1      48.725  29.676  26.951  1.00  0.00     0.031 C 
ATOM     56  C   UNL A   1      43.395  31.785  28.957  1.00  0.00     0.029 A 
ATOM     57  C   UNL A   1      44.397  30.945  28.494  1.00  0.00     0.049 A 
ATOM     58  H   UNL A   1      44.291  28.892  28.015  1.00  0.00     0.167 HD
ATOM     59  C   UNL A   1      46.691  30.378  27.742  1.00  0.00     0.074 A 
ATOM     60  C   UNL A   1      48.068  30.714  27.446  1.00  0.00     0.031 C 
ATOM     61  C   UNL A   1      45.774  31.259  28.212  1.00  0.00     0.037 A 
BRANCH  48  62
ATOM     62  C   UNL A   1      40.159  28.818  29.086  1.00  0.00     0.064 A 
ATOM     63  C   UNL A   1      39.740  28.660  30.417  1.00  0.00     0.173 A 
ATOM     64  C   UNL A   1      39.196  29.189  28.137  1.00  0.00     0.173 A 
ATOM     65  F   UNL A   1      40.617  28.287  31.362  1.00  0.00    -0.203 F 
ATOM     66  C   UNL A   1      38.405  28.832  30.773  1.00  0.00     0.198 A 
ATOM     67  C   UNL A   1      37.869  29.397  28.504  1.00  0.00     0.198 A 
ATOM     68  F   UNL A   1      39.540  29.356  26.851  1.00  0.00    -0.203 F 
ATOM     69  F   UNL A   1      38.018  28.615  32.039  1.00  0.00    -0.200 F 
ATOM     70  C   UNL A   1      37.473  29.208  29.819  1.00  0.00     0.200 A 
ATOM     71  F   UNL A   1      36.971  29.774  27.582  1.00  0.00    -0.200 F 
ATOM     72  F   UNL A   1      36.189  29.379  30.165  1.00  0.00    -0.200 F 
ENDBRANCH  48  62
BRANCH  49  73
ATOM     73  C   UNL A   1      49.552  26.973  26.192  1.00  0.00     0.064 A 
ATOM     74  C   UNL A   1      49.922  27.054  24.842  1.00  0.00     0.173 A 
ATOM     75  C   UNL A   1      50.543  26.612  27.117  1.00  0.00     0.173 A 
ATOM     76  F   UNL A   1      49.006  27.371  23.915  1.00  0.00    -0.203 F 
ATOM     77  C   UNL A   1      51.220  26.758  24.431  1.00  0.00     0.198 A 
ATOM     78  C   UNL A   1      51.849  26.348  26.709  1.00  0.00     0.198 A 
ATOM     79  F   UNL A   1      50.243  26.517  28.421  1.00  0.00    -0.203 F 
ATOM     80  F   UNL A   1      51.531  26.786  23.128  1.00  0.00    -0.200 F 
ATOM     81  C   UNL A   1      52.184  26.410  25.365  1.00  0.00     0.200 A 
ATOM     82  F   UNL A   1      52.780  26.025  27.617  1.00  0.00    -0.200 F 
ATOM     83  F   UNL A   1      53.432  26.126  24.970  1.00  0.00    -0.200 F 
ENDBRANCH  49  73
BRANCH  61  84
ATOM     84  C   UNL A   1      46.243  32.660  28.503  1.00  0.00     0.064 A 
ATOM     85  C   UNL A   1      46.784  33.024  29.744  1.00  0.00     0.173 A 
ATOM     86  C   UNL A   1      46.175  33.646  27.504  1.00  0.00     0.173 A 
ATOM     87  F   UNL A   1      46.864  32.123  30.737  1.00  0.00    -0.203 F 
ATOM     88  C   UNL A   1      47.202  34.330  29.988  1.00  0.00     0.198 A 
ATOM     89  C   UNL A   1      46.630  34.939  27.740  1.00  0.00     0.198 A 
ATOM     90  F   UNL A   1      45.677  33.350  26.294  1.00  0.00    -0.203 F 
ATOM     91  F   UNL A   1      47.657  34.669  31.203  1.00  0.00    -0.200 F 
ATOM     92  C   UNL A   1      47.132  35.284  28.985  1.00  0.00     0.200 A 
ATOM     93  F   UNL A   1      46.578  35.854  26.762  1.00  0.00    -0.200 F 
ATOM     94  F   UNL A   1      47.540  36.538  29.221  1.00  0.00    -0.200 F 
ENDBRANCH  61  84
ENDBRANCH  35  36
ENDBRANCH  28  30
ENDBRANCH  27  28
ENDBRANCH  26  27
ENDBRANCH  25  26
ENDBRANCH  24  25
ENDBRANCH  23  24
ENDBRANCH  22  23
ENDBRANCH  21  22
ENDBRANCH   1  21
TORSDOF 23
ENDMDL
