MODEL 1
REMARK VINA RESULT:      -9.6      0.000      0.000
REMARK SMILES C[C@H](c1ccncc1)[N@H+]1[C@@H]2CC[C@H]1C[C@H](CC(=O)OCCOCCOCCOCCOC(=O)c1ccc(-c3c4nc(c(-c5c(F)c(F)c(F)c(F)c5F)c5ccc([nH]5)c(-c5c(F)c(F)c(F)c(F)c5F)c5nc(c(-c6c(F)c(F)c(F)c(F)c6F)c6ccc3[nH]6)C=C5)C=C4)cc1)C2
REMARK SMILES IDX 24 1 23 2 22 3 21 4 20 5 19 6 17 7 18 8 16 9 15 10 9 11
REMARK SMILES IDX 10 12 13 13 11 15 97 16 12 17 14 18 2 19 1 20 3 21 4 22 8 23
REMARK SMILES IDX 5 24 7 25 6 26 25 27 26 28 27 29 28 30 29 31 30 32 31 33
REMARK SMILES IDX 32 34 33 35 34 36 35 37 96 38 36 39 95 40 37 41 38 42 39 43
REMARK SMILES IDX 89 44 40 45 94 46 88 47 90 48 41 49 93 50 87 51 86 52 42 54
REMARK SMILES IDX 74 55 54 56 73 57 55 58 58 59 72 60 91 61 56 62 57 63 71 65
REMARK SMILES IDX 92 66 59 67 43 68 44 69 52 70 45 71 46 72 50 73 53 74 47 75
REMARK SMILES IDX 48 76 51 77 49 78 75 79 76 80 84 81 77 82 78 83 82 84 85 85
REMARK SMILES IDX 79 86 80 87 83 88 81 89 60 90 61 91 69 92 62 93 63 94 67 95
REMARK SMILES IDX 70 96 64 97 65 98 68 99 66 100
REMARK H PARENT 9 14 90 53 58 64
REMARK Flexibility Score: inf
ROOT
ATOM      1  C   UNL A   1      33.237  30.137  27.246  1.00  0.00     0.188 C 
ENDROOT
BRANCH   1   2
ATOM      2  C   UNL A   1      34.058  28.841  27.204  1.00  0.00     0.188 C 
BRANCH   2   3
ATOM      3  O   UNL A   1      33.952  28.130  25.986  1.00  0.00    -0.376 OA
BRANCH   3   4
ATOM      4  C   UNL A   1      32.658  27.905  25.464  1.00  0.00     0.202 C 
BRANCH   4   5
ATOM      5  C   UNL A   1      32.242  26.471  25.098  1.00  0.00     0.261 C 
BRANCH   5   6
ATOM      6  O   UNL A   1      31.858  25.620  26.189  1.00  0.00    -0.463 OA
BRANCH   6   7
ATOM      7  C   UNL A   1      30.650  25.024  26.129  1.00  0.00     0.306 C 
ATOM      8  O   UNL A   1      29.623  25.602  25.792  1.00  0.00    -0.252 OA
BRANCH   7   9
ATOM      9  C   UNL A   1      30.650  23.542  26.500  1.00  0.00     0.126 C 
BRANCH   9  10
ATOM     10  C   UNL A   1      31.249  22.421  25.606  1.00  0.00     0.012 C 
ATOM     11  N   UNL A   1      33.712  22.091  23.984  1.00  0.00    -0.324 N 
ATOM     12  C   UNL A   1      33.513  21.253  25.175  1.00  0.00     0.185 C 
ATOM     13  C   UNL A   1      32.411  22.034  23.317  1.00  0.00     0.185 C 
ATOM     14  H   UNL A   1      34.418  21.761  23.327  1.00  0.00     0.349 HD
ATOM     15  C   UNL A   1      32.831  20.012  24.586  1.00  0.00     0.071 C 
ATOM     16  C   UNL A   1      32.612  21.970  26.192  1.00  0.00     0.069 C 
ATOM     17  C   UNL A   1      32.170  20.515  23.303  1.00  0.00     0.071 C 
ATOM     18  C   UNL A   1      31.288  22.739  24.095  1.00  0.00     0.069 C 
BRANCH  11  19
ATOM     19  C   UNL A   1      34.396  23.370  24.225  1.00  0.00     0.212 C 
ATOM     20  C   UNL A   1      34.462  24.435  23.121  1.00  0.00     0.081 C 
BRANCH  19  21
ATOM     21  C   UNL A   1      35.833  23.169  24.690  1.00  0.00     0.012 A 
ATOM     22  C   UNL A   1      36.423  23.985  25.659  1.00  0.00     0.030 A 
ATOM     23  C   UNL A   1      36.537  22.037  24.261  1.00  0.00     0.030 A 
ATOM     24  C   UNL A   1      37.657  23.620  26.172  1.00  0.00     0.111 A 
ATOM     25  C   UNL A   1      37.764  21.756  24.834  1.00  0.00     0.111 A 
ATOM     26  N   UNL A   1      38.338  22.519  25.788  1.00  0.00    -0.265 NA
ENDBRANCH  19  21
ENDBRANCH  11  19
ENDBRANCH   9  10
ENDBRANCH   7   9
ENDBRANCH   6   7
ENDBRANCH   5   6
ENDBRANCH   4   5
ENDBRANCH   3   4
ENDBRANCH   2   3
ENDBRANCH   1   2
BRANCH   1  27
ATOM     27  O   UNL A   1      33.815  31.430  27.388  1.00  0.00    -0.377 OA
BRANCH  27  28
ATOM     28  C   UNL A   1      34.766  31.663  28.415  1.00  0.00     0.188 C 
BRANCH  28  29
ATOM     29  C   UNL A   1      35.407  33.059  28.429  1.00  0.00     0.188 C 
BRANCH  29  30
ATOM     30  O   UNL A   1      34.775  33.968  27.537  1.00  0.00    -0.376 OA
BRANCH  30  31
ATOM     31  C   UNL A   1      33.591  34.610  27.994  1.00  0.00     0.202 C 
BRANCH  31  32
ATOM     32  C   UNL A   1      33.593  35.317  29.363  1.00  0.00     0.261 C 
BRANCH  32  33
ATOM     33  O   UNL A   1      33.053  34.589  30.482  1.00  0.00    -0.460 OA
BRANCH  33  34
ATOM     34  C   UNL A   1      33.032  35.191  31.684  1.00  0.00     0.338 C 
ATOM     35  O   UNL A   1      32.148  35.903  32.145  1.00  0.00    -0.246 OA
BRANCH  34  36
ATOM     36  C   UNL A   1      34.194  34.711  32.455  1.00  0.00     0.060 A 
ATOM     37  C   UNL A   1      35.410  35.400  32.356  1.00  0.00     0.016 A 
ATOM     38  C   UNL A   1      34.090  33.571  33.257  1.00  0.00     0.016 A 
ATOM     39  C   UNL A   1      36.540  34.920  33.016  1.00  0.00     0.010 A 
ATOM     40  C   UNL A   1      35.229  33.078  33.901  1.00  0.00     0.010 A 
ATOM     41  C   UNL A   1      36.468  33.727  33.746  1.00  0.00    -0.014 A 
BRANCH  41  42
ATOM     42  C   UNL A   1      37.725  33.042  34.137  1.00  0.00     0.031 A 
ATOM     43  C   UNL A   1      38.279  31.997  33.208  1.00  0.00     0.074 A 
ATOM     44  C   UNL A   1      38.387  33.370  35.260  1.00  0.00     0.049 A 
ATOM     45  N   UNL A   1      39.346  31.248  33.333  1.00  0.00    -0.248 NA
ATOM     46  C   UNL A   1      37.526  31.766  31.964  1.00  0.00     0.031 C 
ATOM     47  C   UNL A   1      37.979  34.400  36.211  1.00  0.00     0.029 A 
ATOM     48  N   UNL A   1      39.547  32.861  35.789  1.00  0.00    -0.354 N 
ATOM     49  C   UNL A   1      39.385  30.456  32.191  1.00  0.00     0.074 A 
ATOM     50  C   UNL A   1      38.221  30.790  31.401  1.00  0.00     0.031 C 
ATOM     51  C   UNL A   1      38.871  34.442  37.217  1.00  0.00     0.029 A 
ATOM     52  C   UNL A   1      39.893  33.418  36.995  1.00  0.00     0.049 A 
ATOM     53  H   UNL A   1      40.080  32.162  35.345  1.00  0.00     0.167 HD
ATOM     54  C   UNL A   1      40.315  29.541  31.830  1.00  0.00     0.037 A 
ATOM     55  C   UNL A   1      40.907  33.117  37.830  1.00  0.00     0.037 A 
ATOM     56  C   UNL A   1      41.470  29.211  32.620  1.00  0.00     0.049 A 
ATOM     57  C   UNL A   1      41.885  32.035  37.444  1.00  0.00     0.074 A 
ATOM     58  C   UNL A   1      42.477  28.305  32.340  1.00  0.00     0.029 A 
ATOM     59  N   UNL A   1      41.766  29.770  33.855  1.00  0.00    -0.354 N 
ATOM     60  N   UNL A   1      41.930  31.307  36.353  1.00  0.00    -0.248 NA
ATOM     61  C   UNL A   1      42.959  31.738  38.403  1.00  0.00     0.031 C 
ATOM     62  C   UNL A   1      43.350  28.271  33.432  1.00  0.00     0.029 A 
ATOM     63  C   UNL A   1      42.925  29.207  34.363  1.00  0.00     0.049 A 
ATOM     64  H   UNL A   1      41.230  30.464  34.304  1.00  0.00     0.167 HD
ATOM     65  C   UNL A   1      43.052  30.494  36.479  1.00  0.00     0.074 A 
ATOM     66  C   UNL A   1      43.665  30.828  37.747  1.00  0.00     0.031 C 
ATOM     67  C   UNL A   1      43.531  29.560  35.621  1.00  0.00     0.037 A 
BRANCH  54  68
ATOM     68  C   UNL A   1      40.099  28.808  30.537  1.00  0.00     0.064 A 
ATOM     69  C   UNL A   1      40.595  29.293  29.317  1.00  0.00     0.173 A 
ATOM     70  C   UNL A   1      39.407  27.588  30.523  1.00  0.00     0.173 A 
ATOM     71  F   UNL A   1      41.250  30.464  29.271  1.00  0.00    -0.203 F 
ATOM     72  C   UNL A   1      40.381  28.598  28.129  1.00  0.00     0.198 A 
ATOM     73  C   UNL A   1      39.224  26.878  29.339  1.00  0.00     0.198 A 
ATOM     74  F   UNL A   1      38.914  27.077  31.661  1.00  0.00    -0.203 F 
ATOM     75  F   UNL A   1      40.818  29.107  26.969  1.00  0.00    -0.200 F 
ATOM     76  C   UNL A   1      39.703  27.388  28.142  1.00  0.00     0.200 A 
ATOM     77  F   UNL A   1      38.581  25.703  29.356  1.00  0.00    -0.200 F 
ATOM     78  F   UNL A   1      39.506  26.716  27.000  1.00  0.00    -0.200 F 
ENDBRANCH  54  68
BRANCH  55  79
ATOM     79  C   UNL A   1      41.048  33.838  39.125  1.00  0.00     0.064 A 
ATOM     80  C   UNL A   1      40.351  33.424  40.268  1.00  0.00     0.173 A 
ATOM     81  C   UNL A   1      41.862  34.975  39.236  1.00  0.00     0.173 A 
ATOM     82  F   UNL A   1      39.539  32.358  40.208  1.00  0.00    -0.203 F 
ATOM     83  C   UNL A   1      40.447  34.130  41.467  1.00  0.00     0.198 A 
ATOM     84  C   UNL A   1      41.982  35.662  40.442  1.00  0.00     0.198 A 
ATOM     85  F   UNL A   1      42.549  35.417  38.172  1.00  0.00    -0.203 F 
ATOM     86  F   UNL A   1      39.729  33.741  42.529  1.00  0.00    -0.200 F 
ATOM     87  C   UNL A   1      41.267  35.244  41.554  1.00  0.00     0.200 A 
ATOM     88  F   UNL A   1      42.788  36.729  40.527  1.00  0.00    -0.200 F 
ATOM     89  F   UNL A   1      41.361  35.920  42.707  1.00  0.00    -0.200 F 
ENDBRANCH  55  79
BRANCH  67  90
ATOM     90  C   UNL A   1      44.812  28.866  35.995  1.00  0.00     0.064 A 
ATOM     91  C   UNL A   1      46.067  29.390  35.657  1.00  0.00     0.173 A 
ATOM     92  C   UNL A   1      44.777  27.680  36.747  1.00  0.00     0.173 A 
ATOM     93  F   UNL A   1      46.157  30.513  34.929  1.00  0.00    -0.203 F 
ATOM     94  C   UNL A   1      47.239  28.737  36.031  1.00  0.00     0.198 A 
ATOM     95  C   UNL A   1      45.951  27.050  37.150  1.00  0.00     0.198 A 
ATOM     96  F   UNL A   1      43.602  27.140  37.106  1.00  0.00    -0.203 F 
ATOM     97  F   UNL A   1      48.427  29.228  35.652  1.00  0.00    -0.200 F 
ATOM     98  C   UNL A   1      47.181  27.574  36.784  1.00  0.00     0.200 A 
ATOM     99  F   UNL A   1      45.891  25.937  37.893  1.00  0.00    -0.200 F 
ATOM    100  F   UNL A   1      48.310  26.954  37.153  1.00  0.00    -0.200 F 
ENDBRANCH  67  90
ENDBRANCH  41  42
ENDBRANCH  34  36
ENDBRANCH  33  34
ENDBRANCH  32  33
ENDBRANCH  31  32
ENDBRANCH  30  31
ENDBRANCH  29  30
ENDBRANCH  28  29
ENDBRANCH  27  28
ENDBRANCH   1  27
TORSDOF 23
ENDMDL
MODEL 2
REMARK VINA RESULT:      -9.4      5.232      9.553
REMARK SMILES C[C@H](c1ccncc1)[N@H+]1[C@@H]2CC[C@H]1C[C@H](CC(=O)OCCOCCOCCOCCOC(=O)c1ccc(-c3c4nc(c(-c5c(F)c(F)c(F)c(F)c5F)c5ccc([nH]5)c(-c5c(F)c(F)c(F)c(F)c5F)c5nc(c(-c6c(F)c(F)c(F)c(F)c6F)c6ccc3[nH]6)C=C5)C=C4)cc1)C2
REMARK SMILES IDX 24 1 23 2 22 3 21 4 20 5 19 6 17 7 18 8 16 9 15 10 9 11
REMARK SMILES IDX 10 12 13 13 11 15 97 16 12 17 14 18 2 19 1 20 3 21 4 22 8 23
REMARK SMILES IDX 5 24 7 25 6 26 25 27 26 28 27 29 28 30 29 31 30 32 31 33
REMARK SMILES IDX 32 34 33 35 34 36 35 37 96 38 36 39 95 40 37 41 38 42 39 43
REMARK SMILES IDX 89 44 40 45 94 46 88 47 90 48 41 49 93 50 87 51 86 52 42 54
REMARK SMILES IDX 74 55 54 56 73 57 55 58 58 59 72 60 91 61 56 62 57 63 71 65
REMARK SMILES IDX 92 66 59 67 43 68 44 69 52 70 45 71 46 72 50 73 53 74 47 75
REMARK SMILES IDX 48 76 51 77 49 78 75 79 76 80 84 81 77 82 78 83 82 84 85 85
REMARK SMILES IDX 79 86 80 87 83 88 81 89 60 90 61 91 69 92 62 93 63 94 67 95
REMARK SMILES IDX 70 96 64 97 65 98 68 99 66 100
REMARK H PARENT 9 14 90 53 58 64
REMARK Flexibility Score: inf
ROOT
ATOM      1  C   UNL A   1      33.649  30.880  27.556  1.00  0.00     0.188 C 
ENDROOT
BRANCH   1   2
ATOM      2  C   UNL A   1      34.760  29.931  27.086  1.00  0.00     0.188 C 
BRANCH   2   3
ATOM      3  O   UNL A   1      34.317  28.617  26.809  1.00  0.00    -0.376 OA
BRANCH   3   4
ATOM      4  C   UNL A   1      33.608  28.399  25.605  1.00  0.00     0.202 C 
BRANCH   4   5
ATOM      5  C   UNL A   1      32.529  27.305  25.564  1.00  0.00     0.261 C 
BRANCH   5   6
ATOM      6  O   UNL A   1      32.427  26.466  26.726  1.00  0.00    -0.463 OA
BRANCH   6   7
ATOM      7  C   UNL A   1      31.589  25.411  26.671  1.00  0.00     0.306 C 
ATOM      8  O   UNL A   1      30.421  25.490  26.305  1.00  0.00    -0.252 OA
BRANCH   7   9
ATOM      9  C   UNL A   1      32.210  24.079  27.086  1.00  0.00     0.126 C 
BRANCH   9  10
ATOM     10  C   UNL A   1      33.400  23.406  26.347  1.00  0.00     0.012 C 
ATOM     11  N   UNL A   1      33.769  22.000  23.761  1.00  0.00    -0.324 N 
ATOM     12  C   UNL A   1      34.432  23.293  23.980  1.00  0.00     0.185 C 
ATOM     13  C   UNL A   1      34.032  21.275  25.005  1.00  0.00     0.185 C 
ATOM     14  H   UNL A   1      34.136  21.444  22.988  1.00  0.00     0.349 HD
ATOM     15  C   UNL A   1      35.799  22.866  24.530  1.00  0.00     0.071 C 
ATOM     16  C   UNL A   1      33.645  24.132  24.999  1.00  0.00     0.069 C 
ATOM     17  C   UNL A   1      35.551  21.485  25.134  1.00  0.00     0.071 C 
ATOM     18  C   UNL A   1      33.312  21.869  26.226  1.00  0.00     0.069 C 
BRANCH  11  19
ATOM     19  C   UNL A   1      32.417  22.078  23.188  1.00  0.00     0.212 C 
ATOM     20  C   UNL A   1      31.955  21.048  22.146  1.00  0.00     0.081 C 
BRANCH  19  21
ATOM     21  C   UNL A   1      32.137  23.442  22.571  1.00  0.00     0.012 A 
ATOM     22  C   UNL A   1      31.168  24.307  23.087  1.00  0.00     0.030 A 
ATOM     23  C   UNL A   1      32.980  23.920  21.560  1.00  0.00     0.030 A 
ATOM     24  C   UNL A   1      31.109  25.603  22.600  1.00  0.00     0.111 A 
ATOM     25  C   UNL A   1      32.843  25.231  21.141  1.00  0.00     0.111 A 
ATOM     26  N   UNL A   1      31.930  26.088  21.643  1.00  0.00    -0.265 NA
ENDBRANCH  19  21
ENDBRANCH  11  19
ENDBRANCH   9  10
ENDBRANCH   7   9
ENDBRANCH   6   7
ENDBRANCH   5   6
ENDBRANCH   4   5
ENDBRANCH   3   4
ENDBRANCH   2   3
ENDBRANCH   1   2
BRANCH   1  27
ATOM     27  O   UNL A   1      33.886  32.218  27.980  1.00  0.00    -0.377 OA
BRANCH  27  28
ATOM     28  C   UNL A   1      35.219  32.695  28.082  1.00  0.00     0.188 C 
BRANCH  28  29
ATOM     29  C   UNL A   1      35.381  34.110  28.656  1.00  0.00     0.188 C 
BRANCH  29  30
ATOM     30  O   UNL A   1      34.170  34.636  29.182  1.00  0.00    -0.376 OA
BRANCH  30  31
ATOM     31  C   UNL A   1      33.890  34.374  30.552  1.00  0.00     0.202 C 
BRANCH  31  32
ATOM     32  C   UNL A   1      35.039  33.973  31.498  1.00  0.00     0.261 C 
BRANCH  32  33
ATOM     33  O   UNL A   1      35.131  32.587  31.873  1.00  0.00    -0.460 OA
BRANCH  33  34
ATOM     34  C   UNL A   1      36.095  32.222  32.735  1.00  0.00     0.338 C 
ATOM     35  O   UNL A   1      36.116  32.400  33.948  1.00  0.00    -0.246 OA
BRANCH  34  36
ATOM     36  C   UNL A   1      37.075  31.397  32.004  1.00  0.00     0.060 A 
ATOM     37  C   UNL A   1      38.145  30.827  32.707  1.00  0.00     0.016 A 
ATOM     38  C   UNL A   1      36.951  31.206  30.626  1.00  0.00     0.016 A 
ATOM     39  C   UNL A   1      39.124  30.108  32.023  1.00  0.00     0.010 A 
ATOM     40  C   UNL A   1      37.946  30.503  29.938  1.00  0.00     0.010 A 
ATOM     41  C   UNL A   1      39.058  29.990  30.630  1.00  0.00    -0.014 A 
BRANCH  41  42
ATOM     42  C   UNL A   1      40.263  29.546  29.885  1.00  0.00     0.031 A 
ATOM     43  C   UNL A   1      41.373  30.541  29.680  1.00  0.00     0.074 A 
ATOM     44  C   UNL A   1      40.394  28.284  29.443  1.00  0.00     0.049 A 
ATOM     45  N   UNL A   1      42.512  30.404  29.049  1.00  0.00    -0.248 NA
ATOM     46  C   UNL A   1      41.171  31.874  30.271  1.00  0.00     0.031 C 
ATOM     47  C   UNL A   1      39.412  27.218  29.626  1.00  0.00     0.029 A 
ATOM     48  N   UNL A   1      41.415  27.688  28.744  1.00  0.00    -0.354 N 
ATOM     49  C   UNL A   1      43.154  31.631  29.162  1.00  0.00     0.074 A 
ATOM     50  C   UNL A   1      42.267  32.510  29.891  1.00  0.00     0.031 C 
ATOM     51  C   UNL A   1      39.873  26.097  29.043  1.00  0.00     0.029 A 
ATOM     52  C   UNL A   1      41.167  26.377  28.419  1.00  0.00     0.049 A 
ATOM     53  H   UNL A   1      42.245  28.157  28.499  1.00  0.00     0.167 HD
ATOM     54  C   UNL A   1      44.378  31.989  28.708  1.00  0.00     0.037 A 
ATOM     55  C   UNL A   1      41.894  25.514  27.683  1.00  0.00     0.037 A 
ATOM     56  C   UNL A   1      45.256  31.112  27.981  1.00  0.00     0.049 A 
ATOM     57  C   UNL A   1      43.220  25.962  27.116  1.00  0.00     0.074 A 
ATOM     58  C   UNL A   1      46.520  31.373  27.484  1.00  0.00     0.029 A 
ATOM     59  N   UNL A   1      44.953  29.802  27.638  1.00  0.00    -0.354 N 
ATOM     60  N   UNL A   1      43.831  27.115  27.246  1.00  0.00    -0.248 NA
ATOM     61  C   UNL A   1      43.959  24.983  26.306  1.00  0.00     0.031 C 
ATOM     62  C   UNL A   1      46.958  30.242  26.788  1.00  0.00     0.029 A 
ATOM     63  C   UNL A   1      45.996  29.252  26.911  1.00  0.00     0.049 A 
ATOM     64  H   UNL A   1      44.120  29.333  27.875  1.00  0.00     0.167 HD
ATOM     65  C   UNL A   1      45.038  26.989  26.567  1.00  0.00     0.074 A 
ATOM     66  C   UNL A   1      45.077  25.643  26.037  1.00  0.00     0.031 C 
ATOM     67  C   UNL A   1      46.026  27.904  26.401  1.00  0.00     0.037 A 
BRANCH  54  68
ATOM     68  C   UNL A   1      44.823  33.402  28.955  1.00  0.00     0.064 A 
ATOM     69  C   UNL A   1      45.662  33.739  30.028  1.00  0.00     0.173 A 
ATOM     70  C   UNL A   1      44.424  34.431  28.089  1.00  0.00     0.173 A 
ATOM     71  F   UNL A   1      46.059  32.796  30.897  1.00  0.00    -0.203 F 
ATOM     72  C   UNL A   1      46.061  35.056  30.241  1.00  0.00     0.198 A 
ATOM     73  C   UNL A   1      44.851  35.741  28.284  1.00  0.00     0.198 A 
ATOM     74  F   UNL A   1      43.624  34.164  27.045  1.00  0.00    -0.203 F 
ATOM     75  F   UNL A   1      46.818  35.362  31.304  1.00  0.00    -0.200 F 
ATOM     76  C   UNL A   1      45.662  36.055  29.365  1.00  0.00     0.200 A 
ATOM     77  F   UNL A   1      44.476  36.702  27.428  1.00  0.00    -0.200 F 
ATOM     78  F   UNL A   1      46.054  37.321  29.565  1.00  0.00    -0.200 F 
ENDBRANCH  54  68
BRANCH  55  79
ATOM     79  C   UNL A   1      41.385  24.140  27.423  1.00  0.00     0.064 A 
ATOM     80  C   UNL A   1      40.272  23.920  26.601  1.00  0.00     0.173 A 
ATOM     81  C   UNL A   1      41.987  23.020  28.016  1.00  0.00     0.173 A 
ATOM     82  F   UNL A   1      39.644  24.959  26.031  1.00  0.00    -0.203 F 
ATOM     83  C   UNL A   1      39.767  22.636  26.398  1.00  0.00     0.198 A 
ATOM     84  C   UNL A   1      41.502  21.734  27.788  1.00  0.00     0.198 A 
ATOM     85  F   UNL A   1      43.054  23.174  28.814  1.00  0.00    -0.203 F 
ATOM     86  F   UNL A   1      38.670  22.461  25.650  1.00  0.00    -0.200 F 
ATOM     87  C   UNL A   1      40.386  21.544  26.987  1.00  0.00     0.200 A 
ATOM     88  F   UNL A   1      42.112  20.680  28.347  1.00  0.00    -0.200 F 
ATOM     89  F   UNL A   1      39.902  20.310  26.790  1.00  0.00    -0.200 F 
ENDBRANCH  55  79
BRANCH  67  90
ATOM     90  C   UNL A   1      47.259  27.468  25.661  1.00  0.00     0.064 A 
ATOM     91  C   UNL A   1      47.412  27.678  24.283  1.00  0.00     0.173 A 
ATOM     92  C   UNL A   1      48.326  26.874  26.356  1.00  0.00     0.173 A 
ATOM     93  F   UNL A   1      46.419  28.230  23.570  1.00  0.00    -0.203 F 
ATOM     94  C   UNL A   1      48.573  27.282  23.623  1.00  0.00     0.198 A 
ATOM     95  C   UNL A   1      49.499  26.513  25.699  1.00  0.00     0.198 A 
ATOM     96  F   UNL A   1      48.237  26.660  27.677  1.00  0.00    -0.203 F 
ATOM     97  F   UNL A   1      48.675  27.445  22.297  1.00  0.00    -0.200 F 
ATOM     98  C   UNL A   1      49.618  26.709  24.332  1.00  0.00     0.200 A 
ATOM     99  F   UNL A   1      50.513  25.977  26.390  1.00  0.00    -0.200 F 
ATOM    100  F   UNL A   1      50.738  26.338  23.697  1.00  0.00    -0.200 F 
ENDBRANCH  67  90
ENDBRANCH  41  42
ENDBRANCH  34  36
ENDBRANCH  33  34
ENDBRANCH  32  33
ENDBRANCH  31  32
ENDBRANCH  30  31
ENDBRANCH  29  30
ENDBRANCH  28  29
ENDBRANCH  27  28
ENDBRANCH   1  27
TORSDOF 23
ENDMDL
MODEL 3
REMARK VINA RESULT:      -8.8      4.589      9.158
REMARK SMILES C[C@H](c1ccncc1)[N@H+]1[C@@H]2CC[C@H]1C[C@H](CC(=O)OCCOCCOCCOCCOC(=O)c1ccc(-c3c4nc(c(-c5c(F)c(F)c(F)c(F)c5F)c5ccc([nH]5)c(-c5c(F)c(F)c(F)c(F)c5F)c5nc(c(-c6c(F)c(F)c(F)c(F)c6F)c6ccc3[nH]6)C=C5)C=C4)cc1)C2
REMARK SMILES IDX 24 1 23 2 22 3 21 4 20 5 19 6 17 7 18 8 16 9 15 10 9 11
REMARK SMILES IDX 10 12 13 13 11 15 97 16 12 17 14 18 2 19 1 20 3 21 4 22 8 23
REMARK SMILES IDX 5 24 7 25 6 26 25 27 26 28 27 29 28 30 29 31 30 32 31 33
REMARK SMILES IDX 32 34 33 35 34 36 35 37 96 38 36 39 95 40 37 41 38 42 39 43
REMARK SMILES IDX 89 44 40 45 94 46 88 47 90 48 41 49 93 50 87 51 86 52 42 54
REMARK SMILES IDX 74 55 54 56 73 57 55 58 58 59 72 60 91 61 56 62 57 63 71 65
REMARK SMILES IDX 92 66 59 67 43 68 44 69 52 70 45 71 46 72 50 73 53 74 47 75
REMARK SMILES IDX 48 76 51 77 49 78 75 79 76 80 84 81 77 82 78 83 82 84 85 85
REMARK SMILES IDX 79 86 80 87 83 88 81 89 60 90 61 91 69 92 62 93 63 94 67 95
REMARK SMILES IDX 70 96 64 97 65 98 68 99 66 100
REMARK H PARENT 9 14 90 53 58 64
REMARK Flexibility Score: inf
ROOT
ATOM      1  C   UNL A   1      38.904  27.570  29.998  1.00  0.00     0.188 C 
ENDROOT
BRANCH   1   2
ATOM      2  C   UNL A   1      38.289  28.976  30.029  1.00  0.00     0.188 C 
BRANCH   2   3
ATOM      3  O   UNL A   1      37.635  29.345  28.830  1.00  0.00    -0.376 OA
BRANCH   3   4
ATOM      4  C   UNL A   1      36.289  29.769  28.916  1.00  0.00     0.202 C 
BRANCH   4   5
ATOM      5  C   UNL A   1      35.622  30.383  27.674  1.00  0.00     0.261 C 
BRANCH   5   6
ATOM      6  O   UNL A   1      34.731  29.529  26.940  1.00  0.00    -0.463 OA
BRANCH   6   7
ATOM      7  C   UNL A   1      33.455  29.934  26.781  1.00  0.00     0.306 C 
ATOM      8  O   UNL A   1      32.849  30.607  27.608  1.00  0.00    -0.252 OA
BRANCH   7   9
ATOM      9  C   UNL A   1      32.807  29.506  25.466  1.00  0.00     0.126 C 
BRANCH   9  10
ATOM     10  C   UNL A   1      31.782  28.345  25.339  1.00  0.00     0.012 C 
ATOM     11  N   UNL A   1      31.862  25.543  24.366  1.00  0.00    -0.324 N 
ATOM     12  C   UNL A   1      31.625  25.806  25.793  1.00  0.00     0.185 C 
ATOM     13  C   UNL A   1      30.978  26.500  23.700  1.00  0.00     0.185 C 
ATOM     14  H   UNL A   1      31.615  24.608  24.045  1.00  0.00     0.349 HD
ATOM     15  C   UNL A   1      30.093  25.851  25.862  1.00  0.00     0.071 C 
ATOM     16  C   UNL A   1      32.253  27.147  26.203  1.00  0.00     0.069 C 
ATOM     17  C   UNL A   1      29.660  26.228  24.446  1.00  0.00     0.071 C 
ATOM     18  C   UNL A   1      31.399  27.965  23.892  1.00  0.00     0.069 C 
BRANCH  11  19
ATOM     19  C   UNL A   1      33.275  25.406  23.981  1.00  0.00     0.212 C 
ATOM     20  C   UNL A   1      33.678  25.400  22.499  1.00  0.00     0.081 C 
BRANCH  19  21
ATOM     21  C   UNL A   1      33.913  24.163  24.587  1.00  0.00     0.012 A 
ATOM     22  C   UNL A   1      33.694  22.885  24.067  1.00  0.00     0.030 A 
ATOM     23  C   UNL A   1      34.876  24.312  25.593  1.00  0.00     0.030 A 
ATOM     24  C   UNL A   1      34.460  21.833  24.544  1.00  0.00     0.111 A 
ATOM     25  C   UNL A   1      35.591  23.200  26.002  1.00  0.00     0.111 A 
ATOM     26  N   UNL A   1      35.410  21.963  25.495  1.00  0.00    -0.265 NA
ENDBRANCH  19  21
ENDBRANCH  11  19
ENDBRANCH   9  10
ENDBRANCH   7   9
ENDBRANCH   6   7
ENDBRANCH   5   6
ENDBRANCH   4   5
ENDBRANCH   3   4
ENDBRANCH   2   3
ENDBRANCH   1   2
BRANCH   1  27
ATOM     27  O   UNL A   1      40.022  27.219  29.188  1.00  0.00    -0.377 OA
BRANCH  27  28
ATOM     28  C   UNL A   1      40.023  25.981  28.496  1.00  0.00     0.188 C 
BRANCH  28  29
ATOM     29  C   UNL A   1      41.407  25.396  28.174  1.00  0.00     0.188 C 
BRANCH  29  30
ATOM     30  O   UNL A   1      41.339  24.214  27.387  1.00  0.00    -0.376 OA
BRANCH  30  31
ATOM     31  C   UNL A   1      42.569  23.572  27.073  1.00  0.00     0.202 C 
BRANCH  31  32
ATOM     32  C   UNL A   1      43.043  23.516  25.608  1.00  0.00     0.261 C 
BRANCH  32  33
ATOM     33  O   UNL A   1      43.320  24.770  24.957  1.00  0.00    -0.460 OA
BRANCH  33  34
ATOM     34  C   UNL A   1      44.552  25.293  25.079  1.00  0.00     0.338 C 
ATOM     35  O   UNL A   1      45.579  24.920  24.523  1.00  0.00    -0.246 OA
BRANCH  34  36
ATOM     36  C   UNL A   1      44.447  26.529  25.876  1.00  0.00     0.060 A 
ATOM     37  C   UNL A   1      45.550  26.949  26.632  1.00  0.00     0.016 A 
ATOM     38  C   UNL A   1      43.256  27.260  25.896  1.00  0.00     0.016 A 
ATOM     39  C   UNL A   1      45.447  28.072  27.452  1.00  0.00     0.010 A 
ATOM     40  C   UNL A   1      43.148  28.374  26.736  1.00  0.00     0.010 A 
ATOM     41  C   UNL A   1      44.229  28.756  27.550  1.00  0.00    -0.014 A 
BRANCH  41  42
ATOM     42  C   UNL A   1      44.023  29.708  28.670  1.00  0.00     0.031 A 
ATOM     43  C   UNL A   1      43.826  29.142  30.050  1.00  0.00     0.074 A 
ATOM     44  C   UNL A   1      44.059  31.038  28.481  1.00  0.00     0.049 A 
ATOM     45  N   UNL A   1      43.608  29.760  31.183  1.00  0.00    -0.248 NA
ATOM     46  C   UNL A   1      43.884  27.675  30.167  1.00  0.00     0.031 C 
ATOM     47  C   UNL A   1      44.294  31.704  27.204  1.00  0.00     0.029 A 
ATOM     48  N   UNL A   1      43.893  32.067  29.375  1.00  0.00    -0.354 N 
ATOM     49  C   UNL A   1      43.497  28.760  32.141  1.00  0.00     0.074 A 
ATOM     50  C   UNL A   1      43.637  27.495  31.455  1.00  0.00     0.031 C 
ATOM     51  C   UNL A   1      44.247  33.035  27.392  1.00  0.00     0.029 A 
ATOM     52  C   UNL A   1      43.945  33.311  28.796  1.00  0.00     0.049 A 
ATOM     53  H   UNL A   1      43.748  31.926  30.339  1.00  0.00     0.167 HD
ATOM     54  C   UNL A   1      43.306  28.886  33.476  1.00  0.00     0.037 A 
ATOM     55  C   UNL A   1      43.750  34.529  29.340  1.00  0.00     0.037 A 
ATOM     56  C   UNL A   1      43.165  30.146  34.154  1.00  0.00     0.049 A 
ATOM     57  C   UNL A   1      43.456  34.639  30.816  1.00  0.00     0.074 A 
ATOM     58  C   UNL A   1      42.977  30.384  35.503  1.00  0.00     0.029 A 
ATOM     59  N   UNL A   1      43.185  31.384  33.528  1.00  0.00    -0.354 N 
ATOM     60  N   UNL A   1      43.375  33.692  31.721  1.00  0.00    -0.248 NA
ATOM     61  C   UNL A   1      43.233  35.992  31.349  1.00  0.00     0.031 C 
ATOM     62  C   UNL A   1      42.823  31.761  35.687  1.00  0.00     0.029 A 
ATOM     63  C   UNL A   1      42.985  32.388  34.461  1.00  0.00     0.049 A 
ATOM     64  H   UNL A   1      43.322  31.528  32.563  1.00  0.00     0.167 HD
ATOM     65  C   UNL A   1      43.129  34.334  32.929  1.00  0.00     0.074 A 
ATOM     66  C   UNL A   1      43.085  35.753  32.644  1.00  0.00     0.031 C 
ATOM     67  C   UNL A   1      42.958  33.798  34.163  1.00  0.00     0.037 A 
BRANCH  54  68
ATOM     68  C   UNL A   1      43.204  27.624  34.284  1.00  0.00     0.064 A 
ATOM     69  C   UNL A   1      41.977  26.977  34.499  1.00  0.00     0.173 A 
ATOM     70  C   UNL A   1      44.357  27.039  34.829  1.00  0.00     0.173 A 
ATOM     71  F   UNL A   1      40.842  27.503  34.014  1.00  0.00    -0.203 F 
ATOM     72  C   UNL A   1      41.905  25.808  35.254  1.00  0.00     0.198 A 
ATOM     73  C   UNL A   1      44.286  25.853  35.555  1.00  0.00     0.198 A 
ATOM     74  F   UNL A   1      45.556  27.614  34.652  1.00  0.00    -0.203 F 
ATOM     75  F   UNL A   1      40.716  25.238  35.491  1.00  0.00    -0.200 F 
ATOM     76  C   UNL A   1      43.060  25.243  35.774  1.00  0.00     0.200 A 
ATOM     77  F   UNL A   1      45.405  25.301  36.045  1.00  0.00    -0.200 F 
ATOM     78  F   UNL A   1      42.991  24.114  36.493  1.00  0.00    -0.200 F 
ENDBRANCH  54  68
BRANCH  55  79
ATOM     79  C   UNL A   1      43.811  35.746  28.487  1.00  0.00     0.064 A 
ATOM     80  C   UNL A   1      45.021  36.418  28.263  1.00  0.00     0.173 A 
ATOM     81  C   UNL A   1      42.654  36.278  27.899  1.00  0.00     0.173 A 
ATOM     82  F   UNL A   1      46.152  35.965  28.824  1.00  0.00    -0.203 F 
ATOM     83  C   UNL A   1      45.068  37.586  27.503  1.00  0.00     0.198 A 
ATOM     84  C   UNL A   1      42.707  37.428  27.113  1.00  0.00     0.198 A 
ATOM     85  F   UNL A   1      41.469  35.678  28.082  1.00  0.00    -0.203 F 
ATOM     86  F   UNL A   1      46.230  38.236  27.350  1.00  0.00    -0.200 F 
ATOM     87  C   UNL A   1      43.913  38.086  26.924  1.00  0.00     0.200 A 
ATOM     88  F   UNL A   1      41.590  37.900  26.542  1.00  0.00    -0.200 F 
ATOM     89  F   UNL A   1      43.959  39.207  26.191  1.00  0.00    -0.200 F 
ENDBRANCH  55  79
BRANCH  67  90
ATOM     90  C   UNL A   1      42.762  34.747  35.312  1.00  0.00     0.064 A 
ATOM     91  C   UNL A   1      43.841  35.269  36.038  1.00  0.00     0.173 A 
ATOM     92  C   UNL A   1      41.470  35.176  35.659  1.00  0.00     0.173 A 
ATOM     93  F   UNL A   1      45.095  34.883  35.756  1.00  0.00    -0.203 F 
ATOM     94  C   UNL A   1      43.634  36.163  37.086  1.00  0.00     0.198 A 
ATOM     95  C   UNL A   1      41.269  36.097  36.684  1.00  0.00     0.198 A 
ATOM     96  F   UNL A   1      40.401  34.716  34.990  1.00  0.00    -0.203 F 
ATOM     97  F   UNL A   1      44.677  36.608  37.800  1.00  0.00    -0.200 F 
ATOM     98  C   UNL A   1      42.351  36.582  37.402  1.00  0.00     0.200 A 
ATOM     99  F   UNL A   1      40.030  36.514  36.973  1.00  0.00    -0.200 F 
ATOM    100  F   UNL A   1      42.154  37.450  38.405  1.00  0.00    -0.200 F 
ENDBRANCH  67  90
ENDBRANCH  41  42
ENDBRANCH  34  36
ENDBRANCH  33  34
ENDBRANCH  32  33
ENDBRANCH  31  32
ENDBRANCH  30  31
ENDBRANCH  29  30
ENDBRANCH  28  29
ENDBRANCH  27  28
ENDBRANCH   1  27
TORSDOF 23
ENDMDL
