MODEL 1
REMARK VINA RESULT:     -10.8      0.000      0.000
REMARK SMILES C[C@@H](C(=O)OCCOCCOCCOCCOC(=O)c1ccc(-c2c3nc(c(-c4c(F)c(F)c(F)c(F)c4F)c4ccc([nH]4)c(-c4c(F)c(F)c(F)c(F)c4F)c4nc(c(-c5c(F)c(F)c(F)c(F)c5F)c5ccc2[nH]5)C=C4)C=C3)cc1)c1ccc(C[C@@H]2CCC[C@@H]2O)cc1Br
REMARK SMILES IDX 10 1 9 2 8 3 7 4 6 5 5 6 3 7 4 8 2 9 1 10 83 11 84 12 95 13
REMARK SMILES IDX 85 14 94 15 96 16 86 17 87 18 88 19 89 20 92 21 90 22 91 23
REMARK SMILES IDX 93 24 11 26 12 27 13 28 14 29 15 30 16 31 17 32 18 33 19 34
REMARK SMILES IDX 20 35 21 36 82 37 22 38 81 39 23 40 24 41 25 42 75 43 26 44
REMARK SMILES IDX 80 45 74 46 76 47 27 48 79 49 73 50 72 51 28 53 60 54 40 55
REMARK SMILES IDX 59 56 41 57 44 58 58 59 77 60 42 61 43 62 57 64 78 65 45 66
REMARK SMILES IDX 29 67 30 68 38 69 31 70 32 71 36 72 39 73 33 74 34 75 37 76
REMARK SMILES IDX 35 77 61 78 62 79 70 80 63 81 64 82 68 83 71 84 65 85 66 86
REMARK SMILES IDX 69 87 67 88 46 89 47 90 55 91 48 92 49 93 53 94 56 95 50 96
REMARK SMILES IDX 51 97 54 98 52 99
REMARK H PARENT 93 25 76 52 44 63
REMARK Flexibility Score: inf
ROOT
ATOM      1  C   UNL A   1      34.658  31.229  27.649  1.00  0.00     0.188 C 
ENDROOT
BRANCH   1   2
ATOM      2  C   UNL A   1      34.131  29.939  26.996  1.00  0.00     0.188 C 
BRANCH   2   3
ATOM      3  O   UNL A   1      33.092  30.158  26.036  1.00  0.00    -0.376 OA
BRANCH   3   4
ATOM      4  C   UNL A   1      32.612  28.998  25.362  1.00  0.00     0.202 C 
BRANCH   4   5
ATOM      5  C   UNL A   1      33.691  28.004  24.934  1.00  0.00     0.261 C 
BRANCH   5   6
ATOM      6  O   UNL A   1      33.143  27.062  23.997  1.00  0.00    -0.463 OA
BRANCH   6   7
ATOM      7  C   UNL A   1      33.322  25.740  24.210  1.00  0.00     0.313 C 
ATOM      8  O   UNL A   1      34.393  25.212  24.483  1.00  0.00    -0.252 OA
BRANCH   7   9
ATOM      9  C   UNL A   1      32.031  24.970  23.976  1.00  0.00     0.127 C 
ATOM     10  C   UNL A   1      30.988  25.588  24.938  1.00  0.00     0.025 C 
BRANCH   9  11
ATOM     11  C   UNL A   1      32.069  23.431  24.009  1.00  0.00    -0.020 A 
ATOM     12  C   UNL A   1      32.069  22.754  22.766  1.00  0.00     0.006 A 
ATOM     13  C   UNL A   1      32.228  22.616  25.145  1.00  0.00     0.022 A 
ATOM     14  C   UNL A   1      32.176  21.360  22.658  1.00  0.00     0.004 A 
ATOM     15  C   UNL A   1      32.269  21.209  25.033  1.00  0.00     0.019 A 
ATOM     16  Br  UNL A   1      32.537  23.264  26.907  1.00  0.00    -0.050 Br
ATOM     17  C   UNL A   1      32.253  20.560  23.793  1.00  0.00    -0.047 A 
BRANCH  17  18
ATOM     18  C   UNL A   1      32.475  19.066  23.713  1.00  0.00     0.041 C 
BRANCH  18  19
ATOM     19  C   UNL A   1      33.695  18.394  24.382  1.00  0.00     0.022 C 
ATOM     20  C   UNL A   1      34.384  17.305  23.556  1.00  0.00     0.007 C 
ATOM     21  C   UNL A   1      33.468  17.711  25.731  1.00  0.00     0.117 C 
ATOM     22  C   UNL A   1      33.917  15.963  24.128  1.00  0.00     0.003 C 
ATOM     23  C   UNL A   1      33.099  16.280  25.376  1.00  0.00     0.032 C 
BRANCH  21  24
ATOM     24  O   UNL A   1      32.480  18.329  26.525  1.00  0.00    -0.393 OA
ATOM     25  H   UNL A   1      31.882  18.840  25.958  1.00  0.00     0.210 HD
ENDBRANCH  21  24
ENDBRANCH  18  19
ENDBRANCH  17  18
ENDBRANCH   9  11
ENDBRANCH   7   9
ENDBRANCH   6   7
ENDBRANCH   5   6
ENDBRANCH   4   5
ENDBRANCH   3   4
ENDBRANCH   2   3
ENDBRANCH   1   2
BRANCH   1  26
ATOM     26  O   UNL A   1      33.675  32.018  28.299  1.00  0.00    -0.377 OA
BRANCH  26  27
ATOM     27  C   UNL A   1      33.660  33.424  28.067  1.00  0.00     0.188 C 
BRANCH  27  28
ATOM     28  C   UNL A   1      34.826  34.339  28.498  1.00  0.00     0.188 C 
BRANCH  28  29
ATOM     29  O   UNL A   1      35.229  34.182  29.854  1.00  0.00    -0.376 OA
BRANCH  29  30
ATOM     30  C   UNL A   1      34.329  34.655  30.847  1.00  0.00     0.202 C 
BRANCH  30  31
ATOM     31  C   UNL A   1      34.180  33.708  32.043  1.00  0.00     0.261 C 
BRANCH  31  32
ATOM     32  O   UNL A   1      34.845  32.443  31.888  1.00  0.00    -0.460 OA
BRANCH  32  33
ATOM     33  C   UNL A   1      35.852  32.169  32.743  1.00  0.00     0.338 C 
ATOM     34  O   UNL A   1      35.894  32.388  33.940  1.00  0.00    -0.246 OA
BRANCH  33  35
ATOM     35  C   UNL A   1      36.858  31.375  32.013  1.00  0.00     0.060 A 
ATOM     36  C   UNL A   1      37.823  30.675  32.748  1.00  0.00     0.016 A 
ATOM     37  C   UNL A   1      36.859  31.341  30.617  1.00  0.00     0.016 A 
ATOM     38  C   UNL A   1      38.828  29.976  32.082  1.00  0.00     0.010 A 
ATOM     39  C   UNL A   1      37.875  30.656  29.951  1.00  0.00     0.010 A 
ATOM     40  C   UNL A   1      38.885  30.006  30.681  1.00  0.00    -0.014 A 
BRANCH  40  41
ATOM     41  C   UNL A   1      40.114  29.560  29.989  1.00  0.00     0.031 A 
ATOM     42  C   UNL A   1      41.226  30.557  29.813  1.00  0.00     0.074 A 
ATOM     43  C   UNL A   1      40.247  28.305  29.530  1.00  0.00     0.049 A 
ATOM     44  N   UNL A   1      42.379  30.422  29.211  1.00  0.00    -0.248 NA
ATOM     45  C   UNL A   1      41.002  31.890  30.395  1.00  0.00     0.031 C 
ATOM     46  C   UNL A   1      39.253  27.244  29.666  1.00  0.00     0.029 A 
ATOM     47  N   UNL A   1      41.279  27.718  28.842  1.00  0.00    -0.354 N 
ATOM     48  C   UNL A   1      43.017  31.647  29.345  1.00  0.00     0.074 A 
ATOM     49  C   UNL A   1      42.113  32.525  30.056  1.00  0.00     0.031 C 
ATOM     50  C   UNL A   1      39.716  26.135  29.065  1.00  0.00     0.029 A 
ATOM     51  C   UNL A   1      41.028  26.417  28.482  1.00  0.00     0.049 A 
ATOM     52  H   UNL A   1      42.118  28.185  28.628  1.00  0.00     0.167 HD
ATOM     53  C   UNL A   1      44.250  32.008  28.921  1.00  0.00     0.037 A 
ATOM     54  C   UNL A   1      41.771  25.565  27.749  1.00  0.00     0.037 A 
ATOM     55  C   UNL A   1      45.143  31.142  28.200  1.00  0.00     0.049 A 
ATOM     56  C   UNL A   1      43.111  26.013  27.224  1.00  0.00     0.074 A 
ATOM     57  C   UNL A   1      46.416  31.409  27.732  1.00  0.00     0.029 A 
ATOM     58  N   UNL A   1      44.844  29.838  27.833  1.00  0.00    -0.354 N 
ATOM     59  N   UNL A   1      43.723  27.162  27.383  1.00  0.00    -0.248 NA
ATOM     60  C   UNL A   1      43.866  25.040  26.420  1.00  0.00     0.031 C 
ATOM     61  C   UNL A   1      46.873  30.280  27.044  1.00  0.00     0.029 A 
ATOM     62  C   UNL A   1      45.902  29.295  27.124  1.00  0.00     0.049 A 
ATOM     63  H   UNL A   1      44.005  29.369  28.046  1.00  0.00     0.167 HD
ATOM     64  C   UNL A   1      44.940  27.043  26.724  1.00  0.00     0.074 A 
ATOM     65  C   UNL A   1      44.986  25.705  26.171  1.00  0.00     0.031 C 
ATOM     66  C   UNL A   1      45.932  27.957  26.589  1.00  0.00     0.037 A 
BRANCH  53  67
ATOM     67  C   UNL A   1      44.691  33.410  29.210  1.00  0.00     0.064 A 
ATOM     68  C   UNL A   1      45.472  33.717  30.335  1.00  0.00     0.173 A 
ATOM     69  C   UNL A   1      44.336  34.459  28.350  1.00  0.00     0.173 A 
ATOM     70  F   UNL A   1      45.819  32.751  31.199  1.00  0.00    -0.203 F 
ATOM     71  C   UNL A   1      45.861  35.026  30.599  1.00  0.00     0.198 A 
ATOM     72  C   UNL A   1      44.748  35.764  28.604  1.00  0.00     0.198 A 
ATOM     73  F   UNL A   1      43.588  34.218  27.262  1.00  0.00    -0.203 F 
ATOM     74  F   UNL A   1      46.567  35.304  31.705  1.00  0.00    -0.200 F 
ATOM     75  C   UNL A   1      45.504  36.047  29.732  1.00  0.00     0.200 A 
ATOM     76  F   UNL A   1      44.409  36.748  27.760  1.00  0.00    -0.200 F 
ATOM     77  F   UNL A   1      45.881  37.308  29.987  1.00  0.00    -0.200 F 
ENDBRANCH  53  67
BRANCH  54  78
ATOM     78  C   UNL A   1      41.260  24.202  27.455  1.00  0.00     0.064 A 
ATOM     79  C   UNL A   1      40.164  24.008  26.603  1.00  0.00     0.173 A 
ATOM     80  C   UNL A   1      41.843  23.067  28.037  1.00  0.00     0.173 A 
ATOM     81  F   UNL A   1      39.555  25.065  26.045  1.00  0.00    -0.203 F 
ATOM     82  C   UNL A   1      39.659  22.733  26.357  1.00  0.00     0.198 A 
ATOM     83  C   UNL A   1      41.353  21.790  27.772  1.00  0.00     0.198 A 
ATOM     84  F   UNL A   1      42.889  23.200  28.866  1.00  0.00    -0.203 F 
ATOM     85  F   UNL A   1      38.583  22.579  25.576  1.00  0.00    -0.200 F 
ATOM     86  C   UNL A   1      40.258  21.624  26.938  1.00  0.00     0.200 A 
ATOM     87  F   UNL A   1      41.938  20.721  28.331  1.00  0.00    -0.200 F 
ATOM     88  F   UNL A   1      39.772  20.398  26.704  1.00  0.00    -0.200 F 
ENDBRANCH  54  78
BRANCH  66  89
ATOM     89  C   UNL A   1      47.165  27.537  25.845  1.00  0.00     0.064 A 
ATOM     90  C   UNL A   1      48.251  26.938  26.500  1.00  0.00     0.173 A 
ATOM     91  C   UNL A   1      47.237  27.685  24.451  1.00  0.00     0.173 A 
ATOM     92  F   UNL A   1      48.235  26.787  27.832  1.00  0.00    -0.203 F 
ATOM     93  C   UNL A   1      49.373  26.522  25.788  1.00  0.00     0.198 A 
ATOM     94  C   UNL A   1      48.349  27.243  23.740  1.00  0.00     0.198 A 
ATOM     95  F   UNL A   1      46.220  28.243  23.777  1.00  0.00    -0.203 F 
ATOM     96  F   UNL A   1      50.416  25.988  26.439  1.00  0.00    -0.200 F 
ATOM     97  C   UNL A   1      49.418  26.667  24.409  1.00  0.00     0.200 A 
ATOM     98  F   UNL A   1      48.384  27.371  22.406  1.00  0.00    -0.200 F 
ATOM     99  F   UNL A   1      50.495  26.257  23.725  1.00  0.00    -0.200 F 
ENDBRANCH  66  89
ENDBRANCH  40  41
ENDBRANCH  33  35
ENDBRANCH  32  33
ENDBRANCH  31  32
ENDBRANCH  30  31
ENDBRANCH  29  30
ENDBRANCH  28  29
ENDBRANCH  27  28
ENDBRANCH  26  27
ENDBRANCH   1  26
TORSDOF 24
ENDMDL
MODEL 2
REMARK VINA RESULT:     -10.6      3.550      9.791
REMARK SMILES C[C@@H](C(=O)OCCOCCOCCOCCOC(=O)c1ccc(-c2c3nc(c(-c4c(F)c(F)c(F)c(F)c4F)c4ccc([nH]4)c(-c4c(F)c(F)c(F)c(F)c4F)c4nc(c(-c5c(F)c(F)c(F)c(F)c5F)c5ccc2[nH]5)C=C4)C=C3)cc1)c1ccc(C[C@@H]2CCC[C@@H]2O)cc1Br
REMARK SMILES IDX 10 1 9 2 8 3 7 4 6 5 5 6 3 7 4 8 2 9 1 10 83 11 84 12 95 13
REMARK SMILES IDX 85 14 94 15 96 16 86 17 87 18 88 19 89 20 92 21 90 22 91 23
REMARK SMILES IDX 93 24 11 26 12 27 13 28 14 29 15 30 16 31 17 32 18 33 19 34
REMARK SMILES IDX 20 35 21 36 82 37 22 38 81 39 23 40 24 41 25 42 75 43 26 44
REMARK SMILES IDX 80 45 74 46 76 47 27 48 79 49 73 50 72 51 28 53 60 54 40 55
REMARK SMILES IDX 59 56 41 57 44 58 58 59 77 60 42 61 43 62 57 64 78 65 45 66
REMARK SMILES IDX 29 67 30 68 38 69 31 70 32 71 36 72 39 73 33 74 34 75 37 76
REMARK SMILES IDX 35 77 61 78 62 79 70 80 63 81 64 82 68 83 71 84 65 85 66 86
REMARK SMILES IDX 69 87 67 88 46 89 47 90 55 91 48 92 49 93 53 94 56 95 50 96
REMARK SMILES IDX 51 97 54 98 52 99
REMARK H PARENT 93 25 76 52 44 63
REMARK Flexibility Score: inf
ROOT
ATOM      1  C   UNL A   1      38.563  22.594  26.130  1.00  0.00     0.188 C 
ENDROOT
BRANCH   1   2
ATOM      2  C   UNL A   1      38.168  21.321  25.363  1.00  0.00     0.188 C 
BRANCH   2   3
ATOM      3  O   UNL A   1      37.020  21.481  24.525  1.00  0.00    -0.376 OA
BRANCH   3   4
ATOM      4  C   UNL A   1      35.846  21.977  25.164  1.00  0.00     0.202 C 
BRANCH   4   5
ATOM      5  C   UNL A   1      34.567  21.883  24.334  1.00  0.00     0.261 C 
BRANCH   5   6
ATOM      6  O   UNL A   1      33.720  23.011  24.613  1.00  0.00    -0.463 OA
BRANCH   6   7
ATOM      7  C   UNL A   1      33.946  24.179  23.974  1.00  0.00     0.313 C 
ATOM      8  O   UNL A   1      34.512  24.290  22.894  1.00  0.00    -0.252 OA
BRANCH   7   9
ATOM      9  C   UNL A   1      33.486  25.359  24.816  1.00  0.00     0.127 C 
ATOM     10  C   UNL A   1      32.628  24.759  25.956  1.00  0.00     0.025 C 
BRANCH   9  11
ATOM     11  C   UNL A   1      32.829  26.561  24.113  1.00  0.00    -0.020 A 
ATOM     12  C   UNL A   1      31.881  26.282  23.100  1.00  0.00     0.006 A 
ATOM     13  C   UNL A   1      32.976  27.919  24.450  1.00  0.00     0.022 A 
ATOM     14  C   UNL A   1      31.158  27.283  22.435  1.00  0.00     0.004 A 
ATOM     15  C   UNL A   1      32.294  28.927  23.733  1.00  0.00     0.019 A 
ATOM     16  Br  UNL A   1      33.962  28.563  25.944  1.00  0.00    -0.050 Br
ATOM     17  C   UNL A   1      31.370  28.627  22.724  1.00  0.00    -0.047 A 
BRANCH  17  18
ATOM     18  C   UNL A   1      30.536  29.726  22.105  1.00  0.00     0.041 C 
BRANCH  18  19
ATOM     19  C   UNL A   1      29.092  30.006  22.575  1.00  0.00     0.022 C 
ATOM     20  C   UNL A   1      28.071  30.257  21.462  1.00  0.00     0.007 C 
ATOM     21  C   UNL A   1      28.876  31.196  23.513  1.00  0.00     0.117 C 
ATOM     22  C   UNL A   1      27.852  31.771  21.404  1.00  0.00     0.003 C 
ATOM     23  C   UNL A   1      28.613  32.369  22.584  1.00  0.00     0.032 C 
BRANCH  21  24
ATOM     24  O   UNL A   1      29.961  31.443  24.379  1.00  0.00    -0.393 OA
ATOM     25  H   UNL A   1      30.369  32.293  24.152  1.00  0.00     0.210 HD
ENDBRANCH  21  24
ENDBRANCH  18  19
ENDBRANCH  17  18
ENDBRANCH   9  11
ENDBRANCH   7   9
ENDBRANCH   6   7
ENDBRANCH   5   6
ENDBRANCH   4   5
ENDBRANCH   3   4
ENDBRANCH   2   3
ENDBRANCH   1   2
BRANCH   1  26
ATOM     26  O   UNL A   1      39.919  22.649  26.544  1.00  0.00    -0.377 OA
BRANCH  26  27
ATOM     27  C   UNL A   1      40.749  21.510  26.330  1.00  0.00     0.188 C 
BRANCH  27  28
ATOM     28  C   UNL A   1      41.518  20.828  27.481  1.00  0.00     0.188 C 
BRANCH  28  29
ATOM     29  O   UNL A   1      41.973  19.511  27.188  1.00  0.00    -0.376 OA
BRANCH  29  30
ATOM     30  C   UNL A   1      42.073  19.161  25.815  1.00  0.00     0.202 C 
BRANCH  30  31
ATOM     31  C   UNL A   1      43.427  18.553  25.432  1.00  0.00     0.261 C 
BRANCH  31  32
ATOM     32  O   UNL A   1      43.990  19.068  24.214  1.00  0.00    -0.460 OA
BRANCH  32  33
ATOM     33  C   UNL A   1      45.172  19.710  24.305  1.00  0.00     0.338 C 
ATOM     34  O   UNL A   1      46.255  19.340  23.887  1.00  0.00    -0.246 OA
BRANCH  33  35
ATOM     35  C   UNL A   1      44.914  21.055  24.850  1.00  0.00     0.060 A 
ATOM     36  C   UNL A   1      44.533  22.075  23.970  1.00  0.00     0.016 A 
ATOM     37  C   UNL A   1      45.066  21.308  26.216  1.00  0.00     0.016 A 
ATOM     38  C   UNL A   1      44.353  23.372  24.449  1.00  0.00     0.010 A 
ATOM     39  C   UNL A   1      44.903  22.610  26.691  1.00  0.00     0.010 A 
ATOM     40  C   UNL A   1      44.587  23.652  25.803  1.00  0.00    -0.014 A 
BRANCH  40  41
ATOM     41  C   UNL A   1      44.726  25.057  26.246  1.00  0.00     0.031 A 
ATOM     42  C   UNL A   1      46.089  25.686  26.176  1.00  0.00     0.074 A 
ATOM     43  C   UNL A   1      43.674  25.760  26.697  1.00  0.00     0.049 A 
ATOM     44  N   UNL A   1      46.475  26.882  26.540  1.00  0.00    -0.248 NA
ATOM     45  C   UNL A   1      47.165  24.849  25.621  1.00  0.00     0.031 C 
ATOM     46  C   UNL A   1      42.302  25.268  26.784  1.00  0.00     0.029 A 
ATOM     47  N   UNL A   1      43.607  27.042  27.179  1.00  0.00    -0.354 N 
ATOM     48  C   UNL A   1      47.832  26.940  26.255  1.00  0.00     0.074 A 
ATOM     49  C   UNL A   1      48.213  25.652  25.719  1.00  0.00     0.031 C 
ATOM     50  C   UNL A   1      41.527  26.235  27.305  1.00  0.00     0.029 A 
ATOM     51  C   UNL A   1      42.354  27.402  27.609  1.00  0.00     0.049 A 
ATOM     52  H   UNL A   1      44.383  27.647  27.211  1.00  0.00     0.167 HD
ATOM     53  C   UNL A   1      48.685  27.978  26.417  1.00  0.00     0.037 A 
ATOM     54  C   UNL A   1      41.936  28.539  28.199  1.00  0.00     0.037 A 
ATOM     55  C   UNL A   1      48.312  29.253  26.965  1.00  0.00     0.049 A 
ATOM     56  C   UNL A   1      42.921  29.656  28.436  1.00  0.00     0.074 A 
ATOM     57  C   UNL A   1      49.099  30.373  27.165  1.00  0.00     0.029 A 
ATOM     58  N   UNL A   1      47.038  29.572  27.412  1.00  0.00    -0.354 N 
ATOM     59  N   UNL A   1      44.196  29.717  28.135  1.00  0.00    -0.248 NA
ATOM     60  C   UNL A   1      42.405  30.865  29.096  1.00  0.00     0.031 C 
ATOM     61  C   UNL A   1      48.312  31.356  27.773  1.00  0.00     0.029 A 
ATOM     62  C   UNL A   1      47.024  30.865  27.909  1.00  0.00     0.049 A 
ATOM     63  H   UNL A   1      46.261  28.969  27.381  1.00  0.00     0.167 HD
ATOM     64  C   UNL A   1      44.626  30.974  28.541  1.00  0.00     0.074 A 
ATOM     65  C   UNL A   1      43.474  31.648  29.102  1.00  0.00     0.031 C 
ATOM     66  C   UNL A   1      45.864  31.522  28.456  1.00  0.00     0.037 A 
BRANCH  53  67
ATOM     67  C   UNL A   1      50.112  27.760  26.017  1.00  0.00     0.064 A 
ATOM     68  C   UNL A   1      50.515  27.825  24.674  1.00  0.00     0.173 A 
ATOM     69  C   UNL A   1      51.091  27.493  26.984  1.00  0.00     0.173 A 
ATOM     70  F   UNL A   1      49.612  28.057  23.709  1.00  0.00    -0.203 F 
ATOM     71  C   UNL A   1      51.841  27.606  24.314  1.00  0.00     0.198 A 
ATOM     72  C   UNL A   1      52.421  27.300  26.624  1.00  0.00     0.198 A 
ATOM     73  F   UNL A   1      50.755  27.419  28.282  1.00  0.00    -0.203 F 
ATOM     74  F   UNL A   1      52.196  27.625  23.021  1.00  0.00    -0.200 F 
ATOM     75  C   UNL A   1      52.793  27.349  25.288  1.00  0.00     0.200 A 
ATOM     76  F   UNL A   1      53.341  27.059  27.568  1.00  0.00    -0.200 F 
ATOM     77  F   UNL A   1      54.071  27.140  24.941  1.00  0.00    -0.200 F 
ENDBRANCH  53  67
BRANCH  54  78
ATOM     78  C   UNL A   1      40.519  28.678  28.617  1.00  0.00     0.064 A 
ATOM     79  C   UNL A   1      39.539  29.119  27.717  1.00  0.00     0.173 A 
ATOM     80  C   UNL A   1      40.118  28.396  29.931  1.00  0.00     0.173 A 
ATOM     81  F   UNL A   1      39.879  29.430  26.458  1.00  0.00    -0.203 F 
ATOM     82  C   UNL A   1      38.215  29.288  28.119  1.00  0.00     0.198 A 
ATOM     83  C   UNL A   1      38.790  28.541  30.326  1.00  0.00     0.198 A 
ATOM     84  F   UNL A   1      41.019  27.978  30.832  1.00  0.00    -0.203 F 
ATOM     85  F   UNL A   1      37.308  29.755  27.252  1.00  0.00    -0.200 F 
ATOM     86  C   UNL A   1      37.841  28.993  29.422  1.00  0.00     0.200 A 
ATOM     87  F   UNL A   1      38.432  28.250  31.585  1.00  0.00    -0.200 F 
ATOM     88  F   UNL A   1      36.569  29.157  29.809  1.00  0.00    -0.200 F 
ENDBRANCH  54  78
BRANCH  66  89
ATOM     89  C   UNL A   1      46.033  32.928  28.949  1.00  0.00     0.064 A 
ATOM     90  C   UNL A   1      46.383  33.204  30.279  1.00  0.00     0.173 A 
ATOM     91  C   UNL A   1      45.897  34.011  28.067  1.00  0.00     0.173 A 
ATOM     92  F   UNL A   1      46.513  32.204  31.164  1.00  0.00    -0.203 F 
ATOM     93  C   UNL A   1      46.570  34.514  30.712  1.00  0.00     0.198 A 
ATOM     94  C   UNL A   1      46.111  35.317  28.497  1.00  0.00     0.198 A 
ATOM     95  F   UNL A   1      45.571  33.799  26.783  1.00  0.00    -0.203 F 
ATOM     96  F   UNL A   1      46.866  34.757  31.996  1.00  0.00    -0.200 F 
ATOM     97  C   UNL A   1      46.442  35.569  29.819  1.00  0.00     0.200 A 
ATOM     98  F   UNL A   1      46.000  36.333  27.629  1.00  0.00    -0.200 F 
ATOM     99  F   UNL A   1      46.632  36.828  30.235  1.00  0.00    -0.200 F 
ENDBRANCH  66  89
ENDBRANCH  40  41
ENDBRANCH  33  35
ENDBRANCH  32  33
ENDBRANCH  31  32
ENDBRANCH  30  31
ENDBRANCH  29  30
ENDBRANCH  28  29
ENDBRANCH  27  28
ENDBRANCH  26  27
ENDBRANCH   1  26
TORSDOF 24
ENDMDL
MODEL 3
REMARK VINA RESULT:     -10.5      3.375      8.730
REMARK SMILES C[C@@H](C(=O)OCCOCCOCCOCCOC(=O)c1ccc(-c2c3nc(c(-c4c(F)c(F)c(F)c(F)c4F)c4ccc([nH]4)c(-c4c(F)c(F)c(F)c(F)c4F)c4nc(c(-c5c(F)c(F)c(F)c(F)c5F)c5ccc2[nH]5)C=C4)C=C3)cc1)c1ccc(C[C@@H]2CCC[C@@H]2O)cc1Br
REMARK SMILES IDX 10 1 9 2 8 3 7 4 6 5 5 6 3 7 4 8 2 9 1 10 83 11 84 12 95 13
REMARK SMILES IDX 85 14 94 15 96 16 86 17 87 18 88 19 89 20 92 21 90 22 91 23
REMARK SMILES IDX 93 24 11 26 12 27 13 28 14 29 15 30 16 31 17 32 18 33 19 34
REMARK SMILES IDX 20 35 21 36 82 37 22 38 81 39 23 40 24 41 25 42 75 43 26 44
REMARK SMILES IDX 80 45 74 46 76 47 27 48 79 49 73 50 72 51 28 53 60 54 40 55
REMARK SMILES IDX 59 56 41 57 44 58 58 59 77 60 42 61 43 62 57 64 78 65 45 66
REMARK SMILES IDX 29 67 30 68 38 69 31 70 32 71 36 72 39 73 33 74 34 75 37 76
REMARK SMILES IDX 35 77 61 78 62 79 70 80 63 81 64 82 68 83 71 84 65 85 66 86
REMARK SMILES IDX 69 87 67 88 46 89 47 90 55 91 48 92 49 93 53 94 56 95 50 96
REMARK SMILES IDX 51 97 54 98 52 99
REMARK H PARENT 93 25 76 52 44 63
REMARK Flexibility Score: inf
ROOT
ATOM      1  C   UNL A   1      37.527  22.157  25.750  1.00  0.00     0.188 C 
ENDROOT
BRANCH   1   2
ATOM      2  C   UNL A   1      36.323  21.637  24.946  1.00  0.00     0.188 C 
BRANCH   2   3
ATOM      3  O   UNL A   1      35.264  22.590  24.806  1.00  0.00    -0.376 OA
BRANCH   3   4
ATOM      4  C   UNL A   1      35.661  23.958  24.756  1.00  0.00     0.202 C 
BRANCH   4   5
ATOM      5  C   UNL A   1      34.681  24.941  25.395  1.00  0.00     0.261 C 
BRANCH   5   6
ATOM      6  O   UNL A   1      33.834  25.513  24.385  1.00  0.00    -0.463 OA
BRANCH   6   7
ATOM      7  C   UNL A   1      32.616  25.982  24.733  1.00  0.00     0.313 C 
ATOM      8  O   UNL A   1      32.417  26.922  25.493  1.00  0.00    -0.252 OA
BRANCH   7   9
ATOM      9  C   UNL A   1      31.510  25.130  24.130  1.00  0.00     0.127 C 
ATOM     10  C   UNL A   1      30.200  25.588  24.813  1.00  0.00     0.025 C 
BRANCH   9  11
ATOM     11  C   UNL A   1      31.689  23.601  24.094  1.00  0.00    -0.020 A 
ATOM     12  C   UNL A   1      31.975  23.008  22.841  1.00  0.00     0.006 A 
ATOM     13  C   UNL A   1      31.719  22.729  25.199  1.00  0.00     0.022 A 
ATOM     14  C   UNL A   1      32.233  21.638  22.687  1.00  0.00     0.004 A 
ATOM     15  C   UNL A   1      31.914  21.341  25.029  1.00  0.00     0.019 A 
ATOM     16  Br  UNL A   1      31.645  23.285  27.017  1.00  0.00    -0.050 Br
ATOM     17  C   UNL A   1      32.182  20.776  23.776  1.00  0.00    -0.047 A 
BRANCH  17  18
ATOM     18  C   UNL A   1      32.556  19.314  23.666  1.00  0.00     0.041 C 
BRANCH  18  19
ATOM     19  C   UNL A   1      33.330  18.592  24.791  1.00  0.00     0.022 C 
ATOM     20  C   UNL A   1      34.824  18.379  24.535  1.00  0.00     0.007 C 
ATOM     21  C   UNL A   1      32.848  17.197  25.192  1.00  0.00     0.117 C 
ATOM     22  C   UNL A   1      34.990  16.915  24.115  1.00  0.00     0.003 C 
ATOM     23  C   UNL A   1      33.627  16.252  24.292  1.00  0.00     0.032 C 
BRANCH  21  24
ATOM     24  O   UNL A   1      31.455  17.016  25.064  1.00  0.00    -0.393 OA
ATOM     25  H   UNL A   1      31.020  17.881  25.012  1.00  0.00     0.210 HD
ENDBRANCH  21  24
ENDBRANCH  18  19
ENDBRANCH  17  18
ENDBRANCH   9  11
ENDBRANCH   7   9
ENDBRANCH   6   7
ENDBRANCH   5   6
ENDBRANCH   4   5
ENDBRANCH   3   4
ENDBRANCH   2   3
ENDBRANCH   1   2
BRANCH   1  26
ATOM     26  O   UNL A   1      38.765  21.535  25.446  1.00  0.00    -0.377 OA
BRANCH  26  27
ATOM     27  C   UNL A   1      39.756  21.443  26.467  1.00  0.00     0.188 C 
BRANCH  27  28
ATOM     28  C   UNL A   1      41.186  21.992  26.275  1.00  0.00     0.188 C 
BRANCH  28  29
ATOM     29  O   UNL A   1      42.208  21.192  26.858  1.00  0.00    -0.376 OA
BRANCH  29  30
ATOM     30  C   UNL A   1      41.953  19.797  26.952  1.00  0.00     0.202 C 
BRANCH  30  31
ATOM     31  C   UNL A   1      42.823  18.948  26.019  1.00  0.00     0.261 C 
BRANCH  31  32
ATOM     32  O   UNL A   1      43.140  19.574  24.764  1.00  0.00    -0.460 OA
BRANCH  32  33
ATOM     33  C   UNL A   1      44.445  19.676  24.440  1.00  0.00     0.338 C 
ATOM     34  O   UNL A   1      45.138  18.850  23.873  1.00  0.00    -0.246 OA
BRANCH  33  35
ATOM     35  C   UNL A   1      44.874  21.057  24.726  1.00  0.00     0.060 A 
ATOM     36  C   UNL A   1      45.583  21.309  25.907  1.00  0.00     0.016 A 
ATOM     37  C   UNL A   1      44.561  22.094  23.845  1.00  0.00     0.016 A 
ATOM     38  C   UNL A   1      45.938  22.616  26.236  1.00  0.00     0.010 A 
ATOM     39  C   UNL A   1      44.900  23.405  24.183  1.00  0.00     0.010 A 
ATOM     40  C   UNL A   1      45.553  23.673  25.399  1.00  0.00    -0.014 A 
BRANCH  40  41
ATOM     41  C   UNL A   1      45.626  25.065  25.896  1.00  0.00     0.031 A 
ATOM     42  C   UNL A   1      46.960  25.756  25.866  1.00  0.00     0.074 A 
ATOM     43  C   UNL A   1      44.539  25.704  26.360  1.00  0.00     0.049 A 
ATOM     44  N   UNL A   1      47.289  26.953  26.280  1.00  0.00    -0.248 NA
ATOM     45  C   UNL A   1      48.078  24.988  25.294  1.00  0.00     0.031 C 
ATOM     46  C   UNL A   1      43.190  25.149  26.412  1.00  0.00     0.029 A 
ATOM     47  N   UNL A   1      44.410  26.963  26.889  1.00  0.00    -0.354 N 
ATOM     48  C   UNL A   1      48.645  27.081  26.013  1.00  0.00     0.074 A 
ATOM     49  C   UNL A   1      49.089  25.831  25.434  1.00  0.00     0.031 C 
ATOM     50  C   UNL A   1      42.367  26.061  26.960  1.00  0.00     0.029 A 
ATOM     51  C   UNL A   1      43.138  27.250  27.317  1.00  0.00     0.049 A 
ATOM     52  H   UNL A   1      45.159  27.599  26.953  1.00  0.00     0.167 HD
ATOM     53  C   UNL A   1      49.450  28.148  26.224  1.00  0.00     0.037 A 
ATOM     54  C   UNL A   1      42.665  28.345  27.944  1.00  0.00     0.037 A 
ATOM     55  C   UNL A   1      49.015  29.384  26.815  1.00  0.00     0.049 A 
ATOM     56  C   UNL A   1      43.596  29.494  28.234  1.00  0.00     0.074 A 
ATOM     57  C   UNL A   1      49.750  30.528  27.066  1.00  0.00     0.029 A 
ATOM     58  N   UNL A   1      47.723  29.630  27.258  1.00  0.00    -0.354 N 
ATOM     59  N   UNL A   1      44.870  29.623  27.951  1.00  0.00    -0.248 NA
ATOM     60  C   UNL A   1      43.020  30.654  28.932  1.00  0.00     0.031 C 
ATOM     61  C   UNL A   1      48.913  31.453  27.700  1.00  0.00     0.029 A 
ATOM     62  C   UNL A   1      47.647  30.901  27.802  1.00  0.00     0.049 A 
ATOM     63  H   UNL A   1      46.974  28.995  27.195  1.00  0.00     0.167 HD
ATOM     64  C   UNL A   1      45.240  30.881  28.409  1.00  0.00     0.074 A 
ATOM     65  C   UNL A   1      44.054  31.483  28.981  1.00  0.00     0.031 C 
ATOM     66  C   UNL A   1      46.453  31.485  28.359  1.00  0.00     0.037 A 
BRANCH  53  67
ATOM     67  C   UNL A   1      50.889  28.008  25.833  1.00  0.00     0.064 A 
ATOM     68  C   UNL A   1      51.308  28.180  24.504  1.00  0.00     0.173 A 
ATOM     69  C   UNL A   1      51.863  27.710  26.796  1.00  0.00     0.173 A 
ATOM     70  F   UNL A   1      50.411  28.446  23.544  1.00  0.00    -0.203 F 
ATOM     71  C   UNL A   1      52.646  28.032  24.152  1.00  0.00     0.198 A 
ATOM     72  C   UNL A   1      53.204  27.588  26.445  1.00  0.00     0.198 A 
ATOM     73  F   UNL A   1      51.513  27.535  28.080  1.00  0.00    -0.203 F 
ATOM     74  F   UNL A   1      53.018  28.153  22.869  1.00  0.00    -0.200 F 
ATOM     75  C   UNL A   1      53.593  27.742  25.122  1.00  0.00     0.200 A 
ATOM     76  F   UNL A   1      54.119  27.315  27.385  1.00  0.00    -0.200 F 
ATOM     77  F   UNL A   1      54.882  27.602  24.783  1.00  0.00    -0.200 F 
ENDBRANCH  53  67
BRANCH  54  78
ATOM     78  C   UNL A   1      41.238  28.406  28.350  1.00  0.00     0.064 A 
ATOM     79  C   UNL A   1      40.267  28.955  27.501  1.00  0.00     0.173 A 
ATOM     80  C   UNL A   1      40.819  27.939  29.604  1.00  0.00     0.173 A 
ATOM     81  F   UNL A   1      40.624  29.442  26.303  1.00  0.00    -0.203 F 
ATOM     82  C   UNL A   1      38.934  29.049  27.896  1.00  0.00     0.198 A 
ATOM     83  C   UNL A   1      39.482  28.010  29.989  1.00  0.00     0.198 A 
ATOM     84  F   UNL A   1      41.710  27.412  30.456  1.00  0.00    -0.203 F 
ATOM     85  F   UNL A   1      38.035  29.619  27.084  1.00  0.00    -0.200 F 
ATOM     86  C   UNL A   1      38.542  28.571  29.139  1.00  0.00     0.200 A 
ATOM     87  F   UNL A   1      39.107  27.543  31.188  1.00  0.00    -0.200 F 
ATOM     88  F   UNL A   1      37.261  28.663  29.520  1.00  0.00    -0.200 F 
ENDBRANCH  54  78
BRANCH  66  89
ATOM     89  C   UNL A   1      46.555  32.878  28.907  1.00  0.00     0.064 A 
ATOM     90  C   UNL A   1      46.935  33.120  30.235  1.00  0.00     0.173 A 
ATOM     91  C   UNL A   1      46.322  33.985  28.077  1.00  0.00     0.173 A 
ATOM     92  F   UNL A   1      47.156  32.095  31.071  1.00  0.00    -0.203 F 
ATOM     93  C   UNL A   1      47.058  34.421  30.717  1.00  0.00     0.198 A 
ATOM     94  C   UNL A   1      46.473  35.284  28.555  1.00  0.00     0.198 A 
ATOM     95  F   UNL A   1      45.965  33.807  26.796  1.00  0.00    -0.203 F 
ATOM     96  F   UNL A   1      47.384  34.629  32.000  1.00  0.00    -0.200 F 
ATOM     97  C   UNL A   1      46.835  35.501  29.875  1.00  0.00     0.200 A 
ATOM     98  F   UNL A   1      46.270  36.326  27.736  1.00  0.00    -0.200 F 
ATOM     99  F   UNL A   1      46.964  36.751  30.339  1.00  0.00    -0.200 F 
ENDBRANCH  66  89
ENDBRANCH  40  41
ENDBRANCH  33  35
ENDBRANCH  32  33
ENDBRANCH  31  32
ENDBRANCH  30  31
ENDBRANCH  29  30
ENDBRANCH  28  29
ENDBRANCH  27  28
ENDBRANCH  26  27
ENDBRANCH   1  26
TORSDOF 24
ENDMDL
