MODEL 1
REMARK VINA RESULT:     -11.0      0.000      0.000
REMARK SMILES Cc1ccc2nc(C(=O)OCCOCCOCCOCCOC(=O)c3ccc(-c4c5nc(c(-c6c(F)c(F)c(F)c(F)c6F)c6ccc([nH]6)c(-c6c(F)c(F)c(F)c(F)c6F)c6nc(c(-c7c(F)c(F)c(F)c(F)c7F)c7ccc4[nH]7)C=C6)C=C5)cc3)cc(N3CCOCC3)c2c1
REMARK SMILES IDX 17 1 16 2 15 3 14 4 13 5 12 6 11 7 10 8 8 9 9 10 7 11 1 12
REMARK SMILES IDX 2 13 3 14 97 15 4 16 96 17 5 18 89 19 6 20 88 21 90 22 91 23
REMARK SMILES IDX 95 24 92 25 94 26 93 27 18 28 19 29 20 30 21 31 22 32 23 33
REMARK SMILES IDX 24 34 25 35 26 36 87 37 27 38 86 39 28 40 29 41 30 42 80 43
REMARK SMILES IDX 31 44 85 45 79 46 81 47 32 48 84 49 78 50 77 51 33 53 65 54
REMARK SMILES IDX 45 55 64 56 46 57 49 58 63 59 82 60 47 61 48 62 62 64 83 65
REMARK SMILES IDX 50 66 34 67 35 68 43 69 36 70 37 71 41 72 44 73 38 74 39 75
REMARK SMILES IDX 42 76 40 77 66 78 67 79 75 80 68 81 69 82 73 83 76 84 70 85
REMARK SMILES IDX 71 86 74 87 72 88 51 89 52 90 60 91 53 92 54 93 58 94 61 95
REMARK SMILES IDX 55 96 56 97 59 98 57 99
REMARK H PARENT 81 52 49 63
REMARK Flexibility Score: inf
ROOT
ATOM      1  C   UNL A   1      31.684  29.509  25.017  1.00  0.00     0.188 C 
ENDROOT
BRANCH   1   2
ATOM      2  O   UNL A   1      31.738  29.065  23.661  1.00  0.00    -0.377 OA
BRANCH   2   3
ATOM      3  C   UNL A   1      32.998  28.882  23.028  1.00  0.00     0.188 C 
BRANCH   3   4
ATOM      4  C   UNL A   1      33.280  27.522  22.357  1.00  0.00     0.188 C 
BRANCH   4   5
ATOM      5  O   UNL A   1      32.980  26.412  23.191  1.00  0.00    -0.376 OA
BRANCH   5   6
ATOM      6  C   UNL A   1      32.027  25.467  22.743  1.00  0.00     0.202 C 
BRANCH   6   7
ATOM      7  C   UNL A   1      30.901  25.049  23.704  1.00  0.00     0.261 C 
BRANCH   7   8
ATOM      8  O   UNL A   1      30.811  23.649  23.993  1.00  0.00    -0.459 OA
BRANCH   8   9
ATOM      9  C   UNL A   1      31.043  23.285  25.277  1.00  0.00     0.357 C 
ATOM     10  O   UNL A   1      30.344  23.567  26.235  1.00  0.00    -0.244 OA
BRANCH   9  11
ATOM     11  C   UNL A   1      32.204  22.343  25.295  1.00  0.00     0.151 A 
ATOM     12  C   UNL A   1      38.174  20.046  24.757  1.00  0.00     0.044 C 
ATOM     13  C   UNL A   1      36.907  20.755  25.132  1.00  0.00    -0.050 A 
ATOM     14  C   UNL A   1      36.916  22.046  25.645  1.00  0.00     0.005 A 
ATOM     15  C   UNL A   1      35.673  20.131  24.918  1.00  0.00     0.016 A 
ATOM     16  C   UNL A   1      35.710  22.723  25.836  1.00  0.00     0.029 A 
ATOM     17  C   UNL A   1      34.439  20.778  25.173  1.00  0.00     0.024 A 
ATOM     18  C   UNL A   1      34.484  22.137  25.549  1.00  0.00     0.073 A 
ATOM     19  C   UNL A   1      33.164  20.160  25.001  1.00  0.00     0.049 A 
ATOM     20  N   UNL A   1      33.394  22.910  25.604  1.00  0.00    -0.241 NA
ATOM     21  C   UNL A   1      32.037  20.988  25.051  1.00  0.00     0.062 A 
BRANCH  19  22
ATOM     22  N   UNL A   1      33.031  18.800  24.754  1.00  0.00    -0.366 N 
ATOM     23  C   UNL A   1      32.582  17.867  25.809  1.00  0.00     0.145 C 
ATOM     24  C   UNL A   1      32.847  18.257  23.400  1.00  0.00     0.145 C 
ATOM     25  C   UNL A   1      33.334  16.534  25.635  1.00  0.00     0.181 C 
ATOM     26  C   UNL A   1      33.576  16.905  23.311  1.00  0.00     0.181 C 
ATOM     27  O   UNL A   1      33.126  15.985  24.322  1.00  0.00    -0.378 OA
ENDBRANCH  19  22
ENDBRANCH   9  11
ENDBRANCH   8   9
ENDBRANCH   7   8
ENDBRANCH   6   7
ENDBRANCH   5   6
ENDBRANCH   4   5
ENDBRANCH   3   4
ENDBRANCH   2   3
ENDBRANCH   1   2
BRANCH   1  28
ATOM     28  C   UNL A   1      32.954  29.697  25.884  1.00  0.00     0.188 C 
BRANCH  28  29
ATOM     29  O   UNL A   1      32.910  30.796  26.775  1.00  0.00    -0.376 OA
BRANCH  29  30
ATOM     30  C   UNL A   1      31.690  31.503  26.893  1.00  0.00     0.202 C 
BRANCH  30  31
ATOM     31  C   UNL A   1      31.788  33.034  26.939  1.00  0.00     0.261 C 
BRANCH  31  32
ATOM     32  O   UNL A   1      33.092  33.574  27.197  1.00  0.00    -0.460 OA
BRANCH  32  33
ATOM     33  C   UNL A   1      33.240  34.341  28.297  1.00  0.00     0.338 C 
ATOM     34  O   UNL A   1      32.511  35.244  28.676  1.00  0.00    -0.246 OA
BRANCH  33  35
ATOM     35  C   UNL A   1      34.358  33.781  29.084  1.00  0.00     0.060 A 
ATOM     36  C   UNL A   1      35.666  34.208  28.818  1.00  0.00     0.016 A 
ATOM     37  C   UNL A   1      34.108  32.844  30.089  1.00  0.00     0.016 A 
ATOM     38  C   UNL A   1      36.734  33.671  29.539  1.00  0.00     0.010 A 
ATOM     39  C   UNL A   1      35.180  32.293  30.795  1.00  0.00     0.010 A 
ATOM     40  C   UNL A   1      36.499  32.680  30.500  1.00  0.00    -0.014 A 
BRANCH  40  41
ATOM     41  C   UNL A   1      37.635  31.905  31.058  1.00  0.00     0.031 A 
ATOM     42  C   UNL A   1      38.090  32.216  32.457  1.00  0.00     0.074 A 
ATOM     43  C   UNL A   1      38.245  30.941  30.347  1.00  0.00     0.049 A 
ATOM     44  N   UNL A   1      39.092  31.723  33.139  1.00  0.00    -0.248 NA
ATOM     45  C   UNL A   1      37.308  33.229  33.183  1.00  0.00     0.031 C 
ATOM     46  C   UNL A   1      37.870  30.520  29.000  1.00  0.00     0.029 A 
ATOM     47  N   UNL A   1      39.322  30.151  30.664  1.00  0.00    -0.354 N 
ATOM     48  C   UNL A   1      39.064  32.369  34.368  1.00  0.00     0.074 A 
ATOM     49  C   UNL A   1      37.971  33.315  34.325  1.00  0.00     0.031 C 
ATOM     50  C   UNL A   1      38.713  29.551  28.600  1.00  0.00     0.029 A 
ATOM     51  C   UNL A   1      39.707  29.313  29.647  1.00  0.00     0.049 A 
ATOM     52  H   UNL A   1      39.774  30.182  31.538  1.00  0.00     0.167 HD
ATOM     53  C   UNL A   1      39.873  32.184  35.437  1.00  0.00     0.037 A 
ATOM     54  C   UNL A   1      40.757  28.473  29.564  1.00  0.00     0.037 A 
ATOM     55  C   UNL A   1      40.965  31.248  35.472  1.00  0.00     0.049 A 
ATOM     56  C   UNL A   1      41.696  28.346  30.738  1.00  0.00     0.074 A 
ATOM     57  C   UNL A   1      41.832  30.970  36.514  1.00  0.00     0.029 A 
ATOM     58  N   UNL A   1      41.347  30.443  34.408  1.00  0.00    -0.354 N 
ATOM     59  N   UNL A   1      41.650  28.937  31.907  1.00  0.00    -0.248 NA
ATOM     60  C   UNL A   1      42.835  27.429  30.579  1.00  0.00     0.031 C 
ATOM     61  C   UNL A   1      42.780  30.047  36.059  1.00  0.00     0.029 A 
ATOM     62  C   UNL A   1      42.460  29.694  34.758  1.00  0.00     0.049 A 
ATOM     63  H   UNL A   1      40.894  30.408  33.534  1.00  0.00     0.167 HD
ATOM     64  C   UNL A   1      42.727  28.443  32.633  1.00  0.00     0.074 A 
ATOM     65  C   UNL A   1      43.404  27.491  31.775  1.00  0.00     0.031 C 
ATOM     66  C   UNL A   1      43.121  28.746  33.895  1.00  0.00     0.037 A 
BRANCH  53  67
ATOM     67  C   UNL A   1      39.628  33.044  36.645  1.00  0.00     0.064 A 
ATOM     68  C   UNL A   1      38.708  32.682  37.640  1.00  0.00     0.173 A 
ATOM     69  C   UNL A   1      40.335  34.245  36.813  1.00  0.00     0.173 A 
ATOM     70  F   UNL A   1      37.994  31.551  37.522  1.00  0.00    -0.203 F 
ATOM     71  C   UNL A   1      38.479  33.505  38.740  1.00  0.00     0.198 A 
ATOM     72  C   UNL A   1      40.129  35.048  37.932  1.00  0.00     0.198 A 
ATOM     73  F   UNL A   1      41.228  34.640  35.894  1.00  0.00    -0.203 F 
ATOM     74  F   UNL A   1      37.552  33.168  39.646  1.00  0.00    -0.200 F 
ATOM     75  C   UNL A   1      39.195  34.684  38.888  1.00  0.00     0.200 A 
ATOM     76  F   UNL A   1      40.832  36.180  38.080  1.00  0.00    -0.200 F 
ATOM     77  F   UNL A   1      38.976  35.473  39.948  1.00  0.00    -0.200 F 
ENDBRANCH  53  67
BRANCH  54  78
ATOM     78  C   UNL A   1      40.986  27.687  28.322  1.00  0.00     0.064 A 
ATOM     79  C   UNL A   1      40.392  26.431  28.139  1.00  0.00     0.173 A 
ATOM     80  C   UNL A   1      41.817  28.170  27.299  1.00  0.00     0.173 A 
ATOM     81  F   UNL A   1      39.612  25.913  29.099  1.00  0.00    -0.203 F 
ATOM     82  C   UNL A   1      40.635  25.679  26.991  1.00  0.00     0.198 A 
ATOM     83  C   UNL A   1      42.032  27.432  26.136  1.00  0.00     0.198 A 
ATOM     84  F   UNL A   1      42.413  29.364  27.424  1.00  0.00    -0.203 F 
ATOM     85  F   UNL A   1      40.093  24.461  26.864  1.00  0.00    -0.200 F 
ATOM     86  C   UNL A   1      41.448  26.184  25.987  1.00  0.00     0.200 A 
ATOM     87  F   UNL A   1      42.809  27.929  25.164  1.00  0.00    -0.200 F 
ATOM     88  F   UNL A   1      41.675  25.464  24.881  1.00  0.00    -0.200 F 
ENDBRANCH  54  78
BRANCH  66  89
ATOM     89  C   UNL A   1      44.313  28.013  34.447  1.00  0.00     0.064 A 
ATOM     90  C   UNL A   1      45.610  28.541  34.370  1.00  0.00     0.173 A 
ATOM     91  C   UNL A   1      44.145  26.783  35.104  1.00  0.00     0.173 A 
ATOM     92  F   UNL A   1      45.829  29.706  33.742  1.00  0.00    -0.203 F 
ATOM     93  C   UNL A   1      46.697  27.851  34.901  1.00  0.00     0.198 A 
ATOM     94  C   UNL A   1      45.229  26.115  35.667  1.00  0.00     0.198 A 
ATOM     95  F   UNL A   1      42.926  26.236  35.217  1.00  0.00    -0.203 F 
ATOM     96  F   UNL A   1      47.934  28.350  34.767  1.00  0.00    -0.200 F 
ATOM     97  C   UNL A   1      46.505  26.644  35.557  1.00  0.00     0.200 A 
ATOM     98  F   UNL A   1      45.038  24.957  36.316  1.00  0.00    -0.200 F 
ATOM     99  F   UNL A   1      47.552  25.987  36.077  1.00  0.00    -0.200 F 
ENDBRANCH  66  89
ENDBRANCH  40  41
ENDBRANCH  33  35
ENDBRANCH  32  33
ENDBRANCH  31  32
ENDBRANCH  30  31
ENDBRANCH  29  30
ENDBRANCH  28  29
ENDBRANCH   1  28
TORSDOF 21
ENDMDL
MODEL 2
REMARK VINA RESULT:     -10.5      1.093      7.097
REMARK SMILES Cc1ccc2nc(C(=O)OCCOCCOCCOCCOC(=O)c3ccc(-c4c5nc(c(-c6c(F)c(F)c(F)c(F)c6F)c6ccc([nH]6)c(-c6c(F)c(F)c(F)c(F)c6F)c6nc(c(-c7c(F)c(F)c(F)c(F)c7F)c7ccc4[nH]7)C=C6)C=C5)cc3)cc(N3CCOCC3)c2c1
REMARK SMILES IDX 17 1 16 2 15 3 14 4 13 5 12 6 11 7 10 8 8 9 9 10 7 11 1 12
REMARK SMILES IDX 2 13 3 14 97 15 4 16 96 17 5 18 89 19 6 20 88 21 90 22 91 23
REMARK SMILES IDX 95 24 92 25 94 26 93 27 18 28 19 29 20 30 21 31 22 32 23 33
REMARK SMILES IDX 24 34 25 35 26 36 87 37 27 38 86 39 28 40 29 41 30 42 80 43
REMARK SMILES IDX 31 44 85 45 79 46 81 47 32 48 84 49 78 50 77 51 33 53 65 54
REMARK SMILES IDX 45 55 64 56 46 57 49 58 63 59 82 60 47 61 48 62 62 64 83 65
REMARK SMILES IDX 50 66 34 67 35 68 43 69 36 70 37 71 41 72 44 73 38 74 39 75
REMARK SMILES IDX 42 76 40 77 66 78 67 79 75 80 68 81 69 82 73 83 76 84 70 85
REMARK SMILES IDX 71 86 74 87 72 88 51 89 52 90 60 91 53 92 54 93 58 94 61 95
REMARK SMILES IDX 55 96 56 97 59 98 57 99
REMARK H PARENT 81 52 49 63
REMARK Flexibility Score: inf
ROOT
ATOM      1  C   UNL A   1      30.965  29.760  24.839  1.00  0.00     0.188 C 
ENDROOT
BRANCH   1   2
ATOM      2  O   UNL A   1      30.308  29.770  23.571  1.00  0.00    -0.377 OA
BRANCH   2   3
ATOM      3  C   UNL A   1      30.884  29.073  22.473  1.00  0.00     0.188 C 
BRANCH   3   4
ATOM      4  C   UNL A   1      30.432  27.619  22.221  1.00  0.00     0.188 C 
BRANCH   4   5
ATOM      5  O   UNL A   1      30.768  26.736  23.281  1.00  0.00    -0.376 OA
BRANCH   5   6
ATOM      6  C   UNL A   1      29.723  26.189  24.062  1.00  0.00     0.202 C 
BRANCH   6   7
ATOM      7  C   UNL A   1      30.090  25.416  25.340  1.00  0.00     0.261 C 
BRANCH   7   8
ATOM      8  O   UNL A   1      30.544  24.071  25.151  1.00  0.00    -0.459 OA
BRANCH   8   9
ATOM      9  C   UNL A   1      30.765  23.348  26.274  1.00  0.00     0.357 C 
ATOM     10  O   UNL A   1      30.039  23.312  27.253  1.00  0.00    -0.244 OA
BRANCH   9  11
ATOM     11  C   UNL A   1      31.959  22.477  26.045  1.00  0.00     0.151 A 
ATOM     12  C   UNL A   1      37.940  20.608  24.651  1.00  0.00     0.044 C 
ATOM     13  C   UNL A   1      36.686  21.183  25.239  1.00  0.00    -0.050 A 
ATOM     14  C   UNL A   1      36.691  22.377  25.948  1.00  0.00     0.005 A 
ATOM     15  C   UNL A   1      35.463  20.536  25.033  1.00  0.00     0.016 A 
ATOM     16  C   UNL A   1      35.482  22.952  26.344  1.00  0.00     0.029 A 
ATOM     17  C   UNL A   1      34.232  21.070  25.489  1.00  0.00     0.024 A 
ATOM     18  C   UNL A   1      34.259  22.354  26.072  1.00  0.00     0.073 A 
ATOM     19  C   UNL A   1      32.972  20.420  25.329  1.00  0.00     0.049 A 
ATOM     20  N   UNL A   1      33.149  23.051  26.340  1.00  0.00    -0.241 NA
ATOM     21  C   UNL A   1      31.823  21.169  25.604  1.00  0.00     0.062 A 
BRANCH  19  22
ATOM     22  N   UNL A   1      32.870  19.109  24.880  1.00  0.00    -0.366 N 
ATOM     23  C   UNL A   1      32.660  17.989  25.821  1.00  0.00     0.145 C 
ATOM     24  C   UNL A   1      32.483  18.773  23.502  1.00  0.00     0.145 C 
ATOM     25  C   UNL A   1      33.440  16.764  25.306  1.00  0.00     0.181 C 
ATOM     26  C   UNL A   1      33.256  17.515  23.070  1.00  0.00     0.181 C 
ATOM     27  O   UNL A   1      33.037  16.414  23.970  1.00  0.00    -0.378 OA
ENDBRANCH  19  22
ENDBRANCH   9  11
ENDBRANCH   8   9
ENDBRANCH   7   8
ENDBRANCH   6   7
ENDBRANCH   5   6
ENDBRANCH   4   5
ENDBRANCH   3   4
ENDBRANCH   2   3
ENDBRANCH   1   2
BRANCH   1  28
ATOM     28  C   UNL A   1      32.498  29.590  24.983  1.00  0.00     0.188 C 
BRANCH  28  29
ATOM     29  O   UNL A   1      33.066  30.238  26.106  1.00  0.00    -0.376 OA
BRANCH  29  30
ATOM     30  C   UNL A   1      32.186  30.766  27.080  1.00  0.00     0.202 C 
BRANCH  30  31
ATOM     31  C   UNL A   1      32.172  32.293  27.235  1.00  0.00     0.261 C 
BRANCH  31  32
ATOM     32  O   UNL A   1      33.422  32.960  27.005  1.00  0.00    -0.460 OA
BRANCH  32  33
ATOM     33  C   UNL A   1      33.911  33.724  28.004  1.00  0.00     0.338 C 
ATOM     34  O   UNL A   1      33.405  34.722  28.490  1.00  0.00    -0.246 OA
BRANCH  33  35
ATOM     35  C   UNL A   1      35.101  33.038  28.548  1.00  0.00     0.060 A 
ATOM     36  C   UNL A   1      34.970  31.740  29.061  1.00  0.00     0.016 A 
ATOM     37  C   UNL A   1      36.344  33.674  28.537  1.00  0.00     0.016 A 
ATOM     38  C   UNL A   1      36.082  31.088  29.597  1.00  0.00     0.010 A 
ATOM     39  C   UNL A   1      37.451  33.028  29.091  1.00  0.00     0.010 A 
ATOM     40  C   UNL A   1      37.317  31.746  29.654  1.00  0.00    -0.014 A 
BRANCH  40  41
ATOM     41  C   UNL A   1      38.419  31.183  30.472  1.00  0.00     0.031 A 
ATOM     42  C   UNL A   1      39.309  30.144  29.850  1.00  0.00     0.074 A 
ATOM     43  C   UNL A   1      38.634  31.588  31.736  1.00  0.00     0.049 A 
ATOM     44  N   UNL A   1      40.294  29.463  30.377  1.00  0.00    -0.248 NA
ATOM     45  C   UNL A   1      39.045  29.826  28.437  1.00  0.00     0.031 C 
ATOM     46  C   UNL A   1      37.869  32.617  32.435  1.00  0.00     0.029 A 
ATOM     47  N   UNL A   1      39.561  31.168  32.657  1.00  0.00    -0.354 N 
ATOM     48  C   UNL A   1      40.760  28.633  29.365  1.00  0.00     0.074 A 
ATOM     49  C   UNL A   1      39.929  28.868  28.205  1.00  0.00     0.031 C 
ATOM     50  C   UNL A   1      38.352  32.741  33.684  1.00  0.00     0.029 A 
ATOM     51  C   UNL A   1      39.433  31.776  33.882  1.00  0.00     0.049 A 
ATOM     52  H   UNL A   1      40.252  30.496  32.458  1.00  0.00     0.167 HD
ATOM     53  C   UNL A   1      41.795  27.759  29.399  1.00  0.00     0.037 A 
ATOM     54  C   UNL A   1      40.097  31.556  35.033  1.00  0.00     0.037 A 
ATOM     55  C   UNL A   1      42.614  27.523  30.557  1.00  0.00     0.049 A 
ATOM     56  C   UNL A   1      41.189  30.516  35.071  1.00  0.00     0.074 A 
ATOM     57  C   UNL A   1      43.698  26.673  30.689  1.00  0.00     0.029 A 
ATOM     58  N   UNL A   1      42.430  28.131  31.791  1.00  0.00    -0.354 N 
ATOM     59  N   UNL A   1      41.646  29.756  34.106  1.00  0.00    -0.248 NA
ATOM     60  C   UNL A   1      41.862  30.308  36.362  1.00  0.00     0.031 C 
ATOM     61  C   UNL A   1      44.128  26.716  32.020  1.00  0.00     0.029 A 
ATOM     62  C   UNL A   1      43.359  27.647  32.700  1.00  0.00     0.049 A 
ATOM     63  H   UNL A   1      41.742  28.806  31.992  1.00  0.00     0.167 HD
ATOM     64  C   UNL A   1      42.676  29.005  34.660  1.00  0.00     0.074 A 
ATOM     65  C   UNL A   1      42.786  29.412  36.046  1.00  0.00     0.031 C 
ATOM     66  C   UNL A   1      43.461  28.065  34.076  1.00  0.00     0.037 A 
BRANCH  53  67
ATOM     67  C   UNL A   1      42.069  26.967  28.152  1.00  0.00     0.064 A 
ATOM     68  C   UNL A   1      41.438  25.739  27.899  1.00  0.00     0.173 A 
ATOM     69  C   UNL A   1      42.968  27.451  27.190  1.00  0.00     0.173 A 
ATOM     70  F   UNL A   1      40.580  25.223  28.792  1.00  0.00    -0.203 F 
ATOM     71  C   UNL A   1      41.724  25.010  26.747  1.00  0.00     0.198 A 
ATOM     72  C   UNL A   1      43.224  26.736  26.023  1.00  0.00     0.198 A 
ATOM     73  F   UNL A   1      43.598  28.620  27.379  1.00  0.00    -0.203 F 
ATOM     74  F   UNL A   1      41.155  23.812  26.556  1.00  0.00    -0.200 F 
ATOM     75  C   UNL A   1      42.612  25.513  25.807  1.00  0.00     0.200 A 
ATOM     76  F   UNL A   1      44.072  27.231  25.110  1.00  0.00    -0.200 F 
ATOM     77  F   UNL A   1      42.883  24.812  24.698  1.00  0.00    -0.200 F 
ENDBRANCH  53  67
BRANCH  54  78
ATOM     78  C   UNL A   1      39.745  32.330  36.254  1.00  0.00     0.064 A 
ATOM     79  C   UNL A   1      40.487  33.455  36.639  1.00  0.00     0.173 A 
ATOM     80  C   UNL A   1      38.668  31.950  37.071  1.00  0.00     0.173 A 
ATOM     81  F   UNL A   1      41.542  33.842  35.907  1.00  0.00    -0.203 F 
ATOM     82  C   UNL A   1      40.179  34.158  37.802  1.00  0.00     0.198 A 
ATOM     83  C   UNL A   1      38.341  32.674  38.216  1.00  0.00     0.198 A 
ATOM     84  F   UNL A   1      37.928  30.879  36.752  1.00  0.00    -0.203 F 
ATOM     85  F   UNL A   1      40.936  35.200  38.171  1.00  0.00    -0.200 F 
ATOM     86  C   UNL A   1      39.102  33.773  38.585  1.00  0.00     0.200 A 
ATOM     87  F   UNL A   1      37.292  32.305  38.962  1.00  0.00    -0.200 F 
ATOM     88  F   UNL A   1      38.803  34.454  39.699  1.00  0.00    -0.200 F 
ENDBRANCH  54  78
BRANCH  66  89
ATOM     89  C   UNL A   1      44.540  27.440  34.917  1.00  0.00     0.064 A 
ATOM     90  C   UNL A   1      45.824  27.997  35.012  1.00  0.00     0.173 A 
ATOM     91  C   UNL A   1      44.269  26.289  35.674  1.00  0.00     0.173 A 
ATOM     92  F   UNL A   1      46.140  29.090  34.300  1.00  0.00    -0.203 F 
ATOM     93  C   UNL A   1      46.803  27.409  35.809  1.00  0.00     0.198 A 
ATOM     94  C   UNL A   1      45.240  25.725  36.498  1.00  0.00     0.198 A 
ATOM     95  F   UNL A   1      43.056  25.718  35.630  1.00  0.00    -0.203 F 
ATOM     96  F   UNL A   1      48.038  27.930  35.841  1.00  0.00    -0.200 F 
ATOM     97  C   UNL A   1      46.509  26.280  36.557  1.00  0.00     0.200 A 
ATOM     98  F   UNL A   1      44.946  24.644  37.235  1.00  0.00    -0.200 F 
ATOM     99  F   UNL A   1      47.450  25.722  37.332  1.00  0.00    -0.200 F 
ENDBRANCH  66  89
ENDBRANCH  40  41
ENDBRANCH  33  35
ENDBRANCH  32  33
ENDBRANCH  31  32
ENDBRANCH  30  31
ENDBRANCH  29  30
ENDBRANCH  28  29
ENDBRANCH   1  28
TORSDOF 21
ENDMDL
MODEL 3
REMARK VINA RESULT:     -10.4      1.764      2.896
REMARK SMILES Cc1ccc2nc(C(=O)OCCOCCOCCOCCOC(=O)c3ccc(-c4c5nc(c(-c6c(F)c(F)c(F)c(F)c6F)c6ccc([nH]6)c(-c6c(F)c(F)c(F)c(F)c6F)c6nc(c(-c7c(F)c(F)c(F)c(F)c7F)c7ccc4[nH]7)C=C6)C=C5)cc3)cc(N3CCOCC3)c2c1
REMARK SMILES IDX 17 1 16 2 15 3 14 4 13 5 12 6 11 7 10 8 8 9 9 10 7 11 1 12
REMARK SMILES IDX 2 13 3 14 97 15 4 16 96 17 5 18 89 19 6 20 88 21 90 22 91 23
REMARK SMILES IDX 95 24 92 25 94 26 93 27 18 28 19 29 20 30 21 31 22 32 23 33
REMARK SMILES IDX 24 34 25 35 26 36 87 37 27 38 86 39 28 40 29 41 30 42 80 43
REMARK SMILES IDX 31 44 85 45 79 46 81 47 32 48 84 49 78 50 77 51 33 53 65 54
REMARK SMILES IDX 45 55 64 56 46 57 49 58 63 59 82 60 47 61 48 62 62 64 83 65
REMARK SMILES IDX 50 66 34 67 35 68 43 69 36 70 37 71 41 72 44 73 38 74 39 75
REMARK SMILES IDX 42 76 40 77 66 78 67 79 75 80 68 81 69 82 73 83 76 84 70 85
REMARK SMILES IDX 71 86 74 87 72 88 51 89 52 90 60 91 53 92 54 93 58 94 61 95
REMARK SMILES IDX 55 96 56 97 59 98 57 99
REMARK H PARENT 81 52 49 63
REMARK Flexibility Score: inf
ROOT
ATOM      1  C   UNL A   1      35.279  31.428  28.373  1.00  0.00     0.188 C 
ENDROOT
BRANCH   1   2
ATOM      2  O   UNL A   1      35.257  30.030  28.084  1.00  0.00    -0.377 OA
BRANCH   2   3
ATOM      3  C   UNL A   1      34.570  29.560  26.932  1.00  0.00     0.188 C 
BRANCH   3   4
ATOM      4  C   UNL A   1      33.411  28.562  27.137  1.00  0.00     0.188 C 
BRANCH   4   5
ATOM      5  O   UNL A   1      33.383  27.527  26.164  1.00  0.00    -0.376 OA
BRANCH   5   6
ATOM      6  C   UNL A   1      33.518  27.878  24.801  1.00  0.00     0.202 C 
BRANCH   6   7
ATOM      7  C   UNL A   1      32.530  27.276  23.787  1.00  0.00     0.261 C 
BRANCH   7   8
ATOM      8  O   UNL A   1      32.529  25.848  23.684  1.00  0.00    -0.459 OA
BRANCH   8   9
ATOM      9  C   UNL A   1      33.419  25.307  22.818  1.00  0.00     0.357 C 
ATOM     10  O   UNL A   1      33.786  25.808  21.768  1.00  0.00    -0.244 OA
BRANCH   9  11
ATOM     11  C   UNL A   1      33.996  24.078  23.443  1.00  0.00     0.151 A 
ATOM     12  C   UNL A   1      38.221  19.619  25.307  1.00  0.00     0.044 C 
ATOM     13  C   UNL A   1      37.399  20.852  25.082  1.00  0.00    -0.050 A 
ATOM     14  C   UNL A   1      37.952  22.124  25.158  1.00  0.00     0.005 A 
ATOM     15  C   UNL A   1      36.049  20.733  24.735  1.00  0.00     0.016 A 
ATOM     16  C   UNL A   1      37.189  23.234  24.792  1.00  0.00     0.029 A 
ATOM     17  C   UNL A   1      35.239  21.855  24.428  1.00  0.00     0.024 A 
ATOM     18  C   UNL A   1      35.872  23.115  24.369  1.00  0.00     0.073 A 
ATOM     19  C   UNL A   1      33.851  21.773  24.106  1.00  0.00     0.049 A 
ATOM     20  N   UNL A   1      35.271  24.204  23.882  1.00  0.00    -0.241 NA
ATOM     21  C   UNL A   1      33.243  22.922  23.587  1.00  0.00     0.062 A 
BRANCH  19  22
ATOM     22  N   UNL A   1      33.127  20.598  24.258  1.00  0.00    -0.366 N 
ATOM     23  C   UNL A   1      32.705  20.123  25.593  1.00  0.00     0.145 C 
ATOM     24  C   UNL A   1      32.331  20.013  23.170  1.00  0.00     0.145 C 
ATOM     25  C   UNL A   1      32.780  18.584  25.611  1.00  0.00     0.181 C 
ATOM     26  C   UNL A   1      32.406  18.480  23.277  1.00  0.00     0.181 C 
ATOM     27  O   UNL A   1      31.974  18.010  24.567  1.00  0.00    -0.378 OA
ENDBRANCH  19  22
ENDBRANCH   9  11
ENDBRANCH   8   9
ENDBRANCH   7   8
ENDBRANCH   6   7
ENDBRANCH   5   6
ENDBRANCH   4   5
ENDBRANCH   3   4
ENDBRANCH   2   3
ENDBRANCH   1   2
BRANCH   1  28
ATOM     28  C   UNL A   1      34.080  32.361  28.071  1.00  0.00     0.188 C 
BRANCH  28  29
ATOM     29  O   UNL A   1      34.432  33.668  27.655  1.00  0.00    -0.376 OA
BRANCH  29  30
ATOM     30  C   UNL A   1      33.986  34.756  28.443  1.00  0.00     0.202 C 
BRANCH  30  31
ATOM     31  C   UNL A   1      33.670  34.452  29.914  1.00  0.00     0.261 C 
BRANCH  31  32
ATOM     32  O   UNL A   1      32.570  35.177  30.483  1.00  0.00    -0.460 OA
BRANCH  32  33
ATOM     33  C   UNL A   1      32.704  35.613  31.753  1.00  0.00     0.338 C 
ATOM     34  O   UNL A   1      31.929  36.315  32.383  1.00  0.00    -0.246 OA
BRANCH  33  35
ATOM     35  C   UNL A   1      33.886  34.940  32.331  1.00  0.00     0.060 A 
ATOM     36  C   UNL A   1      35.142  35.551  32.226  1.00  0.00     0.016 A 
ATOM     37  C   UNL A   1      33.745  33.715  32.986  1.00  0.00     0.016 A 
ATOM     38  C   UNL A   1      36.271  34.917  32.749  1.00  0.00     0.010 A 
ATOM     39  C   UNL A   1      34.878  33.073  33.491  1.00  0.00     0.010 A 
ATOM     40  C   UNL A   1      36.149  33.656  33.345  1.00  0.00    -0.014 A 
BRANCH  40  41
ATOM     41  C   UNL A   1      37.363  32.855  33.638  1.00  0.00     0.031 A 
ATOM     42  C   UNL A   1      38.111  33.136  34.912  1.00  0.00     0.074 A 
ATOM     43  C   UNL A   1      37.791  31.893  32.802  1.00  0.00     0.049 A 
ATOM     44  N   UNL A   1      39.226  32.617  35.359  1.00  0.00    -0.248 NA
ATOM     45  C   UNL A   1      37.520  34.149  35.800  1.00  0.00     0.031 C 
ATOM     46  C   UNL A   1      37.130  31.499  31.561  1.00  0.00     0.029 A 
ATOM     47  N   UNL A   1      38.896  31.082  32.873  1.00  0.00    -0.354 N 
ATOM     48  C   UNL A   1      39.472  33.245  36.573  1.00  0.00     0.074 A 
ATOM     49  C   UNL A   1      38.412  34.208  36.776  1.00  0.00     0.031 C 
ATOM     50  C   UNL A   1      37.851  30.524  30.978  1.00  0.00     0.029 A 
ATOM     51  C   UNL A   1      39.040  30.254  31.786  1.00  0.00     0.049 A 
ATOM     52  H   UNL A   1      39.524  31.092  33.630  1.00  0.00     0.167 HD
ATOM     53  C   UNL A   1      40.487  33.030  37.444  1.00  0.00     0.037 A 
ATOM     54  C   UNL A   1      40.033  29.400  31.472  1.00  0.00     0.037 A 
ATOM     55  C   UNL A   1      41.544  32.077  37.233  1.00  0.00     0.049 A 
ATOM     56  C   UNL A   1      41.198  29.240  32.417  1.00  0.00     0.074 A 
ATOM     57  C   UNL A   1      42.607  31.770  38.063  1.00  0.00     0.029 A 
ATOM     58  N   UNL A   1      41.676  31.283  36.103  1.00  0.00    -0.354 N 
ATOM     59  N   UNL A   1      41.412  29.813  33.577  1.00  0.00    -0.248 NA
ATOM     60  C   UNL A   1      42.260  28.309  32.008  1.00  0.00     0.031 C 
ATOM     61  C   UNL A   1      43.420  30.840  37.405  1.00  0.00     0.029 A 
ATOM     62  C   UNL A   1      42.825  30.512  36.198  1.00  0.00     0.049 A 
ATOM     63  H   UNL A   1      41.048  31.269  35.345  1.00  0.00     0.167 HD
ATOM     64  C   UNL A   1      42.611  29.291  34.050  1.00  0.00     0.074 A 
ATOM     65  C   UNL A   1      43.071  28.343  33.056  1.00  0.00     0.031 C 
ATOM     66  C   UNL A   1      43.269  29.568  35.203  1.00  0.00     0.037 A 
BRANCH  53  67
ATOM     67  C   UNL A   1      40.520  33.875  38.686  1.00  0.00     0.064 A 
ATOM     68  C   UNL A   1      41.267  35.061  38.758  1.00  0.00     0.173 A 
ATOM     69  C   UNL A   1      39.781  33.497  39.817  1.00  0.00     0.173 A 
ATOM     70  F   UNL A   1      42.003  35.462  37.710  1.00  0.00    -0.203 F 
ATOM     71  C   UNL A   1      41.301  35.817  39.927  1.00  0.00     0.198 A 
ATOM     72  C   UNL A   1      39.789  34.274  40.972  1.00  0.00     0.198 A 
ATOM     73  F   UNL A   1      39.047  32.375  39.804  1.00  0.00    -0.203 F 
ATOM     74  F   UNL A   1      42.069  36.912  39.992  1.00  0.00    -0.200 F 
ATOM     75  C   UNL A   1      40.557  35.426  41.031  1.00  0.00     0.200 A 
ATOM     76  F   UNL A   1      39.058  33.902  42.033  1.00  0.00    -0.200 F 
ATOM     77  F   UNL A   1      40.588  36.157  42.154  1.00  0.00    -0.200 F 
ENDBRANCH  53  67
BRANCH  54  78
ATOM     78  C   UNL A   1      39.978  28.631  30.200  1.00  0.00     0.064 A 
ATOM     79  C   UNL A   1      39.405  27.352  30.150  1.00  0.00     0.173 A 
ATOM     80  C   UNL A   1      40.513  29.152  29.011  1.00  0.00     0.173 A 
ATOM     81  F   UNL A   1      38.905  26.799  31.264  1.00  0.00    -0.203 F 
ATOM     82  C   UNL A   1      39.385  26.618  28.965  1.00  0.00     0.198 A 
ATOM     83  C   UNL A   1      40.463  28.429  27.820  1.00  0.00     0.198 A 
ATOM     84  F   UNL A   1      41.077  30.368  29.004  1.00  0.00    -0.203 F 
ATOM     85  F   UNL A   1      38.875  25.379  28.958  1.00  0.00    -0.200 F 
ATOM     86  C   UNL A   1      39.907  27.159  27.800  1.00  0.00     0.200 A 
ATOM     87  F   UNL A   1      40.957  28.962  26.695  1.00  0.00    -0.200 F 
ATOM     88  F   UNL A   1      39.881  26.455  26.662  1.00  0.00    -0.200 F 
ENDBRANCH  54  78
BRANCH  66  89
ATOM     89  C   UNL A   1      44.538  28.809  35.479  1.00  0.00     0.064 A 
ATOM     90  C   UNL A   1      45.792  29.282  35.067  1.00  0.00     0.173 A 
ATOM     91  C   UNL A   1      44.499  27.609  36.209  1.00  0.00     0.173 A 
ATOM     92  F   UNL A   1      45.885  30.416  34.355  1.00  0.00    -0.203 F 
ATOM     93  C   UNL A   1      46.955  28.569  35.346  1.00  0.00     0.198 A 
ATOM     94  C   UNL A   1      45.668  26.919  36.519  1.00  0.00     0.198 A 
ATOM     95  F   UNL A   1      43.329  27.114  36.638  1.00  0.00    -0.203 F 
ATOM     96  F   UNL A   1      48.136  29.015  34.895  1.00  0.00    -0.200 F 
ATOM     97  C   UNL A   1      46.894  27.394  36.079  1.00  0.00     0.200 A 
ATOM     98  F   UNL A   1      45.607  25.793  37.244  1.00  0.00    -0.200 F 
ATOM     99  F   UNL A   1      48.016  26.715  36.357  1.00  0.00    -0.200 F 
ENDBRANCH  66  89
ENDBRANCH  40  41
ENDBRANCH  33  35
ENDBRANCH  32  33
ENDBRANCH  31  32
ENDBRANCH  30  31
ENDBRANCH  29  30
ENDBRANCH  28  29
ENDBRANCH   1  28
TORSDOF 21
ENDMDL
