MODEL 1
REMARK VINA RESULT:     -10.7      0.000      0.000
REMARK SMILES O=C(OCCOCCOCCOCCOC(=O)c1cc(-c2ccn(C(F)F)c(=O)c2)ccc1O)c1ccc(-c2c3nc(c(-c4c(F)c(F)c(F)c(F)c4F)c4ccc([nH]4)c(-c4c(F)c(F)c(F)c(F)c4F)c4nc(c(-c5c(F)c(F)c(F)c(F)c5F)c5ccc2[nH]5)C=C4)C=C3)cc1
REMARK SMILES IDX 9 1 8 2 7 3 6 4 5 5 4 6 3 7 2 8 1 9 35 10 36 11 97 12 37 13
REMARK SMILES IDX 96 14 38 15 39 16 40 17 90 18 41 19 95 20 89 21 91 22 42 23
REMARK SMILES IDX 94 24 88 25 87 26 43 28 75 29 55 30 74 31 56 32 59 33 73 34
REMARK SMILES IDX 92 35 57 36 58 37 72 39 93 40 60 41 44 42 45 43 53 44 46 45
REMARK SMILES IDX 47 46 51 47 54 48 48 49 49 50 52 51 50 52 76 53 77 54 85 55
REMARK SMILES IDX 78 56 79 57 83 58 86 59 80 60 81 61 84 62 82 63 61 64 62 65
REMARK SMILES IDX 70 66 63 67 64 68 68 69 71 70 65 71 66 72 69 73 67 74 10 75
REMARK SMILES IDX 11 76 12 77 13 78 14 79 15 80 16 81 17 82 18 83 19 84 33 85
REMARK SMILES IDX 20 86 32 87 31 88 34 89 21 91 22 92 30 93 23 94 28 95 24 96
REMARK SMILES IDX 29 97 25 98 26 99 27 100
REMARK H PARENT 91 27 59 38 34 90
REMARK Flexibility Score: inf
ROOT
ATOM      1  O   UNL A   1      35.657  24.517  24.763  1.00  0.00    -0.377 OA
ENDROOT
BRANCH   1   2
ATOM      2  C   UNL A   1      36.458  23.579  25.477  1.00  0.00     0.188 C 
BRANCH   2   3
ATOM      3  C   UNL A   1      36.690  22.247  24.765  1.00  0.00     0.188 C 
BRANCH   3   4
ATOM      4  O   UNL A   1      37.162  21.252  25.681  1.00  0.00    -0.376 OA
BRANCH   4   5
ATOM      5  C   UNL A   1      38.574  21.049  25.663  1.00  0.00     0.202 C 
BRANCH   5   6
ATOM      6  C   UNL A   1      39.008  19.657  25.212  1.00  0.00     0.261 C 
BRANCH   6   7
ATOM      7  O   UNL A   1      40.064  19.101  26.006  1.00  0.00    -0.460 OA
BRANCH   7   8
ATOM      8  C   UNL A   1      41.389  19.384  26.002  1.00  0.00     0.338 C 
ATOM      9  O   UNL A   1      42.152  18.487  25.641  1.00  0.00    -0.246 OA
BRANCH   8  10
ATOM     10  C   UNL A   1      42.017  20.680  26.445  1.00  0.00     0.060 A 
ATOM     11  C   UNL A   1      42.407  21.565  25.417  1.00  0.00     0.016 A 
ATOM     12  C   UNL A   1      42.270  21.083  27.759  1.00  0.00     0.016 A 
ATOM     13  C   UNL A   1      42.999  22.803  25.694  1.00  0.00     0.010 A 
ATOM     14  C   UNL A   1      42.885  22.302  28.046  1.00  0.00     0.010 A 
ATOM     15  C   UNL A   1      43.221  23.182  27.018  1.00  0.00    -0.014 A 
BRANCH  15  16
ATOM     16  C   UNL A   1      43.558  24.570  27.388  1.00  0.00     0.031 A 
ATOM     17  C   UNL A   1      42.519  25.540  27.850  1.00  0.00     0.074 A 
ATOM     18  C   UNL A   1      44.822  24.958  27.134  1.00  0.00     0.049 A 
ATOM     19  N   UNL A   1      42.658  26.804  28.150  1.00  0.00    -0.248 NA
ATOM     20  C   UNL A   1      41.144  25.034  27.976  1.00  0.00     0.031 C 
ATOM     21  C   UNL A   1      45.870  24.081  26.599  1.00  0.00     0.029 A 
ATOM     22  N   UNL A   1      45.430  26.177  27.243  1.00  0.00    -0.354 N 
ATOM     23  C   UNL A   1      41.399  27.243  28.536  1.00  0.00     0.074 A 
ATOM     24  C   UNL A   1      40.495  26.122  28.376  1.00  0.00     0.031 C 
ATOM     25  C   UNL A   1      46.988  24.796  26.413  1.00  0.00     0.029 A 
ATOM     26  C   UNL A   1      46.734  26.173  26.812  1.00  0.00     0.049 A 
ATOM     27  H   UNL A   1      44.979  26.977  27.597  1.00  0.00     0.167 HD
ATOM     28  C   UNL A   1      41.052  28.468  29.001  1.00  0.00     0.037 A 
ATOM     29  C   UNL A   1      47.628  27.175  26.756  1.00  0.00     0.037 A 
ATOM     30  C   UNL A   1      41.975  29.575  29.101  1.00  0.00     0.049 A 
ATOM     31  C   UNL A   1      47.211  28.522  27.264  1.00  0.00     0.074 A 
ATOM     32  C   UNL A   1      41.747  30.854  29.576  1.00  0.00     0.029 A 
ATOM     33  N   UNL A   1      43.305  29.531  28.702  1.00  0.00    -0.354 N 
ATOM     34  N   UNL A   1      46.043  28.906  27.718  1.00  0.00    -0.248 NA
ATOM     35  C   UNL A   1      48.242  29.565  27.285  1.00  0.00     0.031 C 
ATOM     36  C   UNL A   1      42.926  31.593  29.430  1.00  0.00     0.029 A 
ATOM     37  C   UNL A   1      43.907  30.761  28.914  1.00  0.00     0.049 A 
ATOM     38  H   UNL A   1      43.756  28.740  28.324  1.00  0.00     0.167 HD
ATOM     39  C   UNL A   1      46.203  30.224  28.115  1.00  0.00     0.074 A 
ATOM     40  C   UNL A   1      47.589  30.567  27.856  1.00  0.00     0.031 C 
ATOM     41  C   UNL A   1      45.289  31.071  28.647  1.00  0.00     0.037 A 
BRANCH  28  42
ATOM     42  C   UNL A   1      39.641  28.678  29.472  1.00  0.00     0.064 A 
ATOM     43  C   UNL A   1      39.277  28.404  30.800  1.00  0.00     0.173 A 
ATOM     44  C   UNL A   1      38.672  29.256  28.637  1.00  0.00     0.173 A 
ATOM     45  F   UNL A   1      40.161  27.849  31.642  1.00  0.00    -0.203 F 
ATOM     46  C   UNL A   1      37.998  28.695  31.272  1.00  0.00     0.198 A 
ATOM     47  C   UNL A   1      37.403  29.571  29.119  1.00  0.00     0.198 A 
ATOM     48  F   UNL A   1      38.966  29.550  27.361  1.00  0.00    -0.203 F 
ATOM     49  F   UNL A   1      37.671  28.407  32.539  1.00  0.00    -0.200 F 
ATOM     50  C   UNL A   1      37.067  29.289  30.435  1.00  0.00     0.200 A 
ATOM     51  F   UNL A   1      36.507  30.162  28.314  1.00  0.00    -0.200 F 
ATOM     52  F   UNL A   1      35.846  29.594  30.898  1.00  0.00    -0.200 F 
ENDBRANCH  28  42
BRANCH  29  53
ATOM     53  C   UNL A   1      49.011  26.893  26.301  1.00  0.00     0.064 A 
ATOM     54  C   UNL A   1      49.955  26.370  27.195  1.00  0.00     0.173 A 
ATOM     55  C   UNL A   1      49.400  27.066  24.965  1.00  0.00     0.173 A 
ATOM     56  F   UNL A   1      49.627  26.190  28.483  1.00  0.00    -0.203 F 
ATOM     57  C   UNL A   1      51.241  26.043  26.774  1.00  0.00     0.198 A 
ATOM     58  C   UNL A   1      50.680  26.714  24.539  1.00  0.00     0.198 A 
ATOM     59  F   UNL A   1      48.526  27.543  24.066  1.00  0.00    -0.203 F 
ATOM     60  F   UNL A   1      52.131  25.568  27.655  1.00  0.00    -0.200 F 
ATOM     61  C   UNL A   1      51.601  26.208  25.445  1.00  0.00     0.200 A 
ATOM     62  F   UNL A   1      51.017  26.853  23.249  1.00  0.00    -0.200 F 
ATOM     63  F   UNL A   1      52.833  25.876  25.037  1.00  0.00    -0.200 F 
ENDBRANCH  29  53
BRANCH  41  64
ATOM     64  C   UNL A   1      45.778  32.441  29.015  1.00  0.00     0.064 A 
ATOM     65  C   UNL A   1      46.330  32.711  30.275  1.00  0.00     0.173 A 
ATOM     66  C   UNL A   1      45.713  33.489  28.083  1.00  0.00     0.173 A 
ATOM     67  F   UNL A   1      46.398  31.745  31.203  1.00  0.00    -0.203 F 
ATOM     68  C   UNL A   1      46.767  33.991  30.602  1.00  0.00     0.198 A 
ATOM     69  C   UNL A   1      46.181  34.759  28.403  1.00  0.00     0.198 A 
ATOM     70  F   UNL A   1      45.200  33.278  26.862  1.00  0.00    -0.203 F 
ATOM     71  F   UNL A   1      47.237  34.241  31.833  1.00  0.00    -0.200 F 
ATOM     72  C   UNL A   1      46.699  35.011  29.665  1.00  0.00     0.200 A 
ATOM     73  F   UNL A   1      46.127  35.740  27.493  1.00  0.00    -0.200 F 
ATOM     74  F   UNL A   1      47.123  36.242  29.982  1.00  0.00    -0.200 F 
ENDBRANCH  41  64
ENDBRANCH  15  16
ENDBRANCH   8  10
ENDBRANCH   7   8
ENDBRANCH   6   7
ENDBRANCH   5   6
ENDBRANCH   4   5
ENDBRANCH   3   4
ENDBRANCH   2   3
ENDBRANCH   1   2
BRANCH   1  75
ATOM     75  C   UNL A   1      34.389  24.841  25.320  1.00  0.00     0.188 C 
BRANCH  75  76
ATOM     76  C   UNL A   1      34.000  26.329  25.465  1.00  0.00     0.188 C 
BRANCH  76  77
ATOM     77  O   UNL A   1      33.096  26.593  26.526  1.00  0.00    -0.376 OA
BRANCH  77  78
ATOM     78  C   UNL A   1      31.942  27.349  26.180  1.00  0.00     0.202 C 
BRANCH  78  79
ATOM     79  C   UNL A   1      30.595  26.614  26.219  1.00  0.00     0.261 C 
BRANCH  79  80
ATOM     80  O   UNL A   1      30.560  25.331  25.577  1.00  0.00    -0.460 OA
BRANCH  80  81
ATOM     81  C   UNL A   1      30.222  25.242  24.265  1.00  0.00     0.342 C 
ATOM     82  O   UNL A   1      29.329  25.829  23.701  1.00  0.00    -0.246 OA
BRANCH  81  83
ATOM     83  C   UNL A   1      31.327  24.497  23.596  1.00  0.00     0.102 A 
ATOM     84  C   UNL A   1      31.574  23.168  23.994  1.00  0.00     0.028 A 
ATOM     85  C   UNL A   1      31.979  25.024  22.475  1.00  0.00     0.130 A 
ATOM     86  C   UNL A   1      32.423  22.356  23.226  1.00  0.00    -0.017 A 
ATOM     87  C   UNL A   1      32.861  24.234  21.741  1.00  0.00     0.048 A 
ATOM     88  C   UNL A   1      33.072  22.904  22.109  1.00  0.00     0.012 A 
BRANCH  85  89
ATOM     89  O   UNL A   1      31.749  26.313  22.087  1.00  0.00    -0.507 OA
ATOM     90  H   UNL A   1      31.408  26.933  22.699  1.00  0.00     0.293 HD
ENDBRANCH  85  89
BRANCH  86  91
ATOM     91  C   UNL A   1      32.640  20.927  23.526  1.00  0.00    -0.011 A 
ATOM     92  C   UNL A   1      33.402  20.479  24.673  1.00  0.00     0.027 A 
ATOM     93  C   UNL A   1      32.215  20.016  22.631  1.00  0.00     0.080 A 
ATOM     94  C   UNL A   1      33.742  19.190  24.805  1.00  0.00     0.095 A 
ATOM     95  C   UNL A   1      32.551  18.570  22.786  1.00  0.00     0.255 A 
ATOM     96  N   UNL A   1      33.346  18.248  23.874  1.00  0.00    -0.258 N 
ATOM     97  O   UNL A   1      32.132  17.782  21.943  1.00  0.00    -0.269 OA
BRANCH  96  98
ATOM     98  C   UNL A   1      33.781  16.878  23.989  1.00  0.00     0.451 C 
ATOM     99  F   UNL A   1      32.737  16.046  24.219  1.00  0.00    -0.185 F 
ATOM    100  F   UNL A   1      34.398  16.473  22.852  1.00  0.00    -0.185 F 
ENDBRANCH  96  98
ENDBRANCH  86  91
ENDBRANCH  81  83
ENDBRANCH  80  81
ENDBRANCH  79  80
ENDBRANCH  78  79
ENDBRANCH  77  78
ENDBRANCH  76  77
ENDBRANCH  75  76
ENDBRANCH   1  75
TORSDOF 23
ENDMDL
MODEL 2
REMARK VINA RESULT:     -10.2      0.602      7.217
REMARK SMILES O=C(OCCOCCOCCOCCOC(=O)c1cc(-c2ccn(C(F)F)c(=O)c2)ccc1O)c1ccc(-c2c3nc(c(-c4c(F)c(F)c(F)c(F)c4F)c4ccc([nH]4)c(-c4c(F)c(F)c(F)c(F)c4F)c4nc(c(-c5c(F)c(F)c(F)c(F)c5F)c5ccc2[nH]5)C=C4)C=C3)cc1
REMARK SMILES IDX 9 1 8 2 7 3 6 4 5 5 4 6 3 7 2 8 1 9 35 10 36 11 97 12 37 13
REMARK SMILES IDX 96 14 38 15 39 16 40 17 90 18 41 19 95 20 89 21 91 22 42 23
REMARK SMILES IDX 94 24 88 25 87 26 43 28 75 29 55 30 74 31 56 32 59 33 73 34
REMARK SMILES IDX 92 35 57 36 58 37 72 39 93 40 60 41 44 42 45 43 53 44 46 45
REMARK SMILES IDX 47 46 51 47 54 48 48 49 49 50 52 51 50 52 76 53 77 54 85 55
REMARK SMILES IDX 78 56 79 57 83 58 86 59 80 60 81 61 84 62 82 63 61 64 62 65
REMARK SMILES IDX 70 66 63 67 64 68 68 69 71 70 65 71 66 72 69 73 67 74 10 75
REMARK SMILES IDX 11 76 12 77 13 78 14 79 15 80 16 81 17 82 18 83 19 84 33 85
REMARK SMILES IDX 20 86 32 87 31 88 34 89 21 91 22 92 30 93 23 94 28 95 24 96
REMARK SMILES IDX 29 97 25 98 26 99 27 100
REMARK H PARENT 91 27 59 38 34 90
REMARK Flexibility Score: inf
ROOT
ATOM      1  O   UNL A   1      35.732  24.487  24.651  1.00  0.00    -0.377 OA
ENDROOT
BRANCH   1   2
ATOM      2  C   UNL A   1      36.441  23.564  25.474  1.00  0.00     0.188 C 
BRANCH   2   3
ATOM      3  C   UNL A   1      36.823  22.248  24.796  1.00  0.00     0.188 C 
BRANCH   3   4
ATOM      4  O   UNL A   1      37.328  21.307  25.751  1.00  0.00    -0.376 OA
BRANCH   4   5
ATOM      5  C   UNL A   1      38.743  21.132  25.721  1.00  0.00     0.202 C 
BRANCH   5   6
ATOM      6  C   UNL A   1      39.198  19.717  25.375  1.00  0.00     0.261 C 
BRANCH   6   7
ATOM      7  O   UNL A   1      40.262  19.237  26.207  1.00  0.00    -0.460 OA
BRANCH   7   8
ATOM      8  C   UNL A   1      41.594  19.469  26.125  1.00  0.00     0.338 C 
ATOM      9  O   UNL A   1      42.313  18.511  25.837  1.00  0.00    -0.246 OA
BRANCH   8  10
ATOM     10  C   UNL A   1      42.281  20.781  26.402  1.00  0.00     0.060 A 
ATOM     11  C   UNL A   1      42.659  21.536  25.271  1.00  0.00     0.016 A 
ATOM     12  C   UNL A   1      42.600  21.313  27.654  1.00  0.00     0.016 A 
ATOM     13  C   UNL A   1      43.302  22.774  25.390  1.00  0.00     0.010 A 
ATOM     14  C   UNL A   1      43.266  22.532  27.786  1.00  0.00     0.010 A 
ATOM     15  C   UNL A   1      43.589  23.283  26.657  1.00  0.00    -0.014 A 
BRANCH  15  16
ATOM     16  C   UNL A   1      43.986  24.690  26.862  1.00  0.00     0.031 A 
ATOM     17  C   UNL A   1      45.408  25.134  26.747  1.00  0.00     0.074 A 
ATOM     18  C   UNL A   1      43.023  25.515  27.313  1.00  0.00     0.049 A 
ATOM     19  N   UNL A   1      45.912  26.322  26.959  1.00  0.00    -0.248 NA
ATOM     20  C   UNL A   1      46.397  24.116  26.364  1.00  0.00     0.031 C 
ATOM     21  C   UNL A   1      41.625  25.123  27.530  1.00  0.00     0.029 A 
ATOM     22  N   UNL A   1      43.068  26.822  27.709  1.00  0.00    -0.354 N 
ATOM     23  C   UNL A   1      47.271  26.208  26.701  1.00  0.00     0.074 A 
ATOM     24  C   UNL A   1      47.523  24.820  26.373  1.00  0.00     0.031 C 
ATOM     25  C   UNL A   1      40.951  26.165  28.035  1.00  0.00     0.029 A 
ATOM     26  C   UNL A   1      41.864  27.289  28.177  1.00  0.00     0.049 A 
ATOM     27  H   UNL A   1      43.882  27.374  27.662  1.00  0.00     0.167 HD
ATOM     28  C   UNL A   1      48.205  27.190  26.719  1.00  0.00     0.037 A 
ATOM     29  C   UNL A   1      41.537  28.500  28.658  1.00  0.00     0.037 A 
ATOM     30  C   UNL A   1      47.922  28.555  27.098  1.00  0.00     0.049 A 
ATOM     31  C   UNL A   1      42.595  29.563  28.679  1.00  0.00     0.074 A 
ATOM     32  C   UNL A   1      48.778  29.641  27.133  1.00  0.00     0.029 A 
ATOM     33  N   UNL A   1      46.681  29.014  27.522  1.00  0.00    -0.354 N 
ATOM     34  N   UNL A   1      43.858  29.473  28.342  1.00  0.00    -0.248 NA
ATOM     35  C   UNL A   1      42.176  30.899  29.113  1.00  0.00     0.031 C 
ATOM     36  C   UNL A   1      48.067  30.745  27.613  1.00  0.00     0.029 A 
ATOM     37  C   UNL A   1      46.751  30.364  27.826  1.00  0.00     0.049 A 
ATOM     38  H   UNL A   1      45.869  28.461  27.595  1.00  0.00     0.167 HD
ATOM     39  C   UNL A   1      44.382  30.747  28.486  1.00  0.00     0.074 A 
ATOM     40  C   UNL A   1      43.290  31.594  28.930  1.00  0.00     0.031 C 
ATOM     41  C   UNL A   1      45.647  31.180  28.267  1.00  0.00     0.037 A 
BRANCH  28  42
ATOM     42  C   UNL A   1      49.603  26.851  26.286  1.00  0.00     0.064 A 
ATOM     43  C   UNL A   1      49.991  26.968  24.942  1.00  0.00     0.173 A 
ATOM     44  C   UNL A   1      50.594  26.515  27.222  1.00  0.00     0.173 A 
ATOM     45  F   UNL A   1      49.085  27.284  24.004  1.00  0.00    -0.203 F 
ATOM     46  C   UNL A   1      51.312  26.757  24.550  1.00  0.00     0.198 A 
ATOM     47  C   UNL A   1      51.920  26.331  26.831  1.00  0.00     0.198 A 
ATOM     48  F   UNL A   1      50.286  26.398  28.522  1.00  0.00    -0.203 F 
ATOM     49  F   UNL A   1      51.650  26.858  23.258  1.00  0.00    -0.200 F 
ATOM     50  C   UNL A   1      52.277  26.451  25.496  1.00  0.00     0.200 A 
ATOM     51  F   UNL A   1      52.857  26.052  27.749  1.00  0.00    -0.200 F 
ATOM     52  F   UNL A   1      53.552  26.275  25.122  1.00  0.00    -0.200 F 
ENDBRANCH  28  42
BRANCH  29  53
ATOM     53  C   UNL A   1      40.132  28.774  29.047  1.00  0.00     0.064 A 
ATOM     54  C   UNL A   1      39.193  29.156  28.078  1.00  0.00     0.173 A 
ATOM     55  C   UNL A   1      39.679  28.594  30.361  1.00  0.00     0.173 A 
ATOM     56  F   UNL A   1      39.582  29.342  26.808  1.00  0.00    -0.203 F 
ATOM     57  C   UNL A   1      37.857  29.360  28.411  1.00  0.00     0.198 A 
ATOM     58  C   UNL A   1      38.336  28.774  30.689  1.00  0.00     0.198 A 
ATOM     59  F   UNL A   1      40.534  28.208  31.320  1.00  0.00    -0.203 F 
ATOM     60  F   UNL A   1      36.987  29.748  27.470  1.00  0.00    -0.200 F 
ATOM     61  C   UNL A   1      37.427  29.161  29.715  1.00  0.00     0.200 A 
ATOM     62  F   UNL A   1      37.919  28.559  31.944  1.00  0.00    -0.200 F 
ATOM     63  F   UNL A   1      36.138  29.340  30.031  1.00  0.00    -0.200 F 
ENDBRANCH  29  53
BRANCH  41  64
ATOM     64  C   UNL A   1      45.902  32.643  28.475  1.00  0.00     0.064 A 
ATOM     65  C   UNL A   1      45.732  33.573  27.440  1.00  0.00     0.173 A 
ATOM     66  C   UNL A   1      46.301  33.119  29.734  1.00  0.00     0.173 A 
ATOM     67  F   UNL A   1      45.368  33.162  26.216  1.00  0.00    -0.203 F 
ATOM     68  C   UNL A   1      45.985  34.926  27.649  1.00  0.00     0.198 A 
ATOM     69  C   UNL A   1      46.522  34.475  29.946  1.00  0.00     0.198 A 
ATOM     70  F   UNL A   1      46.471  32.269  30.756  1.00  0.00    -0.203 F 
ATOM     71  F   UNL A   1      45.874  35.790  26.631  1.00  0.00    -0.200 F 
ATOM     72  C   UNL A   1      46.373  35.376  28.902  1.00  0.00     0.200 A 
ATOM     73  F   UNL A   1      46.883  34.912  31.161  1.00  0.00    -0.200 F 
ATOM     74  F   UNL A   1      46.614  36.679  29.101  1.00  0.00    -0.200 F 
ENDBRANCH  41  64
ENDBRANCH  15  16
ENDBRANCH   8  10
ENDBRANCH   7   8
ENDBRANCH   6   7
ENDBRANCH   5   6
ENDBRANCH   4   5
ENDBRANCH   3   4
ENDBRANCH   2   3
ENDBRANCH   1   2
BRANCH   1  75
ATOM     75  C   UNL A   1      34.393  24.789  25.023  1.00  0.00     0.188 C 
BRANCH  75  76
ATOM     76  C   UNL A   1      34.024  26.253  25.346  1.00  0.00     0.188 C 
BRANCH  76  77
ATOM     77  O   UNL A   1      33.112  26.400  26.423  1.00  0.00    -0.376 OA
BRANCH  77  78
ATOM     78  C   UNL A   1      32.040  27.308  26.205  1.00  0.00     0.202 C 
BRANCH  78  79
ATOM     79  C   UNL A   1      30.629  26.710  26.124  1.00  0.00     0.261 C 
BRANCH  79  80
ATOM     80  O   UNL A   1      30.521  25.443  25.456  1.00  0.00    -0.460 OA
BRANCH  80  81
ATOM     81  C   UNL A   1      30.243  25.403  24.127  1.00  0.00     0.342 C 
ATOM     82  O   UNL A   1      29.456  26.094  23.526  1.00  0.00    -0.246 OA
BRANCH  81  83
ATOM     83  C   UNL A   1      31.287  24.538  23.507  1.00  0.00     0.102 A 
ATOM     84  C   UNL A   1      31.427  23.216  23.977  1.00  0.00     0.028 A 
ATOM     85  C   UNL A   1      31.981  24.949  22.364  1.00  0.00     0.130 A 
ATOM     86  C   UNL A   1      32.210  22.299  23.260  1.00  0.00    -0.017 A 
ATOM     87  C   UNL A   1      32.799  24.053  21.678  1.00  0.00     0.048 A 
ATOM     88  C   UNL A   1      32.903  22.732  22.119  1.00  0.00     0.012 A 
BRANCH  85  89
ATOM     89  O   UNL A   1      31.855  26.229  21.904  1.00  0.00    -0.507 OA
ATOM     90  H   UNL A   1      31.326  26.845  22.371  1.00  0.00     0.293 HD
ENDBRANCH  85  89
BRANCH  86  91
ATOM     91  C   UNL A   1      32.313  20.876  23.639  1.00  0.00    -0.011 A 
ATOM     92  C   UNL A   1      32.627  20.449  24.987  1.00  0.00     0.027 A 
ATOM     93  C   UNL A   1      32.229  19.950  22.665  1.00  0.00     0.080 A 
ATOM     94  C   UNL A   1      32.903  19.165  25.248  1.00  0.00     0.095 A 
ATOM     95  C   UNL A   1      32.494  18.509  22.949  1.00  0.00     0.255 A 
ATOM     96  N   UNL A   1      32.859  18.207  24.251  1.00  0.00    -0.258 N 
ATOM     97  O   UNL A   1      32.397  17.706  22.025  1.00  0.00    -0.269 OA
BRANCH  96  98
ATOM     98  C   UNL A   1      33.231  16.842  24.532  1.00  0.00     0.451 C 
ATOM     99  F   UNL A   1      32.175  16.129  24.993  1.00  0.00    -0.185 F 
ATOM    100  F   UNL A   1      33.694  16.231  23.414  1.00  0.00    -0.185 F 
ENDBRANCH  96  98
ENDBRANCH  86  91
ENDBRANCH  81  83
ENDBRANCH  80  81
ENDBRANCH  79  80
ENDBRANCH  78  79
ENDBRANCH  77  78
ENDBRANCH  76  77
ENDBRANCH  75  76
ENDBRANCH   1  75
TORSDOF 23
ENDMDL
MODEL 3
REMARK VINA RESULT:      -9.6      3.098      8.645
REMARK SMILES O=C(OCCOCCOCCOCCOC(=O)c1cc(-c2ccn(C(F)F)c(=O)c2)ccc1O)c1ccc(-c2c3nc(c(-c4c(F)c(F)c(F)c(F)c4F)c4ccc([nH]4)c(-c4c(F)c(F)c(F)c(F)c4F)c4nc(c(-c5c(F)c(F)c(F)c(F)c5F)c5ccc2[nH]5)C=C4)C=C3)cc1
REMARK SMILES IDX 9 1 8 2 7 3 6 4 5 5 4 6 3 7 2 8 1 9 35 10 36 11 97 12 37 13
REMARK SMILES IDX 96 14 38 15 39 16 40 17 90 18 41 19 95 20 89 21 91 22 42 23
REMARK SMILES IDX 94 24 88 25 87 26 43 28 75 29 55 30 74 31 56 32 59 33 73 34
REMARK SMILES IDX 92 35 57 36 58 37 72 39 93 40 60 41 44 42 45 43 53 44 46 45
REMARK SMILES IDX 47 46 51 47 54 48 48 49 49 50 52 51 50 52 76 53 77 54 85 55
REMARK SMILES IDX 78 56 79 57 83 58 86 59 80 60 81 61 84 62 82 63 61 64 62 65
REMARK SMILES IDX 70 66 63 67 64 68 68 69 71 70 65 71 66 72 69 73 67 74 10 75
REMARK SMILES IDX 11 76 12 77 13 78 14 79 15 80 16 81 17 82 18 83 19 84 33 85
REMARK SMILES IDX 20 86 32 87 31 88 34 89 21 91 22 92 30 93 23 94 28 95 24 96
REMARK SMILES IDX 29 97 25 98 26 99 27 100
REMARK H PARENT 91 27 59 38 34 90
REMARK Flexibility Score: inf
ROOT
ATOM      1  O   UNL A   1      34.889  23.912  24.827  1.00  0.00    -0.377 OA
ENDROOT
BRANCH   1   2
ATOM      2  C   UNL A   1      36.215  23.391  24.805  1.00  0.00     0.188 C 
BRANCH   2   3
ATOM      3  C   UNL A   1      36.317  21.880  24.601  1.00  0.00     0.188 C 
BRANCH   3   4
ATOM      4  O   UNL A   1      37.064  21.269  25.660  1.00  0.00    -0.376 OA
BRANCH   4   5
ATOM      5  C   UNL A   1      38.463  21.151  25.409  1.00  0.00     0.202 C 
BRANCH   5   6
ATOM      6  C   UNL A   1      38.943  19.724  25.158  1.00  0.00     0.261 C 
BRANCH   6   7
ATOM      7  O   UNL A   1      39.967  19.296  26.064  1.00  0.00    -0.460 OA
BRANCH   7   8
ATOM      8  C   UNL A   1      41.293  19.573  26.063  1.00  0.00     0.338 C 
ATOM      9  O   UNL A   1      42.051  18.686  25.666  1.00  0.00    -0.246 OA
BRANCH   8  10
ATOM     10  C   UNL A   1      41.930  20.850  26.548  1.00  0.00     0.060 A 
ATOM     11  C   UNL A   1      42.682  21.569  25.595  1.00  0.00     0.016 A 
ATOM     12  C   UNL A   1      41.869  21.379  27.839  1.00  0.00     0.016 A 
ATOM     13  C   UNL A   1      43.322  22.773  25.916  1.00  0.00     0.010 A 
ATOM     14  C   UNL A   1      42.526  22.562  28.179  1.00  0.00     0.010 A 
ATOM     15  C   UNL A   1      43.226  23.282  27.211  1.00  0.00    -0.014 A 
BRANCH  15  16
ATOM     16  C   UNL A   1      43.615  24.667  27.538  1.00  0.00     0.031 A 
ATOM     17  C   UNL A   1      45.044  25.064  27.722  1.00  0.00     0.074 A 
ATOM     18  C   UNL A   1      42.606  25.513  27.816  1.00  0.00     0.049 A 
ATOM     19  N   UNL A   1      45.530  26.227  28.069  1.00  0.00    -0.248 NA
ATOM     20  C   UNL A   1      46.059  24.022  27.508  1.00  0.00     0.031 C 
ATOM     21  C   UNL A   1      41.182  25.165  27.740  1.00  0.00     0.029 A 
ATOM     22  N   UNL A   1      42.609  26.807  28.256  1.00  0.00    -0.354 N 
ATOM     23  C   UNL A   1      46.910  26.073  28.081  1.00  0.00     0.074 A 
ATOM     24  C   UNL A   1      47.181  24.686  27.763  1.00  0.00     0.031 C 
ATOM     25  C   UNL A   1      40.451  26.216  28.135  1.00  0.00     0.029 A 
ATOM     26  C   UNL A   1      41.351  27.303  28.492  1.00  0.00     0.049 A 
ATOM     27  H   UNL A   1      43.432  27.331  28.391  1.00  0.00     0.167 HD
ATOM     28  C   UNL A   1      47.849  27.021  28.316  1.00  0.00     0.037 A 
ATOM     29  C   UNL A   1      40.969  28.512  28.940  1.00  0.00     0.037 A 
ATOM     30  C   UNL A   1      47.536  28.384  28.677  1.00  0.00     0.049 A 
ATOM     31  C   UNL A   1      42.032  29.535  29.205  1.00  0.00     0.074 A 
ATOM     32  C   UNL A   1      48.400  29.438  28.917  1.00  0.00     0.029 A 
ATOM     33  N   UNL A   1      46.250  28.875  28.862  1.00  0.00    -0.354 N 
ATOM     34  N   UNL A   1      43.335  29.410  29.122  1.00  0.00    -0.248 NA
ATOM     35  C   UNL A   1      41.575  30.874  29.591  1.00  0.00     0.031 C 
ATOM     36  C   UNL A   1      47.639  30.554  29.283  1.00  0.00     0.029 A 
ATOM     37  C   UNL A   1      46.297  30.213  29.219  1.00  0.00     0.049 A 
ATOM     38  H   UNL A   1      45.423  28.349  28.754  1.00  0.00     0.167 HD
ATOM     39  C   UNL A   1      43.856  30.661  29.409  1.00  0.00     0.074 A 
ATOM     40  C   UNL A   1      42.723  31.534  29.656  1.00  0.00     0.031 C 
ATOM     41  C   UNL A   1      45.152  31.055  29.459  1.00  0.00     0.037 A 
BRANCH  28  42
ATOM     42  C   UNL A   1      49.295  26.644  28.158  1.00  0.00     0.064 A 
ATOM     43  C   UNL A   1      49.918  26.689  26.901  1.00  0.00     0.173 A 
ATOM     44  C   UNL A   1      50.096  26.345  29.271  1.00  0.00     0.173 A 
ATOM     45  F   UNL A   1      49.202  26.968  25.802  1.00  0.00    -0.203 F 
ATOM     46  C   UNL A   1      51.284  26.444  26.762  1.00  0.00     0.198 A 
ATOM     47  C   UNL A   1      51.467  26.127  29.133  1.00  0.00     0.198 A 
ATOM     48  F   UNL A   1      49.559  26.298  30.499  1.00  0.00    -0.203 F 
ATOM     49  F   UNL A   1      51.849  26.476  25.548  1.00  0.00    -0.200 F 
ATOM     50  C   UNL A   1      52.058  26.175  27.880  1.00  0.00     0.200 A 
ATOM     51  F   UNL A   1      52.219  25.884  30.216  1.00  0.00    -0.200 F 
ATOM     52  F   UNL A   1      53.376  25.967  27.749  1.00  0.00    -0.200 F 
ENDBRANCH  28  42
BRANCH  29  53
ATOM     53  C   UNL A   1      39.524  28.824  29.051  1.00  0.00     0.064 A 
ATOM     54  C   UNL A   1      38.876  28.738  30.291  1.00  0.00     0.173 A 
ATOM     55  C   UNL A   1      38.779  29.282  27.955  1.00  0.00     0.173 A 
ATOM     56  F   UNL A   1      39.549  28.302  31.367  1.00  0.00    -0.203 F 
ATOM     57  C   UNL A   1      37.535  29.083  30.429  1.00  0.00     0.198 A 
ATOM     58  C   UNL A   1      37.444  29.652  28.099  1.00  0.00     0.198 A 
ATOM     59  F   UNL A   1      39.359  29.403  26.751  1.00  0.00    -0.203 F 
ATOM     60  F   UNL A   1      36.935  28.967  31.621  1.00  0.00    -0.200 F 
ATOM     61  C   UNL A   1      36.821  29.549  29.335  1.00  0.00     0.200 A 
ATOM     62  F   UNL A   1      36.762  30.123  27.045  1.00  0.00    -0.200 F 
ATOM     63  F   UNL A   1      35.535  29.898  29.472  1.00  0.00    -0.200 F 
ENDBRANCH  29  53
BRANCH  41  64
ATOM     64  C   UNL A   1      45.403  32.502  29.762  1.00  0.00     0.064 A 
ATOM     65  C   UNL A   1      45.625  32.951  31.071  1.00  0.00     0.173 A 
ATOM     66  C   UNL A   1      45.443  33.446  28.723  1.00  0.00     0.173 A 
ATOM     67  F   UNL A   1      45.580  32.089  32.097  1.00  0.00    -0.203 F 
ATOM     68  C   UNL A   1      45.844  34.300  31.334  1.00  0.00     0.198 A 
ATOM     69  C   UNL A   1      45.695  34.787  28.987  1.00  0.00     0.198 A 
ATOM     70  F   UNL A   1      45.243  33.063  27.453  1.00  0.00    -0.203 F 
ATOM     71  F   UNL A   1      45.996  34.717  32.599  1.00  0.00    -0.200 F 
ATOM     72  C   UNL A   1      45.886  35.215  30.293  1.00  0.00     0.200 A 
ATOM     73  F   UNL A   1      45.748  35.668  27.979  1.00  0.00    -0.200 F 
ATOM     74  F   UNL A   1      46.100  36.512  30.548  1.00  0.00    -0.200 F 
ENDBRANCH  41  64
ENDBRANCH  15  16
ENDBRANCH   8  10
ENDBRANCH   7   8
ENDBRANCH   6   7
ENDBRANCH   5   6
ENDBRANCH   4   5
ENDBRANCH   3   4
ENDBRANCH   2   3
ENDBRANCH   1   2
BRANCH   1  75
ATOM     75  C   UNL A   1      34.105  23.639  25.982  1.00  0.00     0.188 C 
BRANCH  75  76
ATOM     76  C   UNL A   1      32.799  22.830  25.819  1.00  0.00     0.188 C 
BRANCH  76  77
ATOM     77  O   UNL A   1      32.161  23.001  24.563  1.00  0.00    -0.376 OA
BRANCH  77  78
ATOM     78  C   UNL A   1      30.891  23.641  24.599  1.00  0.00     0.202 C 
BRANCH  78  79
ATOM     79  C   UNL A   1      30.829  25.088  24.094  1.00  0.00     0.261 C 
BRANCH  79  80
ATOM     80  O   UNL A   1      31.712  26.019  24.740  1.00  0.00    -0.460 OA
BRANCH  80  81
ATOM     81  C   UNL A   1      31.403  26.498  25.972  1.00  0.00     0.342 C 
ATOM     82  O   UNL A   1      31.312  25.867  26.998  1.00  0.00    -0.246 OA
BRANCH  81  83
ATOM     83  C   UNL A   1      31.470  27.984  25.872  1.00  0.00     0.102 A 
ATOM     84  C   UNL A   1      30.918  28.604  24.733  1.00  0.00     0.028 A 
ATOM     85  C   UNL A   1      31.889  28.764  26.957  1.00  0.00     0.130 A 
ATOM     86  C   UNL A   1      30.731  29.994  24.715  1.00  0.00    -0.017 A 
ATOM     87  C   UNL A   1      31.750  30.149  26.921  1.00  0.00     0.048 A 
ATOM     88  C   UNL A   1      31.163  30.759  25.810  1.00  0.00     0.012 A 
BRANCH  85  89
ATOM     89  O   UNL A   1      32.429  28.172  28.063  1.00  0.00    -0.507 OA
ATOM     90  H   UNL A   1      32.087  28.366  28.913  1.00  0.00     0.293 HD
ENDBRANCH  85  89
BRANCH  86  91
ATOM     91  C   UNL A   1      30.063  30.691  23.599  1.00  0.00    -0.011 A 
ATOM     92  C   UNL A   1      29.896  32.129  23.566  1.00  0.00     0.027 A 
ATOM     93  C   UNL A   1      29.483  29.946  22.639  1.00  0.00     0.080 A 
ATOM     94  C   UNL A   1      29.118  32.704  22.640  1.00  0.00     0.095 A 
ATOM     95  C   UNL A   1      28.646  30.576  21.576  1.00  0.00     0.255 A 
ATOM     96  N   UNL A   1      28.484  31.949  21.670  1.00  0.00    -0.258 N 
ATOM     97  O   UNL A   1      28.147  29.851  20.721  1.00  0.00    -0.269 OA
BRANCH  96  98
ATOM     98  C   UNL A   1      27.591  32.574  20.725  1.00  0.00     0.451 C 
ATOM     99  F   UNL A   1      27.322  33.855  21.074  1.00  0.00    -0.185 F 
ATOM    100  F   UNL A   1      28.135  32.582  19.484  1.00  0.00    -0.185 F 
ENDBRANCH  96  98
ENDBRANCH  86  91
ENDBRANCH  81  83
ENDBRANCH  80  81
ENDBRANCH  79  80
ENDBRANCH  78  79
ENDBRANCH  77  78
ENDBRANCH  76  77
ENDBRANCH  75  76
ENDBRANCH   1  75
TORSDOF 23
ENDMDL
