MODEL 1
REMARK VINA RESULT:     -11.0      0.000      0.000
REMARK SMILES C[C@@H](NC(=O)[C@H]1CC=CC[C@@H]1C(=O)OCCOCCOCCOCCOC(=O)c1ccc(-c2c3nc(c(-c4c(F)c(F)c(F)c(F)c4F)c4ccc([nH]4)c(-c4c(F)c(F)c(F)c(F)c4F)c4nc(c(-c5c(F)c(F)c(F)c(F)c5F)c5ccc2[nH]5)C=C4)C=C3)cc1)c1ccc(-n2ccnc2)cc1
REMARK SMILES IDX 19 1 18 2 17 3 16 4 15 5 14 6 12 7 13 8 11 9 6 10 7 11 8 12
REMARK SMILES IDX 10 13 9 14 4 15 3 16 5 18 2 19 1 20 92 21 93 22 102 23 94 24
REMARK SMILES IDX 101 25 95 26 96 27 97 28 100 29 98 30 99 31 20 32 21 33
REMARK SMILES IDX 22 34 23 35 24 36 25 37 26 38 27 39 28 40 29 41 30 42 91 43
REMARK SMILES IDX 31 44 90 45 32 46 33 47 34 48 84 49 35 50 89 51 83 52 85 53
REMARK SMILES IDX 36 54 88 55 82 56 81 57 37 59 69 60 49 61 68 62 50 63 53 64
REMARK SMILES IDX 67 65 86 66 51 67 52 68 66 70 87 71 54 72 38 73 39 74 47 75
REMARK SMILES IDX 40 76 41 77 45 78 48 79 42 80 43 81 46 82 44 83 70 84 71 85
REMARK SMILES IDX 79 86 72 87 73 88 77 89 80 90 74 91 75 92 78 93 76 94 55 95
REMARK SMILES IDX 56 96 64 97 57 98 58 99 62 100 65 101 59 102 60 103 63 104
REMARK SMILES IDX 61 105
REMARK H PARENT 3 17 85 58 53 69
REMARK Flexibility Score: inf
ROOT
ATOM      1  C   UNL A   1      38.894  24.503  26.723  1.00  0.00     0.188 C 
ENDROOT
BRANCH   1   2
ATOM      2  C   UNL A   1      37.608  23.918  26.197  1.00  0.00     0.188 C 
BRANCH   2   3
ATOM      3  O   UNL A   1      37.525  22.589  25.670  1.00  0.00    -0.376 OA
BRANCH   3   4
ATOM      4  C   UNL A   1      37.109  22.199  24.362  1.00  0.00     0.202 C 
BRANCH   4   5
ATOM      5  C   UNL A   1      35.900  22.951  23.450  1.00  0.00     0.261 C 
BRANCH   5   6
ATOM      6  O   UNL A   1      34.303  22.583  23.307  1.00  0.00    -0.463 OA
BRANCH   6   7
ATOM      7  C   UNL A   1      32.869  23.074  22.704  1.00  0.00     0.310 C 
ATOM      8  O   UNL A   1      32.527  22.093  22.001  1.00  0.00    -0.252 OA
BRANCH   7   9
ATOM      9  C   UNL A   1      31.946  25.018  23.190  1.00  0.00     0.115 C 
ATOM     10  C   UNL A   1      30.737  25.316  24.610  1.00  0.00     0.097 C 
ATOM     11  C   UNL A   1      29.579  26.328  24.482  1.00  0.00     0.041 C 
ATOM     12  C   UNL A   1      29.820  27.496  23.629  1.00  0.00    -0.030 C 
ATOM     13  C   UNL A   1      31.613  26.400  22.205  1.00  0.00     0.043 C 
ATOM     14  C   UNL A   1      30.719  27.520  22.651  1.00  0.00    -0.030 C 
BRANCH  10  15
ATOM     15  C   UNL A   1      31.306  25.456  26.082  1.00  0.00     0.224 C 
ATOM     16  N   UNL A   1      32.214  26.385  26.484  1.00  0.00    -0.349 N 
ATOM     17  H   UNL A   1      32.690  26.169  27.317  1.00  0.00     0.164 HD
ATOM     18  O   UNL A   1      31.072  24.576  26.922  1.00  0.00    -0.275 OA
BRANCH  16  19
ATOM     19  C   UNL A   1      32.586  27.645  25.872  1.00  0.00     0.109 C 
ATOM     20  C   UNL A   1      33.786  27.315  24.939  1.00  0.00     0.036 C 
BRANCH  19  21
ATOM     21  C   UNL A   1      32.840  28.685  26.993  1.00  0.00    -0.026 A 
ATOM     22  C   UNL A   1      31.774  30.111  26.876  1.00  0.00     0.008 A 
ATOM     23  C   UNL A   1      34.543  28.886  27.518  1.00  0.00     0.008 A 
ATOM     24  C   UNL A   1      32.348  31.712  27.240  1.00  0.00     0.027 A 
ATOM     25  C   UNL A   1      35.201  30.602  27.653  1.00  0.00     0.027 A 
ATOM     26  C   UNL A   1      34.032  32.038  27.669  1.00  0.00     0.046 A 
BRANCH  26  27
ATOM     27  N   UNL A   1      34.015  33.292  28.516  1.00  0.00    -0.306 N 
ATOM     28  C   UNL A   1      33.639  34.611  28.323  1.00  0.00     0.113 A 
ATOM     29  C   UNL A   1      34.403  33.312  29.855  1.00  0.00     0.204 A 
ATOM     30  C   UNL A   1      33.448  35.174  29.564  1.00  0.00     0.131 A 
ATOM     31  N   UNL A   1      33.978  34.370  30.514  1.00  0.00    -0.245 NA
ENDBRANCH  26  27
ENDBRANCH  19  21
ENDBRANCH  16  19
ENDBRANCH  10  15
ENDBRANCH   7   9
ENDBRANCH   6   7
ENDBRANCH   5   6
ENDBRANCH   4   5
ENDBRANCH   3   4
ENDBRANCH   2   3
ENDBRANCH   1   2
BRANCH   1  32
ATOM     32  O   UNL A   1      39.624  23.686  27.590  1.00  0.00    -0.377 OA
BRANCH  32  33
ATOM     33  C   UNL A   1      40.545  22.861  26.921  1.00  0.00     0.188 C 
BRANCH  33  34
ATOM     34  C   UNL A   1      40.574  21.349  27.263  1.00  0.00     0.188 C 
BRANCH  34  35
ATOM     35  O   UNL A   1      41.808  20.667  27.405  1.00  0.00    -0.376 OA
BRANCH  35  36
ATOM     36  C   UNL A   1      41.883  19.263  27.187  1.00  0.00     0.202 C 
BRANCH  36  37
ATOM     37  C   UNL A   1      42.833  18.719  26.118  1.00  0.00     0.261 C 
BRANCH  37  38
ATOM     38  O   UNL A   1      43.020  19.621  25.015  1.00  0.00    -0.460 OA
BRANCH  38  39
ATOM     39  C   UNL A   1      44.288  19.738  24.542  1.00  0.00     0.338 C 
ATOM     40  O   UNL A   1      44.882  18.959  23.818  1.00  0.00    -0.246 OA
BRANCH  39  41
ATOM     41  C   UNL A   1      44.771  21.109  24.825  1.00  0.00     0.060 A 
ATOM     42  C   UNL A   1      45.226  21.409  26.126  1.00  0.00     0.016 A 
ATOM     43  C   UNL A   1      44.903  22.043  23.797  1.00  0.00     0.016 A 
ATOM     44  C   UNL A   1      45.785  22.651  26.406  1.00  0.00     0.010 A 
ATOM     45  C   UNL A   1      45.393  23.314  24.093  1.00  0.00     0.010 A 
ATOM     46  C   UNL A   1      45.785  23.632  25.408  1.00  0.00    -0.014 A 
BRANCH  46  47
ATOM     47  C   UNL A   1      45.792  25.050  25.826  1.00  0.00     0.031 A 
ATOM     48  C   UNL A   1      47.121  25.752  25.764  1.00  0.00     0.074 A 
ATOM     49  C   UNL A   1      44.686  25.694  26.227  1.00  0.00     0.049 A 
ATOM     50  N   UNL A   1      47.455  26.952  26.157  1.00  0.00    -0.248 NA
ATOM     51  C   UNL A   1      48.234  24.978  25.185  1.00  0.00     0.031 C 
ATOM     52  C   UNL A   1      43.342  25.128  26.271  1.00  0.00     0.029 A 
ATOM     53  N   UNL A   1      44.535  26.974  26.696  1.00  0.00    -0.354 N 
ATOM     54  C   UNL A   1      48.811  27.067  25.879  1.00  0.00     0.074 A 
ATOM     55  C   UNL A   1      49.250  25.808  25.329  1.00  0.00     0.031 C 
ATOM     56  C   UNL A   1      42.503  26.050  26.776  1.00  0.00     0.029 A 
ATOM     57  C   UNL A   1      43.261  27.251  27.123  1.00  0.00     0.049 A 
ATOM     58  H   UNL A   1      45.269  27.629  26.725  1.00  0.00     0.167 HD
ATOM     59  C   UNL A   1      49.619  28.135  26.058  1.00  0.00     0.037 A 
ATOM     60  C   UNL A   1      42.785  28.342  27.756  1.00  0.00     0.037 A 
ATOM     61  C   UNL A   1      49.175  29.374  26.634  1.00  0.00     0.049 A 
ATOM     62  C   UNL A   1      43.721  29.492  28.037  1.00  0.00     0.074 A 
ATOM     63  C   UNL A   1      49.901  30.524  26.876  1.00  0.00     0.029 A 
ATOM     64  N   UNL A   1      47.880  29.612  27.075  1.00  0.00    -0.354 N 
ATOM     65  N   UNL A   1      45.000  29.608  27.762  1.00  0.00    -0.248 NA
ATOM     66  C   UNL A   1      43.148  30.664  28.710  1.00  0.00     0.031 C 
ATOM     67  C   UNL A   1      49.062  31.435  27.526  1.00  0.00     0.029 A 
ATOM     68  C   UNL A   1      47.794  30.883  27.616  1.00  0.00     0.049 A 
ATOM     69  H   UNL A   1      47.134  28.972  27.013  1.00  0.00     0.167 HD
ATOM     70  C   UNL A   1      45.376  30.874  28.200  1.00  0.00     0.074 A 
ATOM     71  C   UNL A   1      44.184  31.490  28.746  1.00  0.00     0.031 C 
ATOM     72  C   UNL A   1      46.592  31.475  28.153  1.00  0.00     0.037 A 
BRANCH  59  73
ATOM     73  C   UNL A   1      51.062  27.976  25.672  1.00  0.00     0.064 A 
ATOM     74  C   UNL A   1      52.046  27.619  26.609  1.00  0.00     0.173 A 
ATOM     75  C   UNL A   1      51.472  28.209  24.352  1.00  0.00     0.173 A 
ATOM     76  F   UNL A   1      51.713  27.409  27.892  1.00  0.00    -0.203 F 
ATOM     77  C   UNL A   1      53.389  27.545  26.248  1.00  0.00     0.198 A 
ATOM     78  C   UNL A   1      52.810  28.094  23.985  1.00  0.00     0.198 A 
ATOM     79  F   UNL A   1      50.577  28.559  23.416  1.00  0.00    -0.203 F 
ATOM     80  F   UNL A   1      54.317  27.279  27.176  1.00  0.00    -0.200 F 
ATOM     81  C   UNL A   1      53.769  27.776  24.934  1.00  0.00     0.200 A 
ATOM     82  F   UNL A   1      53.173  28.305  22.711  1.00  0.00    -0.200 F 
ATOM     83  F   UNL A   1      55.061  27.704  24.587  1.00  0.00    -0.200 F 
ENDBRANCH  59  73
BRANCH  60  84
ATOM     84  C   UNL A   1      41.364  28.382  28.190  1.00  0.00     0.064 A 
ATOM     85  C   UNL A   1      40.356  28.866  27.344  1.00  0.00     0.173 A 
ATOM     86  C   UNL A   1      40.983  27.934  29.464  1.00  0.00     0.173 A 
ATOM     87  F   UNL A   1      40.670  29.330  26.126  1.00  0.00    -0.203 F 
ATOM     88  C   UNL A   1      39.026  28.915  27.762  1.00  0.00     0.198 A 
ATOM     89  C   UNL A   1      39.649  27.950  29.868  1.00  0.00     0.198 A 
ATOM     90  F   UNL A   1      41.906  27.460  30.314  1.00  0.00    -0.203 F 
ATOM     91  F   UNL A   1      38.090  29.422  26.949  1.00  0.00    -0.200 F 
ATOM     92  C   UNL A   1      38.673  28.448  29.018  1.00  0.00     0.200 A 
ATOM     93  F   UNL A   1      39.311  27.483  31.077  1.00  0.00    -0.200 F 
ATOM     94  F   UNL A   1      37.393  28.482  29.413  1.00  0.00    -0.200 F 
ENDBRANCH  60  84
BRANCH  72  95
ATOM     95  C   UNL A   1      46.690  32.884  28.665  1.00  0.00     0.064 A 
ATOM     96  C   UNL A   1      46.444  33.993  27.842  1.00  0.00     0.173 A 
ATOM     97  C   UNL A   1      46.983  33.124  30.018  1.00  0.00     0.173 A 
ATOM     98  F   UNL A   1      46.170  33.820  26.540  1.00  0.00    -0.203 F 
ATOM     99  C   UNL A   1      46.521  35.289  28.346  1.00  0.00     0.198 A 
ATOM    100  C   UNL A   1      47.019  34.418  30.527  1.00  0.00     0.198 A 
ATOM    101  F   UNL A   1      47.213  32.099  30.853  1.00  0.00    -0.203 F 
ATOM    102  F   UNL A   1      46.339  36.335  27.528  1.00  0.00    -0.200 F 
ATOM    103  C   UNL A   1      46.798  35.500  29.689  1.00  0.00     0.200 A 
ATOM    104  F   UNL A   1      47.264  34.618  31.829  1.00  0.00    -0.200 F 
ATOM    105  F   UNL A   1      46.860  36.749  30.174  1.00  0.00    -0.200 F 
ENDBRANCH  72  95
ENDBRANCH  46  47
ENDBRANCH  39  41
ENDBRANCH  38  39
ENDBRANCH  37  38
ENDBRANCH  36  37
ENDBRANCH  35  36
ENDBRANCH  34  35
ENDBRANCH  33  34
ENDBRANCH  32  33
ENDBRANCH   1  32
TORSDOF 24
ENDMDL
MODEL 2
REMARK VINA RESULT:     -10.7      0.790      6.827
REMARK SMILES C[C@@H](NC(=O)[C@H]1CC=CC[C@@H]1C(=O)OCCOCCOCCOCCOC(=O)c1ccc(-c2c3nc(c(-c4c(F)c(F)c(F)c(F)c4F)c4ccc([nH]4)c(-c4c(F)c(F)c(F)c(F)c4F)c4nc(c(-c5c(F)c(F)c(F)c(F)c5F)c5ccc2[nH]5)C=C4)C=C3)cc1)c1ccc(-n2ccnc2)cc1
REMARK SMILES IDX 19 1 18 2 17 3 16 4 15 5 14 6 12 7 13 8 11 9 6 10 7 11 8 12
REMARK SMILES IDX 10 13 9 14 4 15 3 16 5 18 2 19 1 20 92 21 93 22 102 23 94 24
REMARK SMILES IDX 101 25 95 26 96 27 97 28 100 29 98 30 99 31 20 32 21 33
REMARK SMILES IDX 22 34 23 35 24 36 25 37 26 38 27 39 28 40 29 41 30 42 91 43
REMARK SMILES IDX 31 44 90 45 32 46 33 47 34 48 84 49 35 50 89 51 83 52 85 53
REMARK SMILES IDX 36 54 88 55 82 56 81 57 37 59 69 60 49 61 68 62 50 63 53 64
REMARK SMILES IDX 67 65 86 66 51 67 52 68 66 70 87 71 54 72 38 73 39 74 47 75
REMARK SMILES IDX 40 76 41 77 45 78 48 79 42 80 43 81 46 82 44 83 70 84 71 85
REMARK SMILES IDX 79 86 72 87 73 88 77 89 80 90 74 91 75 92 78 93 76 94 55 95
REMARK SMILES IDX 56 96 64 97 57 98 58 99 62 100 65 101 59 102 60 103 63 104
REMARK SMILES IDX 61 105
REMARK H PARENT 3 17 85 58 53 69
REMARK Flexibility Score: inf
ROOT
ATOM      1  C   UNL A   1      38.982  24.070  26.806  1.00  0.00     0.188 C 
ENDROOT
BRANCH   1   2
ATOM      2  C   UNL A   1      37.902  23.674  25.830  1.00  0.00     0.188 C 
BRANCH   2   3
ATOM      3  O   UNL A   1      36.660  23.097  26.248  1.00  0.00    -0.376 OA
BRANCH   3   4
ATOM      4  C   UNL A   1      35.952  22.022  25.632  1.00  0.00     0.202 C 
BRANCH   4   5
ATOM      5  C   UNL A   1      35.054  22.129  24.202  1.00  0.00     0.261 C 
BRANCH   5   6
ATOM      6  O   UNL A   1      33.426  22.128  23.977  1.00  0.00    -0.463 OA
BRANCH   6   7
ATOM      7  C   UNL A   1      32.199  22.751  23.099  1.00  0.00     0.310 C 
ATOM      8  O   UNL A   1      31.825  21.760  22.426  1.00  0.00    -0.252 OA
BRANCH   7   9
ATOM      9  C   UNL A   1      31.524  24.845  23.265  1.00  0.00     0.115 C 
ATOM     10  C   UNL A   1      30.118  25.442  24.374  1.00  0.00     0.097 C 
ATOM     11  C   UNL A   1      29.189  26.598  23.944  1.00  0.00     0.041 C 
ATOM     12  C   UNL A   1      29.784  27.636  23.098  1.00  0.00    -0.030 C 
ATOM     13  C   UNL A   1      31.626  26.167  22.154  1.00  0.00     0.043 C 
ATOM     14  C   UNL A   1      30.854  27.441  22.335  1.00  0.00    -0.030 C 
BRANCH  10  15
ATOM     15  C   UNL A   1      30.392  25.628  25.924  1.00  0.00     0.224 C 
ATOM     16  N   UNL A   1      31.387  26.386  26.456  1.00  0.00    -0.349 N 
ATOM     17  H   UNL A   1      31.622  26.173  27.387  1.00  0.00     0.164 HD
ATOM     18  O   UNL A   1      29.796  24.919  26.747  1.00  0.00    -0.275 OA
BRANCH  16  19
ATOM     19  C   UNL A   1      32.155  27.461  25.859  1.00  0.00     0.109 C 
ATOM     20  C   UNL A   1      33.418  26.784  25.254  1.00  0.00     0.036 C 
BRANCH  19  21
ATOM     21  C   UNL A   1      32.397  28.554  26.934  1.00  0.00    -0.026 A 
ATOM     22  C   UNL A   1      31.467  30.046  26.633  1.00  0.00     0.008 A 
ATOM     23  C   UNL A   1      34.059  28.658  27.598  1.00  0.00     0.008 A 
ATOM     24  C   UNL A   1      32.137  31.619  26.948  1.00  0.00     0.027 A 
ATOM     25  C   UNL A   1      34.843  30.323  27.688  1.00  0.00     0.027 A 
ATOM     26  C   UNL A   1      33.799  31.843  27.509  1.00  0.00     0.046 A 
BRANCH  26  27
ATOM     27  N   UNL A   1      33.813  33.149  28.273  1.00  0.00    -0.306 N 
ATOM     28  C   UNL A   1      33.078  34.323  28.238  1.00  0.00     0.113 A 
ATOM     29  C   UNL A   1      34.686  33.405  29.330  1.00  0.00     0.204 A 
ATOM     30  C   UNL A   1      33.267  34.965  29.440  1.00  0.00     0.131 A 
ATOM     31  N   UNL A   1      34.312  34.410  30.094  1.00  0.00    -0.245 NA
ENDBRANCH  26  27
ENDBRANCH  19  21
ENDBRANCH  16  19
ENDBRANCH  10  15
ENDBRANCH   7   9
ENDBRANCH   6   7
ENDBRANCH   5   6
ENDBRANCH   4   5
ENDBRANCH   3   4
ENDBRANCH   2   3
ENDBRANCH   1   2
BRANCH   1  32
ATOM     32  O   UNL A   1      39.647  23.016  27.437  1.00  0.00    -0.377 OA
BRANCH  32  33
ATOM     33  C   UNL A   1      40.747  22.541  26.700  1.00  0.00     0.188 C 
BRANCH  33  34
ATOM     34  C   UNL A   1      40.814  21.031  26.356  1.00  0.00     0.188 C 
BRANCH  34  35
ATOM     35  O   UNL A   1      41.920  20.247  26.771  1.00  0.00    -0.376 OA
BRANCH  35  36
ATOM     36  C   UNL A   1      42.128  18.951  26.222  1.00  0.00     0.202 C 
BRANCH  36  37
ATOM     37  C   UNL A   1      43.424  18.654  25.466  1.00  0.00     0.261 C 
BRANCH  37  38
ATOM     38  O   UNL A   1      43.676  19.575  24.392  1.00  0.00    -0.460 OA
BRANCH  38  39
ATOM     39  C   UNL A   1      44.927  20.099  24.329  1.00  0.00     0.338 C 
ATOM     40  O   UNL A   1      45.873  19.683  23.683  1.00  0.00    -0.246 OA
BRANCH  39  41
ATOM     41  C   UNL A   1      44.911  21.435  24.970  1.00  0.00     0.060 A 
ATOM     42  C   UNL A   1      44.502  22.546  24.203  1.00  0.00     0.016 A 
ATOM     43  C   UNL A   1      45.160  21.572  26.336  1.00  0.00     0.016 A 
ATOM     44  C   UNL A   1      44.372  23.798  24.795  1.00  0.00     0.010 A 
ATOM     45  C   UNL A   1      45.103  22.840  26.913  1.00  0.00     0.010 A 
ATOM     46  C   UNL A   1      44.759  23.958  26.129  1.00  0.00    -0.014 A 
BRANCH  46  47
ATOM     47  C   UNL A   1      45.197  25.299  26.571  1.00  0.00     0.031 A 
ATOM     48  C   UNL A   1      44.132  26.186  27.154  1.00  0.00     0.074 A 
ATOM     49  C   UNL A   1      46.470  25.714  26.478  1.00  0.00     0.049 A 
ATOM     50  N   UNL A   1      44.193  27.435  27.530  1.00  0.00    -0.248 NA
ATOM     51  C   UNL A   1      42.802  25.573  27.322  1.00  0.00     0.031 C 
ATOM     52  C   UNL A   1      47.589  24.918  25.985  1.00  0.00     0.029 A 
ATOM     53  N   UNL A   1      47.023  26.930  26.784  1.00  0.00    -0.354 N 
ATOM     54  C   UNL A   1      42.914  27.752  27.968  1.00  0.00     0.074 A 
ATOM     55  C   UNL A   1      42.086  26.587  27.771  1.00  0.00     0.031 C 
ATOM     56  C   UNL A   1      48.696  25.682  25.988  1.00  0.00     0.029 A 
ATOM     57  C   UNL A   1      48.349  27.026  26.449  1.00  0.00     0.049 A 
ATOM     58  H   UNL A   1      46.517  27.664  27.202  1.00  0.00     0.167 HD
ATOM     59  C   UNL A   1      42.469  28.913  28.499  1.00  0.00     0.037 A 
ATOM     60  C   UNL A   1      49.169  28.096  26.479  1.00  0.00     0.037 A 
ATOM     61  C   UNL A   1      43.297  30.074  28.662  1.00  0.00     0.049 A 
ATOM     62  C   UNL A   1      48.633  29.414  26.986  1.00  0.00     0.074 A 
ATOM     63  C   UNL A   1      42.959  31.311  29.177  1.00  0.00     0.029 A 
ATOM     64  N   UNL A   1      44.633  30.142  28.291  1.00  0.00    -0.354 N 
ATOM     65  N   UNL A   1      47.429  29.711  27.414  1.00  0.00    -0.248 NA
ATOM     66  C   UNL A   1      49.573  30.542  27.019  1.00  0.00     0.031 C 
ATOM     67  C   UNL A   1      44.073  32.148  29.056  1.00  0.00     0.029 A 
ATOM     68  C   UNL A   1      45.127  31.411  28.540  1.00  0.00     0.049 A 
ATOM     69  H   UNL A   1      45.153  29.398  27.908  1.00  0.00     0.167 HD
ATOM     70  C   UNL A   1      47.472  31.048  27.794  1.00  0.00     0.074 A 
ATOM     71  C   UNL A   1      48.829  31.498  27.557  1.00  0.00     0.031 C 
ATOM     72  C   UNL A   1      46.485  31.833  28.296  1.00  0.00     0.037 A 
BRANCH  59  73
ATOM     73  C   UNL A   1      41.019  28.979  28.883  1.00  0.00     0.064 A 
ATOM     74  C   UNL A   1      40.592  28.780  30.207  1.00  0.00     0.173 A 
ATOM     75  C   UNL A   1      40.038  29.219  27.911  1.00  0.00     0.173 A 
ATOM     76  F   UNL A   1      41.486  28.521  31.174  1.00  0.00    -0.203 F 
ATOM     77  C   UNL A   1      39.238  28.775  30.532  1.00  0.00     0.198 A 
ATOM     78  C   UNL A   1      38.687  29.255  28.247  1.00  0.00     0.198 A 
ATOM     79  F   UNL A   1      40.386  29.411  26.630  1.00  0.00    -0.203 F 
ATOM     80  F   UNL A   1      38.853  28.506  31.787  1.00  0.00    -0.200 F 
ATOM     81  C   UNL A   1      38.287  29.020  29.553  1.00  0.00     0.200 A 
ATOM     82  F   UNL A   1      37.771  29.504  27.300  1.00  0.00    -0.200 F 
ATOM     83  F   UNL A   1      36.984  29.016  29.866  1.00  0.00    -0.200 F 
ENDBRANCH  59  73
BRANCH  60  84
ATOM     84  C   UNL A   1      50.567  27.969  25.992  1.00  0.00     0.064 A 
ATOM     85  C   UNL A   1      50.874  28.037  24.626  1.00  0.00     0.173 A 
ATOM     86  C   UNL A   1      51.631  27.779  26.888  1.00  0.00     0.173 A 
ATOM     87  F   UNL A   1      49.892  28.194  23.727  1.00  0.00    -0.203 F 
ATOM     88  C   UNL A   1      52.186  27.904  24.174  1.00  0.00     0.198 A 
ATOM     89  C   UNL A   1      52.947  27.680  26.438  1.00  0.00     0.198 A 
ATOM     90  F   UNL A   1      51.395  27.707  28.206  1.00  0.00    -0.203 F 
ATOM     91  F   UNL A   1      52.445  27.930  22.860  1.00  0.00    -0.200 F 
ATOM     92  C   UNL A   1      53.222  27.735  25.080  1.00  0.00     0.200 A 
ATOM     93  F   UNL A   1      53.945  27.534  27.319  1.00  0.00    -0.200 F 
ATOM     94  F   UNL A   1      54.484  27.621  24.645  1.00  0.00    -0.200 F 
ENDBRANCH  60  84
BRANCH  72  95
ATOM     95  C   UNL A   1      46.842  33.246  28.665  1.00  0.00     0.064 A 
ATOM     96  C   UNL A   1      46.704  34.308  27.760  1.00  0.00     0.173 A 
ATOM     97  C   UNL A   1      47.282  33.546  29.965  1.00  0.00     0.173 A 
ATOM     98  F   UNL A   1      46.298  34.075  26.502  1.00  0.00    -0.203 F 
ATOM     99  C   UNL A   1      47.023  35.611  28.132  1.00  0.00     0.198 A 
ATOM    100  C   UNL A   1      47.560  34.854  30.345  1.00  0.00     0.198 A 
ATOM    101  F   UNL A   1      47.419  32.570  30.875  1.00  0.00    -0.203 F 
ATOM    102  F   UNL A   1      46.936  36.602  27.233  1.00  0.00    -0.200 F 
ATOM    103  C   UNL A   1      47.441  35.885  29.426  1.00  0.00     0.200 A 
ATOM    104  F   UNL A   1      47.942  35.119  31.602  1.00  0.00    -0.200 F 
ATOM    105  F   UNL A   1      47.735  37.143  29.785  1.00  0.00    -0.200 F 
ENDBRANCH  72  95
ENDBRANCH  46  47
ENDBRANCH  39  41
ENDBRANCH  38  39
ENDBRANCH  37  38
ENDBRANCH  36  37
ENDBRANCH  35  36
ENDBRANCH  34  35
ENDBRANCH  33  34
ENDBRANCH  32  33
ENDBRANCH   1  32
TORSDOF 24
ENDMDL
MODEL 3
REMARK VINA RESULT:     -10.5      1.114      2.064
REMARK SMILES C[C@@H](NC(=O)[C@H]1CC=CC[C@@H]1C(=O)OCCOCCOCCOCCOC(=O)c1ccc(-c2c3nc(c(-c4c(F)c(F)c(F)c(F)c4F)c4ccc([nH]4)c(-c4c(F)c(F)c(F)c(F)c4F)c4nc(c(-c5c(F)c(F)c(F)c(F)c5F)c5ccc2[nH]5)C=C4)C=C3)cc1)c1ccc(-n2ccnc2)cc1
REMARK SMILES IDX 19 1 18 2 17 3 16 4 15 5 14 6 12 7 13 8 11 9 6 10 7 11 8 12
REMARK SMILES IDX 10 13 9 14 4 15 3 16 5 18 2 19 1 20 92 21 93 22 102 23 94 24
REMARK SMILES IDX 101 25 95 26 96 27 97 28 100 29 98 30 99 31 20 32 21 33
REMARK SMILES IDX 22 34 23 35 24 36 25 37 26 38 27 39 28 40 29 41 30 42 91 43
REMARK SMILES IDX 31 44 90 45 32 46 33 47 34 48 84 49 35 50 89 51 83 52 85 53
REMARK SMILES IDX 36 54 88 55 82 56 81 57 37 59 69 60 49 61 68 62 50 63 53 64
REMARK SMILES IDX 67 65 86 66 51 67 52 68 66 70 87 71 54 72 38 73 39 74 47 75
REMARK SMILES IDX 40 76 41 77 45 78 48 79 42 80 43 81 46 82 44 83 70 84 71 85
REMARK SMILES IDX 79 86 72 87 73 88 77 89 80 90 74 91 75 92 78 93 76 94 55 95
REMARK SMILES IDX 56 96 64 97 57 98 58 99 62 100 65 101 59 102 60 103 63 104
REMARK SMILES IDX 61 105
REMARK H PARENT 3 17 85 58 53 69
REMARK Flexibility Score: inf
ROOT
ATOM      1  C   UNL A   1      38.998  23.621  26.503  1.00  0.00     0.188 C 
ENDROOT
BRANCH   1   2
ATOM      2  C   UNL A   1      37.758  23.171  25.773  1.00  0.00     0.188 C 
BRANCH   2   3
ATOM      3  O   UNL A   1      37.289  21.820  25.810  1.00  0.00    -0.376 OA
BRANCH   3   4
ATOM      4  C   UNL A   1      36.539  21.133  24.809  1.00  0.00     0.202 C 
BRANCH   4   5
ATOM      5  C   UNL A   1      34.951  20.578  24.978  1.00  0.00     0.261 C 
BRANCH   5   6
ATOM      6  O   UNL A   1      33.605  21.373  25.490  1.00  0.00    -0.463 OA
BRANCH   6   7
ATOM      7  C   UNL A   1      32.164  21.989  25.034  1.00  0.00     0.310 C 
ATOM      8  O   UNL A   1      31.368  21.084  25.381  1.00  0.00    -0.252 OA
BRANCH   7   9
ATOM      9  C   UNL A   1      31.930  23.973  24.096  1.00  0.00     0.115 C 
ATOM     10  C   UNL A   1      30.683  25.283  24.636  1.00  0.00     0.097 C 
ATOM     11  C   UNL A   1      30.005  26.219  23.613  1.00  0.00     0.041 C 
ATOM     12  C   UNL A   1      30.793  26.575  22.429  1.00  0.00    -0.030 C 
ATOM     13  C   UNL A   1      32.291  24.527  22.498  1.00  0.00     0.043 C 
ATOM     14  C   UNL A   1      31.795  25.838  21.962  1.00  0.00    -0.030 C 
BRANCH  10  15
ATOM     15  C   UNL A   1      31.001  26.160  25.917  1.00  0.00     0.224 C 
ATOM     16  N   UNL A   1      32.187  26.774  26.169  1.00  0.00    -0.349 N 
ATOM     17  H   UNL A   1      32.339  27.018  27.110  1.00  0.00     0.164 HD
ATOM     18  O   UNL A   1      30.207  26.175  26.869  1.00  0.00    -0.275 OA
BRANCH  16  19
ATOM     19  C   UNL A   1      33.262  27.125  25.261  1.00  0.00     0.109 C 
ATOM     20  C   UNL A   1      34.406  26.115  25.561  1.00  0.00     0.036 C 
BRANCH  19  21
ATOM     21  C   UNL A   1      33.594  28.629  25.444  1.00  0.00    -0.026 A 
ATOM     22  C   UNL A   1      34.853  28.921  26.672  1.00  0.00     0.008 A 
ATOM     23  C   UNL A   1      32.218  29.769  25.289  1.00  0.00     0.008 A 
ATOM     24  C   UNL A   1      34.778  30.283  27.752  1.00  0.00     0.027 A 
ATOM     25  C   UNL A   1      32.019  31.054  26.595  1.00  0.00     0.027 A 
ATOM     26  C   UNL A   1      33.417  31.413  27.754  1.00  0.00     0.046 A 
BRANCH  26  27
ATOM     27  N   UNL A   1      33.963  32.726  28.272  1.00  0.00    -0.306 N 
ATOM     28  C   UNL A   1      34.458  33.885  27.699  1.00  0.00     0.113 A 
ATOM     29  C   UNL A   1      34.028  33.043  29.628  1.00  0.00     0.204 A 
ATOM     30  C   UNL A   1      34.393  34.878  28.649  1.00  0.00     0.131 A 
ATOM     31  N   UNL A   1      34.172  34.330  29.865  1.00  0.00    -0.245 NA
ENDBRANCH  26  27
ENDBRANCH  19  21
ENDBRANCH  16  19
ENDBRANCH  10  15
ENDBRANCH   7   9
ENDBRANCH   6   7
ENDBRANCH   5   6
ENDBRANCH   4   5
ENDBRANCH   3   4
ENDBRANCH   2   3
ENDBRANCH   1   2
BRANCH   1  32
ATOM     32  O   UNL A   1      39.730  22.613  27.135  1.00  0.00    -0.377 OA
BRANCH  32  33
ATOM     33  C   UNL A   1      40.789  22.127  26.347  1.00  0.00     0.188 C 
BRANCH  33  34
ATOM     34  C   UNL A   1      40.965  20.594  26.204  1.00  0.00     0.188 C 
BRANCH  34  35
ATOM     35  O   UNL A   1      42.223  19.988  26.450  1.00  0.00    -0.376 OA
BRANCH  35  36
ATOM     36  C   UNL A   1      42.477  18.658  26.016  1.00  0.00     0.202 C 
BRANCH  36  37
ATOM     37  C   UNL A   1      43.865  18.292  25.488  1.00  0.00     0.261 C 
BRANCH  37  38
ATOM     38  O   UNL A   1      44.198  18.960  24.260  1.00  0.00    -0.460 OA
BRANCH  38  39
ATOM     39  C   UNL A   1      45.368  19.650  24.248  1.00  0.00     0.338 C 
ATOM     40  O   UNL A   1      46.411  19.331  23.706  1.00  0.00    -0.246 OA
BRANCH  39  41
ATOM     41  C   UNL A   1      45.117  21.009  24.783  1.00  0.00     0.060 A 
ATOM     42  C   UNL A   1      44.576  21.985  23.919  1.00  0.00     0.016 A 
ATOM     43  C   UNL A   1      45.281  21.281  26.141  1.00  0.00     0.016 A 
ATOM     44  C   UNL A   1      44.228  23.240  24.407  1.00  0.00     0.010 A 
ATOM     45  C   UNL A   1      45.004  22.562  26.616  1.00  0.00     0.010 A 
ATOM     46  C   UNL A   1      44.527  23.554  25.737  1.00  0.00    -0.014 A 
BRANCH  46  47
ATOM     47  C   UNL A   1      44.733  24.975  26.087  1.00  0.00     0.031 A 
ATOM     48  C   UNL A   1      46.128  25.508  25.904  1.00  0.00     0.074 A 
ATOM     49  C   UNL A   1      43.742  25.764  26.530  1.00  0.00     0.049 A 
ATOM     50  N   UNL A   1      46.629  26.672  26.219  1.00  0.00    -0.248 NA
ATOM     51  C   UNL A   1      47.097  24.583  25.290  1.00  0.00     0.031 C 
ATOM     52  C   UNL A   1      42.347  25.367  26.688  1.00  0.00     0.029 A 
ATOM     53  N   UNL A   1      43.778  27.069  26.948  1.00  0.00    -0.354 N 
ATOM     54  C   UNL A   1      47.965  26.611  25.846  1.00  0.00     0.074 A 
ATOM     55  C   UNL A   1      48.212  25.288  25.328  1.00  0.00     0.031 C 
ATOM     56  C   UNL A   1      41.661  26.403  27.205  1.00  0.00     0.029 A 
ATOM     57  C   UNL A   1      42.579  27.515  27.445  1.00  0.00     0.049 A 
ATOM     58  H   UNL A   1      44.584  27.631  26.898  1.00  0.00     0.167 HD
ATOM     59  C   UNL A   1      48.905  27.579  25.922  1.00  0.00     0.037 A 
ATOM     60  C   UNL A   1      42.282  28.679  28.057  1.00  0.00     0.037 A 
ATOM     61  C   UNL A   1      48.653  28.883  26.468  1.00  0.00     0.049 A 
ATOM     62  C   UNL A   1      43.366  29.717  28.222  1.00  0.00     0.074 A 
ATOM     63  C   UNL A   1      49.526  29.945  26.608  1.00  0.00     0.029 A 
ATOM     64  N   UNL A   1      47.431  29.294  26.982  1.00  0.00    -0.354 N 
ATOM     65  N   UNL A   1      44.626  29.666  27.858  1.00  0.00    -0.248 NA
ATOM     66  C   UNL A   1      42.984  30.975  28.876  1.00  0.00     0.031 C 
ATOM     67  C   UNL A   1      48.850  30.975  27.269  1.00  0.00     0.029 A 
ATOM     68  C   UNL A   1      47.534  30.585  27.468  1.00  0.00     0.049 A 
ATOM     69  H   UNL A   1      46.611  28.748  26.999  1.00  0.00     0.167 HD
ATOM     70  C   UNL A   1      45.180  30.892  28.210  1.00  0.00     0.074 A 
ATOM     71  C   UNL A   1      44.112  31.670  28.805  1.00  0.00     0.031 C 
ATOM     72  C   UNL A   1      46.453  31.339  28.055  1.00  0.00     0.037 A 
BRANCH  59  73
ATOM     73  C   UNL A   1      50.287  27.231  25.449  1.00  0.00     0.064 A 
ATOM     74  C   UNL A   1      50.669  27.369  24.104  1.00  0.00     0.173 A 
ATOM     75  C   UNL A   1      51.238  26.726  26.349  1.00  0.00     0.173 A 
ATOM     76  F   UNL A   1      49.791  27.823  23.196  1.00  0.00    -0.203 F 
ATOM     77  C   UNL A   1      51.932  26.975  23.671  1.00  0.00     0.198 A 
ATOM     78  C   UNL A   1      52.514  26.372  25.920  1.00  0.00     0.198 A 
ATOM     79  F   UNL A   1      50.928  26.567  27.643  1.00  0.00    -0.203 F 
ATOM     80  F   UNL A   1      52.245  27.044  22.370  1.00  0.00    -0.200 F 
ATOM     81  C   UNL A   1      52.856  26.483  24.581  1.00  0.00     0.200 A 
ATOM     82  F   UNL A   1      53.410  25.908  26.803  1.00  0.00    -0.200 F 
ATOM     83  F   UNL A   1      54.072  26.104  24.164  1.00  0.00    -0.200 F 
ENDBRANCH  59  73
BRANCH  60  84
ATOM     84  C   UNL A   1      40.910  28.908  28.581  1.00  0.00     0.064 A 
ATOM     85  C   UNL A   1      39.875  29.354  27.748  1.00  0.00     0.173 A 
ATOM     86  C   UNL A   1      40.605  28.684  29.933  1.00  0.00     0.173 A 
ATOM     87  F   UNL A   1      40.119  29.606  26.454  1.00  0.00    -0.203 F 
ATOM     88  C   UNL A   1      38.593  29.580  28.248  1.00  0.00     0.198 A 
ATOM     89  C   UNL A   1      39.316  28.878  30.425  1.00  0.00     0.198 A 
ATOM     90  F   UNL A   1      41.557  28.257  30.775  1.00  0.00    -0.203 F 
ATOM     91  F   UNL A   1      37.634  30.047  27.438  1.00  0.00    -0.200 F 
ATOM     92  C   UNL A   1      38.312  29.333  29.583  1.00  0.00     0.200 A 
ATOM     93  F   UNL A   1      39.046  28.621  31.712  1.00  0.00    -0.200 F 
ATOM     94  F   UNL A   1      37.077  29.538  30.060  1.00  0.00    -0.200 F 
ENDBRANCH  60  84
BRANCH  72  95
ATOM     95  C   UNL A   1      46.753  32.745  28.494  1.00  0.00     0.064 A 
ATOM     96  C   UNL A   1      47.199  33.039  29.790  1.00  0.00     0.173 A 
ATOM     97  C   UNL A   1      46.641  33.807  27.582  1.00  0.00     0.173 A 
ATOM     98  F   UNL A   1      47.314  32.063  30.704  1.00  0.00    -0.203 F 
ATOM     99  C   UNL A   1      47.489  34.348  30.167  1.00  0.00     0.198 A 
ATOM    100  C   UNL A   1      46.971  35.107  27.950  1.00  0.00     0.198 A 
ATOM    101  F   UNL A   1      46.231  33.580  26.325  1.00  0.00    -0.203 F 
ATOM    102  F   UNL A   1      47.860  34.614  31.428  1.00  0.00    -0.200 F 
ATOM    103  C   UNL A   1      47.385  35.379  29.245  1.00  0.00     0.200 A 
ATOM    104  F   UNL A   1      46.890  36.098  27.051  1.00  0.00    -0.200 F 
ATOM    105  F   UNL A   1      47.677  36.636  29.606  1.00  0.00    -0.200 F 
ENDBRANCH  72  95
ENDBRANCH  46  47
ENDBRANCH  39  41
ENDBRANCH  38  39
ENDBRANCH  37  38
ENDBRANCH  36  37
ENDBRANCH  35  36
ENDBRANCH  34  35
ENDBRANCH  33  34
ENDBRANCH  32  33
ENDBRANCH   1  32
TORSDOF 24
ENDMDL
