MODEL 1
REMARK VINA RESULT:     -12.3      0.000      0.000
REMARK SMILES Cc1nc(-c2ccccc2)sc1C(=O)N[C@@H](CC1=c2ccccc2=NC1)C(=O)OCCOCCOCCOCCOC(=O)c1ccc(-c2c3nc(c(-c4c(F)c(F)c(F)c(F)c4F)c4ccc([nH]4)c(-c4c(F)c(F)c(F)c(F)c4F)c4nc(c(-c5c(F)c(F)c(F)c(F)c5F)c5ccc2[nH]5)C=C4)C=C3)cc1
REMARK SMILES IDX 34 1 33 2 32 3 31 4 30 5 29 6 27 7 28 8 16 9 15 10 13 11
REMARK SMILES IDX 14 12 12 14 1 15 2 16 3 17 4 18 11 19 5 20 6 21 10 22 7 23
REMARK SMILES IDX 9 24 8 25 17 26 18 27 19 28 26 29 20 30 24 31 25 32 21 33
REMARK SMILES IDX 23 34 22 35 35 36 36 37 37 38 38 39 39 40 40 41 41 42 42 43
REMARK SMILES IDX 43 44 44 45 45 46 106 47 46 48 105 49 47 50 48 51 49 52
REMARK SMILES IDX 99 53 50 54 104 55 98 56 100 57 51 58 103 59 97 60 96 61
REMARK SMILES IDX 52 63 84 64 64 65 83 66 65 67 68 68 82 69 101 70 66 71 67 72
REMARK SMILES IDX 81 74 102 75 69 76 53 77 54 78 62 79 55 80 56 81 60 82 63 83
REMARK SMILES IDX 57 84 58 85 61 86 59 87 85 88 86 89 94 90 87 91 88 92 92 93
REMARK SMILES IDX 95 94 89 95 90 96 93 97 91 98 70 99 71 100 79 101 72 102
REMARK SMILES IDX 73 103 77 104 80 105 74 106 75 107 78 108 76 109
REMARK H PARENT 15 13 100 62 68 73
REMARK Flexibility Score: inf
ROOT
ATOM      1  C   UNL A   1      38.849  23.084  26.239  1.00  0.00     0.188 C 
ENDROOT
BRANCH   1   2
ATOM      2  C   UNL A   1      37.353  22.882  25.968  1.00  0.00     0.188 C 
BRANCH   2   3
ATOM      3  O   UNL A   1      36.917  21.990  24.955  1.00  0.00    -0.376 OA
BRANCH   3   4
ATOM      4  C   UNL A   1      35.870  22.341  24.060  1.00  0.00     0.202 C 
BRANCH   4   5
ATOM      5  C   UNL A   1      35.612  23.787  23.611  1.00  0.00     0.261 C 
BRANCH   5   6
ATOM      6  O   UNL A   1      34.443  24.400  24.177  1.00  0.00    -0.462 OA
BRANCH   6   7
ATOM      7  C   UNL A   1      33.584  24.951  23.294  1.00  0.00     0.329 C 
ATOM      8  O   UNL A   1      33.837  25.139  22.106  1.00  0.00    -0.250 OA
BRANCH   7   9
ATOM      9  C   UNL A   1      32.238  25.382  23.894  1.00  0.00     0.196 C 
BRANCH   9  10
ATOM     10  N   UNL A   1      31.919  25.323  25.314  1.00  0.00    -0.338 N 
ATOM     11  C   UNL A   1      31.791  24.272  26.203  1.00  0.00     0.264 C 
ATOM     12  O   UNL A   1      31.168  24.585  27.227  1.00  0.00    -0.268 OA
ATOM     13  H   UNL A   1      31.764  26.205  25.721  1.00  0.00     0.164 HD
BRANCH  11  14
ATOM     14  C   UNL A   1      32.404  22.943  26.048  1.00  0.00     0.115 A 
ATOM     15  C   UNL A   1      34.289  22.317  27.818  1.00  0.00     0.068 C 
ATOM     16  C   UNL A   1      33.342  22.130  26.691  1.00  0.00     0.062 A 
ATOM     17  N   UNL A   1      33.437  20.844  26.201  1.00  0.00    -0.241 NA
ATOM     18  C   UNL A   1      32.733  20.672  25.117  1.00  0.00     0.124 A 
ATOM     19  S   UNL A   1      31.807  22.015  24.655  1.00  0.00    -0.108 S 
BRANCH  18  20
ATOM     20  C   UNL A   1      32.804  19.408  24.391  1.00  0.00     0.010 A 
ATOM     21  C   UNL A   1      33.773  18.470  24.784  1.00  0.00     0.011 A 
ATOM     22  C   UNL A   1      32.131  19.224  23.177  1.00  0.00     0.011 A 
ATOM     23  C   UNL A   1      34.093  17.389  23.966  1.00  0.00     0.001 A 
ATOM     24  C   UNL A   1      32.459  18.144  22.354  1.00  0.00     0.001 A 
ATOM     25  C   UNL A   1      33.446  17.236  22.742  1.00  0.00     0.000 A 
ENDBRANCH  18  20
ENDBRANCH  11  14
ENDBRANCH   9  10
BRANCH   9  26
ATOM     26  C   UNL A   1      31.846  26.751  23.317  1.00  0.00     0.070 C 
BRANCH  26  27
ATOM     27  C   UNL A   1      30.397  27.039  23.554  1.00  0.00    -0.037 C 
ATOM     28  C   UNL A   1      29.753  28.180  23.322  1.00  0.00     0.001 A 
ATOM     29  C   UNL A   1      29.439  25.959  23.952  1.00  0.00     0.174 C 
ATOM     30  C   UNL A   1      30.135  29.481  22.876  1.00  0.00     0.010 A 
ATOM     31  C   UNL A   1      28.344  27.776  23.435  1.00  0.00     0.065 A 
ATOM     32  N   UNL A   1      28.091  26.557  23.807  1.00  0.00    -0.280 NA
ATOM     33  C   UNL A   1      29.174  30.341  22.508  1.00  0.00     0.001 A 
ATOM     34  C   UNL A   1      27.343  28.788  23.039  1.00  0.00     0.028 A 
ATOM     35  C   UNL A   1      27.768  29.981  22.585  1.00  0.00     0.002 A 
ENDBRANCH  26  27
ENDBRANCH   9  26
ENDBRANCH   7   9
ENDBRANCH   6   7
ENDBRANCH   5   6
ENDBRANCH   4   5
ENDBRANCH   3   4
ENDBRANCH   2   3
ENDBRANCH   1   2
BRANCH   1  36
ATOM     36  O   UNL A   1      39.694  22.057  25.768  1.00  0.00    -0.377 OA
BRANCH  36  37
ATOM     37  C   UNL A   1      40.364  21.263  26.737  1.00  0.00     0.188 C 
BRANCH  37  38
ATOM     38  C   UNL A   1      40.967  19.904  26.318  1.00  0.00     0.188 C 
BRANCH  38  39
ATOM     39  O   UNL A   1      42.236  19.972  25.690  1.00  0.00    -0.376 OA
BRANCH  39  40
ATOM     40  C   UNL A   1      43.162  20.972  26.087  1.00  0.00     0.202 C 
BRANCH  40  41
ATOM     41  C   UNL A   1      43.755  21.912  25.022  1.00  0.00     0.261 C 
BRANCH  41  42
ATOM     42  O   UNL A   1      43.142  23.203  24.881  1.00  0.00    -0.460 OA
BRANCH  42  43
ATOM     43  C   UNL A   1      43.904  24.301  25.056  1.00  0.00     0.338 C 
ATOM     44  O   UNL A   1      44.923  24.598  24.455  1.00  0.00    -0.246 OA
BRANCH  43  45
ATOM     45  C   UNL A   1      43.175  25.210  25.967  1.00  0.00     0.060 A 
ATOM     46  C   UNL A   1      43.575  26.552  26.049  1.00  0.00     0.016 A 
ATOM     47  C   UNL A   1      42.101  24.747  26.730  1.00  0.00     0.016 A 
ATOM     48  C   UNL A   1      42.927  27.424  26.920  1.00  0.00     0.010 A 
ATOM     49  C   UNL A   1      41.471  25.615  27.627  1.00  0.00     0.010 A 
ATOM     50  C   UNL A   1      41.908  26.947  27.752  1.00  0.00    -0.014 A 
BRANCH  50  51
ATOM     51  C   UNL A   1      41.460  27.771  28.901  1.00  0.00     0.031 A 
ATOM     52  C   UNL A   1      42.231  27.668  30.187  1.00  0.00     0.074 A 
ATOM     53  C   UNL A   1      40.420  28.616  28.801  1.00  0.00     0.049 A 
ATOM     54  N   UNL A   1      42.012  28.244  31.342  1.00  0.00    -0.248 NA
ATOM     55  C   UNL A   1      43.412  26.791  30.168  1.00  0.00     0.031 C 
ATOM     56  C   UNL A   1      39.629  28.845  27.595  1.00  0.00     0.029 A 
ATOM     57  N   UNL A   1      39.847  29.433  29.744  1.00  0.00    -0.354 N 
ATOM     58  C   UNL A   1      43.020  27.793  32.184  1.00  0.00     0.074 A 
ATOM     59  C   UNL A   1      43.831  26.869  31.420  1.00  0.00     0.031 C 
ATOM     60  C   UNL A   1      38.662  29.738  27.874  1.00  0.00     0.029 A 
ATOM     61  C   UNL A   1      38.745  30.112  29.285  1.00  0.00     0.049 A 
ATOM     62  H   UNL A   1      40.193  29.523  30.661  1.00  0.00     0.167 HD
ATOM     63  C   UNL A   1      43.254  28.125  33.476  1.00  0.00     0.037 A 
ATOM     64  C   UNL A   1      37.890  30.920  29.943  1.00  0.00     0.037 A 
ATOM     65  C   UNL A   1      42.440  29.037  34.233  1.00  0.00     0.049 A 
ATOM     66  C   UNL A   1      38.116  31.202  31.408  1.00  0.00     0.074 A 
ATOM     67  C   UNL A   1      42.598  29.450  35.545  1.00  0.00     0.029 A 
ATOM     68  N   UNL A   1      41.305  29.671  33.748  1.00  0.00    -0.354 N 
ATOM     69  N   UNL A   1      39.080  30.790  32.195  1.00  0.00    -0.248 NA
ATOM     70  C   UNL A   1      37.130  32.063  32.076  1.00  0.00     0.031 C 
ATOM     71  C   UNL A   1      41.522  30.280  35.873  1.00  0.00     0.029 A 
ATOM     72  C   UNL A   1      40.731  30.444  34.746  1.00  0.00     0.049 A 
ATOM     73  H   UNL A   1      40.957  29.584  32.832  1.00  0.00     0.167 HD
ATOM     74  C   UNL A   1      38.837  31.365  33.436  1.00  0.00     0.074 A 
ATOM     75  C   UNL A   1      37.641  32.168  33.295  1.00  0.00     0.031 C 
ATOM     76  C   UNL A   1      39.542  31.243  34.590  1.00  0.00     0.037 A 
BRANCH  63  77
ATOM     77  C   UNL A   1      44.416  27.461  34.159  1.00  0.00     0.064 A 
ATOM     78  C   UNL A   1      44.282  26.236  34.830  1.00  0.00     0.173 A 
ATOM     79  C   UNL A   1      45.686  28.056  34.129  1.00  0.00     0.173 A 
ATOM     80  F   UNL A   1      43.086  25.633  34.904  1.00  0.00    -0.203 F 
ATOM     81  C   UNL A   1      45.369  25.649  35.475  1.00  0.00     0.198 A 
ATOM     82  C   UNL A   1      46.778  27.448  34.744  1.00  0.00     0.198 A 
ATOM     83  F   UNL A   1      45.872  29.225  33.500  1.00  0.00    -0.203 F 
ATOM     84  F   UNL A   1      45.203  24.510  36.160  1.00  0.00    -0.200 F 
ATOM     85  C   UNL A   1      46.617  26.251  35.424  1.00  0.00     0.200 A 
ATOM     86  F   UNL A   1      47.986  28.025  34.681  1.00  0.00    -0.200 F 
ATOM     87  F   UNL A   1      47.662  25.684  36.041  1.00  0.00    -0.200 F 
ENDBRANCH  63  77
BRANCH  64  88
ATOM     88  C   UNL A   1      36.728  31.513  29.227  1.00  0.00     0.064 A 
ATOM     89  C   UNL A   1      36.690  32.879  28.916  1.00  0.00     0.173 A 
ATOM     90  C   UNL A   1      35.621  30.731  28.862  1.00  0.00     0.173 A 
ATOM     91  F   UNL A   1      37.710  33.675  29.270  1.00  0.00    -0.203 F 
ATOM     92  C   UNL A   1      35.583  33.444  28.285  1.00  0.00     0.198 A 
ATOM     93  C   UNL A   1      34.528  31.292  28.204  1.00  0.00     0.198 A 
ATOM     94  F   UNL A   1      35.602  29.420  29.144  1.00  0.00    -0.203 F 
ATOM     95  F   UNL A   1      35.551  34.763  28.047  1.00  0.00    -0.200 F 
ATOM     96  C   UNL A   1      34.507  32.648  27.923  1.00  0.00     0.200 A 
ATOM     97  F   UNL A   1      33.493  30.517  27.851  1.00  0.00    -0.200 F 
ATOM     98  F   UNL A   1      33.442  33.193  27.316  1.00  0.00    -0.200 F 
ENDBRANCH  64  88
BRANCH  76  99
ATOM     99  C   UNL A   1      39.066  32.025  35.783  1.00  0.00     0.064 A 
ATOM    100  C   UNL A   1      38.245  31.450  36.766  1.00  0.00     0.173 A 
ATOM    101  C   UNL A   1      39.473  33.356  35.967  1.00  0.00     0.173 A 
ATOM    102  F   UNL A   1      37.817  30.187  36.634  1.00  0.00    -0.203 F 
ATOM    103  C   UNL A   1      37.829  32.188  37.872  1.00  0.00     0.198 A 
ATOM    104  C   UNL A   1      39.085  34.078  37.092  1.00  0.00     0.198 A 
ATOM    105  F   UNL A   1      40.266  33.952  35.064  1.00  0.00    -0.203 F 
ATOM    106  F   UNL A   1      37.002  31.635  38.771  1.00  0.00    -0.200 F 
ATOM    107  C   UNL A   1      38.254  33.497  38.038  1.00  0.00     0.200 A 
ATOM    108  F   UNL A   1      39.514  35.336  37.260  1.00  0.00    -0.200 F 
ATOM    109  F   UNL A   1      37.861  34.202  39.108  1.00  0.00    -0.200 F 
ENDBRANCH  76  99
ENDBRANCH  50  51
ENDBRANCH  43  45
ENDBRANCH  42  43
ENDBRANCH  41  42
ENDBRANCH  40  41
ENDBRANCH  39  40
ENDBRANCH  38  39
ENDBRANCH  37  38
ENDBRANCH  36  37
ENDBRANCH   1  36
TORSDOF 25
ENDMDL
MODEL 2
REMARK VINA RESULT:     -12.1      0.913      1.607
REMARK SMILES Cc1nc(-c2ccccc2)sc1C(=O)N[C@@H](CC1=c2ccccc2=NC1)C(=O)OCCOCCOCCOCCOC(=O)c1ccc(-c2c3nc(c(-c4c(F)c(F)c(F)c(F)c4F)c4ccc([nH]4)c(-c4c(F)c(F)c(F)c(F)c4F)c4nc(c(-c5c(F)c(F)c(F)c(F)c5F)c5ccc2[nH]5)C=C4)C=C3)cc1
REMARK SMILES IDX 34 1 33 2 32 3 31 4 30 5 29 6 27 7 28 8 16 9 15 10 13 11
REMARK SMILES IDX 14 12 12 14 1 15 2 16 3 17 4 18 11 19 5 20 6 21 10 22 7 23
REMARK SMILES IDX 9 24 8 25 17 26 18 27 19 28 26 29 20 30 24 31 25 32 21 33
REMARK SMILES IDX 23 34 22 35 35 36 36 37 37 38 38 39 39 40 40 41 41 42 42 43
REMARK SMILES IDX 43 44 44 45 45 46 106 47 46 48 105 49 47 50 48 51 49 52
REMARK SMILES IDX 99 53 50 54 104 55 98 56 100 57 51 58 103 59 97 60 96 61
REMARK SMILES IDX 52 63 84 64 64 65 83 66 65 67 68 68 82 69 101 70 66 71 67 72
REMARK SMILES IDX 81 74 102 75 69 76 53 77 54 78 62 79 55 80 56 81 60 82 63 83
REMARK SMILES IDX 57 84 58 85 61 86 59 87 85 88 86 89 94 90 87 91 88 92 92 93
REMARK SMILES IDX 95 94 89 95 90 96 93 97 91 98 70 99 71 100 79 101 72 102
REMARK SMILES IDX 73 103 77 104 80 105 74 106 75 107 78 108 76 109
REMARK H PARENT 15 13 100 62 68 73
REMARK Flexibility Score: inf
ROOT
ATOM      1  C   UNL A   1      38.874  22.442  26.184  1.00  0.00     0.188 C 
ENDROOT
BRANCH   1   2
ATOM      2  C   UNL A   1      37.493  21.923  25.764  1.00  0.00     0.188 C 
BRANCH   2   3
ATOM      3  O   UNL A   1      37.227  21.597  24.408  1.00  0.00    -0.376 OA
BRANCH   3   4
ATOM      4  C   UNL A   1      36.814  22.587  23.476  1.00  0.00     0.202 C 
BRANCH   4   5
ATOM      5  C   UNL A   1      36.286  23.964  23.906  1.00  0.00     0.261 C 
BRANCH   5   6
ATOM      6  O   UNL A   1      34.921  23.979  24.353  1.00  0.00    -0.462 OA
BRANCH   6   7
ATOM      7  C   UNL A   1      34.087  24.783  23.662  1.00  0.00     0.329 C 
ATOM      8  O   UNL A   1      34.260  25.122  22.493  1.00  0.00    -0.250 OA
BRANCH   7   9
ATOM      9  C   UNL A   1      32.888  25.304  24.467  1.00  0.00     0.196 C 
BRANCH   9  10
ATOM     10  N   UNL A   1      32.450  24.744  25.738  1.00  0.00    -0.338 N 
ATOM     11  C   UNL A   1      31.945  23.507  26.093  1.00  0.00     0.264 C 
ATOM     12  O   UNL A   1      31.360  23.524  27.184  1.00  0.00    -0.268 OA
ATOM     13  H   UNL A   1      32.528  25.369  26.494  1.00  0.00     0.164 HD
BRANCH  11  14
ATOM     14  C   UNL A   1      32.150  22.255  25.346  1.00  0.00     0.115 A 
ATOM     15  C   UNL A   1      31.610  22.350  22.742  1.00  0.00     0.068 C 
ATOM     16  C   UNL A   1      32.080  21.785  24.032  1.00  0.00     0.062 A 
ATOM     17  N   UNL A   1      32.554  20.503  23.842  1.00  0.00    -0.241 NA
ATOM     18  C   UNL A   1      32.840  19.908  24.965  1.00  0.00     0.124 A 
ATOM     19  S   UNL A   1      32.669  20.879  26.344  1.00  0.00    -0.108 S 
BRANCH  18  20
ATOM     20  C   UNL A   1      33.244  18.505  24.969  1.00  0.00     0.010 A 
ATOM     21  C   UNL A   1      33.880  17.995  23.825  1.00  0.00     0.011 A 
ATOM     22  C   UNL A   1      32.786  17.615  25.948  1.00  0.00     0.011 A 
ATOM     23  C   UNL A   1      34.023  16.621  23.641  1.00  0.00     0.001 A 
ATOM     24  C   UNL A   1      32.923  16.238  25.757  1.00  0.00     0.001 A 
ATOM     25  C   UNL A   1      33.528  15.742  24.601  1.00  0.00     0.000 A 
ENDBRANCH  18  20
ENDBRANCH  11  14
ENDBRANCH   9  10
BRANCH   9  26
ATOM     26  C   UNL A   1      32.971  26.836  24.561  1.00  0.00     0.070 C 
BRANCH  26  27
ATOM     27  C   UNL A   1      31.719  27.475  24.049  1.00  0.00    -0.037 C 
ATOM     28  C   UNL A   1      31.196  28.639  24.425  1.00  0.00     0.001 A 
ATOM     29  C   UNL A   1      30.972  26.909  22.880  1.00  0.00     0.174 C 
ATOM     30  C   UNL A   1      31.520  29.618  25.412  1.00  0.00     0.010 A 
ATOM     31  C   UNL A   1      30.188  28.883  23.384  1.00  0.00     0.065 A 
ATOM     32  N   UNL A   1      29.990  27.951  22.501  1.00  0.00    -0.280 NA
ATOM     33  C   UNL A   1      30.915  30.813  25.352  1.00  0.00     0.001 A 
ATOM     34  C   UNL A   1      29.543  30.213  23.402  1.00  0.00     0.028 A 
ATOM     35  C   UNL A   1      29.924  31.109  24.330  1.00  0.00     0.002 A 
ENDBRANCH  26  27
ENDBRANCH   9  26
ENDBRANCH   7   9
ENDBRANCH   6   7
ENDBRANCH   5   6
ENDBRANCH   4   5
ENDBRANCH   3   4
ENDBRANCH   2   3
ENDBRANCH   1   2
BRANCH   1  36
ATOM     36  O   UNL A   1      39.973  21.704  25.695  1.00  0.00    -0.377 OA
BRANCH  36  37
ATOM     37  C   UNL A   1      40.672  20.881  26.619  1.00  0.00     0.188 C 
BRANCH  37  38
ATOM     38  C   UNL A   1      41.308  19.562  26.126  1.00  0.00     0.188 C 
BRANCH  38  39
ATOM     39  O   UNL A   1      42.629  19.677  25.624  1.00  0.00    -0.376 OA
BRANCH  39  40
ATOM     40  C   UNL A   1      43.408  20.819  25.955  1.00  0.00     0.202 C 
BRANCH  40  41
ATOM     41  C   UNL A   1      43.758  21.833  24.852  1.00  0.00     0.261 C 
BRANCH  41  42
ATOM     42  O   UNL A   1      43.076  23.097  24.890  1.00  0.00    -0.460 OA
BRANCH  42  43
ATOM     43  C   UNL A   1      43.809  24.221  25.009  1.00  0.00     0.338 C 
ATOM     44  O   UNL A   1      44.795  24.534  24.362  1.00  0.00    -0.246 OA
BRANCH  43  45
ATOM     45  C   UNL A   1      43.087  25.130  25.925  1.00  0.00     0.060 A 
ATOM     46  C   UNL A   1      43.497  26.469  26.014  1.00  0.00     0.016 A 
ATOM     47  C   UNL A   1      42.010  24.671  26.685  1.00  0.00     0.016 A 
ATOM     48  C   UNL A   1      42.856  27.342  26.890  1.00  0.00     0.010 A 
ATOM     49  C   UNL A   1      41.386  25.539  27.587  1.00  0.00     0.010 A 
ATOM     50  C   UNL A   1      41.832  26.867  27.719  1.00  0.00    -0.014 A 
BRANCH  50  51
ATOM     51  C   UNL A   1      41.390  27.688  28.872  1.00  0.00     0.031 A 
ATOM     52  C   UNL A   1      42.162  27.573  30.158  1.00  0.00     0.074 A 
ATOM     53  C   UNL A   1      40.356  28.541  28.778  1.00  0.00     0.049 A 
ATOM     54  N   UNL A   1      41.946  28.145  31.316  1.00  0.00    -0.248 NA
ATOM     55  C   UNL A   1      43.336  26.688  30.134  1.00  0.00     0.031 C 
ATOM     56  C   UNL A   1      39.567  28.782  27.572  1.00  0.00     0.029 A 
ATOM     57  N   UNL A   1      39.789  29.357  29.725  1.00  0.00    -0.354 N 
ATOM     58  C   UNL A   1      42.951  27.682  32.155  1.00  0.00     0.074 A 
ATOM     59  C   UNL A   1      43.756  26.757  31.387  1.00  0.00     0.031 C 
ATOM     60  C   UNL A   1      38.607  29.680  27.856  1.00  0.00     0.029 A 
ATOM     61  C   UNL A   1      38.692  30.046  29.270  1.00  0.00     0.049 A 
ATOM     62  H   UNL A   1      40.136  29.440  30.642  1.00  0.00     0.167 HD
ATOM     63  C   UNL A   1      43.188  28.005  33.449  1.00  0.00     0.037 A 
ATOM     64  C   UNL A   1      37.843  30.856  29.932  1.00  0.00     0.037 A 
ATOM     65  C   UNL A   1      42.380  28.919  34.211  1.00  0.00     0.049 A 
ATOM     66  C   UNL A   1      38.071  31.129  31.398  1.00  0.00     0.074 A 
ATOM     67  C   UNL A   1      42.541  29.324  35.525  1.00  0.00     0.029 A 
ATOM     68  N   UNL A   1      41.249  29.563  33.730  1.00  0.00    -0.354 N 
ATOM     69  N   UNL A   1      39.032  30.706  32.183  1.00  0.00    -0.248 NA
ATOM     70  C   UNL A   1      37.091  31.994  32.071  1.00  0.00     0.031 C 
ATOM     71  C   UNL A   1      41.471  30.160  35.858  1.00  0.00     0.029 A 
ATOM     72  C   UNL A   1      40.682  30.335  34.732  1.00  0.00     0.049 A 
ATOM     73  H   UNL A   1      40.901  29.484  32.813  1.00  0.00     0.167 HD
ATOM     74  C   UNL A   1      38.794  31.277  33.427  1.00  0.00     0.074 A 
ATOM     75  C   UNL A   1      37.603  32.088  33.291  1.00  0.00     0.031 C 
ATOM     76  C   UNL A   1      39.498  31.143  34.580  1.00  0.00     0.037 A 
BRANCH  63  77
ATOM     77  C   UNL A   1      44.345  27.330  34.129  1.00  0.00     0.064 A 
ATOM     78  C   UNL A   1      45.626  27.902  34.157  1.00  0.00     0.173 A 
ATOM     79  C   UNL A   1      44.164  26.096  34.773  1.00  0.00     0.173 A 
ATOM     80  F   UNL A   1      45.858  29.072  33.543  1.00  0.00    -0.203 F 
ATOM     81  C   UNL A   1      46.689  27.248  34.776  1.00  0.00     0.198 A 
ATOM     82  C   UNL A   1      45.221  25.463  35.421  1.00  0.00     0.198 A 
ATOM     83  F   UNL A   1      42.960  25.506  34.779  1.00  0.00    -0.203 F 
ATOM     84  F   UNL A   1      47.916  27.785  34.739  1.00  0.00    -0.200 F 
ATOM     85  C   UNL A   1      46.484  26.034  35.414  1.00  0.00     0.200 A 
ATOM     86  F   UNL A   1      45.017  24.297  36.049  1.00  0.00    -0.200 F 
ATOM     87  F   UNL A   1      47.507  25.408  36.012  1.00  0.00    -0.200 F 
ENDBRANCH  63  77
BRANCH  64  88
ATOM     88  C   UNL A   1      36.685  31.461  29.219  1.00  0.00     0.064 A 
ATOM     89  C   UNL A   1      36.664  32.826  28.899  1.00  0.00     0.173 A 
ATOM     90  C   UNL A   1      35.565  30.693  28.867  1.00  0.00     0.173 A 
ATOM     91  F   UNL A   1      37.698  33.610  29.242  1.00  0.00    -0.203 F 
ATOM     92  C   UNL A   1      35.561  33.403  28.272  1.00  0.00     0.198 A 
ATOM     93  C   UNL A   1      34.476  31.265  28.211  1.00  0.00     0.198 A 
ATOM     94  F   UNL A   1      35.529  29.384  29.157  1.00  0.00    -0.203 F 
ATOM     95  F   UNL A   1      35.547  34.720  28.026  1.00  0.00    -0.200 F 
ATOM     96  C   UNL A   1      34.472  32.620  27.922  1.00  0.00     0.200 A 
ATOM     97  F   UNL A   1      33.428  30.503  27.870  1.00  0.00    -0.200 F 
ATOM     98  F   UNL A   1      33.412  33.176  27.318  1.00  0.00    -0.200 F 
ENDBRANCH  64  88
BRANCH  76  99
ATOM     99  C   UNL A   1      39.027  31.922  35.778  1.00  0.00     0.064 A 
ATOM    100  C   UNL A   1      38.204  31.348  36.758  1.00  0.00     0.173 A 
ATOM    101  C   UNL A   1      39.442  33.250  35.968  1.00  0.00     0.173 A 
ATOM    102  F   UNL A   1      37.768  30.087  36.621  1.00  0.00    -0.203 F 
ATOM    103  C   UNL A   1      37.793  32.082  37.868  1.00  0.00     0.198 A 
ATOM    104  C   UNL A   1      39.059  33.968  37.097  1.00  0.00     0.198 A 
ATOM    105  F   UNL A   1      40.238  33.846  35.067  1.00  0.00    -0.203 F 
ATOM    106  F   UNL A   1      36.964  31.530  38.765  1.00  0.00    -0.200 F 
ATOM    107  C   UNL A   1      38.226  33.388  38.040  1.00  0.00     0.200 A 
ATOM    108  F   UNL A   1      39.496  35.223  37.270  1.00  0.00    -0.200 F 
ATOM    109  F   UNL A   1      37.838  34.090  39.114  1.00  0.00    -0.200 F 
ENDBRANCH  76  99
ENDBRANCH  50  51
ENDBRANCH  43  45
ENDBRANCH  42  43
ENDBRANCH  41  42
ENDBRANCH  40  41
ENDBRANCH  39  40
ENDBRANCH  38  39
ENDBRANCH  37  38
ENDBRANCH  36  37
ENDBRANCH   1  36
TORSDOF 25
ENDMDL
MODEL 3
REMARK VINA RESULT:     -10.7      6.745     11.070
REMARK SMILES Cc1nc(-c2ccccc2)sc1C(=O)N[C@@H](CC1=c2ccccc2=NC1)C(=O)OCCOCCOCCOCCOC(=O)c1ccc(-c2c3nc(c(-c4c(F)c(F)c(F)c(F)c4F)c4ccc([nH]4)c(-c4c(F)c(F)c(F)c(F)c4F)c4nc(c(-c5c(F)c(F)c(F)c(F)c5F)c5ccc2[nH]5)C=C4)C=C3)cc1
REMARK SMILES IDX 34 1 33 2 32 3 31 4 30 5 29 6 27 7 28 8 16 9 15 10 13 11
REMARK SMILES IDX 14 12 12 14 1 15 2 16 3 17 4 18 11 19 5 20 6 21 10 22 7 23
REMARK SMILES IDX 9 24 8 25 17 26 18 27 19 28 26 29 20 30 24 31 25 32 21 33
REMARK SMILES IDX 23 34 22 35 35 36 36 37 37 38 38 39 39 40 40 41 41 42 42 43
REMARK SMILES IDX 43 44 44 45 45 46 106 47 46 48 105 49 47 50 48 51 49 52
REMARK SMILES IDX 99 53 50 54 104 55 98 56 100 57 51 58 103 59 97 60 96 61
REMARK SMILES IDX 52 63 84 64 64 65 83 66 65 67 68 68 82 69 101 70 66 71 67 72
REMARK SMILES IDX 81 74 102 75 69 76 53 77 54 78 62 79 55 80 56 81 60 82 63 83
REMARK SMILES IDX 57 84 58 85 61 86 59 87 85 88 86 89 94 90 87 91 88 92 92 93
REMARK SMILES IDX 95 94 89 95 90 96 93 97 91 98 70 99 71 100 79 101 72 102
REMARK SMILES IDX 73 103 77 104 80 105 74 106 75 107 78 108 76 109
REMARK H PARENT 15 13 100 62 68 73
REMARK Flexibility Score: inf
ROOT
ATOM      1  C   UNL A   1      37.767  23.677  25.559  1.00  0.00     0.188 C 
ENDROOT
BRANCH   1   2
ATOM      2  C   UNL A   1      36.806  22.537  25.198  1.00  0.00     0.188 C 
BRANCH   2   3
ATOM      3  O   UNL A   1      36.317  22.398  23.873  1.00  0.00    -0.376 OA
BRANCH   3   4
ATOM      4  C   UNL A   1      35.033  22.880  23.504  1.00  0.00     0.202 C 
BRANCH   4   5
ATOM      5  C   UNL A   1      34.665  24.371  23.534  1.00  0.00     0.261 C 
BRANCH   5   6
ATOM      6  O   UNL A   1      33.308  24.655  23.908  1.00  0.00    -0.462 OA
BRANCH   6   7
ATOM      7  C   UNL A   1      33.150  25.398  25.023  1.00  0.00     0.329 C 
ATOM      8  O   UNL A   1      34.077  25.833  25.704  1.00  0.00    -0.250 OA
BRANCH   7   9
ATOM      9  C   UNL A   1      31.689  25.642  25.428  1.00  0.00     0.196 C 
BRANCH   9  10
ATOM     10  N   UNL A   1      30.988  24.884  26.456  1.00  0.00    -0.338 N 
ATOM     11  C   UNL A   1      30.943  23.537  26.760  1.00  0.00     0.264 C 
ATOM     12  O   UNL A   1      29.970  23.238  27.466  1.00  0.00    -0.268 OA
ATOM     13  H   UNL A   1      30.437  25.442  27.050  1.00  0.00     0.164 HD
BRANCH  11  14
ATOM     14  C   UNL A   1      31.972  22.547  26.404  1.00  0.00     0.115 A 
ATOM     15  C   UNL A   1      34.201  22.610  27.856  1.00  0.00     0.068 C 
ATOM     16  C   UNL A   1      33.230  22.124  26.844  1.00  0.00     0.062 A 
ATOM     17  N   UNL A   1      33.717  20.991  26.227  1.00  0.00    -0.241 NA
ATOM     18  C   UNL A   1      32.970  20.609  25.229  1.00  0.00     0.124 A 
ATOM     19  S   UNL A   1      31.556  21.519  25.015  1.00  0.00    -0.108 S 
BRANCH  18  20
ATOM     20  C   UNL A   1      33.391  19.497  24.383  1.00  0.00     0.010 A 
ATOM     21  C   UNL A   1      32.481  19.005  23.432  1.00  0.00     0.011 A 
ATOM     22  C   UNL A   1      34.543  18.756  24.669  1.00  0.00     0.011 A 
ATOM     23  C   UNL A   1      32.695  17.779  22.806  1.00  0.00     0.001 A 
ATOM     24  C   UNL A   1      34.752  17.522  24.047  1.00  0.00     0.001 A 
ATOM     25  C   UNL A   1      33.824  17.030  23.128  1.00  0.00     0.000 A 
ENDBRANCH  18  20
ENDBRANCH  11  14
ENDBRANCH   9  10
BRANCH   9  26
ATOM     26  C   UNL A   1      31.469  27.150  25.634  1.00  0.00     0.070 C 
BRANCH  26  27
ATOM     27  C   UNL A   1      31.389  27.866  24.323  1.00  0.00    -0.037 C 
ATOM     28  C   UNL A   1      30.293  28.161  23.631  1.00  0.00     0.001 A 
ATOM     29  C   UNL A   1      32.597  28.496  23.700  1.00  0.00     0.174 C 
ATOM     30  C   UNL A   1      28.900  27.888  23.784  1.00  0.00     0.010 A 
ATOM     31  C   UNL A   1      30.796  29.116  22.633  1.00  0.00     0.065 A 
ATOM     32  N   UNL A   1      32.076  29.334  22.596  1.00  0.00    -0.280 NA
ATOM     33  C   UNL A   1      28.026  28.561  23.021  1.00  0.00     0.001 A 
ATOM     34  C   UNL A   1      29.774  29.795  21.810  1.00  0.00     0.028 A 
ATOM     35  C   UNL A   1      28.475  29.528  22.033  1.00  0.00     0.002 A 
ENDBRANCH  26  27
ENDBRANCH   9  26
ENDBRANCH   7   9
ENDBRANCH   6   7
ENDBRANCH   5   6
ENDBRANCH   4   5
ENDBRANCH   3   4
ENDBRANCH   2   3
ENDBRANCH   1   2
BRANCH   1  36
ATOM     36  O   UNL A   1      38.979  23.280  26.163  1.00  0.00    -0.377 OA
BRANCH  36  37
ATOM     37  C   UNL A   1      39.064  21.947  26.646  1.00  0.00     0.188 C 
BRANCH  37  38
ATOM     38  C   UNL A   1      39.762  20.872  25.784  1.00  0.00     0.188 C 
BRANCH  38  39
ATOM     39  O   UNL A   1      40.568  19.950  26.499  1.00  0.00    -0.376 OA
BRANCH  39  40
ATOM     40  C   UNL A   1      41.746  20.406  27.148  1.00  0.00     0.202 C 
BRANCH  40  41
ATOM     41  C   UNL A   1      42.639  21.441  26.441  1.00  0.00     0.261 C 
BRANCH  41  42
ATOM     42  O   UNL A   1      42.487  22.812  26.841  1.00  0.00    -0.460 OA
BRANCH  42  43
ATOM     43  C   UNL A   1      42.921  23.179  28.063  1.00  0.00     0.338 C 
ATOM     44  O   UNL A   1      42.847  22.538  29.098  1.00  0.00    -0.246 OA
BRANCH  43  45
ATOM     45  C   UNL A   1      43.707  24.421  27.904  1.00  0.00     0.060 A 
ATOM     46  C   UNL A   1      43.994  24.881  26.611  1.00  0.00     0.016 A 
ATOM     47  C   UNL A   1      44.151  25.133  29.020  1.00  0.00     0.016 A 
ATOM     48  C   UNL A   1      44.758  26.032  26.429  1.00  0.00     0.010 A 
ATOM     49  C   UNL A   1      44.944  26.271  28.838  1.00  0.00     0.010 A 
ATOM     50  C   UNL A   1      45.280  26.702  27.542  1.00  0.00    -0.014 A 
BRANCH  50  51
ATOM     51  C   UNL A   1      46.356  27.705  27.348  1.00  0.00     0.031 A 
ATOM     52  C   UNL A   1      45.964  29.155  27.269  1.00  0.00     0.074 A 
ATOM     53  C   UNL A   1      47.649  27.349  27.279  1.00  0.00     0.049 A 
ATOM     54  N   UNL A   1      46.707  30.211  27.056  1.00  0.00    -0.248 NA
ATOM     55  C   UNL A   1      44.535  29.452  27.454  1.00  0.00     0.031 C 
ATOM     56  C   UNL A   1      48.159  25.985  27.398  1.00  0.00     0.029 A 
ATOM     57  N   UNL A   1      48.771  28.115  27.081  1.00  0.00    -0.354 N 
ATOM     58  C   UNL A   1      45.835  31.292  27.073  1.00  0.00     0.074 A 
ATOM     59  C   UNL A   1      44.505  30.764  27.282  1.00  0.00     0.031 C 
ATOM     60  C   UNL A   1      49.497  26.009  27.258  1.00  0.00     0.029 A 
ATOM     61  C   UNL A   1      49.930  27.382  27.003  1.00  0.00     0.049 A 
ATOM     62  H   UNL A   1      48.747  29.096  27.002  1.00  0.00     0.167 HD
ATOM     63  C   UNL A   1      46.120  32.609  26.934  1.00  0.00     0.037 A 
ATOM     64  C   UNL A   1      51.189  27.779  26.731  1.00  0.00     0.037 A 
ATOM     65  C   UNL A   1      47.443  33.129  26.718  1.00  0.00     0.049 A 
ATOM     66  C   UNL A   1      51.468  29.242  26.487  1.00  0.00     0.074 A 
ATOM     67  C   UNL A   1      47.840  34.447  26.577  1.00  0.00     0.029 A 
ATOM     68  N   UNL A   1      48.587  32.352  26.600  1.00  0.00    -0.354 N 
ATOM     69  N   UNL A   1      50.646  30.263  26.524  1.00  0.00    -0.248 NA
ATOM     70  C   UNL A   1      52.855  29.606  26.162  1.00  0.00     0.031 C 
ATOM     71  C   UNL A   1      49.212  34.463  26.307  1.00  0.00     0.029 A 
ATOM     72  C   UNL A   1      49.685  33.161  26.352  1.00  0.00     0.049 A 
ATOM     73  H   UNL A   1      48.614  31.372  26.680  1.00  0.00     0.167 HD
ATOM     74  C   UNL A   1      51.417  31.388  26.261  1.00  0.00     0.074 A 
ATOM     75  C   UNL A   1      52.778  30.927  26.080  1.00  0.00     0.031 C 
ATOM     76  C   UNL A   1      51.036  32.688  26.179  1.00  0.00     0.037 A 
BRANCH  63  77
ATOM     77  C   UNL A   1      44.966  33.572  26.972  1.00  0.00     0.064 A 
ATOM     78  C   UNL A   1      44.226  33.888  25.823  1.00  0.00     0.173 A 
ATOM     79  C   UNL A   1      44.590  34.175  28.181  1.00  0.00     0.173 A 
ATOM     80  F   UNL A   1      44.554  33.352  24.638  1.00  0.00    -0.203 F 
ATOM     81  C   UNL A   1      43.173  34.799  25.878  1.00  0.00     0.198 A 
ATOM     82  C   UNL A   1      43.515  35.058  28.239  1.00  0.00     0.198 A 
ATOM     83  F   UNL A   1      45.262  33.907  29.311  1.00  0.00    -0.203 F 
ATOM     84  F   UNL A   1      42.519  35.131  24.757  1.00  0.00    -0.200 F 
ATOM     85  C   UNL A   1      42.814  35.377  27.086  1.00  0.00     0.200 A 
ATOM     86  F   UNL A   1      43.161  35.604  29.410  1.00  0.00    -0.200 F 
ATOM     87  F   UNL A   1      41.799  36.250  27.138  1.00  0.00    -0.200 F 
ENDBRANCH  63  77
BRANCH  64  88
ATOM     88  C   UNL A   1      52.286  26.775  26.660  1.00  0.00     0.064 A 
ATOM     89  C   UNL A   1      53.205  26.632  27.708  1.00  0.00     0.173 A 
ATOM     90  C   UNL A   1      52.452  25.958  25.532  1.00  0.00     0.173 A 
ATOM     91  F   UNL A   1      53.107  27.412  28.796  1.00  0.00    -0.203 F 
ATOM     92  C   UNL A   1      54.259  25.724  27.623  1.00  0.00     0.198 A 
ATOM     93  C   UNL A   1      53.487  25.028  25.462  1.00  0.00     0.198 A 
ATOM     94  F   UNL A   1      51.605  26.060  24.497  1.00  0.00    -0.203 F 
ATOM     95  F   UNL A   1      55.154  25.645  28.618  1.00  0.00    -0.200 F 
ATOM     96  C   UNL A   1      54.394  24.917  26.504  1.00  0.00     0.200 A 
ATOM     97  F   UNL A   1      53.610  24.247  24.380  1.00  0.00    -0.200 F 
ATOM     98  F   UNL A   1      55.408  24.044  26.423  1.00  0.00    -0.200 F 
ENDBRANCH  64  88
BRANCH  76  99
ATOM     99  C   UNL A   1      52.105  33.713  25.921  1.00  0.00     0.064 A 
ATOM    100  C   UNL A   1      52.824  34.314  26.966  1.00  0.00     0.173 A 
ATOM    101  C   UNL A   1      52.446  34.067  24.606  1.00  0.00     0.173 A 
ATOM    102  F   UNL A   1      52.532  34.021  28.242  1.00  0.00    -0.203 F 
ATOM    103  C   UNL A   1      53.822  35.249  26.704  1.00  0.00     0.198 A 
ATOM    104  C   UNL A   1      53.469  34.975  24.347  1.00  0.00     0.198 A 
ATOM    105  F   UNL A   1      51.799  33.516  23.567  1.00  0.00    -0.203 F 
ATOM    106  F   UNL A   1      54.459  35.849  27.720  1.00  0.00    -0.200 F 
ATOM    107  C   UNL A   1      54.149  35.573  25.396  1.00  0.00     0.200 A 
ATOM    108  F   UNL A   1      53.796  35.270  23.082  1.00  0.00    -0.200 F 
ATOM    109  F   UNL A   1      55.117  36.466  25.146  1.00  0.00    -0.200 F 
ENDBRANCH  76  99
ENDBRANCH  50  51
ENDBRANCH  43  45
ENDBRANCH  42  43
ENDBRANCH  41  42
ENDBRANCH  40  41
ENDBRANCH  39  40
ENDBRANCH  38  39
ENDBRANCH  37  38
ENDBRANCH  36  37
ENDBRANCH   1  36
TORSDOF 25
ENDMDL
