MODEL 1
REMARK VINA RESULT:      -9.5      0.000      0.000
REMARK SMILES CC[C@](C)(NC(=O)NC[C@@H](C)[NH+](C)C)C(=O)OCCOCCOCCOCCOC(=O)c1ccc(-c2c3nc(c(-c4c(F)c(F)c(F)c(F)c4F)c4ccc([nH]4)c(-c4c(F)c(F)c(F)c(F)c4F)c4nc(c(-c5c(F)c(F)c(F)c(F)c5F)c5ccc2[nH]5)C=C4)C=C3)cc1
REMARK SMILES IDX 22 1 21 2 20 3 19 4 18 5 17 6 15 7 16 8 3 9 4 10 2 11 1 12
REMARK SMILES IDX 5 13 6 14 7 16 8 17 9 19 10 20 11 21 12 22 13 23 14 24 23 26
REMARK SMILES IDX 24 27 25 28 26 29 27 30 28 31 29 32 30 33 31 34 32 35 33 36
REMARK SMILES IDX 94 37 34 38 93 39 35 40 36 41 37 42 87 43 38 44 92 45 86 46
REMARK SMILES IDX 88 47 39 48 91 49 85 50 84 51 40 53 72 54 52 55 71 56 53 57
REMARK SMILES IDX 56 58 70 59 89 60 54 61 55 62 69 64 90 65 57 66 41 67 42 68
REMARK SMILES IDX 50 69 43 70 44 71 48 72 51 73 45 74 46 75 49 76 47 77 73 78
REMARK SMILES IDX 74 79 82 80 75 81 76 82 80 83 83 84 77 85 78 86 81 87 79 88
REMARK SMILES IDX 58 89 59 90 67 91 60 92 61 93 65 94 68 95 62 96 63 97 66 98
REMARK SMILES IDX 64 99
REMARK H PARENT 5 15 8 18 12 25 88 52 56 63
REMARK Flexibility Score: inf
ROOT
ATOM      1  C   UNL A   1      32.703  30.805  26.866  1.00  0.00     0.188 C 
ENDROOT
BRANCH   1   2
ATOM      2  C   UNL A   1      31.728  29.662  27.215  1.00  0.00     0.188 C 
BRANCH   2   3
ATOM      3  O   UNL A   1      31.954  28.365  26.676  1.00  0.00    -0.376 OA
BRANCH   3   4
ATOM      4  C   UNL A   1      33.239  28.105  26.115  1.00  0.00     0.202 C 
BRANCH   4   5
ATOM      5  C   UNL A   1      33.705  26.642  26.056  1.00  0.00     0.261 C 
BRANCH   5   6
ATOM      6  O   UNL A   1      32.605  25.712  26.006  1.00  0.00    -0.462 OA
BRANCH   6   7
ATOM      7  C   UNL A   1      32.255  25.196  24.805  1.00  0.00     0.331 C 
ATOM      8  O   UNL A   1      33.073  24.857  23.956  1.00  0.00    -0.249 OA
BRANCH   7   9
ATOM      9  C   UNL A   1      30.714  24.948  24.681  1.00  0.00     0.136 C 
ATOM     10  C   UNL A   1      30.612  24.036  23.427  1.00  0.00     0.047 C 
BRANCH   9  11
ATOM     11  C   UNL A   1      29.970  26.296  24.456  1.00  0.00     0.037 C 
ATOM     12  C   UNL A   1      30.453  27.150  23.289  1.00  0.00     0.007 C 
ENDBRANCH   9  11
BRANCH   9  13
ATOM     13  N   UNL A   1      30.012  24.177  25.761  1.00  0.00    -0.322 N 
ATOM     14  C   UNL A   1      30.332  23.300  26.721  1.00  0.00     0.315 C 
ATOM     15  H   UNL A   1      29.047  24.372  25.765  1.00  0.00     0.166 HD
ATOM     16  O   UNL A   1      29.551  23.189  27.670  1.00  0.00    -0.249 OA
ATOM     17  N   UNL A   1      31.432  22.540  26.717  1.00  0.00    -0.332 N 
ATOM     18  H   UNL A   1      31.693  22.156  27.585  1.00  0.00     0.165 HD
BRANCH  17  19
ATOM     19  C   UNL A   1      32.284  22.212  25.604  1.00  0.00     0.182 C 
BRANCH  19  20
ATOM     20  C   UNL A   1      32.697  20.730  25.452  1.00  0.00     0.200 C 
ATOM     21  C   UNL A   1      32.445  20.276  24.004  1.00  0.00     0.077 C 
BRANCH  20  22
ATOM     22  N   UNL A   1      34.085  20.511  25.939  1.00  0.00    -0.336 N 
ATOM     23  C   UNL A   1      35.070  20.368  24.875  1.00  0.00     0.332 C 
ATOM     24  C   UNL A   1      34.564  21.468  26.935  1.00  0.00     0.332 C 
ATOM     25  H   UNL A   1      33.995  19.616  26.418  1.00  0.00     0.347 HD
ENDBRANCH  20  22
ENDBRANCH  19  20
ENDBRANCH  17  19
ENDBRANCH   9  13
ENDBRANCH   7   9
ENDBRANCH   6   7
ENDBRANCH   5   6
ENDBRANCH   4   5
ENDBRANCH   3   4
ENDBRANCH   2   3
ENDBRANCH   1   2
BRANCH   1  26
ATOM     26  O   UNL A   1      33.508  31.264  27.950  1.00  0.00    -0.377 OA
BRANCH  26  27
ATOM     27  C   UNL A   1      34.903  31.316  27.666  1.00  0.00     0.188 C 
BRANCH  27  28
ATOM     28  C   UNL A   1      35.532  32.655  28.083  1.00  0.00     0.188 C 
BRANCH  28  29
ATOM     29  O   UNL A   1      34.798  33.774  27.620  1.00  0.00    -0.376 OA
BRANCH  29  30
ATOM     30  C   UNL A   1      34.608  34.919  28.440  1.00  0.00     0.202 C 
BRANCH  30  31
ATOM     31  C   UNL A   1      33.241  35.303  29.041  1.00  0.00     0.261 C 
BRANCH  31  32
ATOM     32  O   UNL A   1      32.845  34.662  30.259  1.00  0.00    -0.460 OA
BRANCH  32  33
ATOM     33  C   UNL A   1      32.965  35.363  31.398  1.00  0.00     0.338 C 
ATOM     34  O   UNL A   1      32.192  36.212  31.827  1.00  0.00    -0.246 OA
BRANCH  33  35
ATOM     35  C   UNL A   1      34.103  34.810  32.158  1.00  0.00     0.060 A 
ATOM     36  C   UNL A   1      35.310  35.516  32.155  1.00  0.00     0.016 A 
ATOM     37  C   UNL A   1      34.002  33.581  32.819  1.00  0.00     0.016 A 
ATOM     38  C   UNL A   1      36.442  34.961  32.745  1.00  0.00     0.010 A 
ATOM     39  C   UNL A   1      35.146  33.012  33.392  1.00  0.00     0.010 A 
ATOM     40  C   UNL A   1      36.380  33.677  33.305  1.00  0.00    -0.014 A 
BRANCH  40  41
ATOM     41  C   UNL A   1      37.654  32.958  33.545  1.00  0.00     0.031 A 
ATOM     42  C   UNL A   1      38.378  33.215  34.841  1.00  0.00     0.074 A 
ATOM     43  C   UNL A   1      38.107  32.026  32.689  1.00  0.00     0.049 A 
ATOM     44  N   UNL A   1      39.475  32.675  35.307  1.00  0.00    -0.248 NA
ATOM     45  C   UNL A   1      37.773  34.214  35.738  1.00  0.00     0.031 C 
ATOM     46  C   UNL A   1      37.467  31.650  31.431  1.00  0.00     0.029 A 
ATOM     47  N   UNL A   1      39.214  31.218  32.761  1.00  0.00    -0.354 N 
ATOM     48  C   UNL A   1      39.679  33.255  36.553  1.00  0.00     0.074 A 
ATOM     49  C   UNL A   1      38.621  34.219  36.754  1.00  0.00     0.031 C 
ATOM     50  C   UNL A   1      38.199  30.689  30.841  1.00  0.00     0.029 A 
ATOM     51  C   UNL A   1      39.368  30.399  31.670  1.00  0.00     0.049 A 
ATOM     52  H   UNL A   1      39.838  31.225  33.523  1.00  0.00     0.167 HD
ATOM     53  C   UNL A   1      40.651  32.994  37.458  1.00  0.00     0.037 A 
ATOM     54  C   UNL A   1      40.353  29.528  31.375  1.00  0.00     0.037 A 
ATOM     55  C   UNL A   1      41.714  32.048  37.251  1.00  0.00     0.049 A 
ATOM     56  C   UNL A   1      41.473  29.316  32.364  1.00  0.00     0.074 A 
ATOM     57  C   UNL A   1      42.767  31.731  38.092  1.00  0.00     0.029 A 
ATOM     58  N   UNL A   1      41.861  31.268  36.115  1.00  0.00    -0.354 N 
ATOM     59  N   UNL A   1      41.654  29.862  33.543  1.00  0.00    -0.248 NA
ATOM     60  C   UNL A   1      42.520  28.357  31.983  1.00  0.00     0.031 C 
ATOM     61  C   UNL A   1      43.573  30.790  37.446  1.00  0.00     0.029 A 
ATOM     62  C   UNL A   1      42.995  30.481  36.225  1.00  0.00     0.049 A 
ATOM     63  H   UNL A   1      41.250  31.273  35.343  1.00  0.00     0.167 HD
ATOM     64  C   UNL A   1      42.816  29.295  34.054  1.00  0.00     0.074 A 
ATOM     65  C   UNL A   1      43.285  28.347  33.066  1.00  0.00     0.031 C 
ATOM     66  C   UNL A   1      43.441  29.537  35.232  1.00  0.00     0.037 A 
BRANCH  53  67
ATOM     67  C   UNL A   1      40.617  33.762  38.747  1.00  0.00     0.064 A 
ATOM     68  C   UNL A   1      41.411  34.904  38.941  1.00  0.00     0.173 A 
ATOM     69  C   UNL A   1      39.766  33.370  39.790  1.00  0.00     0.173 A 
ATOM     70  F   UNL A   1      42.257  35.310  37.981  1.00  0.00    -0.203 F 
ATOM     71  C   UNL A   1      41.369  35.610  40.141  1.00  0.00     0.198 A 
ATOM     72  C   UNL A   1      39.706  34.094  40.978  1.00  0.00     0.198 A 
ATOM     73  F   UNL A   1      38.988  32.286  39.655  1.00  0.00    -0.203 F 
ATOM     74  F   UNL A   1      42.169  36.670  40.321  1.00  0.00    -0.200 F 
ATOM     75  C   UNL A   1      40.512  35.209  41.155  1.00  0.00     0.200 A 
ATOM     76  F   UNL A   1      38.871  33.711  41.952  1.00  0.00    -0.200 F 
ATOM     77  F   UNL A   1      40.467  35.893  42.306  1.00  0.00    -0.200 F 
ENDBRANCH  53  67
BRANCH  54  78
ATOM     78  C   UNL A   1      40.343  28.801  30.077  1.00  0.00     0.064 A 
ATOM     79  C   UNL A   1      41.004  29.307  28.949  1.00  0.00     0.173 A 
ATOM     80  C   UNL A   1      39.632  27.599  29.930  1.00  0.00     0.173 A 
ATOM     81  F   UNL A   1      41.676  30.465  29.031  1.00  0.00    -0.203 F 
ATOM     82  C   UNL A   1      40.933  28.654  27.720  1.00  0.00     0.198 A 
ATOM     83  C   UNL A   1      39.588  26.932  28.708  1.00  0.00     0.198 A 
ATOM     84  F   UNL A   1      38.979  27.073  30.977  1.00  0.00    -0.203 F 
ATOM     85  F   UNL A   1      41.526  29.190  26.644  1.00  0.00    -0.200 F 
ATOM     86  C   UNL A   1      40.229  27.466  27.601  1.00  0.00     0.200 A 
ATOM     87  F   UNL A   1      38.916  25.777  28.603  1.00  0.00    -0.200 F 
ATOM     88  F   UNL A   1      40.159  26.840  26.418  1.00  0.00    -0.200 F 
ENDBRANCH  54  78
BRANCH  66  89
ATOM     89  C   UNL A   1      44.678  28.740  35.532  1.00  0.00     0.064 A 
ATOM     90  C   UNL A   1      44.618  27.509  36.201  1.00  0.00     0.173 A 
ATOM     91  C   UNL A   1      45.937  29.202  35.119  1.00  0.00     0.173 A 
ATOM     92  F   UNL A   1      43.439  27.029  36.628  1.00  0.00    -0.203 F 
ATOM     93  C   UNL A   1      45.776  26.786  36.478  1.00  0.00     0.198 A 
ATOM     94  C   UNL A   1      47.090  28.461  35.369  1.00  0.00     0.198 A 
ATOM     95  F   UNL A   1      46.051  30.368  34.466  1.00  0.00    -0.203 F 
ATOM     96  F   UNL A   1      45.699  25.640  37.169  1.00  0.00    -0.200 F 
ATOM     97  C   UNL A   1      47.010  27.260  36.056  1.00  0.00     0.200 A 
ATOM     98  F   UNL A   1      48.280  28.912  34.948  1.00  0.00    -0.200 F 
ATOM     99  F   UNL A   1      48.123  26.562  36.322  1.00  0.00    -0.200 F 
ENDBRANCH  66  89
ENDBRANCH  40  41
ENDBRANCH  33  35
ENDBRANCH  32  33
ENDBRANCH  31  32
ENDBRANCH  30  31
ENDBRANCH  29  30
ENDBRANCH  28  29
ENDBRANCH  27  28
ENDBRANCH  26  27
ENDBRANCH   1  26
TORSDOF 25
ENDMDL
MODEL 2
REMARK VINA RESULT:      -9.1      5.924     10.710
REMARK SMILES CC[C@](C)(NC(=O)NC[C@@H](C)[NH+](C)C)C(=O)OCCOCCOCCOCCOC(=O)c1ccc(-c2c3nc(c(-c4c(F)c(F)c(F)c(F)c4F)c4ccc([nH]4)c(-c4c(F)c(F)c(F)c(F)c4F)c4nc(c(-c5c(F)c(F)c(F)c(F)c5F)c5ccc2[nH]5)C=C4)C=C3)cc1
REMARK SMILES IDX 22 1 21 2 20 3 19 4 18 5 17 6 15 7 16 8 3 9 4 10 2 11 1 12
REMARK SMILES IDX 5 13 6 14 7 16 8 17 9 19 10 20 11 21 12 22 13 23 14 24 23 26
REMARK SMILES IDX 24 27 25 28 26 29 27 30 28 31 29 32 30 33 31 34 32 35 33 36
REMARK SMILES IDX 94 37 34 38 93 39 35 40 36 41 37 42 87 43 38 44 92 45 86 46
REMARK SMILES IDX 88 47 39 48 91 49 85 50 84 51 40 53 72 54 52 55 71 56 53 57
REMARK SMILES IDX 56 58 70 59 89 60 54 61 55 62 69 64 90 65 57 66 41 67 42 68
REMARK SMILES IDX 50 69 43 70 44 71 48 72 51 73 45 74 46 75 49 76 47 77 73 78
REMARK SMILES IDX 74 79 82 80 75 81 76 82 80 83 83 84 77 85 78 86 81 87 79 88
REMARK SMILES IDX 58 89 59 90 67 91 60 92 61 93 65 94 68 95 62 96 63 97 66 98
REMARK SMILES IDX 64 99
REMARK H PARENT 5 15 8 18 12 25 88 52 56 63
REMARK Flexibility Score: inf
ROOT
ATOM      1  C   UNL A   1      33.629  21.043  26.818  1.00  0.00     0.188 C 
ENDROOT
BRANCH   1   2
ATOM      2  C   UNL A   1      33.841  22.503  27.268  1.00  0.00     0.188 C 
BRANCH   2   3
ATOM      3  O   UNL A   1      33.600  23.558  26.344  1.00  0.00    -0.376 OA
BRANCH   3   4
ATOM      4  C   UNL A   1      34.738  24.219  25.796  1.00  0.00     0.202 C 
BRANCH   4   5
ATOM      5  C   UNL A   1      34.570  24.912  24.435  1.00  0.00     0.261 C 
BRANCH   5   6
ATOM      6  O   UNL A   1      33.718  26.073  24.507  1.00  0.00    -0.462 OA
BRANCH   6   7
ATOM      7  C   UNL A   1      33.110  26.493  23.373  1.00  0.00     0.331 C 
ATOM      8  O   UNL A   1      33.723  26.932  22.405  1.00  0.00    -0.249 OA
BRANCH   7   9
ATOM      9  C   UNL A   1      31.567  26.224  23.381  1.00  0.00     0.136 C 
ATOM     10  C   UNL A   1      31.254  26.067  24.895  1.00  0.00     0.047 C 
BRANCH   9  11
ATOM     11  C   UNL A   1      31.247  24.915  22.602  1.00  0.00     0.037 C 
ATOM     12  C   UNL A   1      31.151  23.640  23.433  1.00  0.00     0.007 C 
ENDBRANCH   9  11
BRANCH   9  13
ATOM     13  N   UNL A   1      30.638  27.308  22.917  1.00  0.00    -0.322 N 
ATOM     14  C   UNL A   1      30.652  28.641  22.796  1.00  0.00     0.315 C 
ATOM     15  H   UNL A   1      29.778  26.932  22.617  1.00  0.00     0.166 HD
ATOM     16  O   UNL A   1      29.851  29.146  22.005  1.00  0.00    -0.249 OA
ATOM     17  N   UNL A   1      31.467  29.455  23.474  1.00  0.00    -0.332 N 
ATOM     18  H   UNL A   1      31.578  30.360  23.103  1.00  0.00     0.165 HD
BRANCH  17  19
ATOM     19  C   UNL A   1      32.206  29.176  24.677  1.00  0.00     0.182 C 
BRANCH  19  20
ATOM     20  C   UNL A   1      31.640  29.753  25.996  1.00  0.00     0.200 C 
ATOM     21  C   UNL A   1      31.729  28.685  27.099  1.00  0.00     0.077 C 
BRANCH  20  22
ATOM     22  N   UNL A   1      32.286  31.048  26.332  1.00  0.00    -0.336 N 
ATOM     23  C   UNL A   1      31.345  32.118  26.634  1.00  0.00     0.332 C 
ATOM     24  C   UNL A   1      33.321  30.990  27.363  1.00  0.00     0.332 C 
ATOM     25  H   UNL A   1      32.761  31.273  25.459  1.00  0.00     0.347 HD
ENDBRANCH  20  22
ENDBRANCH  19  20
ENDBRANCH  17  19
ENDBRANCH   9  13
ENDBRANCH   7   9
ENDBRANCH   6   7
ENDBRANCH   5   6
ENDBRANCH   4   5
ENDBRANCH   3   4
ENDBRANCH   2   3
ENDBRANCH   1   2
BRANCH   1  26
ATOM     26  O   UNL A   1      33.766  20.817  25.417  1.00  0.00    -0.377 OA
BRANCH  26  27
ATOM     27  C   UNL A   1      35.010  20.237  25.033  1.00  0.00     0.188 C 
BRANCH  27  28
ATOM     28  C   UNL A   1      36.012  21.288  24.531  1.00  0.00     0.188 C 
BRANCH  28  29
ATOM     29  O   UNL A   1      37.349  20.990  24.893  1.00  0.00    -0.376 OA
BRANCH  29  30
ATOM     30  C   UNL A   1      38.107  21.876  25.704  1.00  0.00     0.202 C 
BRANCH  30  31
ATOM     31  C   UNL A   1      39.598  21.652  26.025  1.00  0.00     0.261 C 
BRANCH  31  32
ATOM     32  O   UNL A   1      39.996  20.350  26.472  1.00  0.00    -0.460 OA
BRANCH  32  33
ATOM     33  C   UNL A   1      41.251  19.957  26.202  1.00  0.00     0.338 C 
ATOM     34  O   UNL A   1      41.595  18.934  25.620  1.00  0.00    -0.246 OA
BRANCH  33  35
ATOM     35  C   UNL A   1      42.163  21.060  26.561  1.00  0.00     0.060 A 
ATOM     36  C   UNL A   1      42.228  21.460  27.900  1.00  0.00     0.016 A 
ATOM     37  C   UNL A   1      42.904  21.733  25.584  1.00  0.00     0.016 A 
ATOM     38  C   UNL A   1      42.971  22.581  28.256  1.00  0.00     0.010 A 
ATOM     39  C   UNL A   1      43.632  22.875  25.938  1.00  0.00     0.010 A 
ATOM     40  C   UNL A   1      43.620  23.333  27.267  1.00  0.00    -0.014 A 
BRANCH  40  41
ATOM     41  C   UNL A   1      44.043  24.714  27.603  1.00  0.00     0.031 A 
ATOM     42  C   UNL A   1      42.972  25.721  27.928  1.00  0.00     0.074 A 
ATOM     43  C   UNL A   1      45.341  25.042  27.719  1.00  0.00     0.049 A 
ATOM     44  N   UNL A   1      43.084  26.970  28.302  1.00  0.00    -0.248 NA
ATOM     45  C   UNL A   1      41.580  25.249  27.827  1.00  0.00     0.031 C 
ATOM     46  C   UNL A   1      46.466  24.142  27.483  1.00  0.00     0.029 A 
ATOM     47  N   UNL A   1      45.927  26.231  28.077  1.00  0.00    -0.354 N 
ATOM     48  C   UNL A   1      41.786  27.423  28.495  1.00  0.00     0.074 A 
ATOM     49  C   UNL A   1      40.898  26.334  28.156  1.00  0.00     0.031 C 
ATOM     50  C   UNL A   1      47.612  24.814  27.693  1.00  0.00     0.029 A 
ATOM     51  C   UNL A   1      47.299  26.195  28.056  1.00  0.00     0.049 A 
ATOM     52  H   UNL A   1      45.411  27.033  28.325  1.00  0.00     0.167 HD
ATOM     53  C   UNL A   1      41.369  28.634  28.934  1.00  0.00     0.037 A 
ATOM     54  C   UNL A   1      48.193  27.175  28.291  1.00  0.00     0.037 A 
ATOM     55  C   UNL A   1      42.250  29.724  29.255  1.00  0.00     0.049 A 
ATOM     56  C   UNL A   1      47.701  28.543  28.697  1.00  0.00     0.074 A 
ATOM     57  C   UNL A   1      41.929  31.002  29.678  1.00  0.00     0.029 A 
ATOM     58  N   UNL A   1      43.633  29.663  29.180  1.00  0.00    -0.354 N 
ATOM     59  N   UNL A   1      46.471  28.961  28.886  1.00  0.00    -0.248 NA
ATOM     60  C   UNL A   1      48.723  29.572  28.935  1.00  0.00     0.031 C 
ATOM     61  C   UNL A   1      43.116  31.726  29.820  1.00  0.00     0.029 A 
ATOM     62  C   UNL A   1      44.180  30.885  29.536  1.00  0.00     0.049 A 
ATOM     63  H   UNL A   1      44.151  28.869  28.914  1.00  0.00     0.167 HD
ATOM     64  C   UNL A   1      46.574  30.288  29.287  1.00  0.00     0.074 A 
ATOM     65  C   UNL A   1      47.988  30.598  29.337  1.00  0.00     0.031 C 
ATOM     66  C   UNL A   1      45.591  31.172  29.586  1.00  0.00     0.037 A 
BRANCH  53  67
ATOM     67  C   UNL A   1      39.890  28.846  29.071  1.00  0.00     0.064 A 
ATOM     68  C   UNL A   1      39.229  28.635  30.292  1.00  0.00     0.173 A 
ATOM     69  C   UNL A   1      39.126  29.286  27.980  1.00  0.00     0.173 A 
ATOM     70  F   UNL A   1      39.910  28.195  31.361  1.00  0.00    -0.203 F 
ATOM     71  C   UNL A   1      37.856  28.838  30.408  1.00  0.00     0.198 A 
ATOM     72  C   UNL A   1      37.759  29.514  28.107  1.00  0.00     0.198 A 
ATOM     73  F   UNL A   1      39.710  29.501  26.791  1.00  0.00    -0.203 F 
ATOM     74  F   UNL A   1      37.239  28.587  31.571  1.00  0.00    -0.200 F 
ATOM     75  C   UNL A   1      37.124  29.284  29.318  1.00  0.00     0.200 A 
ATOM     76  F   UNL A   1      37.055  29.954  27.055  1.00  0.00    -0.200 F 
ATOM     77  F   UNL A   1      35.804  29.484  29.432  1.00  0.00    -0.200 F 
ENDBRANCH  53  67
BRANCH  54  78
ATOM     78  C   UNL A   1      49.648  26.913  28.129  1.00  0.00     0.064 A 
ATOM     79  C   UNL A   1      50.448  26.525  29.213  1.00  0.00     0.173 A 
ATOM     80  C   UNL A   1      50.277  27.087  26.886  1.00  0.00     0.173 A 
ATOM     81  F   UNL A   1      49.900  26.370  30.427  1.00  0.00    -0.203 F 
ATOM     82  C   UNL A   1      51.823  26.348  29.066  1.00  0.00     0.198 A 
ATOM     83  C   UNL A   1      51.645  26.879  26.734  1.00  0.00     0.198 A 
ATOM     84  F   UNL A   1      49.558  27.460  25.816  1.00  0.00    -0.203 F 
ATOM     85  F   UNL A   1      52.572  26.034  30.131  1.00  0.00    -0.200 F 
ATOM     86  C   UNL A   1      52.420  26.521  27.827  1.00  0.00     0.200 A 
ATOM     87  F   UNL A   1      52.215  27.036  25.531  1.00  0.00    -0.200 F 
ATOM     88  F   UNL A   1      53.742  26.352  27.687  1.00  0.00    -0.200 F 
ENDBRANCH  54  78
BRANCH  66  89
ATOM     89  C   UNL A   1      46.010  32.545  30.027  1.00  0.00     0.064 A 
ATOM     90  C   UNL A   1      46.175  33.595  29.112  1.00  0.00     0.173 A 
ATOM     91  C   UNL A   1      46.223  32.819  31.387  1.00  0.00     0.173 A 
ATOM     92  F   UNL A   1      45.996  33.382  27.799  1.00  0.00    -0.203 F 
ATOM     93  C   UNL A   1      46.572  34.860  29.538  1.00  0.00     0.198 A 
ATOM     94  C   UNL A   1      46.588  34.094  31.813  1.00  0.00     0.198 A 
ATOM     95  F   UNL A   1      46.068  31.853  32.305  1.00  0.00    -0.203 F 
ATOM     96  F   UNL A   1      46.778  35.833  28.639  1.00  0.00    -0.200 F 
ATOM     97  C   UNL A   1      46.772  35.110  30.888  1.00  0.00     0.200 A 
ATOM     98  F   UNL A   1      46.766  34.337  33.119  1.00  0.00    -0.200 F 
ATOM     99  F   UNL A   1      47.152  36.329  31.296  1.00  0.00    -0.200 F 
ENDBRANCH  66  89
ENDBRANCH  40  41
ENDBRANCH  33  35
ENDBRANCH  32  33
ENDBRANCH  31  32
ENDBRANCH  30  31
ENDBRANCH  29  30
ENDBRANCH  28  29
ENDBRANCH  27  28
ENDBRANCH  26  27
ENDBRANCH   1  26
TORSDOF 25
ENDMDL
MODEL 3
REMARK VINA RESULT:      -9.1      2.500      8.210
REMARK SMILES CC[C@](C)(NC(=O)NC[C@@H](C)[NH+](C)C)C(=O)OCCOCCOCCOCCOC(=O)c1ccc(-c2c3nc(c(-c4c(F)c(F)c(F)c(F)c4F)c4ccc([nH]4)c(-c4c(F)c(F)c(F)c(F)c4F)c4nc(c(-c5c(F)c(F)c(F)c(F)c5F)c5ccc2[nH]5)C=C4)C=C3)cc1
REMARK SMILES IDX 22 1 21 2 20 3 19 4 18 5 17 6 15 7 16 8 3 9 4 10 2 11 1 12
REMARK SMILES IDX 5 13 6 14 7 16 8 17 9 19 10 20 11 21 12 22 13 23 14 24 23 26
REMARK SMILES IDX 24 27 25 28 26 29 27 30 28 31 29 32 30 33 31 34 32 35 33 36
REMARK SMILES IDX 94 37 34 38 93 39 35 40 36 41 37 42 87 43 38 44 92 45 86 46
REMARK SMILES IDX 88 47 39 48 91 49 85 50 84 51 40 53 72 54 52 55 71 56 53 57
REMARK SMILES IDX 56 58 70 59 89 60 54 61 55 62 69 64 90 65 57 66 41 67 42 68
REMARK SMILES IDX 50 69 43 70 44 71 48 72 51 73 45 74 46 75 49 76 47 77 73 78
REMARK SMILES IDX 74 79 82 80 75 81 76 82 80 83 83 84 77 85 78 86 81 87 79 88
REMARK SMILES IDX 58 89 59 90 67 91 60 92 61 93 65 94 68 95 62 96 63 97 66 98
REMARK SMILES IDX 64 99
REMARK H PARENT 5 15 8 18 12 25 88 52 56 63
REMARK Flexibility Score: inf
ROOT
ATOM      1  C   UNL A   1      29.886  25.728  25.676  1.00  0.00     0.188 C 
ENDROOT
BRANCH   1   2
ATOM      2  C   UNL A   1      30.729  24.463  25.935  1.00  0.00     0.188 C 
BRANCH   2   3
ATOM      3  O   UNL A   1      30.684  23.392  25.000  1.00  0.00    -0.376 OA
BRANCH   3   4
ATOM      4  C   UNL A   1      30.893  23.715  23.627  1.00  0.00     0.202 C 
BRANCH   4   5
ATOM      5  C   UNL A   1      32.039  22.999  22.896  1.00  0.00     0.261 C 
BRANCH   5   6
ATOM      6  O   UNL A   1      32.903  22.276  23.795  1.00  0.00    -0.462 OA
BRANCH   6   7
ATOM      7  C   UNL A   1      34.201  22.651  23.876  1.00  0.00     0.331 C 
ATOM      8  O   UNL A   1      34.857  23.013  22.905  1.00  0.00    -0.249 OA
BRANCH   7   9
ATOM      9  C   UNL A   1      34.722  22.709  25.352  1.00  0.00     0.136 C 
ATOM     10  C   UNL A   1      33.583  22.009  26.145  1.00  0.00     0.047 C 
BRANCH   9  11
ATOM     11  C   UNL A   1      34.893  24.188  25.803  1.00  0.00     0.037 C 
ATOM     12  C   UNL A   1      34.247  25.246  24.916  1.00  0.00     0.007 C 
ENDBRANCH   9  11
BRANCH   9  13
ATOM     13  N   UNL A   1      35.959  21.940  25.717  1.00  0.00    -0.322 N 
ATOM     14  C   UNL A   1      36.568  20.807  25.345  1.00  0.00     0.315 C 
ATOM     15  H   UNL A   1      36.462  22.398  26.429  1.00  0.00     0.166 HD
ATOM     16  O   UNL A   1      37.773  20.705  25.592  1.00  0.00    -0.249 OA
ATOM     17  N   UNL A   1      35.960  19.786  24.732  1.00  0.00    -0.332 N 
ATOM     18  H   UNL A   1      36.552  19.150  24.268  1.00  0.00     0.165 HD
BRANCH  17  19
ATOM     19  C   UNL A   1      34.552  19.499  24.662  1.00  0.00     0.182 C 
BRANCH  19  20
ATOM     20  C   UNL A   1      34.078  18.163  25.279  1.00  0.00     0.200 C 
ATOM     21  C   UNL A   1      32.545  18.175  25.406  1.00  0.00     0.077 C 
BRANCH  20  22
ATOM     22  N   UNL A   1      34.630  17.005  24.529  1.00  0.00    -0.336 N 
ATOM     23  C   UNL A   1      35.400  16.080  25.351  1.00  0.00     0.332 C 
ATOM     24  C   UNL A   1      33.669  16.263  23.714  1.00  0.00     0.332 C 
ATOM     25  H   UNL A   1      35.266  17.465  23.879  1.00  0.00     0.347 HD
ENDBRANCH  20  22
ENDBRANCH  19  20
ENDBRANCH  17  19
ENDBRANCH   9  13
ENDBRANCH   7   9
ENDBRANCH   6   7
ENDBRANCH   5   6
ENDBRANCH   4   5
ENDBRANCH   3   4
ENDBRANCH   2   3
ENDBRANCH   1   2
BRANCH   1  26
ATOM     26  O   UNL A   1      30.564  26.774  24.985  1.00  0.00    -0.377 OA
BRANCH  26  27
ATOM     27  C   UNL A   1      29.970  27.142  23.743  1.00  0.00     0.188 C 
BRANCH  27  28
ATOM     28  C   UNL A   1      30.034  28.657  23.493  1.00  0.00     0.188 C 
BRANCH  28  29
ATOM     29  O   UNL A   1      31.259  29.231  23.910  1.00  0.00    -0.376 OA
BRANCH  29  30
ATOM     30  C   UNL A   1      31.339  30.019  25.089  1.00  0.00     0.202 C 
BRANCH  30  31
ATOM     31  C   UNL A   1      32.667  30.305  25.819  1.00  0.00     0.261 C 
BRANCH  31  32
ATOM     32  O   UNL A   1      32.596  30.798  27.163  1.00  0.00    -0.460 OA
BRANCH  32  33
ATOM     33  C   UNL A   1      33.327  31.882  27.466  1.00  0.00     0.338 C 
ATOM     34  O   UNL A   1      32.933  33.040  27.547  1.00  0.00    -0.246 OA
BRANCH  33  35
ATOM     35  C   UNL A   1      34.671  31.428  27.874  1.00  0.00     0.060 A 
ATOM     36  C   UNL A   1      34.849  30.076  28.187  1.00  0.00     0.016 A 
ATOM     37  C   UNL A   1      35.732  32.331  28.004  1.00  0.00     0.016 A 
ATOM     38  C   UNL A   1      36.064  29.635  28.704  1.00  0.00     0.010 A 
ATOM     39  C   UNL A   1      36.946  31.893  28.547  1.00  0.00     0.010 A 
ATOM     40  C   UNL A   1      37.093  30.555  28.950  1.00  0.00    -0.014 A 
BRANCH  40  41
ATOM     41  C   UNL A   1      38.190  30.148  29.862  1.00  0.00     0.031 A 
ATOM     42  C   UNL A   1      39.224  29.187  29.337  1.00  0.00     0.074 A 
ATOM     43  C   UNL A   1      38.327  30.693  31.082  1.00  0.00     0.049 A 
ATOM     44  N   UNL A   1      40.302  28.722  29.915  1.00  0.00    -0.248 NA
ATOM     45  C   UNL A   1      39.016  28.689  27.967  1.00  0.00     0.031 C 
ATOM     46  C   UNL A   1      37.423  31.672  31.679  1.00  0.00     0.029 A 
ATOM     47  N   UNL A   1      39.295  30.499  32.037  1.00  0.00    -0.354 N 
ATOM     48  C   UNL A   1      40.905  27.895  28.976  1.00  0.00     0.074 A 
ATOM     49  C   UNL A   1      40.054  27.884  27.807  1.00  0.00     0.031 C 
ATOM     50  C   UNL A   1      37.873  31.988  32.906  1.00  0.00     0.029 A 
ATOM     51  C   UNL A   1      39.083  31.217  33.187  1.00  0.00     0.049 A 
ATOM     52  H   UNL A   1      40.067  29.901  31.908  1.00  0.00     0.167 HD
ATOM     53  C   UNL A   1      42.074  27.218  29.071  1.00  0.00     0.037 A 
ATOM     54  C   UNL A   1      39.784  31.233  34.338  1.00  0.00     0.037 A 
ATOM     55  C   UNL A   1      42.912  27.214  30.239  1.00  0.00     0.049 A 
ATOM     56  C   UNL A   1      41.039  30.404  34.450  1.00  0.00     0.074 A 
ATOM     57  C   UNL A   1      44.101  26.538  30.450  1.00  0.00     0.029 A 
ATOM     58  N   UNL A   1      42.642  27.921  31.401  1.00  0.00    -0.354 N 
ATOM     59  N   UNL A   1      41.607  29.631  33.555  1.00  0.00    -0.248 NA
ATOM     60  C   UNL A   1      41.757  30.459  35.732  1.00  0.00     0.031 C 
ATOM     61  C   UNL A   1      44.528  26.802  31.754  1.00  0.00     0.029 A 
ATOM     62  C   UNL A   1      43.634  27.685  32.339  1.00  0.00     0.049 A 
ATOM     63  H   UNL A   1      41.861  28.504  31.540  1.00  0.00     0.167 HD
ATOM     64  C   UNL A   1      42.758  29.131  34.153  1.00  0.00     0.074 A 
ATOM     65  C   UNL A   1      42.819  29.706  35.480  1.00  0.00     0.031 C 
ATOM     66  C   UNL A   1      43.680  28.273  33.653  1.00  0.00     0.037 A 
BRANCH  53  67
ATOM     67  C   UNL A   1      42.501  26.410  27.881  1.00  0.00     0.064 A 
ATOM     68  C   UNL A   1      43.373  26.933  26.913  1.00  0.00     0.173 A 
ATOM     69  C   UNL A   1      42.054  25.091  27.716  1.00  0.00     0.173 A 
ATOM     70  F   UNL A   1      43.814  28.197  27.015  1.00  0.00    -0.203 F 
ATOM     71  C   UNL A   1      43.764  26.172  25.815  1.00  0.00     0.198 A 
ATOM     72  C   UNL A   1      42.469  24.323  26.631  1.00  0.00     0.198 A 
ATOM     73  F   UNL A   1      41.218  24.544  28.612  1.00  0.00    -0.203 F 
ATOM     74  F   UNL A   1      44.562  26.708  24.880  1.00  0.00    -0.200 F 
ATOM     75  C   UNL A   1      43.318  24.866  25.678  1.00  0.00     0.200 A 
ATOM     76  F   UNL A   1      42.045  23.059  26.506  1.00  0.00    -0.200 F 
ATOM     77  F   UNL A   1      43.701  24.133  24.624  1.00  0.00    -0.200 F 
ENDBRANCH  53  67
BRANCH  54  78
ATOM     78  C   UNL A   1      39.308  32.045  35.491  1.00  0.00     0.064 A 
ATOM     79  C   UNL A   1      39.703  33.379  35.659  1.00  0.00     0.173 A 
ATOM     80  C   UNL A   1      38.478  31.482  36.473  1.00  0.00     0.173 A 
ATOM     81  F   UNL A   1      40.516  33.954  34.762  1.00  0.00    -0.203 F 
ATOM     82  C   UNL A   1      39.307  34.111  36.778  1.00  0.00     0.198 A 
ATOM     83  C   UNL A   1      38.058  32.225  37.574  1.00  0.00     0.198 A 
ATOM     84  F   UNL A   1      38.073  30.208  36.361  1.00  0.00    -0.203 F 
ATOM     85  F   UNL A   1      39.746  35.366  36.943  1.00  0.00    -0.200 F 
ATOM     86  C   UNL A   1      38.483  33.535  37.732  1.00  0.00     0.200 A 
ATOM     87  F   UNL A   1      37.251  31.667  38.487  1.00  0.00    -0.200 F 
ATOM     88  F   UNL A   1      38.104  34.239  38.808  1.00  0.00    -0.200 F 
ENDBRANCH  54  78
BRANCH  66  89
ATOM     89  C   UNL A   1      44.851  27.933  34.530  1.00  0.00     0.064 A 
ATOM     90  C   UNL A   1      46.032  28.689  34.509  1.00  0.00     0.173 A 
ATOM     91  C   UNL A   1      44.779  26.852  35.422  1.00  0.00     0.173 A 
ATOM     92  F   UNL A   1      46.156  29.725  33.665  1.00  0.00    -0.203 F 
ATOM     93  C   UNL A   1      47.111  28.354  35.324  1.00  0.00     0.198 A 
ATOM     94  C   UNL A   1      45.848  26.539  36.259  1.00  0.00     0.198 A 
ATOM     95  F   UNL A   1      43.669  26.102  35.490  1.00  0.00    -0.203 F 
ATOM     96  F   UNL A   1      48.250  29.056  35.246  1.00  0.00    -0.200 F 
ATOM     97  C   UNL A   1      47.016  27.284  36.202  1.00  0.00     0.200 A 
ATOM     98  F   UNL A   1      45.749  25.515  37.117  1.00  0.00    -0.200 F 
ATOM     99  F   UNL A   1      48.055  26.965  36.987  1.00  0.00    -0.200 F 
ENDBRANCH  66  89
ENDBRANCH  40  41
ENDBRANCH  33  35
ENDBRANCH  32  33
ENDBRANCH  31  32
ENDBRANCH  30  31
ENDBRANCH  29  30
ENDBRANCH  28  29
ENDBRANCH  27  28
ENDBRANCH  26  27
ENDBRANCH   1  26
TORSDOF 25
ENDMDL
