MODEL 1
REMARK VINA RESULT:     -11.0      0.000      0.000
REMARK SMILES O=C(Cn1nc(C(=O)OCCOCCOCCOCCOC(=O)c2ccc(-c3c4nc(c(-c5c(F)c(F)c(F)c(F)c5F)c5ccc([nH]5)c(-c5c(F)c(F)c(F)c(F)c5F)c5nc(c(-c6c(F)c(F)c(F)c(F)c6F)c6ccc3[nH]6)C=C5)C=C4)cc2)c2ccccc2c1=O)Nc1ccc2c(c1)C(=O)c1ccccc1C2=O
REMARK SMILES IDX 14 1 13 2 12 3 11 4 10 5 9 6 7 7 8 8 6 9 4 10 5 11 93 12
REMARK SMILES IDX 92 13 94 14 87 15 91 16 88 17 90 18 89 19 3 20 2 21 1 22
REMARK SMILES IDX 95 23 96 25 97 26 101 27 98 28 100 29 99 30 102 31 110 32
REMARK SMILES IDX 103 33 104 34 109 35 111 36 105 37 108 38 106 39 107 40
REMARK SMILES IDX 15 41 16 42 17 43 18 44 19 45 20 46 21 47 22 48 23 49 24 50
REMARK SMILES IDX 25 51 86 52 26 53 85 54 27 55 28 56 29 57 79 58 30 59 84 60
REMARK SMILES IDX 78 61 80 62 31 63 83 64 77 65 76 66 32 68 64 69 44 70 63 71
REMARK SMILES IDX 45 72 48 73 62 74 81 75 46 76 47 77 61 79 82 80 49 81 33 82
REMARK SMILES IDX 34 83 42 84 35 85 36 86 40 87 43 88 37 89 38 90 41 91 39 92
REMARK SMILES IDX 65 93 66 94 74 95 67 96 68 97 72 98 75 99 69 100 70 101
REMARK SMILES IDX 73 102 71 103 50 104 51 105 59 106 52 107 53 108 57 109
REMARK SMILES IDX 60 110 54 111 55 112 58 113 56 114
REMARK H PARENT 95 24 80 67 48 78
REMARK Flexibility Score: inf
ROOT
ATOM      1  C   UNL A   1      39.208  29.153  28.995  1.00  0.00     0.188 C 
ENDROOT
BRANCH   1   2
ATOM      2  C   UNL A   1      40.327  28.489  28.185  1.00  0.00     0.188 C 
BRANCH   2   3
ATOM      3  O   UNL A   1      40.379  28.974  26.845  1.00  0.00    -0.376 OA
BRANCH   3   4
ATOM      4  C   UNL A   1      41.510  28.607  26.070  1.00  0.00     0.202 C 
BRANCH   4   5
ATOM      5  C   UNL A   1      41.594  27.114  25.745  1.00  0.00     0.261 C 
BRANCH   5   6
ATOM      6  O   UNL A   1      42.923  26.577  25.830  1.00  0.00    -0.458 OA
BRANCH   6   7
ATOM      7  C   UNL A   1      43.228  25.787  26.874  1.00  0.00     0.359 C 
ATOM      8  O   UNL A   1      43.523  26.131  28.001  1.00  0.00    -0.244 OA
BRANCH   7   9
ATOM      9  C   UNL A   1      43.009  24.328  26.463  1.00  0.00     0.176 A 
ATOM     10  N   UNL A   1      41.661  22.444  26.525  1.00  0.00    -0.219 N 
ATOM     11  N   UNL A   1      41.884  23.775  26.816  1.00  0.00    -0.161 NA
ATOM     12  C   UNL A   1      42.583  21.628  25.878  1.00  0.00     0.275 A 
ATOM     13  C   UNL A   1      43.830  22.275  25.422  1.00  0.00     0.051 A 
ATOM     14  O   UNL A   1      42.405  20.430  25.674  1.00  0.00    -0.267 OA
ATOM     15  C   UNL A   1      44.065  23.613  25.725  1.00  0.00     0.022 A 
ATOM     16  C   UNL A   1      44.770  21.542  24.684  1.00  0.00     0.014 A 
ATOM     17  C   UNL A   1      45.267  24.212  25.317  1.00  0.00     0.011 A 
ATOM     18  C   UNL A   1      45.962  22.143  24.276  1.00  0.00     0.001 A 
ATOM     19  C   UNL A   1      46.215  23.472  24.606  1.00  0.00     0.001 A 
BRANCH  10  20
ATOM     20  C   UNL A   1      40.375  21.880  26.953  1.00  0.00     0.248 C 
BRANCH  20  21
ATOM     21  C   UNL A   1      39.209  22.690  26.390  1.00  0.00     0.246 C 
ATOM     22  O   UNL A   1      38.895  23.778  26.872  1.00  0.00    -0.273 OA
ATOM     23  N   UNL A   1      38.504  22.085  25.356  1.00  0.00    -0.324 N 
ATOM     24  H   UNL A   1      38.958  21.397  24.817  1.00  0.00     0.169 HD
BRANCH  23  25
ATOM     25  C   UNL A   1      37.167  22.411  25.044  1.00  0.00     0.042 A 
ATOM     26  C   UNL A   1      36.848  23.055  23.836  1.00  0.00     0.027 A 
ATOM     27  C   UNL A   1      36.145  21.913  25.843  1.00  0.00     0.039 A 
ATOM     28  C   UNL A   1      35.518  23.134  23.383  1.00  0.00     0.015 A 
ATOM     29  C   UNL A   1      34.855  21.911  25.332  1.00  0.00     0.036 A 
ATOM     30  C   UNL A   1      34.532  22.466  24.100  1.00  0.00     0.034 A 
ATOM     31  C   UNL A   1      33.880  21.027  25.956  1.00  0.00     0.194 C 
ATOM     32  C   UNL A   1      33.243  22.057  23.470  1.00  0.00     0.194 C 
ATOM     33  O   UNL A   1      33.658  21.072  27.131  1.00  0.00    -0.289 OA
ATOM     34  C   UNL A   1      33.232  20.116  25.003  1.00  0.00     0.034 A 
ATOM     35  C   UNL A   1      32.811  20.664  23.793  1.00  0.00     0.034 A 
ATOM     36  O   UNL A   1      32.671  22.742  22.639  1.00  0.00    -0.289 OA
ATOM     37  C   UNL A   1      33.214  18.745  25.228  1.00  0.00     0.013 A 
ATOM     38  C   UNL A   1      32.220  19.843  22.836  1.00  0.00     0.013 A 
ATOM     39  C   UNL A   1      32.701  17.911  24.238  1.00  0.00     0.001 A 
ATOM     40  C   UNL A   1      32.172  18.461  23.064  1.00  0.00     0.001 A 
ENDBRANCH  23  25
ENDBRANCH  20  21
ENDBRANCH  10  20
ENDBRANCH   7   9
ENDBRANCH   6   7
ENDBRANCH   5   6
ENDBRANCH   4   5
ENDBRANCH   3   4
ENDBRANCH   2   3
ENDBRANCH   1   2
BRANCH   1  41
ATOM     41  O   UNL A   1      37.923  28.617  28.726  1.00  0.00    -0.377 OA
BRANCH  41  42
ATOM     42  C   UNL A   1      37.021  29.523  28.102  1.00  0.00     0.188 C 
BRANCH  42  43
ATOM     43  C   UNL A   1      36.800  30.841  28.871  1.00  0.00     0.188 C 
BRANCH  43  44
ATOM     44  O   UNL A   1      35.509  31.189  29.363  1.00  0.00    -0.376 OA
BRANCH  44  45
ATOM     45  C   UNL A   1      35.341  32.395  30.095  1.00  0.00     0.202 C 
BRANCH  45  46
ATOM     46  C   UNL A   1      36.433  32.812  31.087  1.00  0.00     0.261 C 
BRANCH  46  47
ATOM     47  O   UNL A   1      36.743  34.212  31.060  1.00  0.00    -0.460 OA
BRANCH  47  48
ATOM     48  C   UNL A   1      37.756  34.600  31.871  1.00  0.00     0.338 C 
ATOM     49  O   UNL A   1      37.693  34.857  33.062  1.00  0.00    -0.246 OA
BRANCH  48  50
ATOM     50  C   UNL A   1      39.039  34.497  31.150  1.00  0.00     0.060 A 
ATOM     51  C   UNL A   1      39.127  34.726  29.778  1.00  0.00     0.016 A 
ATOM     52  C   UNL A   1      40.188  34.187  31.891  1.00  0.00     0.016 A 
ATOM     53  C   UNL A   1      40.374  34.652  29.147  1.00  0.00     0.010 A 
ATOM     54  C   UNL A   1      41.432  34.121  31.263  1.00  0.00     0.010 A 
ATOM     55  C   UNL A   1      41.539  34.383  29.891  1.00  0.00    -0.014 A 
BRANCH  55  56
ATOM     56  C   UNL A   1      42.883  34.579  29.288  1.00  0.00     0.031 A 
ATOM     57  C   UNL A   1      43.792  33.433  28.960  1.00  0.00     0.074 A 
ATOM     58  C   UNL A   1      43.300  35.847  29.103  1.00  0.00     0.049 A 
ATOM     59  N   UNL A   1      45.018  33.463  28.497  1.00  0.00    -0.248 NA
ATOM     60  C   UNL A   1      43.269  32.079  29.189  1.00  0.00     0.031 C 
ATOM     61  C   UNL A   1      42.513  37.039  29.421  1.00  0.00     0.029 A 
ATOM     62  N   UNL A   1      44.478  36.348  28.609  1.00  0.00    -0.354 N 
ATOM     63  C   UNL A   1      45.415  32.138  28.374  1.00  0.00     0.074 A 
ATOM     64  C   UNL A   1      44.309  31.327  28.843  1.00  0.00     0.031 C 
ATOM     65  C   UNL A   1      43.210  38.131  29.078  1.00  0.00     0.029 A 
ATOM     66  C   UNL A   1      44.514  37.720  28.570  1.00  0.00     0.049 A 
ATOM     67  H   UNL A   1      45.224  35.779  28.311  1.00  0.00     0.167 HD
ATOM     68  C   UNL A   1      46.589  31.654  27.902  1.00  0.00     0.037 A 
ATOM     69  C   UNL A   1      45.491  38.560  28.183  1.00  0.00     0.037 A 
ATOM     70  C   UNL A   1      47.680  32.473  27.431  1.00  0.00     0.049 A 
ATOM     71  C   UNL A   1      46.793  37.992  27.696  1.00  0.00     0.074 A 
ATOM     72  C   UNL A   1      48.897  32.068  26.905  1.00  0.00     0.029 A 
ATOM     73  N   UNL A   1      47.690  33.860  27.426  1.00  0.00    -0.354 N 
ATOM     74  N   UNL A   1      47.144  36.738  27.557  1.00  0.00    -0.248 NA
ATOM     75  C   UNL A   1      47.836  38.955  27.321  1.00  0.00     0.031 C 
ATOM     76  C   UNL A   1      49.659  33.207  26.627  1.00  0.00     0.029 A 
ATOM     77  C   UNL A   1      48.899  34.325  26.929  1.00  0.00     0.049 A 
ATOM     78  H   UNL A   1      46.948  34.431  27.731  1.00  0.00     0.167 HD
ATOM     79  C   UNL A   1      48.441  36.758  27.067  1.00  0.00     0.074 A 
ATOM     80  C   UNL A   1      48.806  38.151  26.909  1.00  0.00     0.031 C 
ATOM     81  C   UNL A   1      49.254  35.714  26.779  1.00  0.00     0.037 A 
BRANCH  68  82
ATOM     82  C   UNL A   1      46.776  30.163  27.852  1.00  0.00     0.064 A 
ATOM     83  C   UNL A   1      47.139  29.435  28.993  1.00  0.00     0.173 A 
ATOM     84  C   UNL A   1      46.475  29.444  26.684  1.00  0.00     0.173 A 
ATOM     85  F   UNL A   1      47.432  30.073  30.137  1.00  0.00    -0.203 F 
ATOM     86  C   UNL A   1      47.202  28.043  28.966  1.00  0.00     0.198 A 
ATOM     87  C   UNL A   1      46.514  28.052  26.668  1.00  0.00     0.198 A 
ATOM     88  F   UNL A   1      46.104  30.090  25.568  1.00  0.00    -0.203 F 
ATOM     89  F   UNL A   1      47.566  27.368  30.066  1.00  0.00    -0.200 F 
ATOM     90  C   UNL A   1      46.879  27.353  27.808  1.00  0.00     0.200 A 
ATOM     91  F   UNL A   1      46.180  27.386  25.554  1.00  0.00    -0.200 F 
ATOM     92  F   UNL A   1      46.914  26.012  27.792  1.00  0.00    -0.200 F 
ENDBRANCH  68  82
BRANCH  69  93
ATOM     93  C   UNL A   1      45.254  40.025  28.225  1.00  0.00     0.064 A 
ATOM     94  C   UNL A   1      45.557  40.766  29.375  1.00  0.00     0.173 A 
ATOM     95  C   UNL A   1      44.762  40.720  27.110  1.00  0.00     0.173 A 
ATOM     96  F   UNL A   1      46.012  40.143  30.472  1.00  0.00    -0.203 F 
ATOM     97  C   UNL A   1      45.373  42.145  29.410  1.00  0.00     0.198 A 
ATOM     98  C   UNL A   1      44.607  42.104  27.136  1.00  0.00     0.198 A 
ATOM     99  F   UNL A   1      44.461  40.056  25.983  1.00  0.00    -0.203 F 
ATOM    100  F   UNL A   1      45.639  42.827  30.533  1.00  0.00    -0.200 F 
ATOM    101  C   UNL A   1      44.908  42.814  28.287  1.00  0.00     0.200 A 
ATOM    102  F   UNL A   1      44.175  42.748  26.043  1.00  0.00    -0.200 F 
ATOM    103  F   UNL A   1      44.746  44.145  28.316  1.00  0.00    -0.200 F 
ENDBRANCH  69  93
BRANCH  81 104
ATOM    104  C   UNL A   1      50.623  36.033  26.253  1.00  0.00     0.064 A 
ATOM    105  C   UNL A   1      51.726  36.151  27.110  1.00  0.00     0.173 A 
ATOM    106  C   UNL A   1      50.843  36.171  24.874  1.00  0.00     0.173 A 
ATOM    107  F   UNL A   1      51.565  36.045  28.438  1.00  0.00    -0.203 F 
ATOM    108  C   UNL A   1      52.999  36.412  26.607  1.00  0.00     0.198 A 
ATOM    109  C   UNL A   1      52.121  36.402  24.373  1.00  0.00     0.198 A 
ATOM    110  F   UNL A   1      49.822  36.062  24.011  1.00  0.00    -0.203 F 
ATOM    111  F   UNL A   1      54.032  36.559  27.448  1.00  0.00    -0.200 F 
ATOM    112  C   UNL A   1      53.196  36.527  25.239  1.00  0.00     0.200 A 
ATOM    113  F   UNL A   1      52.312  36.500  23.050  1.00  0.00    -0.200 F 
ATOM    114  F   UNL A   1      54.423  36.764  24.756  1.00  0.00    -0.200 F 
ENDBRANCH  81 104
ENDBRANCH  55  56
ENDBRANCH  48  50
ENDBRANCH  47  48
ENDBRANCH  46  47
ENDBRANCH  45  46
ENDBRANCH  44  45
ENDBRANCH  43  44
ENDBRANCH  42  43
ENDBRANCH  41  42
ENDBRANCH   1  41
TORSDOF 23
ENDMDL
MODEL 2
REMARK VINA RESULT:     -10.7      4.319     10.509
REMARK SMILES O=C(Cn1nc(C(=O)OCCOCCOCCOCCOC(=O)c2ccc(-c3c4nc(c(-c5c(F)c(F)c(F)c(F)c5F)c5ccc([nH]5)c(-c5c(F)c(F)c(F)c(F)c5F)c5nc(c(-c6c(F)c(F)c(F)c(F)c6F)c6ccc3[nH]6)C=C5)C=C4)cc2)c2ccccc2c1=O)Nc1ccc2c(c1)C(=O)c1ccccc1C2=O
REMARK SMILES IDX 14 1 13 2 12 3 11 4 10 5 9 6 7 7 8 8 6 9 4 10 5 11 93 12
REMARK SMILES IDX 92 13 94 14 87 15 91 16 88 17 90 18 89 19 3 20 2 21 1 22
REMARK SMILES IDX 95 23 96 25 97 26 101 27 98 28 100 29 99 30 102 31 110 32
REMARK SMILES IDX 103 33 104 34 109 35 111 36 105 37 108 38 106 39 107 40
REMARK SMILES IDX 15 41 16 42 17 43 18 44 19 45 20 46 21 47 22 48 23 49 24 50
REMARK SMILES IDX 25 51 86 52 26 53 85 54 27 55 28 56 29 57 79 58 30 59 84 60
REMARK SMILES IDX 78 61 80 62 31 63 83 64 77 65 76 66 32 68 64 69 44 70 63 71
REMARK SMILES IDX 45 72 48 73 62 74 81 75 46 76 47 77 61 79 82 80 49 81 33 82
REMARK SMILES IDX 34 83 42 84 35 85 36 86 40 87 43 88 37 89 38 90 41 91 39 92
REMARK SMILES IDX 65 93 66 94 74 95 67 96 68 97 72 98 75 99 69 100 70 101
REMARK SMILES IDX 73 102 71 103 50 104 51 105 59 106 52 107 53 108 57 109
REMARK SMILES IDX 60 110 54 111 55 112 58 113 56 114
REMARK H PARENT 95 24 80 67 48 78
REMARK Flexibility Score: inf
ROOT
ATOM      1  C   UNL A   1      41.083  29.434  29.605  1.00  0.00     0.188 C 
ENDROOT
BRANCH   1   2
ATOM      2  C   UNL A   1      40.622  30.796  30.136  1.00  0.00     0.188 C 
BRANCH   2   3
ATOM      3  O   UNL A   1      39.300  30.744  30.668  1.00  0.00    -0.376 OA
BRANCH   3   4
ATOM      4  C   UNL A   1      39.129  31.165  32.013  1.00  0.00     0.202 C 
BRANCH   4   5
ATOM      5  C   UNL A   1      38.340  32.467  32.171  1.00  0.00     0.261 C 
BRANCH   5   6
ATOM      6  O   UNL A   1      37.233  32.587  31.266  1.00  0.00    -0.458 OA
BRANCH   6   7
ATOM      7  C   UNL A   1      35.995  32.355  31.735  1.00  0.00     0.359 C 
ATOM      8  O   UNL A   1      35.675  31.609  32.640  1.00  0.00    -0.244 OA
BRANCH   7   9
ATOM      9  C   UNL A   1      35.020  33.303  31.034  1.00  0.00     0.176 A 
ATOM     10  N   UNL A   1      33.850  33.859  29.112  1.00  0.00    -0.219 N 
ATOM     11  N   UNL A   1      34.678  33.006  29.812  1.00  0.00    -0.161 NA
ATOM     12  C   UNL A   1      33.354  35.052  29.626  1.00  0.00     0.275 A 
ATOM     13  C   UNL A   1      33.690  35.354  31.032  1.00  0.00     0.051 A 
ATOM     14  O   UNL A   1      32.666  35.839  28.980  1.00  0.00    -0.267 OA
ATOM     15  C   UNL A   1      34.536  34.504  31.739  1.00  0.00     0.022 A 
ATOM     16  C   UNL A   1      33.156  36.493  31.652  1.00  0.00     0.014 A 
ATOM     17  C   UNL A   1      34.879  34.815  33.063  1.00  0.00     0.011 A 
ATOM     18  C   UNL A   1      33.495  36.796  32.971  1.00  0.00     0.001 A 
ATOM     19  C   UNL A   1      34.367  35.965  33.670  1.00  0.00     0.001 A 
BRANCH  10  20
ATOM     20  C   UNL A   1      33.505  33.468  27.739  1.00  0.00     0.248 C 
BRANCH  20  21
ATOM     21  C   UNL A   1      33.683  31.965  27.539  1.00  0.00     0.246 C 
ATOM     22  O   UNL A   1      34.797  31.470  27.363  1.00  0.00    -0.273 OA
ATOM     23  N   UNL A   1      32.509  31.222  27.507  1.00  0.00    -0.324 N 
ATOM     24  H   UNL A   1      31.708  31.588  27.947  1.00  0.00     0.169 HD
BRANCH  23  25
ATOM     25  C   UNL A   1      32.412  29.965  26.872  1.00  0.00     0.042 A 
ATOM     26  C   UNL A   1      32.250  28.790  27.625  1.00  0.00     0.027 A 
ATOM     27  C   UNL A   1      32.275  29.915  25.489  1.00  0.00     0.039 A 
ATOM     28  C   UNL A   1      31.872  27.580  27.013  1.00  0.00     0.015 A 
ATOM     29  C   UNL A   1      31.805  28.740  24.920  1.00  0.00     0.036 A 
ATOM     30  C   UNL A   1      31.556  27.590  25.660  1.00  0.00     0.034 A 
ATOM     31  C   UNL A   1      31.261  28.812  23.571  1.00  0.00     0.194 C 
ATOM     32  C   UNL A   1      30.684  26.545  25.048  1.00  0.00     0.194 C 
ATOM     33  O   UNL A   1      31.896  29.265  22.665  1.00  0.00    -0.289 OA
ATOM     34  C   UNL A   1      29.896  28.278  23.469  1.00  0.00     0.034 A 
ATOM     35  C   UNL A   1      29.637  27.075  24.125  1.00  0.00     0.034 A 
ATOM     36  O   UNL A   1      30.721  25.377  25.392  1.00  0.00    -0.289 OA
ATOM     37  C   UNL A   1      28.876  29.035  22.906  1.00  0.00     0.013 A 
ATOM     38  C   UNL A   1      28.353  26.538  24.092  1.00  0.00     0.013 A 
ATOM     39  C   UNL A   1      27.575  28.540  22.945  1.00  0.00     0.001 A 
ATOM     40  C   UNL A   1      27.322  27.281  23.502  1.00  0.00     0.001 A 
ENDBRANCH  23  25
ENDBRANCH  20  21
ENDBRANCH  10  20
ENDBRANCH   7   9
ENDBRANCH   6   7
ENDBRANCH   5   6
ENDBRANCH   4   5
ENDBRANCH   3   4
ENDBRANCH   2   3
ENDBRANCH   1   2
BRANCH   1  41
ATOM     41  O   UNL A   1      40.022  28.635  29.108  1.00  0.00    -0.377 OA
BRANCH  41  42
ATOM     42  C   UNL A   1      39.985  28.511  27.691  1.00  0.00     0.188 C 
BRANCH  42  43
ATOM     43  C   UNL A   1      40.419  27.131  27.157  1.00  0.00     0.188 C 
BRANCH  43  44
ATOM     44  O   UNL A   1      39.905  25.933  27.733  1.00  0.00    -0.376 OA
BRANCH  44  45
ATOM     45  C   UNL A   1      39.413  24.904  26.885  1.00  0.00     0.202 C 
BRANCH  45  46
ATOM     46  C   UNL A   1      40.187  23.583  26.807  1.00  0.00     0.261 C 
BRANCH  46  47
ATOM     47  O   UNL A   1      41.542  23.671  27.266  1.00  0.00    -0.460 OA
BRANCH  47  48
ATOM     48  C   UNL A   1      42.483  23.760  26.295  1.00  0.00     0.338 C 
ATOM     49  O   UNL A   1      42.614  23.034  25.324  1.00  0.00    -0.246 OA
BRANCH  48  50
ATOM     50  C   UNL A   1      43.253  25.008  26.461  1.00  0.00     0.060 A 
ATOM     51  C   UNL A   1      43.741  25.406  27.704  1.00  0.00     0.016 A 
ATOM     52  C   UNL A   1      43.513  25.778  25.319  1.00  0.00     0.016 A 
ATOM     53  C   UNL A   1      44.499  26.578  27.802  1.00  0.00     0.010 A 
ATOM     54  C   UNL A   1      44.274  26.943  25.416  1.00  0.00     0.010 A 
ATOM     55  C   UNL A   1      44.799  27.336  26.654  1.00  0.00    -0.014 A 
BRANCH  55  56
ATOM     56  C   UNL A   1      45.824  28.410  26.704  1.00  0.00     0.031 A 
ATOM     57  C   UNL A   1      45.471  29.847  26.948  1.00  0.00     0.074 A 
ATOM     58  C   UNL A   1      47.101  28.062  26.450  1.00  0.00     0.049 A 
ATOM     59  N   UNL A   1      46.256  30.897  26.948  1.00  0.00    -0.248 NA
ATOM     60  C   UNL A   1      44.059  30.152  27.217  1.00  0.00     0.031 C 
ATOM     61  C   UNL A   1      47.553  26.700  26.164  1.00  0.00     0.029 A 
ATOM     62  N   UNL A   1      48.248  28.813  26.391  1.00  0.00    -0.354 N 
ATOM     63  C   UNL A   1      45.439  31.987  27.218  1.00  0.00     0.074 A 
ATOM     64  C   UNL A   1      44.088  31.474  27.345  1.00  0.00     0.031 C 
ATOM     65  C   UNL A   1      48.882  26.702  25.999  1.00  0.00     0.029 A 
ATOM     66  C   UNL A   1      49.370  28.073  26.111  1.00  0.00     0.049 A 
ATOM     67  H   UNL A   1      48.265  29.786  26.535  1.00  0.00     0.167 HD
ATOM     68  C   UNL A   1      45.793  33.288  27.357  1.00  0.00     0.037 A 
ATOM     69  C   UNL A   1      50.651  28.452  25.946  1.00  0.00     0.037 A 
ATOM     70  C   UNL A   1      47.143  33.785  27.235  1.00  0.00     0.049 A 
ATOM     71  C   UNL A   1      51.005  29.905  26.074  1.00  0.00     0.074 A 
ATOM     72  C   UNL A   1      47.600  35.084  27.392  1.00  0.00     0.029 A 
ATOM     73  N   UNL A   1      48.252  33.010  26.930  1.00  0.00    -0.354 N 
ATOM     74  N   UNL A   1      50.228  30.920  26.359  1.00  0.00    -0.248 NA
ATOM     75  C   UNL A   1      52.411  30.266  25.849  1.00  0.00     0.031 C 
ATOM     76  C   UNL A   1      48.974  35.101  27.135  1.00  0.00     0.029 A 
ATOM     77  C   UNL A   1      49.386  33.806  26.870  1.00  0.00     0.049 A 
ATOM     78  H   UNL A   1      48.236  32.036  26.777  1.00  0.00     0.167 HD
ATOM     79  C   UNL A   1      51.049  32.038  26.362  1.00  0.00     0.074 A 
ATOM     80  C   UNL A   1      52.390  31.572  26.073  1.00  0.00     0.031 C 
ATOM     81  C   UNL A   1      50.716  33.333  26.579  1.00  0.00     0.037 A 
BRANCH  68  82
ATOM     82  C   UNL A   1      44.716  34.289  27.669  1.00  0.00     0.064 A 
ATOM     83  C   UNL A   1      43.936  34.862  26.655  1.00  0.00     0.173 A 
ATOM     84  C   UNL A   1      44.383  34.589  29.000  1.00  0.00     0.173 A 
ATOM     85  F   UNL A   1      44.209  34.604  25.366  1.00  0.00    -0.203 F 
ATOM     86  C   UNL A   1      42.869  35.704  26.960  1.00  0.00     0.198 A 
ATOM     87  C   UNL A   1      43.299  35.411  29.301  1.00  0.00     0.198 A 
ATOM     88  F   UNL A   1      45.085  34.055  30.010  1.00  0.00    -0.203 F 
ATOM     89  F   UNL A   1      42.146  36.252  25.972  1.00  0.00    -0.200 F 
ATOM     90  C   UNL A   1      42.544  35.969  28.281  1.00  0.00     0.200 A 
ATOM     91  F   UNL A   1      42.974  35.647  30.580  1.00  0.00    -0.200 F 
ATOM     92  F   UNL A   1      41.500  36.757  28.573  1.00  0.00    -0.200 F 
ENDBRANCH  68  82
BRANCH  69  93
ATOM     93  C   UNL A   1      51.686  27.425  25.664  1.00  0.00     0.064 A 
ATOM     94  C   UNL A   1      52.366  26.790  26.711  1.00  0.00     0.173 A 
ATOM     95  C   UNL A   1      51.988  27.030  24.353  1.00  0.00     0.173 A 
ATOM     96  F   UNL A   1      52.127  27.147  27.981  1.00  0.00    -0.203 F 
ATOM     97  C   UNL A   1      53.312  25.800  26.456  1.00  0.00     0.198 A 
ATOM     98  C   UNL A   1      52.911  26.019  24.100  1.00  0.00     0.198 A 
ATOM     99  F   UNL A   1      51.360  27.606  23.316  1.00  0.00    -0.203 F 
ATOM    100  F   UNL A   1      53.973  25.230  27.473  1.00  0.00    -0.200 F 
ATOM    101  C   UNL A   1      53.576  25.408  25.152  1.00  0.00     0.200 A 
ATOM    102  F   UNL A   1      53.150  25.631  22.840  1.00  0.00    -0.200 F 
ATOM    103  F   UNL A   1      54.475  24.444  24.908  1.00  0.00    -0.200 F 
ENDBRANCH  69  93
BRANCH  81 104
ATOM    104  C   UNL A   1      51.822  34.345  26.523  1.00  0.00     0.064 A 
ATOM    105  C   UNL A   1      52.678  34.555  27.614  1.00  0.00     0.173 A 
ATOM    106  C   UNL A   1      52.062  35.077  25.349  1.00  0.00     0.173 A 
ATOM    107  F   UNL A   1      52.480  33.893  28.764  1.00  0.00    -0.203 F 
ATOM    108  C   UNL A   1      53.724  35.471  27.538  1.00  0.00     0.198 A 
ATOM    109  C   UNL A   1      53.127  35.970  25.267  1.00  0.00     0.198 A 
ATOM    110  F   UNL A   1      51.275  34.911  24.276  1.00  0.00    -0.203 F 
ATOM    111  F   UNL A   1      54.505  35.683  28.606  1.00  0.00    -0.200 F 
ATOM    112  C   UNL A   1      53.953  36.170  26.362  1.00  0.00     0.200 A 
ATOM    113  F   UNL A   1      53.354  36.636  24.126  1.00  0.00    -0.200 F 
ATOM    114  F   UNL A   1      54.968  37.042  26.287  1.00  0.00    -0.200 F 
ENDBRANCH  81 104
ENDBRANCH  55  56
ENDBRANCH  48  50
ENDBRANCH  47  48
ENDBRANCH  46  47
ENDBRANCH  45  46
ENDBRANCH  44  45
ENDBRANCH  43  44
ENDBRANCH  42  43
ENDBRANCH  41  42
ENDBRANCH   1  41
TORSDOF 23
ENDMDL
MODEL 3
REMARK VINA RESULT:     -10.6      7.081     11.219
REMARK SMILES O=C(Cn1nc(C(=O)OCCOCCOCCOCCOC(=O)c2ccc(-c3c4nc(c(-c5c(F)c(F)c(F)c(F)c5F)c5ccc([nH]5)c(-c5c(F)c(F)c(F)c(F)c5F)c5nc(c(-c6c(F)c(F)c(F)c(F)c6F)c6ccc3[nH]6)C=C5)C=C4)cc2)c2ccccc2c1=O)Nc1ccc2c(c1)C(=O)c1ccccc1C2=O
REMARK SMILES IDX 14 1 13 2 12 3 11 4 10 5 9 6 7 7 8 8 6 9 4 10 5 11 93 12
REMARK SMILES IDX 92 13 94 14 87 15 91 16 88 17 90 18 89 19 3 20 2 21 1 22
REMARK SMILES IDX 95 23 96 25 97 26 101 27 98 28 100 29 99 30 102 31 110 32
REMARK SMILES IDX 103 33 104 34 109 35 111 36 105 37 108 38 106 39 107 40
REMARK SMILES IDX 15 41 16 42 17 43 18 44 19 45 20 46 21 47 22 48 23 49 24 50
REMARK SMILES IDX 25 51 86 52 26 53 85 54 27 55 28 56 29 57 79 58 30 59 84 60
REMARK SMILES IDX 78 61 80 62 31 63 83 64 77 65 76 66 32 68 64 69 44 70 63 71
REMARK SMILES IDX 45 72 48 73 62 74 81 75 46 76 47 77 61 79 82 80 49 81 33 82
REMARK SMILES IDX 34 83 42 84 35 85 36 86 40 87 43 88 37 89 38 90 41 91 39 92
REMARK SMILES IDX 65 93 66 94 74 95 67 96 68 97 72 98 75 99 69 100 70 101
REMARK SMILES IDX 73 102 71 103 50 104 51 105 59 106 52 107 53 108 57 109
REMARK SMILES IDX 60 110 54 111 55 112 58 113 56 114
REMARK H PARENT 95 24 80 67 48 78
REMARK Flexibility Score: inf
ROOT
ATOM      1  C   UNL A   1      41.545  30.355  29.496  1.00  0.00     0.188 C 
ENDROOT
BRANCH   1   2
ATOM      2  C   UNL A   1      41.810  28.925  29.011  1.00  0.00     0.188 C 
BRANCH   2   3
ATOM      3  O   UNL A   1      42.914  28.860  28.112  1.00  0.00    -0.376 OA
BRANCH   3   4
ATOM      4  C   UNL A   1      42.658  28.353  26.811  1.00  0.00     0.202 C 
BRANCH   4   5
ATOM      5  C   UNL A   1      41.176  28.136  26.499  1.00  0.00     0.261 C 
BRANCH   5   6
ATOM      6  O   UNL A   1      40.817  26.757  26.325  1.00  0.00    -0.458 OA
BRANCH   6   7
ATOM      7  C   UNL A   1      40.058  26.171  27.267  1.00  0.00     0.359 C 
ATOM      8  O   UNL A   1      39.175  26.680  27.930  1.00  0.00    -0.244 OA
BRANCH   7   9
ATOM      9  C   UNL A   1      40.380  24.674  27.292  1.00  0.00     0.176 A 
ATOM     10  N   UNL A   1      39.787  22.520  26.679  1.00  0.00    -0.219 N 
ATOM     11  N   UNL A   1      39.578  23.884  26.638  1.00  0.00    -0.161 NA
ATOM     12  C   UNL A   1      40.810  21.915  27.400  1.00  0.00     0.275 A 
ATOM     13  C   UNL A   1      41.756  22.817  28.087  1.00  0.00     0.051 A 
ATOM     14  O   UNL A   1      40.957  20.697  27.482  1.00  0.00    -0.267 OA
ATOM     15  C   UNL A   1      41.542  24.192  28.061  1.00  0.00     0.022 A 
ATOM     16  C   UNL A   1      42.866  22.288  28.761  1.00  0.00     0.014 A 
ATOM     17  C   UNL A   1      42.425  25.042  28.744  1.00  0.00     0.011 A 
ATOM     18  C   UNL A   1      43.745  23.137  29.435  1.00  0.00     0.001 A 
ATOM     19  C   UNL A   1      43.515  24.510  29.438  1.00  0.00     0.001 A 
BRANCH  10  20
ATOM     20  C   UNL A   1      38.845  21.683  25.923  1.00  0.00     0.248 C 
BRANCH  20  21
ATOM     21  C   UNL A   1      37.595  22.474  25.545  1.00  0.00     0.246 C 
ATOM     22  O   UNL A   1      37.125  23.327  26.298  1.00  0.00    -0.273 OA
ATOM     23  N   UNL A   1      37.004  22.118  24.338  1.00  0.00    -0.324 N 
ATOM     24  H   UNL A   1      37.559  21.680  23.654  1.00  0.00     0.169 HD
BRANCH  23  25
ATOM     25  C   UNL A   1      35.643  22.355  24.050  1.00  0.00     0.042 A 
ATOM     26  C   UNL A   1      34.637  21.562  24.626  1.00  0.00     0.027 A 
ATOM     27  C   UNL A   1      35.290  23.504  23.349  1.00  0.00     0.039 A 
ATOM     28  C   UNL A   1      33.285  21.952  24.577  1.00  0.00     0.015 A 
ATOM     29  C   UNL A   1      33.969  23.922  23.400  1.00  0.00     0.036 A 
ATOM     30  C   UNL A   1      32.972  23.195  24.040  1.00  0.00     0.034 A 
ATOM     31  C   UNL A   1      33.682  25.307  23.050  1.00  0.00     0.194 C 
ATOM     32  C   UNL A   1      31.709  23.908  24.390  1.00  0.00     0.194 C 
ATOM     33  O   UNL A   1      34.027  25.770  22.002  1.00  0.00    -0.289 OA
ATOM     34  C   UNL A   1      32.948  26.028  24.097  1.00  0.00     0.034 A 
ATOM     35  C   UNL A   1      31.881  25.359  24.695  1.00  0.00     0.034 A 
ATOM     36  O   UNL A   1      30.653  23.324  24.565  1.00  0.00    -0.289 OA
ATOM     37  C   UNL A   1      33.417  27.239  24.591  1.00  0.00     0.013 A 
ATOM     38  C   UNL A   1      31.168  25.980  25.718  1.00  0.00     0.013 A 
ATOM     39  C   UNL A   1      32.758  27.823  25.670  1.00  0.00     0.001 A 
ATOM     40  C   UNL A   1      31.617  27.214  26.205  1.00  0.00     0.001 A 
ENDBRANCH  23  25
ENDBRANCH  20  21
ENDBRANCH  10  20
ENDBRANCH   7   9
ENDBRANCH   6   7
ENDBRANCH   5   6
ENDBRANCH   4   5
ENDBRANCH   3   4
ENDBRANCH   2   3
ENDBRANCH   1   2
BRANCH   1  41
ATOM     41  O   UNL A   1      40.200  30.577  29.888  1.00  0.00    -0.377 OA
BRANCH  41  42
ATOM     42  C   UNL A   1      39.348  29.446  29.754  1.00  0.00     0.188 C 
BRANCH  42  43
ATOM     43  C   UNL A   1      37.843  29.779  29.709  1.00  0.00     0.188 C 
BRANCH  43  44
ATOM     44  O   UNL A   1      37.162  29.903  28.464  1.00  0.00    -0.376 OA
BRANCH  44  45
ATOM     45  C   UNL A   1      36.594  31.153  28.099  1.00  0.00     0.202 C 
BRANCH  45  46
ATOM     46  C   UNL A   1      35.435  31.707  28.935  1.00  0.00     0.261 C 
BRANCH  46  47
ATOM     47  O   UNL A   1      35.774  32.867  29.707  1.00  0.00    -0.460 OA
BRANCH  47  48
ATOM     48  C   UNL A   1      35.424  32.819  31.015  1.00  0.00     0.338 C 
ATOM     49  O   UNL A   1      34.307  32.949  31.488  1.00  0.00    -0.246 OA
BRANCH  48  50
ATOM     50  C   UNL A   1      36.582  32.391  31.824  1.00  0.00     0.060 A 
ATOM     51  C   UNL A   1      37.865  32.879  31.581  1.00  0.00     0.016 A 
ATOM     52  C   UNL A   1      36.354  31.493  32.876  1.00  0.00     0.016 A 
ATOM     53  C   UNL A   1      38.922  32.471  32.401  1.00  0.00     0.010 A 
ATOM     54  C   UNL A   1      37.407  31.092  33.698  1.00  0.00     0.010 A 
ATOM     55  C   UNL A   1      38.695  31.601  33.485  1.00  0.00    -0.014 A 
BRANCH  55  56
ATOM     56  C   UNL A   1      39.743  31.389  34.516  1.00  0.00     0.031 A 
ATOM     57  C   UNL A   1      40.018  32.387  35.601  1.00  0.00     0.074 A 
ATOM     58  C   UNL A   1      40.505  30.283  34.408  1.00  0.00     0.049 A 
ATOM     59  N   UNL A   1      40.949  32.363  36.523  1.00  0.00    -0.248 NA
ATOM     60  C   UNL A   1      39.147  33.570  35.656  1.00  0.00     0.031 C 
ATOM     61  C   UNL A   1      40.350  29.261  33.371  1.00  0.00     0.029 A 
ATOM     62  N   UNL A   1      41.553  29.829  35.168  1.00  0.00    -0.354 N 
ATOM     63  C   UNL A   1      40.778  33.520  37.271  1.00  0.00     0.074 A 
ATOM     64  C   UNL A   1      39.672  34.243  36.675  1.00  0.00     0.031 C 
ATOM     65  C   UNL A   1      41.240  28.283  33.580  1.00  0.00     0.029 A 
ATOM     66  C   UNL A   1      42.066  28.633  34.731  1.00  0.00     0.049 A 
ATOM     67  H   UNL A   1      41.904  30.313  35.950  1.00  0.00     0.167 HD
ATOM     68  C   UNL A   1      41.476  33.927  38.360  1.00  0.00     0.037 A 
ATOM     69  C   UNL A   1      43.097  27.900  35.192  1.00  0.00     0.037 A 
ATOM     70  C   UNL A   1      42.571  33.193  38.949  1.00  0.00     0.049 A 
ATOM     71  C   UNL A   1      43.871  28.395  36.379  1.00  0.00     0.074 A 
ATOM     72  C   UNL A   1      43.317  33.514  40.072  1.00  0.00     0.029 A 
ATOM     73  N   UNL A   1      43.078  31.996  38.467  1.00  0.00    -0.354 N 
ATOM     74  N   UNL A   1      43.680  29.475  37.095  1.00  0.00    -0.248 NA
ATOM     75  C   UNL A   1      45.008  27.574  36.817  1.00  0.00     0.031 C 
ATOM     76  C   UNL A   1      44.302  32.536  40.241  1.00  0.00     0.029 A 
ATOM     77  C   UNL A   1      44.140  31.578  39.256  1.00  0.00     0.049 A 
ATOM     78  H   UNL A   1      42.734  31.513  37.680  1.00  0.00     0.167 HD
ATOM     79  C   UNL A   1      44.661  29.459  38.075  1.00  0.00     0.074 A 
ATOM     80  C   UNL A   1      45.431  28.249  37.877  1.00  0.00     0.031 C 
ATOM     81  C   UNL A   1      44.902  30.372  39.048  1.00  0.00     0.037 A 
BRANCH  68  82
ATOM     82  C   UNL A   1      41.086  35.223  39.012  1.00  0.00     0.064 A 
ATOM     83  C   UNL A   1      40.078  35.276  39.986  1.00  0.00     0.173 A 
ATOM     84  C   UNL A   1      41.804  36.401  38.748  1.00  0.00     0.173 A 
ATOM     85  F   UNL A   1      39.365  34.178  40.280  1.00  0.00    -0.203 F 
ATOM     86  C   UNL A   1      39.798  36.460  40.666  1.00  0.00     0.198 A 
ATOM     87  C   UNL A   1      41.538  37.576  39.448  1.00  0.00     0.198 A 
ATOM     88  F   UNL A   1      42.789  36.402  37.839  1.00  0.00    -0.203 F 
ATOM     89  F   UNL A   1      38.821  36.490  41.583  1.00  0.00    -0.200 F 
ATOM     90  C   UNL A   1      40.535  37.605  40.404  1.00  0.00     0.200 A 
ATOM     91  F   UNL A   1      42.266  38.675  39.210  1.00  0.00    -0.200 F 
ATOM     92  F   UNL A   1      40.282  38.736  41.079  1.00  0.00    -0.200 F 
ENDBRANCH  68  82
BRANCH  69  93
ATOM     93  C   UNL A   1      43.432  26.613  34.533  1.00  0.00     0.064 A 
ATOM     94  C   UNL A   1      44.365  26.566  33.489  1.00  0.00     0.173 A 
ATOM     95  C   UNL A   1      42.861  25.403  34.955  1.00  0.00     0.173 A 
ATOM     96  F   UNL A   1      44.923  27.699  33.037  1.00  0.00    -0.203 F 
ATOM     97  C   UNL A   1      44.712  25.358  32.890  1.00  0.00     0.198 A 
ATOM     98  C   UNL A   1      43.231  24.192  34.376  1.00  0.00     0.198 A 
ATOM     99  F   UNL A   1      41.965  25.395  35.954  1.00  0.00    -0.203 F 
ATOM    100  F   UNL A   1      45.583  25.343  31.871  1.00  0.00    -0.200 F 
ATOM    101  C   UNL A   1      44.153  24.171  33.341  1.00  0.00     0.200 A 
ATOM    102  F   UNL A   1      42.703  23.046  34.827  1.00  0.00    -0.200 F 
ATOM    103  F   UNL A   1      44.499  23.006  32.774  1.00  0.00    -0.200 F 
ENDBRANCH  69  93
BRANCH  81 104
ATOM    104  C   UNL A   1      46.041  30.094  39.983  1.00  0.00     0.064 A 
ATOM    105  C   UNL A   1      45.862  29.339  41.151  1.00  0.00     0.173 A 
ATOM    106  C   UNL A   1      47.337  30.543  39.683  1.00  0.00     0.173 A 
ATOM    107  F   UNL A   1      44.639  28.902  41.491  1.00  0.00    -0.203 F 
ATOM    108  C   UNL A   1      46.934  29.057  41.994  1.00  0.00     0.198 A 
ATOM    109  C   UNL A   1      48.412  30.234  40.512  1.00  0.00     0.198 A 
ATOM    110  F   UNL A   1      47.564  31.265  38.576  1.00  0.00    -0.203 F 
ATOM    111  F   UNL A   1      46.732  28.367  43.125  1.00  0.00    -0.200 F 
ATOM    112  C   UNL A   1      48.209  29.496  41.669  1.00  0.00     0.200 A 
ATOM    113  F   UNL A   1      49.645  30.648  40.190  1.00  0.00    -0.200 F 
ATOM    114  F   UNL A   1      49.242  29.212  42.473  1.00  0.00    -0.200 F 
ENDBRANCH  81 104
ENDBRANCH  55  56
ENDBRANCH  48  50
ENDBRANCH  47  48
ENDBRANCH  46  47
ENDBRANCH  45  46
ENDBRANCH  44  45
ENDBRANCH  43  44
ENDBRANCH  42  43
ENDBRANCH  41  42
ENDBRANCH   1  41
TORSDOF 23
ENDMDL
