MODEL 1
REMARK VINA RESULT:     -11.6      0.000      0.000
REMARK SMILES CN1C(=O)C[C@@H](C(=O)OCCOCCOCCOCCOC(=O)c2ccc(-c3c4nc(c(-c5c(F)c(F)c(F)c(F)c5F)c5ccc([nH]5)c(-c5c(F)c(F)c(F)c(F)c5F)c5nc(c(-c6c(F)c(F)c(F)c(F)c6F)c6ccc3[nH]6)C=C5)C=C4)cc2)C12CCN(C(=O)c1cccc3ccccc13)CC2
REMARK SMILES IDX 16 1 15 2 14 3 13 4 12 5 11 6 10 7 9 8 7 9 8 10 6 11 1 12
REMARK SMILES IDX 2 13 3 14 87 15 4 16 5 17 88 18 104 19 89 20 103 21 90 22
REMARK SMILES IDX 91 23 92 24 93 25 94 26 102 27 95 28 97 29 101 30 96 31
REMARK SMILES IDX 98 32 100 33 99 34 17 35 18 36 19 37 20 38 21 39 22 40 23 41
REMARK SMILES IDX 24 42 25 43 86 44 26 45 85 46 27 47 28 48 29 49 79 50 30 51
REMARK SMILES IDX 84 52 78 53 80 54 31 55 83 56 77 57 76 58 32 60 64 61 44 62
REMARK SMILES IDX 63 63 45 64 48 65 62 66 81 67 46 68 47 69 61 71 82 72 49 73
REMARK SMILES IDX 33 74 34 75 42 76 35 77 36 78 40 79 43 80 37 81 38 82 41 83
REMARK SMILES IDX 39 84 65 85 66 86 74 87 67 88 68 89 72 90 75 91 69 92 70 93
REMARK SMILES IDX 73 94 71 95 50 96 51 97 59 98 52 99 53 100 57 101 60 102
REMARK SMILES IDX 54 103 55 104 58 105 56 106
REMARK H PARENT 80 59 48 70
REMARK Flexibility Score: inf
ROOT
ATOM      1  C   UNL A   1      34.895  33.082  29.858  1.00  0.00     0.188 C 
ENDROOT
BRANCH   1   2
ATOM      2  O   UNL A   1      34.541  34.392  29.421  1.00  0.00    -0.377 OA
BRANCH   2   3
ATOM      3  C   UNL A   1      33.423  34.589  28.575  1.00  0.00     0.188 C 
BRANCH   3   4
ATOM      4  C   UNL A   1      33.109  33.436  27.626  1.00  0.00     0.188 C 
BRANCH   4   5
ATOM      5  O   UNL A   1      31.749  33.252  27.286  1.00  0.00    -0.376 OA
BRANCH   5   6
ATOM      6  C   UNL A   1      31.362  32.070  26.586  1.00  0.00     0.202 C 
BRANCH   6   7
ATOM      7  C   UNL A   1      32.031  30.705  26.843  1.00  0.00     0.261 C 
BRANCH   7   8
ATOM      8  O   UNL A   1      31.491  29.570  26.105  1.00  0.00    -0.463 OA
BRANCH   8   9
ATOM      9  C   UNL A   1      32.408  28.789  25.492  1.00  0.00     0.311 C 
ATOM     10  O   UNL A   1      33.522  28.555  25.967  1.00  0.00    -0.252 OA
BRANCH   9  11
ATOM     11  C   UNL A   1      32.115  28.287  24.085  1.00  0.00     0.134 C 
ATOM     12  C   UNL A   1      28.573  27.225  23.585  1.00  0.00     0.147 C 
ATOM     13  N   UNL A   1      29.871  27.868  23.620  1.00  0.00    -0.339 N 
ATOM     14  C   UNL A   1      30.028  29.233  23.423  1.00  0.00     0.223 C 
ATOM     15  C   UNL A   1      31.155  27.149  23.647  1.00  0.00     0.060 C 
ATOM     16  O   UNL A   1      29.144  30.056  23.255  1.00  0.00    -0.275 OA
ATOM     17  C   UNL A   1      31.503  29.533  23.399  1.00  0.00     0.118 C 
ATOM     18  C   UNL A   1      31.099  25.845  24.470  1.00  0.00     0.051 C 
ATOM     19  C   UNL A   1      31.496  26.729  22.174  1.00  0.00     0.051 C 
ATOM     20  C   UNL A   1      32.299  24.900  24.295  1.00  0.00     0.122 C 
ATOM     21  C   UNL A   1      32.722  25.832  22.060  1.00  0.00     0.122 C 
ATOM     22  N   UNL A   1      32.603  24.643  22.891  1.00  0.00    -0.338 N 
ATOM     23  C   UNL A   1      33.022  23.428  22.339  1.00  0.00     0.254 C 
ATOM     24  O   UNL A   1      33.266  23.284  21.141  1.00  0.00    -0.269 OA
BRANCH  23  25
ATOM     25  C   UNL A   1      33.310  22.258  23.199  1.00  0.00     0.047 A 
ATOM     26  C   UNL A   1      32.188  21.517  23.604  1.00  0.00     0.014 A 
ATOM     27  C   UNL A   1      34.597  21.979  23.722  1.00  0.00    -0.006 A 
ATOM     28  C   UNL A   1      32.323  20.483  24.525  1.00  0.00     0.001 A 
ATOM     29  C   UNL A   1      34.720  20.910  24.650  1.00  0.00    -0.018 A 
ATOM     30  C   UNL A   1      35.769  22.688  23.376  1.00  0.00     0.009 A 
ATOM     31  C   UNL A   1      33.579  20.189  25.051  1.00  0.00     0.009 A 
ATOM     32  C   UNL A   1      35.986  20.540  25.133  1.00  0.00     0.009 A 
ATOM     33  C   UNL A   1      37.020  22.311  23.873  1.00  0.00     0.001 A 
ATOM     34  C   UNL A   1      37.130  21.225  24.734  1.00  0.00     0.001 A 
ENDBRANCH  23  25
ENDBRANCH   9  11
ENDBRANCH   8   9
ENDBRANCH   7   8
ENDBRANCH   6   7
ENDBRANCH   5   6
ENDBRANCH   4   5
ENDBRANCH   3   4
ENDBRANCH   2   3
ENDBRANCH   1   2
BRANCH   1  35
ATOM     35  C   UNL A   1      34.783  32.718  31.343  1.00  0.00     0.188 C 
BRANCH  35  36
ATOM     36  O   UNL A   1      34.864  33.798  32.276  1.00  0.00    -0.376 OA
BRANCH  36  37
ATOM     37  C   UNL A   1      34.562  33.500  33.638  1.00  0.00     0.202 C 
BRANCH  37  38
ATOM     38  C   UNL A   1      35.600  34.039  34.607  1.00  0.00     0.261 C 
BRANCH  38  39
ATOM     39  O   UNL A   1      36.919  33.694  34.183  1.00  0.00    -0.460 OA
BRANCH  39  40
ATOM     40  C   UNL A   1      37.418  32.610  34.806  1.00  0.00     0.338 C 
ATOM     41  O   UNL A   1      37.295  32.280  35.969  1.00  0.00    -0.246 OA
BRANCH  40  42
ATOM     42  C   UNL A   1      38.104  31.796  33.802  1.00  0.00     0.060 A 
ATOM     43  C   UNL A   1      38.951  30.775  34.244  1.00  0.00     0.016 A 
ATOM     44  C   UNL A   1      38.017  32.144  32.453  1.00  0.00     0.016 A 
ATOM     45  C   UNL A   1      39.794  30.154  33.331  1.00  0.00     0.010 A 
ATOM     46  C   UNL A   1      38.856  31.514  31.538  1.00  0.00     0.010 A 
ATOM     47  C   UNL A   1      39.789  30.563  31.989  1.00  0.00    -0.014 A 
BRANCH  47  48
ATOM     48  C   UNL A   1      40.904  30.141  31.116  1.00  0.00     0.031 A 
ATOM     49  C   UNL A   1      42.119  31.023  31.030  1.00  0.00     0.074 A 
ATOM     50  C   UNL A   1      40.853  28.964  30.472  1.00  0.00     0.049 A 
ATOM     51  N   UNL A   1      43.242  30.830  30.387  1.00  0.00    -0.248 NA
ATOM     52  C   UNL A   1      42.061  32.293  31.773  1.00  0.00     0.031 C 
ATOM     53  C   UNL A   1      39.731  28.031  30.518  1.00  0.00     0.029 A 
ATOM     54  N   UNL A   1      41.774  28.353  29.664  1.00  0.00    -0.354 N 
ATOM     55  C   UNL A   1      44.024  31.947  30.656  1.00  0.00     0.074 A 
ATOM     56  C   UNL A   1      43.236  32.831  31.484  1.00  0.00     0.031 C 
ATOM     57  C   UNL A   1      40.031  26.955  29.772  1.00  0.00     0.029 A 
ATOM     58  C   UNL A   1      41.357  27.137  29.183  1.00  0.00     0.049 A 
ATOM     59  H   UNL A   1      42.650  28.747  29.449  1.00  0.00     0.167 HD
ATOM     60  C   UNL A   1      45.292  32.202  30.256  1.00  0.00     0.037 A 
ATOM     61  C   UNL A   1      41.981  26.278  28.357  1.00  0.00     0.037 A 
ATOM     62  C   UNL A   1      46.060  31.315  29.423  1.00  0.00     0.049 A 
ATOM     63  C   UNL A   1      43.368  26.611  27.877  1.00  0.00     0.074 A 
ATOM     64  C   UNL A   1      47.355  31.463  28.964  1.00  0.00     0.029 A 
ATOM     65  N   UNL A   1      45.588  30.112  28.916  1.00  0.00    -0.354 N 
ATOM     66  N   UNL A   1      44.114  27.650  28.161  1.00  0.00    -0.248 NA
ATOM     67  C   UNL A   1      44.001  25.648  26.966  1.00  0.00     0.031 C 
ATOM     68  C   UNL A   1      47.651  30.370  28.139  1.00  0.00     0.029 A 
ATOM     69  C   UNL A   1      46.556  29.519  28.124  1.00  0.00     0.049 A 
ATOM     70  H   UNL A   1      44.694  29.736  29.093  1.00  0.00     0.167 HD
ATOM     71  C   UNL A   1      45.309  27.463  27.481  1.00  0.00     0.074 A 
ATOM     72  C   UNL A   1      45.194  26.198  26.784  1.00  0.00     0.031 C 
ATOM     73  C   UNL A   1      46.405  28.262  27.437  1.00  0.00     0.037 A 
BRANCH  60  74
ATOM     74  C   UNL A   1      45.906  33.500  30.695  1.00  0.00     0.064 A 
ATOM     75  C   UNL A   1      45.757  34.677  29.944  1.00  0.00     0.173 A 
ATOM     76  C   UNL A   1      46.653  33.569  31.880  1.00  0.00     0.173 A 
ATOM     77  F   UNL A   1      45.068  34.660  28.793  1.00  0.00    -0.203 F 
ATOM     78  C   UNL A   1      46.360  35.866  30.348  1.00  0.00     0.198 A 
ATOM     79  C   UNL A   1      47.231  34.766  32.295  1.00  0.00     0.198 A 
ATOM     80  F   UNL A   1      46.826  32.474  32.635  1.00  0.00    -0.203 F 
ATOM     81  F   UNL A   1      46.249  36.964  29.587  1.00  0.00    -0.200 F 
ATOM     82  C   UNL A   1      47.092  35.911  31.525  1.00  0.00     0.200 A 
ATOM     83  F   UNL A   1      47.933  34.809  33.435  1.00  0.00    -0.200 F 
ATOM     84  F   UNL A   1      47.674  37.054  31.911  1.00  0.00    -0.200 F 
ENDBRANCH  60  74
BRANCH  61  85
ATOM     85  C   UNL A   1      41.298  25.023  27.950  1.00  0.00     0.064 A 
ATOM     86  C   UNL A   1      40.231  25.040  27.044  1.00  0.00     0.173 A 
ATOM     87  C   UNL A   1      41.721  23.779  28.440  1.00  0.00     0.173 A 
ATOM     88  F   UNL A   1      39.779  26.207  26.563  1.00  0.00    -0.203 F 
ATOM     89  C   UNL A   1      39.606  23.859  26.646  1.00  0.00     0.198 A 
ATOM     90  C   UNL A   1      41.112  22.596  28.023  1.00  0.00     0.198 A 
ATOM     91  F   UNL A   1      42.741  23.709  29.307  1.00  0.00    -0.203 F 
ATOM     92  F   UNL A   1      38.569  23.905  25.800  1.00  0.00    -0.200 F 
ATOM     93  C   UNL A   1      40.052  22.639  27.130  1.00  0.00     0.200 A 
ATOM     94  F   UNL A   1      41.556  21.419  28.482  1.00  0.00    -0.200 F 
ATOM     95  F   UNL A   1      39.460  21.502  26.736  1.00  0.00    -0.200 F 
ENDBRANCH  61  85
BRANCH  73  96
ATOM     96  C   UNL A   1      47.563  27.781  26.613  1.00  0.00     0.064 A 
ATOM     97  C   UNL A   1      48.678  27.171  27.204  1.00  0.00     0.173 A 
ATOM     98  C   UNL A   1      47.536  27.897  25.214  1.00  0.00     0.173 A 
ATOM     99  F   UNL A   1      48.755  27.052  28.538  1.00  0.00    -0.203 F 
ATOM    100  C   UNL A   1      49.737  26.714  26.426  1.00  0.00     0.198 A 
ATOM    101  C   UNL A   1      48.585  27.414  24.438  1.00  0.00     0.198 A 
ATOM    102  F   UNL A   1      46.487  28.467  24.604  1.00  0.00    -0.203 F 
ATOM    103  F   UNL A   1      50.814  26.175  27.013  1.00  0.00    -0.200 F 
ATOM    104  C   UNL A   1      49.687  26.830  25.044  1.00  0.00     0.200 A 
ATOM    105  F   UNL A   1      48.529  27.516  23.103  1.00  0.00    -0.200 F 
ATOM    106  F   UNL A   1      50.707  26.385  24.296  1.00  0.00    -0.200 F 
ENDBRANCH  73  96
ENDBRANCH  47  48
ENDBRANCH  40  42
ENDBRANCH  39  40
ENDBRANCH  38  39
ENDBRANCH  37  38
ENDBRANCH  36  37
ENDBRANCH  35  36
ENDBRANCH   1  35
TORSDOF 21
ENDMDL
MODEL 2
REMARK VINA RESULT:     -11.3      1.363      2.216
REMARK SMILES CN1C(=O)C[C@@H](C(=O)OCCOCCOCCOCCOC(=O)c2ccc(-c3c4nc(c(-c5c(F)c(F)c(F)c(F)c5F)c5ccc([nH]5)c(-c5c(F)c(F)c(F)c(F)c5F)c5nc(c(-c6c(F)c(F)c(F)c(F)c6F)c6ccc3[nH]6)C=C5)C=C4)cc2)C12CCN(C(=O)c1cccc3ccccc13)CC2
REMARK SMILES IDX 16 1 15 2 14 3 13 4 12 5 11 6 10 7 9 8 7 9 8 10 6 11 1 12
REMARK SMILES IDX 2 13 3 14 87 15 4 16 5 17 88 18 104 19 89 20 103 21 90 22
REMARK SMILES IDX 91 23 92 24 93 25 94 26 102 27 95 28 97 29 101 30 96 31
REMARK SMILES IDX 98 32 100 33 99 34 17 35 18 36 19 37 20 38 21 39 22 40 23 41
REMARK SMILES IDX 24 42 25 43 86 44 26 45 85 46 27 47 28 48 29 49 79 50 30 51
REMARK SMILES IDX 84 52 78 53 80 54 31 55 83 56 77 57 76 58 32 60 64 61 44 62
REMARK SMILES IDX 63 63 45 64 48 65 62 66 81 67 46 68 47 69 61 71 82 72 49 73
REMARK SMILES IDX 33 74 34 75 42 76 35 77 36 78 40 79 43 80 37 81 38 82 41 83
REMARK SMILES IDX 39 84 65 85 66 86 74 87 67 88 68 89 72 90 75 91 69 92 70 93
REMARK SMILES IDX 73 94 71 95 50 96 51 97 59 98 52 99 53 100 57 101 60 102
REMARK SMILES IDX 54 103 55 104 58 105 56 106
REMARK H PARENT 80 59 48 70
REMARK Flexibility Score: inf
ROOT
ATOM      1  C   UNL A   1      33.873  34.529  28.163  1.00  0.00     0.188 C 
ENDROOT
BRANCH   1   2
ATOM      2  O   UNL A   1      35.144  34.154  27.635  1.00  0.00    -0.377 OA
BRANCH   2   3
ATOM      3  C   UNL A   1      35.672  32.864  27.884  1.00  0.00     0.188 C 
BRANCH   3   4
ATOM      4  C   UNL A   1      34.702  31.871  28.517  1.00  0.00     0.188 C 
BRANCH   4   5
ATOM      5  O   UNL A   1      34.854  30.516  28.143  1.00  0.00    -0.376 OA
BRANCH   5   6
ATOM      6  C   UNL A   1      33.916  29.936  27.236  1.00  0.00     0.202 C 
BRANCH   6   7
ATOM      7  C   UNL A   1      32.686  30.709  26.720  1.00  0.00     0.261 C 
BRANCH   7   8
ATOM      8  O   UNL A   1      32.146  30.281  25.434  1.00  0.00    -0.463 OA
BRANCH   8   9
ATOM      9  C   UNL A   1      31.608  29.042  25.416  1.00  0.00     0.311 C 
ATOM     10  O   UNL A   1      31.348  28.403  26.439  1.00  0.00    -0.252 OA
BRANCH   9  11
ATOM     11  C   UNL A   1      31.445  28.337  24.077  1.00  0.00     0.134 C 
ATOM     12  C   UNL A   1      28.320  26.314  23.824  1.00  0.00     0.147 C 
ATOM     13  N   UNL A   1      29.394  27.283  23.744  1.00  0.00    -0.339 N 
ATOM     14  C   UNL A   1      29.171  28.612  23.411  1.00  0.00     0.223 C 
ATOM     15  C   UNL A   1      30.826  26.943  23.788  1.00  0.00     0.060 C 
ATOM     16  O   UNL A   1      28.094  29.144  23.202  1.00  0.00    -0.275 OA
ATOM     17  C   UNL A   1      30.508  29.294  23.300  1.00  0.00     0.118 C 
ATOM     18  C   UNL A   1      31.138  25.764  24.734  1.00  0.00     0.051 C 
ATOM     19  C   UNL A   1      31.250  26.481  22.350  1.00  0.00     0.051 C 
ATOM     20  C   UNL A   1      32.547  25.166  24.603  1.00  0.00     0.122 C 
ATOM     21  C   UNL A   1      32.672  25.942  22.274  1.00  0.00     0.122 C 
ATOM     22  N   UNL A   1      32.892  24.857  23.219  1.00  0.00    -0.338 N 
ATOM     23  C   UNL A   1      33.620  23.750  22.768  1.00  0.00     0.254 C 
ATOM     24  O   UNL A   1      33.878  23.554  21.581  1.00  0.00    -0.269 OA
BRANCH  23  25
ATOM     25  C   UNL A   1      34.226  22.796  23.724  1.00  0.00     0.047 A 
ATOM     26  C   UNL A   1      35.397  23.240  24.359  1.00  0.00     0.014 A 
ATOM     27  C   UNL A   1      33.770  21.463  23.883  1.00  0.00    -0.006 A 
ATOM     28  C   UNL A   1      36.129  22.377  25.168  1.00  0.00     0.001 A 
ATOM     29  C   UNL A   1      34.520  20.600  24.725  1.00  0.00    -0.018 A 
ATOM     30  C   UNL A   1      32.612  20.938  23.266  1.00  0.00     0.009 A 
ATOM     31  C   UNL A   1      35.699  21.064  25.341  1.00  0.00     0.009 A 
ATOM     32  C   UNL A   1      34.065  19.296  24.982  1.00  0.00     0.009 A 
ATOM     33  C   UNL A   1      32.177  19.636  23.527  1.00  0.00     0.001 A 
ATOM     34  C   UNL A   1      32.892  18.823  24.400  1.00  0.00     0.001 A 
ENDBRANCH  23  25
ENDBRANCH   9  11
ENDBRANCH   8   9
ENDBRANCH   7   8
ENDBRANCH   6   7
ENDBRANCH   5   6
ENDBRANCH   4   5
ENDBRANCH   3   4
ENDBRANCH   2   3
ENDBRANCH   1   2
BRANCH   1  35
ATOM     35  C   UNL A   1      33.747  35.799  29.013  1.00  0.00     0.188 C 
BRANCH  35  36
ATOM     36  O   UNL A   1      34.054  35.673  30.403  1.00  0.00    -0.376 OA
BRANCH  36  37
ATOM     37  C   UNL A   1      33.709  34.441  31.033  1.00  0.00     0.202 C 
BRANCH  37  38
ATOM     38  C   UNL A   1      34.762  33.963  32.018  1.00  0.00     0.261 C 
BRANCH  38  39
ATOM     39  O   UNL A   1      36.070  34.340  31.587  1.00  0.00    -0.460 OA
BRANCH  39  40
ATOM     40  C   UNL A   1      37.044  33.984  32.446  1.00  0.00     0.338 C 
ATOM     41  O   UNL A   1      37.216  34.353  33.592  1.00  0.00    -0.246 OA
BRANCH  40  42
ATOM     42  C   UNL A   1      37.867  32.969  31.790  1.00  0.00     0.060 A 
ATOM     43  C   UNL A   1      38.923  32.405  32.512  1.00  0.00     0.016 A 
ATOM     44  C   UNL A   1      37.679  32.697  30.434  1.00  0.00     0.016 A 
ATOM     45  C   UNL A   1      39.861  31.628  31.844  1.00  0.00     0.010 A 
ATOM     46  C   UNL A   1      38.615  31.910  29.767  1.00  0.00     0.010 A 
ATOM     47  C   UNL A   1      39.739  31.428  30.460  1.00  0.00    -0.014 A 
BRANCH  47  48
ATOM     48  C   UNL A   1      40.901  30.897  29.718  1.00  0.00     0.031 A 
ATOM     49  C   UNL A   1      42.071  31.807  29.470  1.00  0.00     0.074 A 
ATOM     50  C   UNL A   1      40.929  29.610  29.336  1.00  0.00     0.049 A 
ATOM     51  N   UNL A   1      43.221  31.548  28.904  1.00  0.00    -0.248 NA
ATOM     52  C   UNL A   1      41.926  33.199  29.927  1.00  0.00     0.031 C 
ATOM     53  C   UNL A   1      39.856  28.645  29.556  1.00  0.00     0.029 A 
ATOM     54  N   UNL A   1      41.905  28.895  28.693  1.00  0.00    -0.354 N 
ATOM     55  C   UNL A   1      43.937  32.738  28.945  1.00  0.00     0.074 A 
ATOM     56  C   UNL A   1      43.080  33.731  29.553  1.00  0.00     0.031 C 
ATOM     57  C   UNL A   1      40.233  27.455  29.059  1.00  0.00     0.029 A 
ATOM     58  C   UNL A   1      41.565  27.584  28.471  1.00  0.00     0.049 A 
ATOM     59  H   UNL A   1      42.765  29.284  28.415  1.00  0.00     0.167 HD
ATOM     60  C   UNL A   1      45.201  32.975  28.525  1.00  0.00     0.037 A 
ATOM     61  C   UNL A   1      42.257  26.607  27.857  1.00  0.00     0.037 A 
ATOM     62  C   UNL A   1      46.039  31.978  27.912  1.00  0.00     0.049 A 
ATOM     63  C   UNL A   1      43.639  26.910  27.343  1.00  0.00     0.074 A 
ATOM     64  C   UNL A   1      47.338  32.099  27.457  1.00  0.00     0.029 A 
ATOM     65  N   UNL A   1      45.644  30.671  27.662  1.00  0.00    -0.354 N 
ATOM     66  N   UNL A   1      44.322  28.026  27.416  1.00  0.00    -0.248 NA
ATOM     67  C   UNL A   1      44.348  25.814  26.669  1.00  0.00     0.031 C 
ATOM     68  C   UNL A   1      47.714  30.876  26.887  1.00  0.00     0.029 A 
ATOM     69  C   UNL A   1      46.665  29.980  27.031  1.00  0.00     0.049 A 
ATOM     70  H   UNL A   1      44.766  30.291  27.897  1.00  0.00     0.167 HD
ATOM     71  C   UNL A   1      45.546  27.768  26.814  1.00  0.00     0.074 A 
ATOM     72  C   UNL A   1      45.516  26.380  26.397  1.00  0.00     0.031 C 
ATOM     73  C   UNL A   1      46.600  28.600  26.622  1.00  0.00     0.037 A 
BRANCH  60  74
ATOM     74  C   UNL A   1      45.735  34.369  28.691  1.00  0.00     0.064 A 
ATOM     75  C   UNL A   1      45.685  35.306  27.648  1.00  0.00     0.173 A 
ATOM     76  C   UNL A   1      46.303  34.772  29.908  1.00  0.00     0.173 A 
ATOM     77  F   UNL A   1      45.169  34.965  26.457  1.00  0.00    -0.203 F 
ATOM     78  C   UNL A   1      46.213  36.586  27.808  1.00  0.00     0.198 A 
ATOM     79  C   UNL A   1      46.805  36.061  30.073  1.00  0.00     0.198 A 
ATOM     80  F   UNL A   1      46.375  33.916  30.938  1.00  0.00    -0.203 F 
ATOM     81  F   UNL A   1      46.204  37.446  26.780  1.00  0.00    -0.200 F 
ATOM     82  C   UNL A   1      46.768  36.963  29.021  1.00  0.00     0.200 A 
ATOM     83  F   UNL A   1      47.335  36.426  31.248  1.00  0.00    -0.200 F 
ATOM     84  F   UNL A   1      47.278  38.193  29.173  1.00  0.00    -0.200 F 
ENDBRANCH  60  74
BRANCH  61  85
ATOM     85  C   UNL A   1      41.652  25.259  27.711  1.00  0.00     0.064 A 
ATOM     86  C   UNL A   1      42.104  24.176  28.475  1.00  0.00     0.173 A 
ATOM     87  C   UNL A   1      40.589  25.035  26.824  1.00  0.00     0.173 A 
ATOM     88  F   UNL A   1      43.130  24.336  29.323  1.00  0.00    -0.203 F 
ATOM     89  C   UNL A   1      41.520  22.916  28.353  1.00  0.00     0.198 A 
ATOM     90  C   UNL A   1      39.989  23.781  26.720  1.00  0.00     0.198 A 
ATOM     91  F   UNL A   1      40.117  26.041  26.073  1.00  0.00    -0.203 F 
ATOM     92  F   UNL A   1      41.990  21.889  29.074  1.00  0.00    -0.200 F 
ATOM     93  C   UNL A   1      40.458  22.722  27.482  1.00  0.00     0.200 A 
ATOM     94  F   UNL A   1      38.955  23.603  25.889  1.00  0.00    -0.200 F 
ATOM     95  F   UNL A   1      39.888  21.514  27.376  1.00  0.00    -0.200 F 
ENDBRANCH  61  85
BRANCH  73  96
ATOM     96  C   UNL A   1      47.805  28.024  25.941  1.00  0.00     0.064 A 
ATOM     97  C   UNL A   1      48.930  27.611  26.668  1.00  0.00     0.173 A 
ATOM     98  C   UNL A   1      47.816  27.846  24.548  1.00  0.00     0.173 A 
ATOM     99  F   UNL A   1      48.970  27.775  27.999  1.00  0.00    -0.203 F 
ATOM    100  C   UNL A   1      50.034  27.062  26.024  1.00  0.00     0.198 A 
ATOM    101  C   UNL A   1      48.911  27.271  23.911  1.00  0.00     0.198 A 
ATOM    102  F   UNL A   1      46.760  28.219  23.811  1.00  0.00    -0.203 F 
ATOM    103  F   UNL A   1      51.117  26.715  26.733  1.00  0.00    -0.200 F 
ATOM    104  C   UNL A   1      50.021  26.886  24.648  1.00  0.00     0.200 A 
ATOM    105  F   UNL A   1      48.893  27.092  22.583  1.00  0.00    -0.200 F 
ATOM    106  F   UNL A   1      51.085  26.353  24.030  1.00  0.00    -0.200 F 
ENDBRANCH  73  96
ENDBRANCH  47  48
ENDBRANCH  40  42
ENDBRANCH  39  40
ENDBRANCH  38  39
ENDBRANCH  37  38
ENDBRANCH  36  37
ENDBRANCH  35  36
ENDBRANCH   1  35
TORSDOF 21
ENDMDL
MODEL 3
REMARK VINA RESULT:     -11.2      4.729     11.117
REMARK SMILES CN1C(=O)C[C@@H](C(=O)OCCOCCOCCOCCOC(=O)c2ccc(-c3c4nc(c(-c5c(F)c(F)c(F)c(F)c5F)c5ccc([nH]5)c(-c5c(F)c(F)c(F)c(F)c5F)c5nc(c(-c6c(F)c(F)c(F)c(F)c6F)c6ccc3[nH]6)C=C5)C=C4)cc2)C12CCN(C(=O)c1cccc3ccccc13)CC2
REMARK SMILES IDX 16 1 15 2 14 3 13 4 12 5 11 6 10 7 9 8 7 9 8 10 6 11 1 12
REMARK SMILES IDX 2 13 3 14 87 15 4 16 5 17 88 18 104 19 89 20 103 21 90 22
REMARK SMILES IDX 91 23 92 24 93 25 94 26 102 27 95 28 97 29 101 30 96 31
REMARK SMILES IDX 98 32 100 33 99 34 17 35 18 36 19 37 20 38 21 39 22 40 23 41
REMARK SMILES IDX 24 42 25 43 86 44 26 45 85 46 27 47 28 48 29 49 79 50 30 51
REMARK SMILES IDX 84 52 78 53 80 54 31 55 83 56 77 57 76 58 32 60 64 61 44 62
REMARK SMILES IDX 63 63 45 64 48 65 62 66 81 67 46 68 47 69 61 71 82 72 49 73
REMARK SMILES IDX 33 74 34 75 42 76 35 77 36 78 40 79 43 80 37 81 38 82 41 83
REMARK SMILES IDX 39 84 65 85 66 86 74 87 67 88 68 89 72 90 75 91 69 92 70 93
REMARK SMILES IDX 73 94 71 95 50 96 51 97 59 98 52 99 53 100 57 101 60 102
REMARK SMILES IDX 54 103 55 104 58 105 56 106
REMARK H PARENT 80 59 48 70
REMARK Flexibility Score: inf
ROOT
ATOM      1  C   UNL A   1      44.188  19.937  24.946  1.00  0.00     0.188 C 
ENDROOT
BRANCH   1   2
ATOM      2  O   UNL A   1      42.812  20.182  25.231  1.00  0.00    -0.377 OA
BRANCH   2   3
ATOM      3  C   UNL A   1      42.429  20.794  26.449  1.00  0.00     0.188 C 
BRANCH   3   4
ATOM      4  C   UNL A   1      41.481  21.982  26.315  1.00  0.00     0.188 C 
BRANCH   4   5
ATOM      5  O   UNL A   1      40.187  21.819  26.862  1.00  0.00    -0.376 OA
BRANCH   5   6
ATOM      6  C   UNL A   1      39.110  21.449  26.001  1.00  0.00     0.202 C 
BRANCH   6   7
ATOM      7  C   UNL A   1      37.952  22.411  25.673  1.00  0.00     0.261 C 
BRANCH   7   8
ATOM      8  O   UNL A   1      36.617  21.976  26.067  1.00  0.00    -0.463 OA
BRANCH   8   9
ATOM      9  C   UNL A   1      35.663  22.101  25.118  1.00  0.00     0.311 C 
ATOM     10  O   UNL A   1      35.887  22.546  23.990  1.00  0.00    -0.252 OA
BRANCH   9  11
ATOM     11  C   UNL A   1      34.217  21.815  25.496  1.00  0.00     0.134 C 
ATOM     12  C   UNL A   1      32.150  20.560  22.653  1.00  0.00     0.147 C 
ATOM     13  N   UNL A   1      32.941  20.772  23.850  1.00  0.00    -0.339 N 
ATOM     14  C   UNL A   1      33.623  19.740  24.480  1.00  0.00     0.223 C 
ATOM     15  C   UNL A   1      32.938  22.014  24.639  1.00  0.00     0.060 C 
ATOM     16  O   UNL A   1      33.700  18.580  24.112  1.00  0.00    -0.275 OA
ATOM     17  C   UNL A   1      34.225  20.287  25.746  1.00  0.00     0.118 C 
ATOM     18  C   UNL A   1      32.797  23.281  23.770  1.00  0.00     0.051 C 
ATOM     19  C   UNL A   1      31.681  21.979  25.578  1.00  0.00     0.051 C 
ATOM     20  C   UNL A   1      32.486  24.577  24.535  1.00  0.00     0.122 C 
ATOM     21  C   UNL A   1      31.452  23.275  26.345  1.00  0.00     0.122 C 
ATOM     22  N   UNL A   1      31.364  24.423  25.456  1.00  0.00    -0.338 N 
ATOM     23  C   UNL A   1      30.373  25.373  25.728  1.00  0.00     0.254 C 
ATOM     24  O   UNL A   1      29.454  25.175  26.523  1.00  0.00    -0.269 OA
BRANCH  23  25
ATOM     25  C   UNL A   1      30.442  26.734  25.150  1.00  0.00     0.047 A 
ATOM     26  C   UNL A   1      29.791  26.899  23.916  1.00  0.00     0.014 A 
ATOM     27  C   UNL A   1      31.237  27.770  25.700  1.00  0.00    -0.006 A 
ATOM     28  C   UNL A   1      29.908  28.093  23.213  1.00  0.00     0.001 A 
ATOM     29  C   UNL A   1      31.333  28.989  24.977  1.00  0.00    -0.018 A 
ATOM     30  C   UNL A   1      31.934  27.675  26.926  1.00  0.00     0.009 A 
ATOM     31  C   UNL A   1      30.682  29.126  23.736  1.00  0.00     0.009 A 
ATOM     32  C   UNL A   1      32.039  30.075  25.520  1.00  0.00     0.009 A 
ATOM     33  C   UNL A   1      32.638  28.764  27.448  1.00  0.00     0.001 A 
ATOM     34  C   UNL A   1      32.673  29.968  26.755  1.00  0.00     0.001 A 
ENDBRANCH  23  25
ENDBRANCH   9  11
ENDBRANCH   8   9
ENDBRANCH   7   8
ENDBRANCH   6   7
ENDBRANCH   5   6
ENDBRANCH   4   5
ENDBRANCH   3   4
ENDBRANCH   2   3
ENDBRANCH   1   2
BRANCH   1  35
ATOM     35  C   UNL A   1      45.265  20.830  25.572  1.00  0.00     0.188 C 
BRANCH  35  36
ATOM     36  O   UNL A   1      45.675  21.970  24.812  1.00  0.00    -0.376 OA
BRANCH  36  37
ATOM     37  C   UNL A   1      44.681  22.603  24.009  1.00  0.00     0.202 C 
BRANCH  37  38
ATOM     38  C   UNL A   1      44.130  23.870  24.639  1.00  0.00     0.261 C 
BRANCH  38  39
ATOM     39  O   UNL A   1      45.035  24.391  25.613  1.00  0.00    -0.460 OA
BRANCH  39  40
ATOM     40  C   UNL A   1      45.835  25.364  25.139  1.00  0.00     0.338 C 
ATOM     41  O   UNL A   1      46.690  25.290  24.277  1.00  0.00    -0.246 OA
BRANCH  40  42
ATOM     42  C   UNL A   1      45.451  26.615  25.793  1.00  0.00     0.060 A 
ATOM     43  C   UNL A   1      46.440  27.345  26.459  1.00  0.00     0.016 A 
ATOM     44  C   UNL A   1      44.104  26.971  25.865  1.00  0.00     0.016 A 
ATOM     45  C   UNL A   1      46.064  28.395  27.286  1.00  0.00     0.010 A 
ATOM     46  C   UNL A   1      43.729  28.031  26.687  1.00  0.00     0.010 A 
ATOM     47  C   UNL A   1      44.704  28.701  27.447  1.00  0.00    -0.014 A 
BRANCH  47  48
ATOM     48  C   UNL A   1      44.304  29.579  28.565  1.00  0.00     0.031 A 
ATOM     49  C   UNL A   1      44.057  28.957  29.912  1.00  0.00     0.074 A 
ATOM     50  C   UNL A   1      44.230  30.908  28.391  1.00  0.00     0.049 A 
ATOM     51  N   UNL A   1      43.763  29.529  31.051  1.00  0.00    -0.248 NA
ATOM     52  C   UNL A   1      44.160  27.490  29.984  1.00  0.00     0.031 C 
ATOM     53  C   UNL A   1      44.479  31.605  27.132  1.00  0.00     0.029 A 
ATOM     54  N   UNL A   1      43.935  31.907  29.281  1.00  0.00    -0.354 N 
ATOM     55  C   UNL A   1      43.656  28.495  31.973  1.00  0.00     0.074 A 
ATOM     56  C   UNL A   1      43.874  27.259  31.256  1.00  0.00     0.031 C 
ATOM     57  C   UNL A   1      44.332  32.925  27.330  1.00  0.00     0.029 A 
ATOM     58  C   UNL A   1      43.960  33.160  28.724  1.00  0.00     0.049 A 
ATOM     59  H   UNL A   1      43.725  31.741  30.228  1.00  0.00     0.167 HD
ATOM     60  C   UNL A   1      43.410  28.575  33.301  1.00  0.00     0.037 A 
ATOM     61  C   UNL A   1      43.704  34.357  29.284  1.00  0.00     0.037 A 
ATOM     62  C   UNL A   1      43.185  29.812  33.999  1.00  0.00     0.049 A 
ATOM     63  C   UNL A   1      43.374  34.416  30.751  1.00  0.00     0.074 A 
ATOM     64  C   UNL A   1      42.937  30.017  35.343  1.00  0.00     0.029 A 
ATOM     65  N   UNL A   1      43.171  31.062  33.392  1.00  0.00    -0.354 N 
ATOM     66  N   UNL A   1      43.308  33.439  31.623  1.00  0.00    -0.248 NA
ATOM     67  C   UNL A   1      43.090  35.743  31.312  1.00  0.00     0.031 C 
ATOM     68  C   UNL A   1      42.726  31.387  35.542  1.00  0.00     0.029 A 
ATOM     69  C   UNL A   1      42.891  32.041  34.330  1.00  0.00     0.049 A 
ATOM     70  H   UNL A   1      43.336  31.226  32.435  1.00  0.00     0.167 HD
ATOM     71  C   UNL A   1      42.991  34.030  32.838  1.00  0.00     0.074 A 
ATOM     72  C   UNL A   1      42.896  35.456  32.592  1.00  0.00     0.031 C 
ATOM     73  C   UNL A   1      42.797  33.451  34.049  1.00  0.00     0.037 A 
BRANCH  60  74
ATOM     74  C   UNL A   1      43.346  27.286  34.070  1.00  0.00     0.064 A 
ATOM     75  C   UNL A   1      42.121  26.705  34.434  1.00  0.00     0.173 A 
ATOM     76  C   UNL A   1      44.524  26.624  34.448  1.00  0.00     0.173 A 
ATOM     77  F   UNL A   1      40.966  27.308  34.114  1.00  0.00    -0.203 F 
ATOM     78  C   UNL A   1      42.080  25.526  35.175  1.00  0.00     0.198 A 
ATOM     79  C   UNL A   1      44.477  25.431  35.165  1.00  0.00     0.198 A 
ATOM     80  F   UNL A   1      45.720  27.137  34.125  1.00  0.00    -0.203 F 
ATOM     81  F   UNL A   1      40.899  25.019  35.558  1.00  0.00    -0.200 F 
ATOM     82  C   UNL A   1      43.257  24.888  35.535  1.00  0.00     0.200 A 
ATOM     83  F   UNL A   1      45.616  24.813  35.507  1.00  0.00    -0.200 F 
ATOM     84  F   UNL A   1      43.216  23.755  36.251  1.00  0.00    -0.200 F 
ENDBRANCH  60  74
BRANCH  61  85
ATOM     85  C   UNL A   1      43.766  35.585  28.452  1.00  0.00     0.064 A 
ATOM     86  C   UNL A   1      42.604  36.160  27.921  1.00  0.00     0.173 A 
ATOM     87  C   UNL A   1      44.988  36.224  28.195  1.00  0.00     0.173 A 
ATOM     88  F   UNL A   1      41.415  35.575  28.124  1.00  0.00    -0.203 F 
ATOM     89  C   UNL A   1      42.662  37.326  27.159  1.00  0.00     0.198 A 
ATOM     90  C   UNL A   1      45.042  37.404  27.454  1.00  0.00     0.198 A 
ATOM     91  F   UNL A   1      46.128  35.715  28.684  1.00  0.00    -0.203 F 
ATOM     92  F   UNL A   1      41.540  37.840  26.639  1.00  0.00    -0.200 F 
ATOM     93  C   UNL A   1      43.879  37.950  26.933  1.00  0.00     0.200 A 
ATOM     94  F   UNL A   1      46.218  38.010  27.250  1.00  0.00    -0.200 F 
ATOM     95  F   UNL A   1      43.932  39.079  26.212  1.00  0.00    -0.200 F 
ENDBRANCH  61  85
BRANCH  73  96
ATOM     96  C   UNL A   1      42.472  34.363  35.195  1.00  0.00     0.064 A 
ATOM     97  C   UNL A   1      41.146  34.613  35.578  1.00  0.00     0.173 A 
ATOM     98  C   UNL A   1      43.500  34.960  35.941  1.00  0.00     0.173 A 
ATOM     99  F   UNL A   1      40.131  34.076  34.885  1.00  0.00    -0.203 F 
ATOM    100  C   UNL A   1      40.860  35.447  36.654  1.00  0.00     0.198 A 
ATOM    101  C   UNL A   1      43.209  35.772  37.033  1.00  0.00     0.198 A 
ATOM    102  F   UNL A   1      44.783  34.744  35.618  1.00  0.00    -0.203 F 
ATOM    103  F   UNL A   1      39.586  35.709  36.976  1.00  0.00    -0.200 F 
ATOM    104  C   UNL A   1      41.891  36.020  37.384  1.00  0.00     0.200 A 
ATOM    105  F   UNL A   1      44.206  36.315  37.745  1.00  0.00    -0.200 F 
ATOM    106  F   UNL A   1      41.612  36.820  38.423  1.00  0.00    -0.200 F 
ENDBRANCH  73  96
ENDBRANCH  47  48
ENDBRANCH  40  42
ENDBRANCH  39  40
ENDBRANCH  38  39
ENDBRANCH  37  38
ENDBRANCH  36  37
ENDBRANCH  35  36
ENDBRANCH   1  35
TORSDOF 21
ENDMDL
