MODEL 1
REMARK VINA RESULT:      -9.2      0.000      0.000
REMARK SMILES CCC[NH+]1CCN(c2cc(C(=O)OCCOCCOCCOCCOC(=O)c3ccc(-c4c5nc(c(-c6c(F)c(F)c(F)c(F)c6F)c6ccc([nH]6)c(-c6c(F)c(F)c(F)c(F)c6F)c6nc(c(-c7c(F)c(F)c(F)c(F)c7F)c7ccc4[nH]7)C=C6)C=C5)cc3)c3cc(NC(=O)c4ccc(F)cc4)ccc3n2)CC1
REMARK SMILES IDX 18 1 17 2 16 3 15 4 14 5 13 6 11 7 12 8 10 9 8 10 9 11
REMARK SMILES IDX 107 12 106 13 91 14 105 15 92 16 104 17 93 18 7 19 4 20 5 21
REMARK SMILES IDX 109 22 6 24 108 25 3 26 2 27 1 28 94 29 95 30 96 32 97 33
REMARK SMILES IDX 98 34 103 35 99 36 102 37 100 38 101 39 19 40 20 41 21 42
REMARK SMILES IDX 22 43 23 44 24 45 25 46 26 47 27 48 28 49 29 50 90 51 30 52
REMARK SMILES IDX 89 53 31 54 32 55 33 56 83 57 34 58 88 59 82 60 84 61 35 62
REMARK SMILES IDX 87 63 81 64 80 65 36 67 68 68 48 69 67 70 49 71 52 72 66 73
REMARK SMILES IDX 85 74 50 75 51 76 65 78 86 79 53 80 37 81 38 82 46 83 39 84
REMARK SMILES IDX 40 85 44 86 47 87 41 88 42 89 45 90 43 91 69 92 70 93 78 94
REMARK SMILES IDX 71 95 72 96 76 97 79 98 73 99 74 100 77 101 75 102 54 103
REMARK SMILES IDX 55 104 63 105 56 106 57 107 61 108 64 109 58 110 59 111
REMARK SMILES IDX 62 112 60 113
REMARK H PARENT 4 23 94 31 84 66 52 77
REMARK Flexibility Score: inf
ROOT
ATOM      1  C   UNL A   1      40.248  24.923  26.897  1.00  0.00     0.188 C 
ENDROOT
BRANCH   1   2
ATOM      2  C   UNL A   1      40.451  25.731  28.197  1.00  0.00     0.188 C 
BRANCH   2   3
ATOM      3  O   UNL A   1      39.795  26.989  28.347  1.00  0.00    -0.376 OA
BRANCH   3   4
ATOM      4  C   UNL A   1      39.490  27.451  29.666  1.00  0.00     0.202 C 
BRANCH   4   5
ATOM      5  C   UNL A   1      38.168  28.202  29.826  1.00  0.00     0.261 C 
BRANCH   5   6
ATOM      6  O   UNL A   1      38.349  29.598  29.519  1.00  0.00    -0.460 OA
BRANCH   6   7
ATOM      7  C   UNL A   1      37.998  29.947  28.264  1.00  0.00     0.339 C 
ATOM      8  O   UNL A   1      38.638  29.733  27.247  1.00  0.00    -0.246 OA
BRANCH   7   9
ATOM      9  C   UNL A   1      36.596  30.409  28.228  1.00  0.00     0.073 A 
ATOM     10  C   UNL A   1      34.475  30.093  27.177  1.00  0.00     0.130 A 
ATOM     11  C   UNL A   1      35.754  29.645  27.410  1.00  0.00     0.063 A 
ATOM     12  N   UNL A   1      34.071  31.289  27.633  1.00  0.00    -0.231 NA
ATOM     13  C   UNL A   1      34.852  31.995  28.455  1.00  0.00     0.074 A 
ATOM     14  C   UNL A   1      36.117  31.570  28.879  1.00  0.00     0.017 A 
ATOM     15  C   UNL A   1      34.355  33.201  28.900  1.00  0.00     0.031 A 
ATOM     16  C   UNL A   1      36.773  32.316  29.906  1.00  0.00     0.037 A 
ATOM     17  C   UNL A   1      35.039  33.963  29.845  1.00  0.00     0.028 A 
ATOM     18  C   UNL A   1      36.228  33.500  30.410  1.00  0.00     0.042 A 
BRANCH  10  19
ATOM     19  N   UNL A   1      33.578  29.416  26.400  1.00  0.00    -0.345 N 
ATOM     20  N   UNL A   1      31.811  27.785  24.738  1.00  0.00    -0.332 N 
ATOM     21  C   UNL A   1      31.613  29.250  24.915  1.00  0.00     0.284 C 
ATOM     22  C   UNL A   1      33.247  27.490  24.909  1.00  0.00     0.284 C 
ATOM     23  H   UNL A   1      31.571  27.473  23.797  1.00  0.00     0.348 HD
ATOM     24  C   UNL A   1      32.195  29.846  26.231  1.00  0.00     0.179 C 
ATOM     25  C   UNL A   1      33.870  27.999  26.221  1.00  0.00     0.179 C 
BRANCH  20  26
ATOM     26  C   UNL A   1      30.886  27.033  25.595  1.00  0.00     0.262 C 
BRANCH  26  27
ATOM     27  C   UNL A   1      30.073  25.893  24.957  1.00  0.00     0.058 C 
ATOM     28  C   UNL A   1      28.889  26.376  24.127  1.00  0.00     0.010 C 
ENDBRANCH  26  27
ENDBRANCH  20  26
ENDBRANCH  10  19
BRANCH  18  29
ATOM     29  N   UNL A   1      36.718  34.280  31.472  1.00  0.00    -0.322 N 
ATOM     30  C   UNL A   1      37.491  34.057  32.580  1.00  0.00     0.255 C 
ATOM     31  H   UNL A   1      36.432  35.220  31.402  1.00  0.00     0.170 HD
ATOM     32  O   UNL A   1      37.596  34.948  33.424  1.00  0.00    -0.269 OA
BRANCH  30  33
ATOM     33  C   UNL A   1      38.177  32.791  32.850  1.00  0.00     0.040 A 
ATOM     34  C   UNL A   1      39.378  32.533  32.179  1.00  0.00     0.017 A 
ATOM     35  C   UNL A   1      37.586  31.817  33.660  1.00  0.00     0.017 A 
ATOM     36  C   UNL A   1      40.025  31.315  32.371  1.00  0.00     0.040 A 
ATOM     37  C   UNL A   1      38.255  30.613  33.874  1.00  0.00     0.040 A 
ATOM     38  C   UNL A   1      39.468  30.376  33.234  1.00  0.00     0.123 A 
ATOM     39  F   UNL A   1      40.113  29.222  33.452  1.00  0.00    -0.207 F 
ENDBRANCH  30  33
ENDBRANCH  18  29
ENDBRANCH   7   9
ENDBRANCH   6   7
ENDBRANCH   5   6
ENDBRANCH   4   5
ENDBRANCH   3   4
ENDBRANCH   2   3
ENDBRANCH   1   2
BRANCH   1  40
ATOM     40  O   UNL A   1      41.094  23.790  26.765  1.00  0.00    -0.377 OA
BRANCH  40  41
ATOM     41  C   UNL A   1      42.340  24.068  26.130  1.00  0.00     0.188 C 
BRANCH  41  42
ATOM     42  C   UNL A   1      43.020  22.872  25.444  1.00  0.00     0.188 C 
BRANCH  42  43
ATOM     43  O   UNL A   1      44.311  22.598  25.992  1.00  0.00    -0.376 OA
BRANCH  43  44
ATOM     44  C   UNL A   1      44.526  22.989  27.344  1.00  0.00     0.202 C 
BRANCH  44  45
ATOM     45  C   UNL A   1      45.717  23.938  27.549  1.00  0.00     0.261 C 
BRANCH  45  46
ATOM     46  O   UNL A   1      46.630  24.026  26.439  1.00  0.00    -0.460 OA
BRANCH  46  47
ATOM     47  C   UNL A   1      46.353  24.948  25.491  1.00  0.00     0.338 C 
ATOM     48  O   UNL A   1      46.328  24.783  24.291  1.00  0.00    -0.246 OA
BRANCH  47  49
ATOM     49  C   UNL A   1      45.894  26.184  26.162  1.00  0.00     0.060 A 
ATOM     50  C   UNL A   1      46.808  26.874  26.967  1.00  0.00     0.016 A 
ATOM     51  C   UNL A   1      44.571  26.626  26.051  1.00  0.00     0.016 A 
ATOM     52  C   UNL A   1      46.380  27.958  27.731  1.00  0.00     0.010 A 
ATOM     53  C   UNL A   1      44.141  27.708  26.826  1.00  0.00     0.010 A 
ATOM     54  C   UNL A   1      45.030  28.337  27.713  1.00  0.00    -0.014 A 
BRANCH  54  55
ATOM     55  C   UNL A   1      44.524  29.210  28.800  1.00  0.00     0.031 A 
ATOM     56  C   UNL A   1      44.286  28.595  30.153  1.00  0.00     0.074 A 
ATOM     57  C   UNL A   1      44.346  30.529  28.620  1.00  0.00     0.049 A 
ATOM     58  N   UNL A   1      43.953  29.166  31.283  1.00  0.00    -0.248 NA
ATOM     59  C   UNL A   1      44.454  27.135  30.243  1.00  0.00     0.031 C 
ATOM     60  C   UNL A   1      44.566  31.246  27.370  1.00  0.00     0.029 A 
ATOM     61  N   UNL A   1      43.953  31.500  29.505  1.00  0.00    -0.354 N 
ATOM     62  C   UNL A   1      43.883  28.140  32.215  1.00  0.00     0.074 A 
ATOM     63  C   UNL A   1      44.160  26.906  31.512  1.00  0.00     0.031 C 
ATOM     64  C   UNL A   1      44.314  32.552  27.566  1.00  0.00     0.029 A 
ATOM     65  C   UNL A   1      43.908  32.757  28.957  1.00  0.00     0.049 A 
ATOM     66  H   UNL A   1      43.723  31.314  30.445  1.00  0.00     0.167 HD
ATOM     67  C   UNL A   1      43.627  28.216  33.543  1.00  0.00     0.037 A 
ATOM     68  C   UNL A   1      43.588  33.937  29.521  1.00  0.00     0.037 A 
ATOM     69  C   UNL A   1      43.334  29.438  34.242  1.00  0.00     0.049 A 
ATOM     70  C   UNL A   1      43.241  33.990  30.986  1.00  0.00     0.074 A 
ATOM     71  C   UNL A   1      43.069  29.625  35.587  1.00  0.00     0.029 A 
ATOM     72  N   UNL A   1      43.250  30.686  33.641  1.00  0.00    -0.354 N 
ATOM     73  N   UNL A   1      43.227  33.024  31.873  1.00  0.00    -0.248 NA
ATOM     74  C   UNL A   1      42.878  35.307  31.529  1.00  0.00     0.031 C 
ATOM     75  C   UNL A   1      42.779  30.978  35.792  1.00  0.00     0.029 A 
ATOM     76  C   UNL A   1      42.915  31.645  34.584  1.00  0.00     0.049 A 
ATOM     77  H   UNL A   1      43.407  30.865  32.685  1.00  0.00     0.167 HD
ATOM     78  C   UNL A   1      42.895  33.620  33.084  1.00  0.00     0.074 A 
ATOM     79  C   UNL A   1      42.720  35.034  32.817  1.00  0.00     0.031 C 
ATOM     80  C   UNL A   1      42.755  33.050  34.307  1.00  0.00     0.037 A 
BRANCH  67  81
ATOM     81  C   UNL A   1      43.628  26.925  34.309  1.00  0.00     0.064 A 
ATOM     82  C   UNL A   1      44.822  26.321  34.734  1.00  0.00     0.173 A 
ATOM     83  C   UNL A   1      42.422  26.272  34.601  1.00  0.00     0.173 A 
ATOM     84  F   UNL A   1      46.003  26.895  34.461  1.00  0.00    -0.203 F 
ATOM     85  C   UNL A   1      44.809  25.090  35.386  1.00  0.00     0.198 A 
ATOM     86  C   UNL A   1      42.411  25.058  35.282  1.00  0.00     0.198 A 
ATOM     87  F   UNL A   1      41.253  26.807  34.219  1.00  0.00    -0.203 F 
ATOM     88  F   UNL A   1      45.964  24.500  35.722  1.00  0.00    -0.200 F 
ATOM     89  C   UNL A   1      43.604  24.462  35.662  1.00  0.00     0.200 A 
ATOM     90  F   UNL A   1      41.246  24.454  35.553  1.00  0.00    -0.200 F 
ATOM     91  F   UNL A   1      43.594  23.274  36.282  1.00  0.00    -0.200 F 
ENDBRANCH  67  81
BRANCH  68  92
ATOM     92  C   UNL A   1      43.628  35.180  28.708  1.00  0.00     0.064 A 
ATOM     93  C   UNL A   1      44.837  35.848  28.476  1.00  0.00     0.173 A 
ATOM     94  C   UNL A   1      42.461  35.728  28.157  1.00  0.00     0.173 A 
ATOM     95  F   UNL A   1      45.975  35.376  29.008  1.00  0.00    -0.203 F 
ATOM     96  C   UNL A   1      44.878  37.024  27.730  1.00  0.00     0.198 A 
ATOM     97  C   UNL A   1      42.506  36.892  27.392  1.00  0.00     0.198 A 
ATOM     98  F   UNL A   1      41.278  35.131  28.361  1.00  0.00    -0.203 F 
ATOM     99  F   UNL A   1      46.042  37.665  27.557  1.00  0.00    -0.200 F 
ATOM    100  C   UNL A   1      43.714  37.541  27.184  1.00  0.00     0.200 A 
ATOM    101  F   UNL A   1      41.380  37.389  26.862  1.00  0.00    -0.200 F 
ATOM    102  F   UNL A   1      43.754  38.673  26.467  1.00  0.00    -0.200 F 
ENDBRANCH  68  92
BRANCH  80 103
ATOM    103  C   UNL A   1      42.446  33.962  35.460  1.00  0.00     0.064 A 
ATOM    104  C   UNL A   1      43.455  34.645  36.156  1.00  0.00     0.173 A 
ATOM    105  C   UNL A   1      41.118  34.171  35.859  1.00  0.00     0.173 A 
ATOM    106  F   UNL A   1      44.743  34.470  35.822  1.00  0.00    -0.203 F 
ATOM    107  C   UNL A   1      43.148  35.475  37.231  1.00  0.00     0.198 A 
ATOM    108  C   UNL A   1      40.811  35.027  36.913  1.00  0.00     0.198 A 
ATOM    109  F   UNL A   1      40.114  33.550  35.221  1.00  0.00    -0.203 F 
ATOM    110  F   UNL A   1      44.131  36.073  37.916  1.00  0.00    -0.200 F 
ATOM    111  C   UNL A   1      41.826  35.670  37.605  1.00  0.00     0.200 A 
ATOM    112  F   UNL A   1      39.532  35.225  37.265  1.00  0.00    -0.200 F 
ATOM    113  F   UNL A   1      41.532  36.469  38.639  1.00  0.00    -0.200 F 
ENDBRANCH  80 103
ENDBRANCH  54  55
ENDBRANCH  47  49
ENDBRANCH  46  47
ENDBRANCH  45  46
ENDBRANCH  44  45
ENDBRANCH  43  44
ENDBRANCH  42  43
ENDBRANCH  41  42
ENDBRANCH  40  41
ENDBRANCH   1  40
TORSDOF 25
ENDMDL
MODEL 2
REMARK VINA RESULT:      -8.8      4.207     10.173
REMARK SMILES CCC[NH+]1CCN(c2cc(C(=O)OCCOCCOCCOCCOC(=O)c3ccc(-c4c5nc(c(-c6c(F)c(F)c(F)c(F)c6F)c6ccc([nH]6)c(-c6c(F)c(F)c(F)c(F)c6F)c6nc(c(-c7c(F)c(F)c(F)c(F)c7F)c7ccc4[nH]7)C=C6)C=C5)cc3)c3cc(NC(=O)c4ccc(F)cc4)ccc3n2)CC1
REMARK SMILES IDX 18 1 17 2 16 3 15 4 14 5 13 6 11 7 12 8 10 9 8 10 9 11
REMARK SMILES IDX 107 12 106 13 91 14 105 15 92 16 104 17 93 18 7 19 4 20 5 21
REMARK SMILES IDX 109 22 6 24 108 25 3 26 2 27 1 28 94 29 95 30 96 32 97 33
REMARK SMILES IDX 98 34 103 35 99 36 102 37 100 38 101 39 19 40 20 41 21 42
REMARK SMILES IDX 22 43 23 44 24 45 25 46 26 47 27 48 28 49 29 50 90 51 30 52
REMARK SMILES IDX 89 53 31 54 32 55 33 56 83 57 34 58 88 59 82 60 84 61 35 62
REMARK SMILES IDX 87 63 81 64 80 65 36 67 68 68 48 69 67 70 49 71 52 72 66 73
REMARK SMILES IDX 85 74 50 75 51 76 65 78 86 79 53 80 37 81 38 82 46 83 39 84
REMARK SMILES IDX 40 85 44 86 47 87 41 88 42 89 45 90 43 91 69 92 70 93 78 94
REMARK SMILES IDX 71 95 72 96 76 97 79 98 73 99 74 100 77 101 75 102 54 103
REMARK SMILES IDX 55 104 63 105 56 106 57 107 61 108 64 109 58 110 59 111
REMARK SMILES IDX 62 112 60 113
REMARK H PARENT 4 23 94 31 84 66 52 77
REMARK Flexibility Score: inf
ROOT
ATOM      1  C   UNL A   1      31.415  28.160  27.537  1.00  0.00     0.188 C 
ENDROOT
BRANCH   1   2
ATOM      2  C   UNL A   1      31.163  26.992  26.560  1.00  0.00     0.188 C 
BRANCH   2   3
ATOM      3  O   UNL A   1      31.603  25.681  26.910  1.00  0.00    -0.376 OA
BRANCH   3   4
ATOM      4  C   UNL A   1      30.821  24.559  26.491  1.00  0.00     0.202 C 
BRANCH   4   5
ATOM      5  C   UNL A   1      31.363  23.182  26.874  1.00  0.00     0.261 C 
BRANCH   5   6
ATOM      6  O   UNL A   1      31.294  22.289  25.745  1.00  0.00    -0.460 OA
BRANCH   6   7
ATOM      7  C   UNL A   1      32.455  21.671  25.446  1.00  0.00     0.339 C 
ATOM      8  O   UNL A   1      32.667  20.470  25.485  1.00  0.00    -0.246 OA
BRANCH   7   9
ATOM      9  C   UNL A   1      33.394  22.615  24.806  1.00  0.00     0.073 A 
ATOM     10  C   UNL A   1      33.570  24.711  23.676  1.00  0.00     0.130 A 
ATOM     11  C   UNL A   1      32.822  23.836  24.429  1.00  0.00     0.063 A 
ATOM     12  N   UNL A   1      34.784  24.362  23.219  1.00  0.00    -0.231 NA
ATOM     13  C   UNL A   1      35.352  23.223  23.621  1.00  0.00     0.074 A 
ATOM     14  C   UNL A   1      34.744  22.320  24.503  1.00  0.00     0.017 A 
ATOM     15  C   UNL A   1      36.609  22.948  23.127  1.00  0.00     0.031 A 
ATOM     16  C   UNL A   1      35.525  21.236  25.007  1.00  0.00     0.037 A 
ATOM     17  C   UNL A   1      37.336  21.844  23.566  1.00  0.00     0.028 A 
ATOM     18  C   UNL A   1      36.829  21.006  24.561  1.00  0.00     0.042 A 
BRANCH  10  19
ATOM     19  N   UNL A   1      33.104  25.927  23.264  1.00  0.00    -0.345 N 
ATOM     20  N   UNL A   1      31.915  28.416  22.297  1.00  0.00    -0.332 N 
ATOM     21  C   UNL A   1      33.339  28.324  22.725  1.00  0.00     0.284 C 
ATOM     22  C   UNL A   1      31.492  27.087  21.816  1.00  0.00     0.284 C 
ATOM     23  H   UNL A   1      31.787  29.053  21.510  1.00  0.00     0.348 HD
ATOM     24  C   UNL A   1      33.656  27.189  23.742  1.00  0.00     0.179 C 
ATOM     25  C   UNL A   1      31.721  25.928  22.802  1.00  0.00     0.179 C 
BRANCH  20  26
ATOM     26  C   UNL A   1      31.097  29.015  23.359  1.00  0.00     0.262 C 
BRANCH  26  27
ATOM     27  C   UNL A   1      29.586  29.168  23.109  1.00  0.00     0.058 C 
ATOM     28  C   UNL A   1      29.246  30.128  21.975  1.00  0.00     0.010 C 
ENDBRANCH  26  27
ENDBRANCH  20  26
ENDBRANCH  10  19
BRANCH  18  29
ATOM     29  N   UNL A   1      37.734  20.038  25.033  1.00  0.00    -0.322 N 
ATOM     30  C   UNL A   1      38.974  20.053  25.613  1.00  0.00     0.255 C 
ATOM     31  H   UNL A   1      37.390  19.123  24.915  1.00  0.00     0.170 HD
ATOM     32  O   UNL A   1      39.580  18.989  25.752  1.00  0.00    -0.269 OA
BRANCH  30  33
ATOM     33  C   UNL A   1      39.656  21.276  26.043  1.00  0.00     0.040 A 
ATOM     34  C   UNL A   1      41.053  21.260  26.127  1.00  0.00     0.017 A 
ATOM     35  C   UNL A   1      38.925  22.387  26.476  1.00  0.00     0.017 A 
ATOM     36  C   UNL A   1      41.728  22.389  26.586  1.00  0.00     0.040 A 
ATOM     37  C   UNL A   1      39.608  23.525  26.904  1.00  0.00     0.040 A 
ATOM     38  C   UNL A   1      41.000  23.517  26.949  1.00  0.00     0.123 A 
ATOM     39  F   UNL A   1      41.651  24.617  27.350  1.00  0.00    -0.207 F 
ENDBRANCH  30  33
ENDBRANCH  18  29
ENDBRANCH   7   9
ENDBRANCH   6   7
ENDBRANCH   5   6
ENDBRANCH   4   5
ENDBRANCH   3   4
ENDBRANCH   2   3
ENDBRANCH   1   2
BRANCH   1  40
ATOM     40  O   UNL A   1      32.400  29.089  27.108  1.00  0.00    -0.377 OA
BRANCH  40  41
ATOM     41  C   UNL A   1      31.865  30.312  26.608  1.00  0.00     0.188 C 
BRANCH  41  42
ATOM     42  C   UNL A   1      32.690  31.574  26.910  1.00  0.00     0.188 C 
BRANCH  42  43
ATOM     43  O   UNL A   1      33.603  31.375  27.990  1.00  0.00    -0.376 OA
BRANCH  43  44
ATOM     44  C   UNL A   1      34.517  32.434  28.256  1.00  0.00     0.202 C 
BRANCH  44  45
ATOM     45  C   UNL A   1      33.872  33.827  28.330  1.00  0.00     0.261 C 
BRANCH  45  46
ATOM     46  O   UNL A   1      32.973  34.029  29.437  1.00  0.00    -0.460 OA
BRANCH  46  47
ATOM     47  C   UNL A   1      33.266  35.038  30.286  1.00  0.00     0.338 C 
ATOM     48  O   UNL A   1      32.749  36.132  30.333  1.00  0.00    -0.246 OA
BRANCH  47  49
ATOM     49  C   UNL A   1      34.218  34.533  31.300  1.00  0.00     0.060 A 
ATOM     50  C   UNL A   1      35.376  35.280  31.545  1.00  0.00     0.016 A 
ATOM     51  C   UNL A   1      34.006  33.316  31.956  1.00  0.00     0.016 A 
ATOM     52  C   UNL A   1      36.367  34.770  32.381  1.00  0.00     0.010 A 
ATOM     53  C   UNL A   1      35.006  32.801  32.788  1.00  0.00     0.010 A 
ATOM     54  C   UNL A   1      36.214  33.499  32.954  1.00  0.00    -0.014 A 
BRANCH  54  55
ATOM     55  C   UNL A   1      37.412  32.819  33.503  1.00  0.00     0.031 A 
ATOM     56  C   UNL A   1      38.110  31.802  32.641  1.00  0.00     0.074 A 
ATOM     57  C   UNL A   1      37.916  33.141  34.705  1.00  0.00     0.049 A 
ATOM     58  N   UNL A   1      39.230  31.158  32.851  1.00  0.00    -0.248 NA
ATOM     59  C   UNL A   1      37.456  31.474  31.364  1.00  0.00     0.031 C 
ATOM     60  C   UNL A   1      37.349  34.125  35.621  1.00  0.00     0.029 A 
ATOM     61  N   UNL A   1      39.034  32.679  35.352  1.00  0.00    -0.354 N 
ATOM     62  C   UNL A   1      39.418  30.359  31.731  1.00  0.00     0.074 A 
ATOM     63  C   UNL A   1      38.276  30.562  30.866  1.00  0.00     0.031 C 
ATOM     64  C   UNL A   1      38.130  34.203  36.714  1.00  0.00     0.029 A 
ATOM     65  C   UNL A   1      39.246  33.268  36.573  1.00  0.00     0.049 A 
ATOM     66  H   UNL A   1      39.629  31.989  34.976  1.00  0.00     0.167 HD
ATOM     67  C   UNL A   1      40.456  29.542  31.436  1.00  0.00     0.037 A 
ATOM     68  C   UNL A   1      40.236  33.080  37.465  1.00  0.00     0.037 A 
ATOM     69  C   UNL A   1      41.584  29.323  32.301  1.00  0.00     0.049 A 
ATOM     70  C   UNL A   1      41.348  32.114  37.148  1.00  0.00     0.074 A 
ATOM     71  C   UNL A   1      42.693  28.522  32.094  1.00  0.00     0.029 A 
ATOM     72  N   UNL A   1      41.739  29.902  33.553  1.00  0.00    -0.354 N 
ATOM     73  N   UNL A   1      41.547  31.401  36.065  1.00  0.00    -0.248 NA
ATOM     74  C   UNL A   1      42.382  31.939  38.178  1.00  0.00     0.031 C 
ATOM     75  C   UNL A   1      43.495  28.579  33.239  1.00  0.00     0.029 A 
ATOM     76  C   UNL A   1      42.913  29.457  34.140  1.00  0.00     0.049 A 
ATOM     77  H   UNL A   1      41.107  30.537  33.964  1.00  0.00     0.167 HD
ATOM     78  C   UNL A   1      42.745  30.726  36.265  1.00  0.00     0.074 A 
ATOM     79  C   UNL A   1      43.230  31.120  37.572  1.00  0.00     0.031 C 
ATOM     80  C   UNL A   1      43.389  29.865  35.438  1.00  0.00     0.037 A 
BRANCH  67  81
ATOM     81  C   UNL A   1      40.390  28.803  30.132  1.00  0.00     0.064 A 
ATOM     82  C   UNL A   1      41.009  29.299  28.972  1.00  0.00     0.173 A 
ATOM     83  C   UNL A   1      39.680  27.598  30.033  1.00  0.00     0.173 A 
ATOM     84  F   UNL A   1      41.683  30.458  29.010  1.00  0.00    -0.203 F 
ATOM     85  C   UNL A   1      40.883  28.636  27.754  1.00  0.00     0.198 A 
ATOM     86  C   UNL A   1      39.583  26.921  28.820  1.00  0.00     0.198 A 
ATOM     87  F   UNL A   1      39.072  27.081  31.110  1.00  0.00    -0.203 F 
ATOM     88  F   UNL A   1      41.425  29.162  26.648  1.00  0.00    -0.200 F 
ATOM     89  C   UNL A   1      40.174  27.446  27.680  1.00  0.00     0.200 A 
ATOM     90  F   UNL A   1      38.903  25.769  28.750  1.00  0.00    -0.200 F 
ATOM     91  F   UNL A   1      40.046  26.814  26.505  1.00  0.00    -0.200 F 
ENDBRANCH  67  81
BRANCH  68  92
ATOM     92  C   UNL A   1      40.250  33.859  38.730  1.00  0.00     0.064 A 
ATOM     93  C   UNL A   1      39.502  33.442  39.839  1.00  0.00     0.173 A 
ATOM     94  C   UNL A   1      41.002  35.036  38.853  1.00  0.00     0.173 A 
ATOM     95  F   UNL A   1      38.744  32.338  39.757  1.00  0.00    -0.203 F 
ATOM     96  C   UNL A   1      39.495  34.179  41.021  1.00  0.00     0.198 A 
ATOM     97  C   UNL A   1      41.013  35.760  40.043  1.00  0.00     0.198 A 
ATOM     98  F   UNL A   1      41.726  35.481  37.816  1.00  0.00    -0.203 F 
ATOM     99  F   UNL A   1      38.739  33.780  42.052  1.00  0.00    -0.200 F 
ATOM    100  C   UNL A   1      40.256  35.333  41.124  1.00  0.00     0.200 A 
ATOM    101  F   UNL A   1      41.752  36.874  40.142  1.00  0.00    -0.200 F 
ATOM    102  F   UNL A   1      40.250  36.041  42.262  1.00  0.00    -0.200 F 
ENDBRANCH  68  92
BRANCH  80 103
ATOM    103  C   UNL A   1      44.715  29.330  35.898  1.00  0.00     0.064 A 
ATOM    104  C   UNL A   1      45.922  29.980  35.599  1.00  0.00     0.173 A 
ATOM    105  C   UNL A   1      44.774  28.160  36.671  1.00  0.00     0.173 A 
ATOM    106  F   UNL A   1      45.921  31.095  34.854  1.00  0.00    -0.203 F 
ATOM    107  C   UNL A   1      47.141  29.458  36.025  1.00  0.00     0.198 A 
ATOM    108  C   UNL A   1      45.992  27.658  37.122  1.00  0.00     0.198 A 
ATOM    109  F   UNL A   1      43.649  27.504  36.993  1.00  0.00    -0.203 F 
ATOM    110  F   UNL A   1      48.284  30.064  35.680  1.00  0.00    -0.200 F 
ATOM    111  C   UNL A   1      47.174  28.301  36.791  1.00  0.00     0.200 A 
ATOM    112  F   UNL A   1      46.021  26.548  37.873  1.00  0.00    -0.200 F 
ATOM    113  F   UNL A   1      48.348  27.801  37.200  1.00  0.00    -0.200 F 
ENDBRANCH  80 103
ENDBRANCH  54  55
ENDBRANCH  47  49
ENDBRANCH  46  47
ENDBRANCH  45  46
ENDBRANCH  44  45
ENDBRANCH  43  44
ENDBRANCH  42  43
ENDBRANCH  41  42
ENDBRANCH  40  41
ENDBRANCH   1  40
TORSDOF 25
ENDMDL
MODEL 3
REMARK VINA RESULT:      -8.3      4.061      8.994
REMARK SMILES CCC[NH+]1CCN(c2cc(C(=O)OCCOCCOCCOCCOC(=O)c3ccc(-c4c5nc(c(-c6c(F)c(F)c(F)c(F)c6F)c6ccc([nH]6)c(-c6c(F)c(F)c(F)c(F)c6F)c6nc(c(-c7c(F)c(F)c(F)c(F)c7F)c7ccc4[nH]7)C=C6)C=C5)cc3)c3cc(NC(=O)c4ccc(F)cc4)ccc3n2)CC1
REMARK SMILES IDX 18 1 17 2 16 3 15 4 14 5 13 6 11 7 12 8 10 9 8 10 9 11
REMARK SMILES IDX 107 12 106 13 91 14 105 15 92 16 104 17 93 18 7 19 4 20 5 21
REMARK SMILES IDX 109 22 6 24 108 25 3 26 2 27 1 28 94 29 95 30 96 32 97 33
REMARK SMILES IDX 98 34 103 35 99 36 102 37 100 38 101 39 19 40 20 41 21 42
REMARK SMILES IDX 22 43 23 44 24 45 25 46 26 47 27 48 28 49 29 50 90 51 30 52
REMARK SMILES IDX 89 53 31 54 32 55 33 56 83 57 34 58 88 59 82 60 84 61 35 62
REMARK SMILES IDX 87 63 81 64 80 65 36 67 68 68 48 69 67 70 49 71 52 72 66 73
REMARK SMILES IDX 85 74 50 75 51 76 65 78 86 79 53 80 37 81 38 82 46 83 39 84
REMARK SMILES IDX 40 85 44 86 47 87 41 88 42 89 45 90 43 91 69 92 70 93 78 94
REMARK SMILES IDX 71 95 72 96 76 97 79 98 73 99 74 100 77 101 75 102 54 103
REMARK SMILES IDX 55 104 63 105 56 106 57 107 61 108 64 109 58 110 59 111
REMARK SMILES IDX 62 112 60 113
REMARK H PARENT 4 23 94 31 84 66 52 77
REMARK Flexibility Score: inf
ROOT
ATOM      1  C   UNL A   1      31.074  26.912  26.491  1.00  0.00     0.188 C 
ENDROOT
BRANCH   1   2
ATOM      2  C   UNL A   1      31.434  25.426  26.274  1.00  0.00     0.188 C 
BRANCH   2   3
ATOM      3  O   UNL A   1      31.099  24.472  27.281  1.00  0.00    -0.376 OA
BRANCH   3   4
ATOM      4  C   UNL A   1      30.672  23.168  26.877  1.00  0.00     0.202 C 
BRANCH   4   5
ATOM      5  C   UNL A   1      31.780  22.184  26.503  1.00  0.00     0.261 C 
BRANCH   5   6
ATOM      6  O   UNL A   1      31.393  21.415  25.349  1.00  0.00    -0.460 OA
BRANCH   6   7
ATOM      7  C   UNL A   1      32.421  20.980  24.592  1.00  0.00     0.339 C 
ATOM      8  O   UNL A   1      32.531  19.877  24.083  1.00  0.00    -0.246 OA
BRANCH   7   9
ATOM      9  C   UNL A   1      33.309  22.104  24.230  1.00  0.00     0.073 A 
ATOM     10  C   UNL A   1      33.368  24.325  23.355  1.00  0.00     0.130 A 
ATOM     11  C   UNL A   1      32.638  23.280  23.870  1.00  0.00     0.063 A 
ATOM     12  N   UNL A   1      34.680  24.190  23.101  1.00  0.00    -0.231 NA
ATOM     13  C   UNL A   1      35.330  23.091  23.491  1.00  0.00     0.074 A 
ATOM     14  C   UNL A   1      34.719  22.021  24.156  1.00  0.00     0.017 A 
ATOM     15  C   UNL A   1      36.680  23.038  23.216  1.00  0.00     0.031 A 
ATOM     16  C   UNL A   1      35.552  20.991  24.691  1.00  0.00     0.037 A 
ATOM     17  C   UNL A   1      37.474  21.990  23.675  1.00  0.00     0.028 A 
ATOM     18  C   UNL A   1      36.932  20.983  24.476  1.00  0.00     0.042 A 
BRANCH  10  19
ATOM     19  N   UNL A   1      32.807  25.514  22.981  1.00  0.00    -0.345 N 
ATOM     20  N   UNL A   1      31.418  27.931  22.104  1.00  0.00    -0.332 N 
ATOM     21  C   UNL A   1      32.866  27.924  22.453  1.00  0.00     0.284 C 
ATOM     22  C   UNL A   1      31.051  26.582  21.633  1.00  0.00     0.284 C 
ATOM     23  H   UNL A   1      31.210  28.564  21.331  1.00  0.00     0.348 HD
ATOM     24  C   UNL A   1      33.306  26.804  23.441  1.00  0.00     0.179 C 
ATOM     25  C   UNL A   1      31.404  25.433  22.593  1.00  0.00     0.179 C 
BRANCH  20  26
ATOM     26  C   UNL A   1      30.624  28.472  23.214  1.00  0.00     0.262 C 
BRANCH  26  27
ATOM     27  C   UNL A   1      29.719  29.684  22.933  1.00  0.00     0.058 C 
ATOM     28  C   UNL A   1      28.247  29.325  22.767  1.00  0.00     0.010 C 
ENDBRANCH  26  27
ENDBRANCH  20  26
ENDBRANCH  10  19
BRANCH  18  29
ATOM     29  N   UNL A   1      37.874  20.088  25.013  1.00  0.00    -0.322 N 
ATOM     30  C   UNL A   1      39.083  20.196  25.646  1.00  0.00     0.255 C 
ATOM     31  H   UNL A   1      37.595  19.149  24.906  1.00  0.00     0.170 HD
ATOM     32  O   UNL A   1      39.749  19.178  25.842  1.00  0.00    -0.269 OA
BRANCH  30  33
ATOM     33  C   UNL A   1      39.665  21.472  26.072  1.00  0.00     0.040 A 
ATOM     34  C   UNL A   1      41.060  21.575  26.130  1.00  0.00     0.017 A 
ATOM     35  C   UNL A   1      38.850  22.513  26.525  1.00  0.00     0.017 A 
ATOM     36  C   UNL A   1      41.644  22.755  26.584  1.00  0.00     0.040 A 
ATOM     37  C   UNL A   1      39.441  23.704  26.948  1.00  0.00     0.040 A 
ATOM     38  C   UNL A   1      40.829  23.815  26.967  1.00  0.00     0.123 A 
ATOM     39  F   UNL A   1      41.391  24.966  27.363  1.00  0.00    -0.207 F 
ENDBRANCH  30  33
ENDBRANCH  18  29
ENDBRANCH   7   9
ENDBRANCH   6   7
ENDBRANCH   5   6
ENDBRANCH   4   5
ENDBRANCH   3   4
ENDBRANCH   2   3
ENDBRANCH   1   2
BRANCH   1  40
ATOM     40  O   UNL A   1      32.190  27.785  26.580  1.00  0.00    -0.377 OA
BRANCH  40  41
ATOM     41  C   UNL A   1      31.897  29.042  27.187  1.00  0.00     0.188 C 
BRANCH  41  42
ATOM     42  C   UNL A   1      32.954  30.140  26.988  1.00  0.00     0.188 C 
BRANCH  42  43
ATOM     43  O   UNL A   1      32.368  31.439  26.882  1.00  0.00    -0.376 OA
BRANCH  43  44
ATOM     44  C   UNL A   1      33.008  32.488  27.602  1.00  0.00     0.202 C 
BRANCH  44  45
ATOM     45  C   UNL A   1      34.047  32.012  28.629  1.00  0.00     0.261 C 
BRANCH  45  46
ATOM     46  O   UNL A   1      34.493  33.015  29.561  1.00  0.00    -0.460 OA
BRANCH  46  47
ATOM     47  C   UNL A   1      34.909  32.583  30.772  1.00  0.00     0.338 C 
ATOM     48  O   UNL A   1      34.229  32.384  31.754  1.00  0.00    -0.246 OA
BRANCH  47  49
ATOM     49  C   UNL A   1      36.336  32.205  30.668  1.00  0.00     0.060 A 
ATOM     50  C   UNL A   1      37.137  32.342  31.807  1.00  0.00     0.016 A 
ATOM     51  C   UNL A   1      36.890  31.780  29.456  1.00  0.00     0.016 A 
ATOM     52  C   UNL A   1      38.513  32.138  31.716  1.00  0.00     0.010 A 
ATOM     53  C   UNL A   1      38.272  31.584  29.364  1.00  0.00     0.010 A 
ATOM     54  C   UNL A   1      39.093  31.822  30.479  1.00  0.00    -0.014 A 
BRANCH  54  55
ATOM     55  C   UNL A   1      40.558  31.994  30.318  1.00  0.00     0.031 A 
ATOM     56  C   UNL A   1      41.430  30.771  30.399  1.00  0.00     0.074 A 
ATOM     57  C   UNL A   1      41.100  33.189  30.036  1.00  0.00     0.049 A 
ATOM     58  N   UNL A   1      42.716  30.646  30.185  1.00  0.00    -0.248 NA
ATOM     59  C   UNL A   1      40.757  29.514  30.766  1.00  0.00     0.031 C 
ATOM     60  C   UNL A   1      40.362  34.441  29.906  1.00  0.00     0.029 A 
ATOM     61  N   UNL A   1      42.405  33.536  29.792  1.00  0.00    -0.354 N 
ATOM     62  C   UNL A   1      42.999  29.301  30.380  1.00  0.00     0.074 A 
ATOM     63  C   UNL A   1      41.765  28.658  30.776  1.00  0.00     0.031 C 
ATOM     64  C   UNL A   1      41.225  35.425  29.595  1.00  0.00     0.029 A 
ATOM     65  C   UNL A   1      42.576  34.869  29.512  1.00  0.00     0.049 A 
ATOM     66  H   UNL A   1      43.149  32.892  29.817  1.00  0.00     0.167 HD
ATOM     67  C   UNL A   1      44.178  28.652  30.227  1.00  0.00     0.037 A 
ATOM     68  C   UNL A   1      43.695  35.554  29.210  1.00  0.00     0.037 A 
ATOM     69  C   UNL A   1      45.410  29.290  29.851  1.00  0.00     0.049 A 
ATOM     70  C   UNL A   1      45.009  34.824  29.112  1.00  0.00     0.074 A 
ATOM     71  C   UNL A   1      46.658  28.722  29.661  1.00  0.00     0.029 A 
ATOM     72  N   UNL A   1      45.553  30.651  29.622  1.00  0.00    -0.354 N 
ATOM     73  N   UNL A   1      45.261  33.544  29.246  1.00  0.00    -0.248 NA
ATOM     74  C   UNL A   1      46.193  35.639  28.803  1.00  0.00     0.031 C 
ATOM     75  C   UNL A   1      47.564  29.745  29.364  1.00  0.00     0.029 A 
ATOM     76  C   UNL A   1      46.872  30.945  29.316  1.00  0.00     0.049 A 
ATOM     77  H   UNL A   1      44.823  31.311  29.670  1.00  0.00     0.167 HD
ATOM     78  C   UNL A   1      46.621  33.393  29.001  1.00  0.00     0.074 A 
ATOM     79  C   UNL A   1      47.138  34.714  28.704  1.00  0.00     0.031 C 
ATOM     80  C   UNL A   1      47.371  32.263  29.012  1.00  0.00     0.037 A 
BRANCH  67  81
ATOM     81  C   UNL A   1      44.180  27.176  30.502  1.00  0.00     0.064 A 
ATOM     82  C   UNL A   1      44.384  26.668  31.795  1.00  0.00     0.173 A 
ATOM     83  C   UNL A   1      44.002  26.259  29.457  1.00  0.00     0.173 A 
ATOM     84  F   UNL A   1      44.581  27.503  32.826  1.00  0.00    -0.203 F 
ATOM     85  C   UNL A   1      44.450  25.295  32.023  1.00  0.00     0.198 A 
ATOM     86  C   UNL A   1      44.036  24.887  29.693  1.00  0.00     0.198 A 
ATOM     87  F   UNL A   1      43.803  26.692  28.204  1.00  0.00    -0.203 F 
ATOM     88  F   UNL A   1      44.712  24.834  33.253  1.00  0.00    -0.200 F 
ATOM     89  C   UNL A   1      44.273  24.407  30.973  1.00  0.00     0.200 A 
ATOM     90  F   UNL A   1      43.859  24.030  28.680  1.00  0.00    -0.200 F 
ATOM     91  F   UNL A   1      44.344  23.086  31.191  1.00  0.00    -0.200 F 
ENDBRANCH  67  81
BRANCH  68  92
ATOM     92  C   UNL A   1      43.617  37.011  28.931  1.00  0.00     0.064 A 
ATOM     93  C   UNL A   1      43.348  37.481  27.638  1.00  0.00     0.173 A 
ATOM     94  C   UNL A   1      43.817  37.960  29.944  1.00  0.00     0.173 A 
ATOM     95  F   UNL A   1      43.179  36.610  26.631  1.00  0.00    -0.203 F 
ATOM     96  C   UNL A   1      43.293  38.846  27.365  1.00  0.00     0.198 A 
ATOM     97  C   UNL A   1      43.738  39.324  29.675  1.00  0.00     0.198 A 
ATOM     98  F   UNL A   1      44.087  37.559  31.194  1.00  0.00    -0.203 F 
ATOM     99  F   UNL A   1      43.075  39.268  26.113  1.00  0.00    -0.200 F 
ATOM    100  C   UNL A   1      43.481  39.766  28.385  1.00  0.00     0.200 A 
ATOM    101  F   UNL A   1      43.918  40.213  30.662  1.00  0.00    -0.200 F 
ATOM    102  F   UNL A   1      43.428  41.079  28.122  1.00  0.00    -0.200 F 
ENDBRANCH  68  92
BRANCH  80 103
ATOM    103  C   UNL A   1      48.821  32.396  28.643  1.00  0.00     0.064 A 
ATOM    104  C   UNL A   1      49.242  32.475  27.307  1.00  0.00     0.173 A 
ATOM    105  C   UNL A   1      49.801  32.468  29.645  1.00  0.00     0.173 A 
ATOM    106  F   UNL A   1      48.347  32.399  26.312  1.00  0.00    -0.203 F 
ATOM    107  C   UNL A   1      50.594  32.585  26.988  1.00  0.00     0.198 A 
ATOM    108  C   UNL A   1      51.148  32.609  29.323  1.00  0.00     0.198 A 
ATOM    109  F   UNL A   1      49.451  32.406  30.939  1.00  0.00    -0.203 F 
ATOM    110  F   UNL A   1      50.977  32.602  25.705  1.00  0.00    -0.200 F 
ATOM    111  C   UNL A   1      51.544  32.657  27.996  1.00  0.00     0.200 A 
ATOM    112  F   UNL A   1      52.064  32.693  30.299  1.00  0.00    -0.200 F 
ATOM    113  F   UNL A   1      52.844  32.763  27.687  1.00  0.00    -0.200 F 
ENDBRANCH  80 103
ENDBRANCH  54  55
ENDBRANCH  47  49
ENDBRANCH  46  47
ENDBRANCH  45  46
ENDBRANCH  44  45
ENDBRANCH  43  44
ENDBRANCH  42  43
ENDBRANCH  41  42
ENDBRANCH  40  41
ENDBRANCH   1  40
TORSDOF 25
ENDMDL
