MODEL 1
REMARK VINA RESULT:      -8.6      0.000      0.000
REMARK SMILES CC1(C)CCC[N@@H+](Cc2ccc(C(=O)OCCOCCOCCOCCOC(=O)c3ccc(-c4c5nc(c(-c6c(F)c(F)c(F)c(F)c6F)c6ccc([nH]6)c(-c6c(F)c(F)c(F)c(F)c6F)c6nc(c(-c7c(F)c(F)c(F)c(F)c7F)c7ccc4[nH]7)C=C6)C=C5)cc3)cn2)C1
REMARK SMILES IDX 21 1 20 2 19 3 18 4 17 5 16 6 15 7 13 8 14 9 12 10 9 11
REMARK SMILES IDX 10 12 94 13 11 14 93 15 8 16 7 17 1 18 2 19 3 20 4 21 95 22
REMARK SMILES IDX 5 23 6 24 22 26 23 27 24 28 25 29 26 30 27 31 28 32 29 33
REMARK SMILES IDX 30 34 31 35 92 36 32 37 91 38 33 39 34 40 35 41 85 42 36 43
REMARK SMILES IDX 90 44 84 45 86 46 37 47 89 48 83 49 82 50 38 52 70 53 50 54
REMARK SMILES IDX 69 55 51 56 54 57 68 58 87 59 52 60 53 61 67 63 88 64 55 65
REMARK SMILES IDX 39 66 40 67 48 68 41 69 42 70 46 71 49 72 43 73 44 74 47 75
REMARK SMILES IDX 45 76 71 77 72 78 80 79 73 80 74 81 78 82 81 83 75 84 76 85
REMARK SMILES IDX 79 86 77 87 56 88 57 89 65 90 58 91 59 92 63 93 66 94 60 95
REMARK SMILES IDX 61 96 64 97 62 98
REMARK H PARENT 7 25 86 51 54 62
REMARK Flexibility Score: inf
ROOT
ATOM      1  O   UNL A   1      35.163  33.633  34.706  1.00  0.00    -0.377 OA
ENDROOT
BRANCH   1   2
ATOM      2  C   UNL A   1      36.573  33.800  34.708  1.00  0.00     0.188 C 
BRANCH   2   3
ATOM      3  C   UNL A   1      37.371  32.688  35.416  1.00  0.00     0.188 C 
BRANCH   3   4
ATOM      4  O   UNL A   1      37.599  31.560  34.589  1.00  0.00    -0.376 OA
BRANCH   4   5
ATOM      5  C   UNL A   1      38.528  30.560  34.961  1.00  0.00     0.202 C 
BRANCH   5   6
ATOM      6  C   UNL A   1      39.913  30.443  34.303  1.00  0.00     0.261 C 
BRANCH   6   7
ATOM      7  O   UNL A   1      40.711  29.329  34.697  1.00  0.00    -0.460 OA
BRANCH   7   8
ATOM      8  C   UNL A   1      40.601  28.202  33.967  1.00  0.00     0.339 C 
ATOM      9  O   UNL A   1      39.835  28.001  33.042  1.00  0.00    -0.246 OA
BRANCH   8  10
ATOM     10  C   UNL A   1      41.718  27.315  34.342  1.00  0.00     0.078 A 
ATOM     11  C   UNL A   1      43.685  25.604  35.190  1.00  0.00     0.095 A 
ATOM     12  C   UNL A   1      43.915  26.380  34.052  1.00  0.00     0.031 A 
ATOM     13  N   UNL A   1      42.467  25.537  35.789  1.00  0.00    -0.254 NA
ATOM     14  C   UNL A   1      42.934  27.283  33.654  1.00  0.00     0.019 A 
ATOM     15  C   UNL A   1      41.513  26.391  35.353  1.00  0.00     0.127 A 
BRANCH  11  16
ATOM     16  C   UNL A   1      44.878  25.091  35.997  1.00  0.00     0.319 C 
BRANCH  16  17
ATOM     17  N   UNL A   1      45.481  23.823  35.473  1.00  0.00    -0.329 N 
ATOM     18  C   UNL A   1      48.035  22.154  34.698  1.00  0.00     0.017 C 
ATOM     19  C   UNL A   1      47.169  21.978  35.955  1.00  0.00     0.014 C 
ATOM     20  C   UNL A   1      48.070  21.498  37.111  1.00  0.00     0.017 C 
ATOM     21  C   UNL A   1      46.050  20.945  35.718  1.00  0.00     0.018 C 
ATOM     22  C   UNL A   1      46.528  23.315  36.373  1.00  0.00     0.268 C 
ATOM     23  C   UNL A   1      44.991  21.473  34.753  1.00  0.00     0.062 C 
ATOM     24  C   UNL A   1      44.434  22.814  35.230  1.00  0.00     0.262 C 
ATOM     25  H   UNL A   1      45.929  24.031  34.581  1.00  0.00     0.348 HD
ENDBRANCH  16  17
ENDBRANCH  11  16
ENDBRANCH   8  10
ENDBRANCH   7   8
ENDBRANCH   6   7
ENDBRANCH   5   6
ENDBRANCH   4   5
ENDBRANCH   3   4
ENDBRANCH   2   3
ENDBRANCH   1   2
BRANCH   1  26
ATOM     26  C   UNL A   1      34.497  33.439  33.456  1.00  0.00     0.188 C 
BRANCH  26  27
ATOM     27  C   UNL A   1      34.325  34.564  32.401  1.00  0.00     0.188 C 
BRANCH  27  28
ATOM     28  O   UNL A   1      33.766  34.157  31.165  1.00  0.00    -0.376 OA
BRANCH  28  29
ATOM     29  C   UNL A   1      34.612  34.058  30.034  1.00  0.00     0.202 C 
BRANCH  29  30
ATOM     30  C   UNL A   1      34.145  33.143  28.894  1.00  0.00     0.261 C 
BRANCH  30  31
ATOM     31  O   UNL A   1      35.164  32.350  28.270  1.00  0.00    -0.460 OA
BRANCH  31  32
ATOM     32  C   UNL A   1      34.908  31.031  28.117  1.00  0.00     0.338 C 
ATOM     33  O   UNL A   1      33.885  30.518  27.726  1.00  0.00    -0.246 OA
BRANCH  32  34
ATOM     34  C   UNL A   1      36.181  30.309  28.339  1.00  0.00     0.060 A 
ATOM     35  C   UNL A   1      36.385  29.647  29.557  1.00  0.00     0.016 A 
ATOM     36  C   UNL A   1      37.159  30.282  27.344  1.00  0.00     0.016 A 
ATOM     37  C   UNL A   1      37.590  28.985  29.797  1.00  0.00     0.010 A 
ATOM     38  C   UNL A   1      38.372  29.637  27.592  1.00  0.00     0.010 A 
ATOM     39  C   UNL A   1      38.605  29.016  28.832  1.00  0.00    -0.014 A 
BRANCH  39  40
ATOM     40  C   UNL A   1      39.977  28.580  29.189  1.00  0.00     0.031 A 
ATOM     41  C   UNL A   1      40.805  29.484  30.060  1.00  0.00     0.074 A 
ATOM     42  C   UNL A   1      40.476  27.407  28.762  1.00  0.00     0.049 A 
ATOM     43  N   UNL A   1      42.046  29.355  30.458  1.00  0.00    -0.248 NA
ATOM     44  C   UNL A   1      40.143  30.707  30.542  1.00  0.00     0.031 C 
ATOM     45  C   UNL A   1      39.757  26.426  27.955  1.00  0.00     0.029 A 
ATOM     46  N   UNL A   1      41.717  26.851  28.947  1.00  0.00    -0.354 N 
ATOM     47  C   UNL A   1      42.313  30.482  31.223  1.00  0.00     0.074 A 
ATOM     48  C   UNL A   1      41.119  31.300  31.209  1.00  0.00     0.031 C 
ATOM     49  C   UNL A   1      40.573  25.387  27.707  1.00  0.00     0.029 A 
ATOM     50  C   UNL A   1      41.882  25.649  28.304  1.00  0.00     0.049 A 
ATOM     51  H   UNL A   1      42.423  27.273  29.489  1.00  0.00     0.167 HD
ATOM     52  C   UNL A   1      43.450  30.804  31.885  1.00  0.00     0.037 A 
ATOM     53  C   UNL A   1      42.975  24.867  28.193  1.00  0.00     0.037 A 
ATOM     54  C   UNL A   1      44.635  29.987  31.894  1.00  0.00     0.049 A 
ATOM     55  C   UNL A   1      44.257  25.291  28.866  1.00  0.00     0.074 A 
ATOM     56  C   UNL A   1      45.830  30.209  32.554  1.00  0.00     0.029 A 
ATOM     57  N   UNL A   1      44.779  28.796  31.195  1.00  0.00    -0.354 N 
ATOM     58  N   UNL A   1      44.496  26.339  29.618  1.00  0.00    -0.248 NA
ATOM     59  C   UNL A   1      45.425  24.418  28.675  1.00  0.00     0.031 C 
ATOM     60  C   UNL A   1      46.720  29.190  32.199  1.00  0.00     0.029 A 
ATOM     61  C   UNL A   1      46.057  28.292  31.379  1.00  0.00     0.049 A 
ATOM     62  H   UNL A   1      44.076  28.373  30.651  1.00  0.00     0.167 HD
ATOM     63  C   UNL A   1      45.822  26.231  30.018  1.00  0.00     0.074 A 
ATOM     64  C   UNL A   1      46.334  25.009  29.435  1.00  0.00     0.031 C 
ATOM     65  C   UNL A   1      46.550  27.066  30.801  1.00  0.00     0.037 A 
BRANCH  52  66
ATOM     66  C   UNL A   1      43.480  32.116  32.616  1.00  0.00     0.064 A 
ATOM     67  C   UNL A   1      43.641  33.338  31.945  1.00  0.00     0.173 A 
ATOM     68  C   UNL A   1      43.327  32.151  34.010  1.00  0.00     0.173 A 
ATOM     69  F   UNL A   1      43.807  33.362  30.613  1.00  0.00    -0.203 F 
ATOM     70  C   UNL A   1      43.684  34.541  32.646  1.00  0.00     0.198 A 
ATOM     71  C   UNL A   1      43.333  33.358  34.703  1.00  0.00     0.198 A 
ATOM     72  F   UNL A   1      43.166  31.012  34.702  1.00  0.00    -0.203 F 
ATOM     73  F   UNL A   1      43.899  35.690  31.991  1.00  0.00    -0.200 F 
ATOM     74  C   UNL A   1      43.522  34.550  34.023  1.00  0.00     0.200 A 
ATOM     75  F   UNL A   1      43.161  33.365  36.033  1.00  0.00    -0.200 F 
ATOM     76  F   UNL A   1      43.558  35.709  34.696  1.00  0.00    -0.200 F 
ENDBRANCH  52  66
BRANCH  53  77
ATOM     77  C   UNL A   1      42.915  23.603  27.410  1.00  0.00     0.064 A 
ATOM     78  C   UNL A   1      42.443  22.417  27.990  1.00  0.00     0.173 A 
ATOM     79  C   UNL A   1      43.355  23.546  26.080  1.00  0.00     0.173 A 
ATOM     80  F   UNL A   1      42.036  22.413  29.267  1.00  0.00    -0.203 F 
ATOM     81  C   UNL A   1      42.436  21.219  27.278  1.00  0.00     0.198 A 
ATOM     82  C   UNL A   1      43.317  22.355  25.358  1.00  0.00     0.198 A 
ATOM     83  F   UNL A   1      43.821  24.651  25.477  1.00  0.00    -0.203 F 
ATOM     84  F   UNL A   1      42.031  20.090  27.875  1.00  0.00    -0.200 F 
ATOM     85  C   UNL A   1      42.867  21.191  25.960  1.00  0.00     0.200 A 
ATOM     86  F   UNL A   1      43.723  22.335  24.080  1.00  0.00    -0.200 F 
ATOM     87  F   UNL A   1      42.858  20.039  25.275  1.00  0.00    -0.200 F 
ENDBRANCH  53  77
BRANCH  65  88
ATOM     88  C   UNL A   1      47.964  26.665  31.121  1.00  0.00     0.064 A 
ATOM     89  C   UNL A   1      49.054  27.112  30.360  1.00  0.00     0.173 A 
ATOM     90  C   UNL A   1      48.234  25.854  32.235  1.00  0.00     0.173 A 
ATOM     91  F   UNL A   1      48.853  27.880  29.278  1.00  0.00    -0.203 F 
ATOM     92  C   UNL A   1      50.356  26.738  30.683  1.00  0.00     0.198 A 
ATOM     93  C   UNL A   1      49.539  25.513  32.577  1.00  0.00     0.198 A 
ATOM     94  F   UNL A   1      47.231  25.405  33.004  1.00  0.00    -0.203 F 
ATOM     95  F   UNL A   1      51.376  27.132  29.909  1.00  0.00    -0.200 F 
ATOM     96  C   UNL A   1      50.599  25.946  31.795  1.00  0.00     0.200 A 
ATOM     97  F   UNL A   1      49.771  24.764  33.664  1.00  0.00    -0.200 F 
ATOM     98  F   UNL A   1      51.853  25.595  32.111  1.00  0.00    -0.200 F 
ENDBRANCH  65  88
ENDBRANCH  39  40
ENDBRANCH  32  34
ENDBRANCH  31  32
ENDBRANCH  30  31
ENDBRANCH  29  30
ENDBRANCH  28  29
ENDBRANCH  27  28
ENDBRANCH  26  27
ENDBRANCH   1  26
TORSDOF 22
ENDMDL
MODEL 2
REMARK VINA RESULT:      -8.5      4.736      8.374
REMARK SMILES CC1(C)CCC[N@@H+](Cc2ccc(C(=O)OCCOCCOCCOCCOC(=O)c3ccc(-c4c5nc(c(-c6c(F)c(F)c(F)c(F)c6F)c6ccc([nH]6)c(-c6c(F)c(F)c(F)c(F)c6F)c6nc(c(-c7c(F)c(F)c(F)c(F)c7F)c7ccc4[nH]7)C=C6)C=C5)cc3)cn2)C1
REMARK SMILES IDX 21 1 20 2 19 3 18 4 17 5 16 6 15 7 13 8 14 9 12 10 9 11
REMARK SMILES IDX 10 12 94 13 11 14 93 15 8 16 7 17 1 18 2 19 3 20 4 21 95 22
REMARK SMILES IDX 5 23 6 24 22 26 23 27 24 28 25 29 26 30 27 31 28 32 29 33
REMARK SMILES IDX 30 34 31 35 92 36 32 37 91 38 33 39 34 40 35 41 85 42 36 43
REMARK SMILES IDX 90 44 84 45 86 46 37 47 89 48 83 49 82 50 38 52 70 53 50 54
REMARK SMILES IDX 69 55 51 56 54 57 68 58 87 59 52 60 53 61 67 63 88 64 55 65
REMARK SMILES IDX 39 66 40 67 48 68 41 69 42 70 46 71 49 72 43 73 44 74 47 75
REMARK SMILES IDX 45 76 71 77 72 78 80 79 73 80 74 81 78 82 81 83 75 84 76 85
REMARK SMILES IDX 79 86 77 87 56 88 57 89 65 90 58 91 59 92 63 93 66 94 60 95
REMARK SMILES IDX 61 96 64 97 62 98
REMARK H PARENT 7 25 86 51 54 62
REMARK Flexibility Score: inf
ROOT
ATOM      1  O   UNL A   1      34.846  32.930  28.711  1.00  0.00    -0.377 OA
ENDROOT
BRANCH   1   2
ATOM      2  C   UNL A   1      34.537  31.933  27.749  1.00  0.00     0.188 C 
BRANCH   2   3
ATOM      3  C   UNL A   1      35.489  30.721  27.721  1.00  0.00     0.188 C 
BRANCH   3   4
ATOM      4  O   UNL A   1      34.805  29.483  27.662  1.00  0.00    -0.376 OA
BRANCH   4   5
ATOM      5  C   UNL A   1      33.488  29.402  27.150  1.00  0.00     0.202 C 
BRANCH   5   6
ATOM      6  C   UNL A   1      33.030  28.247  26.242  1.00  0.00     0.261 C 
BRANCH   6   7
ATOM      7  O   UNL A   1      31.642  28.207  25.919  1.00  0.00    -0.460 OA
BRANCH   7   8
ATOM      8  C   UNL A   1      31.306  28.342  24.622  1.00  0.00     0.339 C 
ATOM      9  O   UNL A   1      30.993  29.371  24.051  1.00  0.00    -0.246 OA
BRANCH   8  10
ATOM     10  C   UNL A   1      31.585  27.059  23.950  1.00  0.00     0.078 A 
ATOM     11  C   UNL A   1      32.036  24.583  22.863  1.00  0.00     0.095 A 
ATOM     12  C   UNL A   1      32.351  25.716  22.108  1.00  0.00     0.031 A 
ATOM     13  N   UNL A   1      31.359  24.660  24.039  1.00  0.00    -0.254 NA
ATOM     14  C   UNL A   1      32.167  26.969  22.683  1.00  0.00     0.019 A 
ATOM     15  C   UNL A   1      31.148  25.893  24.555  1.00  0.00     0.127 A 
BRANCH  11  16
ATOM     16  C   UNL A   1      32.752  23.265  22.566  1.00  0.00     0.319 C 
BRANCH  16  17
ATOM     17  N   UNL A   1      33.548  22.721  23.713  1.00  0.00    -0.329 N 
ATOM     18  C   UNL A   1      33.649  21.135  26.431  1.00  0.00     0.017 C 
ATOM     19  C   UNL A   1      34.085  20.621  25.051  1.00  0.00     0.014 C 
ATOM     20  C   UNL A   1      33.825  19.102  24.986  1.00  0.00     0.017 C 
ATOM     21  C   UNL A   1      35.582  20.892  24.804  1.00  0.00     0.018 C 
ATOM     22  C   UNL A   1      33.268  21.293  23.930  1.00  0.00     0.268 C 
ATOM     23  C   UNL A   1      35.861  22.383  24.618  1.00  0.00     0.062 C 
ATOM     24  C   UNL A   1      34.987  22.970  23.510  1.00  0.00     0.262 C 
ATOM     25  H   UNL A   1      33.261  23.213  24.559  1.00  0.00     0.348 HD
ENDBRANCH  16  17
ENDBRANCH  11  16
ENDBRANCH   8  10
ENDBRANCH   7   8
ENDBRANCH   6   7
ENDBRANCH   5   6
ENDBRANCH   4   5
ENDBRANCH   3   4
ENDBRANCH   2   3
ENDBRANCH   1   2
BRANCH   1  26
ATOM     26  C   UNL A   1      34.509  34.289  28.424  1.00  0.00     0.188 C 
BRANCH  26  27
ATOM     27  C   UNL A   1      33.718  35.194  29.406  1.00  0.00     0.188 C 
BRANCH  27  28
ATOM     28  O   UNL A   1      33.295  34.566  30.603  1.00  0.00    -0.376 OA
BRANCH  28  29
ATOM     29  C   UNL A   1      33.805  35.037  31.836  1.00  0.00     0.202 C 
BRANCH  29  30
ATOM     30  C   UNL A   1      35.200  34.546  32.244  1.00  0.00     0.261 C 
BRANCH  30  31
ATOM     31  O   UNL A   1      35.584  33.259  31.740  1.00  0.00    -0.460 OA
BRANCH  31  32
ATOM     32  C   UNL A   1      36.286  32.457  32.573  1.00  0.00     0.338 C 
ATOM     33  O   UNL A   1      35.907  31.953  33.606  1.00  0.00    -0.246 OA
BRANCH  32  34
ATOM     34  C   UNL A   1      37.568  32.145  31.904  1.00  0.00     0.060 A 
ATOM     35  C   UNL A   1      37.680  32.339  30.521  1.00  0.00     0.016 A 
ATOM     36  C   UNL A   1      38.652  31.671  32.644  1.00  0.00     0.016 A 
ATOM     37  C   UNL A   1      38.871  32.023  29.867  1.00  0.00     0.010 A 
ATOM     38  C   UNL A   1      39.837  31.336  31.987  1.00  0.00     0.010 A 
ATOM     39  C   UNL A   1      39.940  31.478  30.591  1.00  0.00    -0.014 A 
BRANCH  39  40
ATOM     40  C   UNL A   1      41.085  30.867  29.872  1.00  0.00     0.031 A 
ATOM     41  C   UNL A   1      42.286  31.725  29.591  1.00  0.00     0.074 A 
ATOM     42  C   UNL A   1      41.065  29.580  29.485  1.00  0.00     0.049 A 
ATOM     43  N   UNL A   1      43.380  31.442  28.930  1.00  0.00    -0.248 NA
ATOM     44  C   UNL A   1      42.245  33.097  30.125  1.00  0.00     0.031 C 
ATOM     45  C   UNL A   1      39.981  28.637  29.740  1.00  0.00     0.029 A 
ATOM     46  N   UNL A   1      41.992  28.850  28.783  1.00  0.00    -0.354 N 
ATOM     47  C   UNL A   1      44.146  32.600  28.958  1.00  0.00     0.074 A 
ATOM     48  C   UNL A   1      43.382  33.599  29.673  1.00  0.00     0.031 C 
ATOM     49  C   UNL A   1      40.302  27.450  29.195  1.00  0.00     0.029 A 
ATOM     50  C   UNL A   1      41.594  27.563  28.521  1.00  0.00     0.049 A 
ATOM     51  H   UNL A   1      42.861  29.215  28.496  1.00  0.00     0.167 HD
ATOM     52  C   UNL A   1      45.380  32.808  28.440  1.00  0.00     0.037 A 
ATOM     53  C   UNL A   1      42.198  26.599  27.797  1.00  0.00     0.037 A 
ATOM     54  C   UNL A   1      46.135  31.811  27.729  1.00  0.00     0.049 A 
ATOM     55  C   UNL A   1      43.533  26.885  27.154  1.00  0.00     0.074 A 
ATOM     56  C   UNL A   1      47.404  31.912  27.188  1.00  0.00     0.029 A 
ATOM     57  N   UNL A   1      45.680  30.530  27.445  1.00  0.00    -0.354 N 
ATOM     58  N   UNL A   1      44.270  27.968  27.213  1.00  0.00    -0.248 NA
ATOM     59  C   UNL A   1      44.122  25.808  26.344  1.00  0.00     0.031 C 
ATOM     60  C   UNL A   1      47.689  30.719  26.518  1.00  0.00     0.029 A 
ATOM     61  C   UNL A   1      46.630  29.846  26.704  1.00  0.00     0.049 A 
ATOM     62  H   UNL A   1      44.813  30.163  27.730  1.00  0.00     0.167 HD
ATOM     63  C   UNL A   1      45.420  27.691  26.484  1.00  0.00     0.074 A 
ATOM     64  C   UNL A   1      45.289  26.333  26.001  1.00  0.00     0.031 C 
ATOM     65  C   UNL A   1      46.491  28.487  26.239  1.00  0.00     0.037 A 
BRANCH  52  66
ATOM     66  C   UNL A   1      45.970  34.183  28.587  1.00  0.00     0.064 A 
ATOM     67  C   UNL A   1      45.716  35.204  27.658  1.00  0.00     0.173 A 
ATOM     68  C   UNL A   1      46.789  34.486  29.685  1.00  0.00     0.173 A 
ATOM     69  F   UNL A   1      44.952  34.965  26.581  1.00  0.00    -0.203 F 
ATOM     70  C   UNL A   1      46.289  36.465  27.806  1.00  0.00     0.198 A 
ATOM     71  C   UNL A   1      47.330  35.758  29.848  1.00  0.00     0.198 A 
ATOM     72  F   UNL A   1      47.062  33.548  30.605  1.00  0.00    -0.203 F 
ATOM     73  F   UNL A   1      46.081  37.407  26.875  1.00  0.00    -0.200 F 
ATOM     74  C   UNL A   1      47.089  36.743  28.904  1.00  0.00     0.200 A 
ATOM     75  F   UNL A   1      48.090  36.028  30.919  1.00  0.00    -0.200 F 
ATOM     76  F   UNL A   1      47.635  37.959  29.047  1.00  0.00    -0.200 F 
ENDBRANCH  52  66
BRANCH  53  77
ATOM     77  C   UNL A   1      41.549  25.270  27.631  1.00  0.00     0.064 A 
ATOM     78  C   UNL A   1      40.437  25.110  26.792  1.00  0.00     0.173 A 
ATOM     79  C   UNL A   1      42.006  24.142  28.327  1.00  0.00     0.173 A 
ATOM     80  F   UNL A   1      39.945  26.164  26.125  1.00  0.00    -0.203 F 
ATOM     81  C   UNL A   1      39.792  23.880  26.674  1.00  0.00     0.198 A 
ATOM     82  C   UNL A   1      41.380  22.904  28.184  1.00  0.00     0.198 A 
ATOM     83  F   UNL A   1      43.063  24.239  29.147  1.00  0.00    -0.203 F 
ATOM     84  F   UNL A   1      38.699  23.770  25.909  1.00  0.00    -0.200 F 
ATOM     85  C   UNL A   1      40.269  22.777  27.366  1.00  0.00     0.200 A 
ATOM     86  F   UNL A   1      41.853  21.837  28.844  1.00  0.00    -0.200 F 
ATOM     87  F   UNL A   1      39.651  21.593  27.252  1.00  0.00    -0.200 F 
ENDBRANCH  53  77
BRANCH  65  88
ATOM     88  C   UNL A   1      47.633  27.898  25.457  1.00  0.00     0.064 A 
ATOM     89  C   UNL A   1      47.617  27.828  24.057  1.00  0.00     0.173 A 
ATOM     90  C   UNL A   1      48.781  27.436  26.122  1.00  0.00     0.173 A 
ATOM     91  F   UNL A   1      46.541  28.244  23.372  1.00  0.00    -0.203 F 
ATOM     92  C   UNL A   1      48.692  27.289  23.353  1.00  0.00     0.198 A 
ATOM     93  C   UNL A   1      49.868  26.934  25.414  1.00  0.00     0.198 A 
ATOM     94  F   UNL A   1      48.855  27.488  27.460  1.00  0.00    -0.203 F 
ATOM     95  F   UNL A   1      48.631  27.182  22.019  1.00  0.00    -0.200 F 
ATOM     96  C   UNL A   1      49.820  26.851  24.031  1.00  0.00     0.200 A 
ATOM     97  F   UNL A   1      50.964  26.529  26.071  1.00  0.00    -0.200 F 
ATOM     98  F   UNL A   1      50.858  26.343  23.352  1.00  0.00    -0.200 F 
ENDBRANCH  65  88
ENDBRANCH  39  40
ENDBRANCH  32  34
ENDBRANCH  31  32
ENDBRANCH  30  31
ENDBRANCH  29  30
ENDBRANCH  28  29
ENDBRANCH  27  28
ENDBRANCH  26  27
ENDBRANCH   1  26
TORSDOF 22
ENDMDL
MODEL 3
REMARK VINA RESULT:      -8.5      4.638      9.161
REMARK SMILES CC1(C)CCC[N@@H+](Cc2ccc(C(=O)OCCOCCOCCOCCOC(=O)c3ccc(-c4c5nc(c(-c6c(F)c(F)c(F)c(F)c6F)c6ccc([nH]6)c(-c6c(F)c(F)c(F)c(F)c6F)c6nc(c(-c7c(F)c(F)c(F)c(F)c7F)c7ccc4[nH]7)C=C6)C=C5)cc3)cn2)C1
REMARK SMILES IDX 21 1 20 2 19 3 18 4 17 5 16 6 15 7 13 8 14 9 12 10 9 11
REMARK SMILES IDX 10 12 94 13 11 14 93 15 8 16 7 17 1 18 2 19 3 20 4 21 95 22
REMARK SMILES IDX 5 23 6 24 22 26 23 27 24 28 25 29 26 30 27 31 28 32 29 33
REMARK SMILES IDX 30 34 31 35 92 36 32 37 91 38 33 39 34 40 35 41 85 42 36 43
REMARK SMILES IDX 90 44 84 45 86 46 37 47 89 48 83 49 82 50 38 52 70 53 50 54
REMARK SMILES IDX 69 55 51 56 54 57 68 58 87 59 52 60 53 61 67 63 88 64 55 65
REMARK SMILES IDX 39 66 40 67 48 68 41 69 42 70 46 71 49 72 43 73 44 74 47 75
REMARK SMILES IDX 45 76 71 77 72 78 80 79 73 80 74 81 78 82 81 83 75 84 76 85
REMARK SMILES IDX 79 86 77 87 56 88 57 89 65 90 58 91 59 92 63 93 66 94 60 95
REMARK SMILES IDX 61 96 64 97 62 98
REMARK H PARENT 7 25 86 51 54 62
REMARK Flexibility Score: inf
ROOT
ATOM      1  O   UNL A   1      34.756  31.849  29.184  1.00  0.00    -0.377 OA
ENDROOT
BRANCH   1   2
ATOM      2  C   UNL A   1      34.858  31.470  27.820  1.00  0.00     0.188 C 
BRANCH   2   3
ATOM      3  C   UNL A   1      35.793  30.280  27.531  1.00  0.00     0.188 C 
BRANCH   3   4
ATOM      4  O   UNL A   1      35.093  29.110  27.145  1.00  0.00    -0.376 OA
BRANCH   4   5
ATOM      5  C   UNL A   1      33.875  29.192  26.429  1.00  0.00     0.202 C 
BRANCH   5   6
ATOM      6  C   UNL A   1      33.016  27.952  26.128  1.00  0.00     0.261 C 
BRANCH   6   7
ATOM      7  O   UNL A   1      31.649  28.192  25.802  1.00  0.00    -0.460 OA
BRANCH   7   8
ATOM      8  C   UNL A   1      31.343  28.353  24.501  1.00  0.00     0.339 C 
ATOM      9  O   UNL A   1      30.956  29.374  23.961  1.00  0.00    -0.246 OA
BRANCH   8  10
ATOM     10  C   UNL A   1      31.758  27.130  23.788  1.00  0.00     0.078 A 
ATOM     11  C   UNL A   1      32.434  24.753  22.602  1.00  0.00     0.095 A 
ATOM     12  C   UNL A   1      32.868  25.944  22.015  1.00  0.00     0.031 A 
ATOM     13  N   UNL A   1      31.550  24.732  23.635  1.00  0.00    -0.254 NA
ATOM     14  C   UNL A   1      32.565  27.145  22.648  1.00  0.00     0.019 A 
ATOM     15  C   UNL A   1      31.232  25.918  24.203  1.00  0.00     0.127 A 
BRANCH  11  16
ATOM     16  C   UNL A   1      33.210  23.463  22.335  1.00  0.00     0.319 C 
BRANCH  16  17
ATOM     17  N   UNL A   1      33.768  22.811  23.562  1.00  0.00    -0.329 N 
ATOM     18  C   UNL A   1      33.295  21.409  26.341  1.00  0.00     0.017 C 
ATOM     19  C   UNL A   1      33.684  20.725  25.022  1.00  0.00     0.014 C 
ATOM     20  C   UNL A   1      33.065  19.313  24.998  1.00  0.00     0.017 C 
ATOM     21  C   UNL A   1      35.214  20.612  24.884  1.00  0.00     0.018 C 
ATOM     22  C   UNL A   1      33.134  21.507  23.814  1.00  0.00     0.268 C 
ATOM     23  C   UNL A   1      35.861  21.978  24.661  1.00  0.00     0.062 C 
ATOM     24  C   UNL A   1      35.235  22.693  23.464  1.00  0.00     0.262 C 
ATOM     25  H   UNL A   1      33.554  23.406  24.362  1.00  0.00     0.348 HD
ENDBRANCH  16  17
ENDBRANCH  11  16
ENDBRANCH   8  10
ENDBRANCH   7   8
ENDBRANCH   6   7
ENDBRANCH   5   6
ENDBRANCH   4   5
ENDBRANCH   3   4
ENDBRANCH   2   3
ENDBRANCH   1   2
BRANCH   1  26
ATOM     26  C   UNL A   1      34.295  33.165  29.499  1.00  0.00     0.188 C 
BRANCH  26  27
ATOM     27  C   UNL A   1      33.834  34.184  28.423  1.00  0.00     0.188 C 
BRANCH  27  28
ATOM     28  O   UNL A   1      34.185  35.533  28.673  1.00  0.00    -0.376 OA
BRANCH  28  29
ATOM     29  C   UNL A   1      33.154  36.476  28.893  1.00  0.00     0.202 C 
BRANCH  29  30
ATOM     30  C   UNL A   1      33.001  37.021  30.320  1.00  0.00     0.261 C 
BRANCH  30  31
ATOM     31  O   UNL A   1      32.421  36.121  31.275  1.00  0.00    -0.460 OA
BRANCH  31  32
ATOM     32  C   UNL A   1      32.911  36.164  32.535  1.00  0.00     0.338 C 
ATOM     33  O   UNL A   1      32.431  36.722  33.495  1.00  0.00    -0.246 OA
BRANCH  32  34
ATOM     34  C   UNL A   1      34.066  35.240  32.588  1.00  0.00     0.060 A 
ATOM     35  C   UNL A   1      33.888  33.955  33.116  1.00  0.00     0.016 A 
ATOM     36  C   UNL A   1      35.313  35.644  32.108  1.00  0.00     0.016 A 
ATOM     37  C   UNL A   1      34.971  33.080  33.200  1.00  0.00     0.010 A 
ATOM     38  C   UNL A   1      36.401  34.775  32.211  1.00  0.00     0.010 A 
ATOM     39  C   UNL A   1      36.242  33.503  32.789  1.00  0.00    -0.014 A 
BRANCH  39  40
ATOM     40  C   UNL A   1      37.439  32.703  33.147  1.00  0.00     0.031 A 
ATOM     41  C   UNL A   1      38.127  32.998  34.450  1.00  0.00     0.074 A 
ATOM     42  C   UNL A   1      37.900  31.731  32.341  1.00  0.00     0.049 A 
ATOM     43  N   UNL A   1      39.218  32.481  34.955  1.00  0.00    -0.248 NA
ATOM     44  C   UNL A   1      37.499  34.024  35.299  1.00  0.00     0.031 C 
ATOM     45  C   UNL A   1      37.294  31.320  31.078  1.00  0.00     0.029 A 
ATOM     46  N   UNL A   1      38.999  30.918  32.471  1.00  0.00    -0.354 N 
ATOM     47  C   UNL A   1      39.412  33.127  36.169  1.00  0.00     0.074 A 
ATOM     48  C   UNL A   1      38.347  34.095  36.312  1.00  0.00     0.031 C 
ATOM     49  C   UNL A   1      38.034  30.333  30.543  1.00  0.00     0.029 A 
ATOM     50  C   UNL A   1      39.186  30.072  31.406  1.00  0.00     0.049 A 
ATOM     51  H   UNL A   1      39.596  30.939  33.254  1.00  0.00     0.167 HD
ATOM     52  C   UNL A   1      40.389  32.926  37.086  1.00  0.00     0.037 A 
ATOM     53  C   UNL A   1      40.187  29.206  31.151  1.00  0.00     0.037 A 
ATOM     54  C   UNL A   1      41.447  31.962  36.938  1.00  0.00     0.049 A 
ATOM     55  C   UNL A   1      41.311  29.064  32.147  1.00  0.00     0.074 A 
ATOM     56  C   UNL A   1      42.469  31.661  37.820  1.00  0.00     0.029 A 
ATOM     57  N   UNL A   1      41.628  31.153  35.825  1.00  0.00    -0.354 N 
ATOM     58  N   UNL A   1      41.473  29.650  33.310  1.00  0.00    -0.248 NA
ATOM     59  C   UNL A   1      42.395  28.134  31.795  1.00  0.00     0.031 C 
ATOM     60  C   UNL A   1      43.308  30.722  37.212  1.00  0.00     0.029 A 
ATOM     61  C   UNL A   1      42.767  30.380  35.983  1.00  0.00     0.049 A 
ATOM     62  H   UNL A   1      41.033  31.130  35.040  1.00  0.00     0.167 HD
ATOM     63  C   UNL A   1      42.649  29.134  33.841  1.00  0.00     0.074 A 
ATOM     64  C   UNL A   1      43.155  28.179  32.879  1.00  0.00     0.031 C 
ATOM     65  C   UNL A   1      43.254  29.422  35.020  1.00  0.00     0.037 A 
BRANCH  52  66
ATOM     66  C   UNL A   1      40.380  33.797  38.310  1.00  0.00     0.064 A 
ATOM     67  C   UNL A   1      41.115  34.991  38.378  1.00  0.00     0.173 A 
ATOM     68  C   UNL A   1      39.609  33.439  39.426  1.00  0.00     0.173 A 
ATOM     69  F   UNL A   1      41.882  35.374  37.346  1.00  0.00    -0.203 F 
ATOM     70  C   UNL A   1      41.106  35.773  39.531  1.00  0.00     0.198 A 
ATOM     71  C   UNL A   1      39.574  34.242  40.562  1.00  0.00     0.198 A 
ATOM     72  F   UNL A   1      38.884  32.310  39.414  1.00  0.00    -0.203 F 
ATOM     73  F   UNL A   1      41.863  36.877  39.596  1.00  0.00    -0.200 F 
ATOM     74  C   UNL A   1      40.330  35.402  40.619  1.00  0.00     0.200 A 
ATOM     75  F   UNL A   1      38.810  33.889  41.606  1.00  0.00    -0.200 F 
ATOM     76  F   UNL A   1      40.318  36.159  41.725  1.00  0.00    -0.200 F 
ENDBRANCH  52  66
BRANCH  53  77
ATOM     77  C   UNL A   1      40.183  28.405  29.898  1.00  0.00     0.064 A 
ATOM     78  C   UNL A   1      40.803  28.882  28.734  1.00  0.00     0.173 A 
ATOM     79  C   UNL A   1      39.536  27.163  29.826  1.00  0.00     0.173 A 
ATOM     80  F   UNL A   1      41.412  30.077  28.743  1.00  0.00    -0.203 F 
ATOM     81  C   UNL A   1      40.756  28.161  27.543  1.00  0.00     0.198 A 
ATOM     82  C   UNL A   1      39.518  26.426  28.643  1.00  0.00     0.198 A 
ATOM     83  F   UNL A   1      38.923  26.660  30.908  1.00  0.00    -0.203 F 
ATOM     84  F   UNL A   1      41.310  28.668  26.433  1.00  0.00    -0.200 F 
ATOM     85  C   UNL A   1      40.118  26.930  27.501  1.00  0.00     0.200 A 
ATOM     86  F   UNL A   1      38.912  25.231  28.610  1.00  0.00    -0.200 F 
ATOM     87  F   UNL A   1      40.075  26.235  26.356  1.00  0.00    -0.200 F 
ENDBRANCH  53  77
BRANCH  65  88
ATOM     88  C   UNL A   1      44.504  28.660  35.366  1.00  0.00     0.064 A 
ATOM     89  C   UNL A   1      44.464  27.440  36.056  1.00  0.00     0.173 A 
ATOM     90  C   UNL A   1      45.760  29.141  34.960  1.00  0.00     0.173 A 
ATOM     91  F   UNL A   1      43.292  26.941  36.478  1.00  0.00    -0.203 F 
ATOM     92  C   UNL A   1      45.634  26.746  36.354  1.00  0.00     0.198 A 
ATOM     93  C   UNL A   1      46.924  28.426  35.226  1.00  0.00     0.198 A 
ATOM     94  F   UNL A   1      45.856  30.298  34.289  1.00  0.00    -0.203 F 
ATOM     95  F   UNL A   1      45.576  25.610  37.062  1.00  0.00    -0.200 F 
ATOM     96  C   UNL A   1      46.862  27.234  35.932  1.00  0.00     0.200 A 
ATOM     97  F   UNL A   1      48.106  28.891  34.800  1.00  0.00    -0.200 F 
ATOM     98  F   UNL A   1      47.986  26.560  36.210  1.00  0.00    -0.200 F 
ENDBRANCH  65  88
ENDBRANCH  39  40
ENDBRANCH  32  34
ENDBRANCH  31  32
ENDBRANCH  30  31
ENDBRANCH  29  30
ENDBRANCH  28  29
ENDBRANCH  27  28
ENDBRANCH  26  27
ENDBRANCH   1  26
TORSDOF 22
ENDMDL
