MODEL 1
REMARK VINA RESULT:      -9.8      0.000      0.000
REMARK SMILES C[C@@H](Oc1ccc(F)cc1)C(=O)N[C@@H](CO)C(=O)OCCOCCOCCOCCOC(=O)c1ccc(-c2c3nc(c(-c4c(F)c(F)c(F)c(F)c4F)c4ccc([nH]4)c(-c4c(F)c(F)c(F)c(F)c4F)c4nc(c(-c5c(F)c(F)c(F)c(F)c5F)c5ccc2[nH]5)C=C4)C=C3)cc1
REMARK SMILES IDX 24 1 23 2 22 3 21 4 20 5 19 6 17 7 18 8 14 9 13 10 11 11
REMARK SMILES IDX 12 12 2 14 1 15 3 16 4 17 5 18 10 19 6 20 9 21 7 22 8 23
REMARK SMILES IDX 15 24 16 25 25 27 26 28 27 29 28 30 29 31 30 32 31 33 32 34
REMARK SMILES IDX 33 35 34 36 35 37 96 38 36 39 95 40 37 41 38 42 39 43 89 44
REMARK SMILES IDX 40 45 94 46 88 47 90 48 41 49 93 50 87 51 86 52 42 54 74 55
REMARK SMILES IDX 54 56 73 57 55 58 58 59 72 60 91 61 56 62 57 63 71 65 92 66
REMARK SMILES IDX 59 67 43 68 44 69 52 70 45 71 46 72 50 73 53 74 47 75 48 76
REMARK SMILES IDX 51 77 49 78 75 79 76 80 84 81 77 82 78 83 82 84 85 85 79 86
REMARK SMILES IDX 80 87 83 88 81 89 60 90 61 91 69 92 62 93 63 94 67 95 70 96
REMARK SMILES IDX 64 97 65 98 68 99 66 100
REMARK H PARENT 13 13 16 26 90 53 58 64
REMARK Flexibility Score: inf
ROOT
ATOM      1  C   UNL A   1      31.705  28.636  26.438  1.00  0.00     0.188 C 
ENDROOT
BRANCH   1   2
ATOM      2  C   UNL A   1      31.751  29.650  25.284  1.00  0.00     0.188 C 
BRANCH   2   3
ATOM      3  O   UNL A   1      30.707  29.703  24.322  1.00  0.00    -0.376 OA
BRANCH   3   4
ATOM      4  C   UNL A   1      30.504  28.625  23.420  1.00  0.00     0.202 C 
BRANCH   4   5
ATOM      5  C   UNL A   1      31.670  28.018  22.617  1.00  0.00     0.261 C 
BRANCH   5   6
ATOM      6  O   UNL A   1      31.434  26.727  22.025  1.00  0.00    -0.462 OA
BRANCH   6   7
ATOM      7  C   UNL A   1      32.512  25.911  21.923  1.00  0.00     0.331 C 
ATOM      8  O   UNL A   1      33.308  25.928  20.988  1.00  0.00    -0.250 OA
BRANCH   7   9
ATOM      9  C   UNL A   1      32.644  24.904  23.083  1.00  0.00     0.218 C 
BRANCH   9  10
ATOM     10  N   UNL A   1      33.624  25.127  24.166  1.00  0.00    -0.338 N 
ATOM     11  C   UNL A   1      34.643  24.324  24.615  1.00  0.00     0.261 C 
ATOM     12  O   UNL A   1      35.308  24.721  25.576  1.00  0.00    -0.271 OA
ATOM     13  H   UNL A   1      33.531  25.986  24.641  1.00  0.00     0.164 HD
BRANCH  11  14
ATOM     14  C   UNL A   1      34.967  22.971  23.944  1.00  0.00     0.258 C 
ATOM     15  C   UNL A   1      36.402  23.002  23.429  1.00  0.00     0.064 C 
BRANCH  14  16
ATOM     16  O   UNL A   1      34.687  21.941  24.906  1.00  0.00    -0.481 OA
BRANCH  16  17
ATOM     17  C   UNL A   1      33.896  20.915  24.468  1.00  0.00     0.120 A 
ATOM     18  C   UNL A   1      32.873  21.162  23.550  1.00  0.00     0.049 A 
ATOM     19  C   UNL A   1      34.252  19.599  24.776  1.00  0.00     0.049 A 
ATOM     20  C   UNL A   1      32.167  20.102  22.982  1.00  0.00     0.043 A 
ATOM     21  C   UNL A   1      33.555  18.535  24.193  1.00  0.00     0.043 A 
ATOM     22  C   UNL A   1      32.517  18.796  23.305  1.00  0.00     0.123 A 
ATOM     23  F   UNL A   1      31.861  17.779  22.730  1.00  0.00    -0.207 F 
ENDBRANCH  16  17
ENDBRANCH  14  16
ENDBRANCH  11  14
ENDBRANCH   9  10
BRANCH   9  24
ATOM     24  C   UNL A   1      31.252  24.773  23.707  1.00  0.00     0.193 C 
BRANCH  24  25
ATOM     25  O   UNL A   1      30.435  23.868  22.960  1.00  0.00    -0.394 OA
ATOM     26  H   UNL A   1      30.446  22.996  23.386  1.00  0.00     0.210 HD
ENDBRANCH  24  25
ENDBRANCH   9  24
ENDBRANCH   7   9
ENDBRANCH   6   7
ENDBRANCH   5   6
ENDBRANCH   4   5
ENDBRANCH   3   4
ENDBRANCH   2   3
ENDBRANCH   1   2
BRANCH   1  27
ATOM     27  O   UNL A   1      32.933  28.007  26.746  1.00  0.00    -0.377 OA
BRANCH  27  28
ATOM     28  C   UNL A   1      34.097  28.640  26.241  1.00  0.00     0.188 C 
BRANCH  28  29
ATOM     29  C   UNL A   1      35.031  29.311  27.267  1.00  0.00     0.188 C 
BRANCH  29  30
ATOM     30  O   UNL A   1      34.904  30.726  27.329  1.00  0.00    -0.376 OA
BRANCH  30  31
ATOM     31  C   UNL A   1      33.725  31.292  27.881  1.00  0.00     0.202 C 
BRANCH  31  32
ATOM     32  C   UNL A   1      33.247  32.659  27.357  1.00  0.00     0.261 C 
BRANCH  32  33
ATOM     33  O   UNL A   1      32.582  33.518  28.295  1.00  0.00    -0.460 OA
BRANCH  33  34
ATOM     34  C   UNL A   1      33.199  34.652  28.674  1.00  0.00     0.338 C 
ATOM     35  O   UNL A   1      32.810  35.797  28.508  1.00  0.00    -0.246 OA
BRANCH  34  36
ATOM     36  C   UNL A   1      34.347  34.275  29.527  1.00  0.00     0.060 A 
ATOM     37  C   UNL A   1      35.646  34.519  29.062  1.00  0.00     0.016 A 
ATOM     38  C   UNL A   1      34.144  33.697  30.783  1.00  0.00     0.016 A 
ATOM     39  C   UNL A   1      36.748  34.148  29.832  1.00  0.00     0.010 A 
ATOM     40  C   UNL A   1      35.248  33.299  31.543  1.00  0.00     0.010 A 
ATOM     41  C   UNL A   1      36.553  33.489  31.052  1.00  0.00    -0.014 A 
BRANCH  41  42
ATOM     42  C   UNL A   1      37.696  32.810  31.706  1.00  0.00     0.031 A 
ATOM     43  C   UNL A   1      38.331  31.647  30.998  1.00  0.00     0.074 A 
ATOM     44  C   UNL A   1      38.182  33.229  32.887  1.00  0.00     0.049 A 
ATOM     45  N   UNL A   1      39.304  30.864  31.386  1.00  0.00    -0.248 NA
ATOM     46  C   UNL A   1      37.791  31.322  29.668  1.00  0.00     0.031 C 
ATOM     47  C   UNL A   1      37.689  34.376  33.642  1.00  0.00     0.029 A 
ATOM     48  N   UNL A   1      39.202  32.726  33.658  1.00  0.00    -0.354 N 
ATOM     49  C   UNL A   1      39.484  29.951  30.355  1.00  0.00     0.074 A 
ATOM     50  C   UNL A   1      38.502  30.255  29.340  1.00  0.00     0.031 C 
ATOM     51  C   UNL A   1      38.402  34.488  34.776  1.00  0.00     0.029 A 
ATOM     52  C   UNL A   1      39.375  33.396  34.843  1.00  0.00     0.049 A 
ATOM     53  H   UNL A   1      39.756  31.959  33.386  1.00  0.00     0.167 HD
ATOM     54  C   UNL A   1      40.398  28.956  30.263  1.00  0.00     0.037 A 
ATOM     55  C   UNL A   1      40.207  33.142  35.873  1.00  0.00     0.037 A 
ATOM     56  C   UNL A   1      41.374  28.661  31.278  1.00  0.00     0.049 A 
ATOM     57  C   UNL A   1      41.159  31.976  35.788  1.00  0.00     0.074 A 
ATOM     58  C   UNL A   1      42.354  27.687  31.268  1.00  0.00     0.029 A 
ATOM     59  N   UNL A   1      41.484  29.331  32.487  1.00  0.00    -0.354 N 
ATOM     60  N   UNL A   1      41.336  31.124  34.807  1.00  0.00    -0.248 NA
ATOM     61  C   UNL A   1      42.025  31.736  36.951  1.00  0.00     0.031 C 
ATOM     62  C   UNL A   1      43.013  27.720  32.500  1.00  0.00     0.029 A 
ATOM     63  C   UNL A   1      42.494  28.766  33.249  1.00  0.00     0.049 A 
ATOM     64  H   UNL A   1      40.928  30.094  32.764  1.00  0.00     0.167 HD
ATOM     65  C   UNL A   1      42.347  30.265  35.221  1.00  0.00     0.074 A 
ATOM     66  C   UNL A   1      42.751  30.703  36.541  1.00  0.00     0.031 C 
ATOM     67  C   UNL A   1      42.891  29.211  34.563  1.00  0.00     0.037 A 
BRANCH  54  68
ATOM     68  C   UNL A   1      40.364  28.091  29.036  1.00  0.00     0.064 A 
ATOM     69  C   UNL A   1      39.634  26.893  29.035  1.00  0.00     0.173 A 
ATOM     70  C   UNL A   1      41.085  28.420  27.878  1.00  0.00     0.173 A 
ATOM     71  F   UNL A   1      38.927  26.531  30.117  1.00  0.00    -0.203 F 
ATOM     72  C   UNL A   1      39.638  26.050  27.927  1.00  0.00     0.198 A 
ATOM     73  C   UNL A   1      41.057  27.591  26.758  1.00  0.00     0.198 A 
ATOM     74  F   UNL A   1      41.786  29.561  27.819  1.00  0.00    -0.203 F 
ATOM     75  F   UNL A   1      38.958  24.895  27.964  1.00  0.00    -0.200 F 
ATOM     76  C   UNL A   1      40.343  26.403  26.788  1.00  0.00     0.200 A 
ATOM     77  F   UNL A   1      41.714  27.949  25.647  1.00  0.00    -0.200 F 
ATOM     78  F   UNL A   1      40.330  25.600  25.715  1.00  0.00    -0.200 F 
ENDBRANCH  54  68
BRANCH  55  79
ATOM     79  C   UNL A   1      40.172  34.024  37.068  1.00  0.00     0.064 A 
ATOM     80  C   UNL A   1      39.262  33.797  38.112  1.00  0.00     0.173 A 
ATOM     81  C   UNL A   1      41.009  35.142  37.165  1.00  0.00     0.173 A 
ATOM     82  F   UNL A   1      38.441  32.737  38.070  1.00  0.00    -0.203 F 
ATOM     83  C   UNL A   1      39.168  34.675  39.189  1.00  0.00     0.198 A 
ATOM     84  C   UNL A   1      40.933  36.006  38.256  1.00  0.00     0.198 A 
ATOM     85  F   UNL A   1      41.914  35.386  36.205  1.00  0.00    -0.203 F 
ATOM     86  F   UNL A   1      38.258  34.460  40.150  1.00  0.00    -0.200 F 
ATOM     87  C   UNL A   1      40.003  35.779  39.260  1.00  0.00     0.200 A 
ATOM     88  F   UNL A   1      41.758  37.058  38.334  1.00  0.00    -0.200 F 
ATOM     89  F   UNL A   1      39.912  36.626  40.296  1.00  0.00    -0.200 F 
ENDBRANCH  55  79
BRANCH  67  90
ATOM     90  C   UNL A   1      44.004  28.456  35.233  1.00  0.00     0.064 A 
ATOM     91  C   UNL A   1      43.717  27.379  36.089  1.00  0.00     0.173 A 
ATOM     92  C   UNL A   1      45.342  28.859  35.116  1.00  0.00     0.173 A 
ATOM     93  F   UNL A   1      42.452  26.961  36.246  1.00  0.00    -0.203 F 
ATOM     94  C   UNL A   1      44.722  26.753  36.818  1.00  0.00     0.198 A 
ATOM     95  C   UNL A   1      46.351  28.206  35.822  1.00  0.00     0.198 A 
ATOM     96  F   UNL A   1      45.673  29.875  34.305  1.00  0.00    -0.203 F 
ATOM     97  F   UNL A   1      44.414  25.760  37.665  1.00  0.00    -0.200 F 
ATOM     98  C   UNL A   1      46.039  27.164  36.682  1.00  0.00     0.200 A 
ATOM     99  F   UNL A   1      47.627  28.590  35.672  1.00  0.00    -0.200 F 
ATOM    100  F   UNL A   1      47.008  26.556  37.381  1.00  0.00    -0.200 F 
ENDBRANCH  67  90
ENDBRANCH  41  42
ENDBRANCH  34  36
ENDBRANCH  33  34
ENDBRANCH  32  33
ENDBRANCH  31  32
ENDBRANCH  30  31
ENDBRANCH  29  30
ENDBRANCH  28  29
ENDBRANCH  27  28
ENDBRANCH   1  27
TORSDOF 26
ENDMDL
MODEL 2
REMARK VINA RESULT:      -9.7      1.485      7.372
REMARK SMILES C[C@@H](Oc1ccc(F)cc1)C(=O)N[C@@H](CO)C(=O)OCCOCCOCCOCCOC(=O)c1ccc(-c2c3nc(c(-c4c(F)c(F)c(F)c(F)c4F)c4ccc([nH]4)c(-c4c(F)c(F)c(F)c(F)c4F)c4nc(c(-c5c(F)c(F)c(F)c(F)c5F)c5ccc2[nH]5)C=C4)C=C3)cc1
REMARK SMILES IDX 24 1 23 2 22 3 21 4 20 5 19 6 17 7 18 8 14 9 13 10 11 11
REMARK SMILES IDX 12 12 2 14 1 15 3 16 4 17 5 18 10 19 6 20 9 21 7 22 8 23
REMARK SMILES IDX 15 24 16 25 25 27 26 28 27 29 28 30 29 31 30 32 31 33 32 34
REMARK SMILES IDX 33 35 34 36 35 37 96 38 36 39 95 40 37 41 38 42 39 43 89 44
REMARK SMILES IDX 40 45 94 46 88 47 90 48 41 49 93 50 87 51 86 52 42 54 74 55
REMARK SMILES IDX 54 56 73 57 55 58 58 59 72 60 91 61 56 62 57 63 71 65 92 66
REMARK SMILES IDX 59 67 43 68 44 69 52 70 45 71 46 72 50 73 53 74 47 75 48 76
REMARK SMILES IDX 51 77 49 78 75 79 76 80 84 81 77 82 78 83 82 84 85 85 79 86
REMARK SMILES IDX 80 87 83 88 81 89 60 90 61 91 69 92 62 93 63 94 67 95 70 96
REMARK SMILES IDX 64 97 65 98 68 99 66 100
REMARK H PARENT 13 13 16 26 90 53 58 64
REMARK Flexibility Score: inf
ROOT
ATOM      1  C   UNL A   1      32.570  29.325  24.892  1.00  0.00     0.188 C 
ENDROOT
BRANCH   1   2
ATOM      2  C   UNL A   1      31.925  28.427  23.825  1.00  0.00     0.188 C 
BRANCH   2   3
ATOM      3  O   UNL A   1      30.514  28.271  23.765  1.00  0.00    -0.376 OA
BRANCH   3   4
ATOM      4  C   UNL A   1      29.927  26.981  23.864  1.00  0.00     0.202 C 
BRANCH   4   5
ATOM      5  C   UNL A   1      30.740  25.704  23.576  1.00  0.00     0.261 C 
BRANCH   5   6
ATOM      6  O   UNL A   1      30.448  24.563  24.402  1.00  0.00    -0.462 OA
BRANCH   6   7
ATOM      7  C   UNL A   1      31.271  24.369  25.463  1.00  0.00     0.331 C 
ATOM      8  O   UNL A   1      32.012  25.229  25.931  1.00  0.00    -0.250 OA
BRANCH   7   9
ATOM      9  C   UNL A   1      31.234  22.934  26.026  1.00  0.00     0.218 C 
BRANCH   9  10
ATOM     10  N   UNL A   1      32.269  22.471  26.973  1.00  0.00    -0.338 N 
ATOM     11  C   UNL A   1      33.315  21.602  26.784  1.00  0.00     0.261 C 
ATOM     12  O   UNL A   1      34.027  21.339  27.757  1.00  0.00    -0.271 OA
ATOM     13  H   UNL A   1      32.196  22.843  27.883  1.00  0.00     0.164 HD
BRANCH  11  14
ATOM     14  C   UNL A   1      33.610  20.972  25.405  1.00  0.00     0.258 C 
ATOM     15  C   UNL A   1      32.314  20.416  24.825  1.00  0.00     0.064 C 
BRANCH  14  16
ATOM     16  O   UNL A   1      34.253  21.979  24.606  1.00  0.00    -0.481 OA
BRANCH  16  17
ATOM     17  C   UNL A   1      35.595  22.139  24.816  1.00  0.00     0.120 A 
ATOM     18  C   UNL A   1      36.101  23.385  25.190  1.00  0.00     0.049 A 
ATOM     19  C   UNL A   1      36.418  21.010  24.862  1.00  0.00     0.049 A 
ATOM     20  C   UNL A   1      37.440  23.519  25.557  1.00  0.00     0.043 A 
ATOM     21  C   UNL A   1      37.757  21.141  25.246  1.00  0.00     0.043 A 
ATOM     22  C   UNL A   1      38.256  22.394  25.586  1.00  0.00     0.123 A 
ATOM     23  F   UNL A   1      39.533  22.519  25.973  1.00  0.00    -0.207 F 
ENDBRANCH  16  17
ENDBRANCH  14  16
ENDBRANCH  11  14
ENDBRANCH   9  10
BRANCH   9  24
ATOM     24  C   UNL A   1      29.862  22.757  26.680  1.00  0.00     0.193 C 
BRANCH  24  25
ATOM     25  O   UNL A   1      29.402  23.984  27.253  1.00  0.00    -0.394 OA
ATOM     26  H   UNL A   1      30.108  24.647  27.206  1.00  0.00     0.210 HD
ENDBRANCH  24  25
ENDBRANCH   9  24
ENDBRANCH   7   9
ENDBRANCH   6   7
ENDBRANCH   5   6
ENDBRANCH   4   5
ENDBRANCH   3   4
ENDBRANCH   2   3
ENDBRANCH   1   2
BRANCH   1  27
ATOM     27  O   UNL A   1      32.976  28.669  26.076  1.00  0.00    -0.377 OA
BRANCH  27  28
ATOM     28  C   UNL A   1      34.329  28.856  26.456  1.00  0.00     0.188 C 
BRANCH  28  29
ATOM     29  C   UNL A   1      34.599  29.803  27.642  1.00  0.00     0.188 C 
BRANCH  29  30
ATOM     30  O   UNL A   1      34.397  31.178  27.343  1.00  0.00    -0.376 OA
BRANCH  30  31
ATOM     31  C   UNL A   1      33.165  31.790  27.697  1.00  0.00     0.202 C 
BRANCH  31  32
ATOM     32  C   UNL A   1      32.954  33.277  27.354  1.00  0.00     0.261 C 
BRANCH  32  33
ATOM     33  O   UNL A   1      32.309  34.087  28.347  1.00  0.00    -0.460 OA
BRANCH  33  34
ATOM     34  C   UNL A   1      32.981  35.140  28.849  1.00  0.00     0.338 C 
ATOM     35  O   UNL A   1      32.629  36.308  28.851  1.00  0.00    -0.246 OA
BRANCH  34  36
ATOM     36  C   UNL A   1      34.142  34.616  29.599  1.00  0.00     0.060 A 
ATOM     37  C   UNL A   1      35.409  34.657  29.002  1.00  0.00     0.016 A 
ATOM     38  C   UNL A   1      33.987  34.099  30.889  1.00  0.00     0.016 A 
ATOM     39  C   UNL A   1      36.518  34.143  29.674  1.00  0.00     0.010 A 
ATOM     40  C   UNL A   1      35.093  33.559  31.551  1.00  0.00     0.010 A 
ATOM     41  C   UNL A   1      36.355  33.544  30.929  1.00  0.00    -0.014 A 
BRANCH  41  42
ATOM     42  C   UNL A   1      37.449  32.718  31.492  1.00  0.00     0.031 A 
ATOM     43  C   UNL A   1      37.999  33.091  32.839  1.00  0.00     0.074 A 
ATOM     44  C   UNL A   1      37.927  31.645  30.839  1.00  0.00     0.049 A 
ATOM     45  N   UNL A   1      38.984  32.558  33.514  1.00  0.00    -0.248 NA
ATOM     46  C   UNL A   1      37.347  34.224  33.517  1.00  0.00     0.031 C 
ATOM     47  C   UNL A   1      37.439  31.152  29.556  1.00  0.00     0.029 A 
ATOM     48  N   UNL A   1      38.940  30.780  31.175  1.00  0.00    -0.354 N 
ATOM     49  C   UNL A   1      39.075  33.295  34.688  1.00  0.00     0.074 A 
ATOM     50  C   UNL A   1      38.070  34.332  34.621  1.00  0.00     0.031 C 
ATOM     51  C   UNL A   1      38.159  30.072  29.205  1.00  0.00     0.029 A 
ATOM     52  C   UNL A   1      39.183  29.824  30.221  1.00  0.00     0.049 A 
ATOM     53  H   UNL A   1      39.444  30.840  32.019  1.00  0.00     0.167 HD
ATOM     54  C   UNL A   1      39.918  33.113  35.732  1.00  0.00     0.037 A 
ATOM     55  C   UNL A   1      40.137  28.873  30.164  1.00  0.00     0.037 A 
ATOM     56  C   UNL A   1      40.915  32.079  35.792  1.00  0.00     0.049 A 
ATOM     57  C   UNL A   1      41.121  28.741  31.298  1.00  0.00     0.074 A 
ATOM     58  C   UNL A   1      41.802  31.800  36.815  1.00  0.00     0.029 A 
ATOM     59  N   UNL A   1      41.164  31.160  34.783  1.00  0.00    -0.354 N 
ATOM     60  N   UNL A   1      41.197  29.430  32.412  1.00  0.00    -0.248 NA
ATOM     61  C   UNL A   1      42.152  27.701  31.169  1.00  0.00     0.031 C 
ATOM     62  C   UNL A   1      42.635  30.758  36.397  1.00  0.00     0.029 A 
ATOM     63  C   UNL A   1      42.218  30.336  35.144  1.00  0.00     0.049 A 
ATOM     64  H   UNL A   1      40.666  31.102  33.936  1.00  0.00     0.167 HD
ATOM     65  C   UNL A   1      42.262  28.894  33.125  1.00  0.00     0.074 A 
ATOM     66  C   UNL A   1      42.800  27.815  32.322  1.00  0.00     0.031 C 
ATOM     67  C   UNL A   1      42.746  29.263  34.338  1.00  0.00     0.037 A 
BRANCH  54  68
ATOM     68  C   UNL A   1      39.820  34.074  36.881  1.00  0.00     0.064 A 
ATOM     69  C   UNL A   1      40.572  35.259  36.879  1.00  0.00     0.173 A 
ATOM     70  C   UNL A   1      39.021  33.808  38.004  1.00  0.00     0.173 A 
ATOM     71  F   UNL A   1      41.353  35.562  35.831  1.00  0.00    -0.203 F 
ATOM     72  C   UNL A   1      40.538  36.133  37.962  1.00  0.00     0.198 A 
ATOM     73  C   UNL A   1      38.962  34.703  39.070  1.00  0.00     0.198 A 
ATOM     74  F   UNL A   1      38.270  32.698  38.051  1.00  0.00    -0.203 F 
ATOM     75  F   UNL A   1      41.291  37.242  37.949  1.00  0.00    -0.200 F 
ATOM     76  C   UNL A   1      39.729  35.859  39.053  1.00  0.00     0.200 A 
ATOM     77  F   UNL A   1      38.156  34.451  40.110  1.00  0.00    -0.200 F 
ATOM     78  F   UNL A   1      39.682  36.711  40.086  1.00  0.00    -0.200 F 
ENDBRANCH  54  68
BRANCH  55  79
ATOM     79  C   UNL A   1      40.193  27.970  28.985  1.00  0.00     0.064 A 
ATOM     80  C   UNL A   1      39.560  26.718  28.997  1.00  0.00     0.173 A 
ATOM     81  C   UNL A   1      40.925  28.320  27.844  1.00  0.00     0.173 A 
ATOM     82  F   UNL A   1      38.842  26.339  30.064  1.00  0.00    -0.203 F 
ATOM     83  C   UNL A   1      39.687  25.836  27.927  1.00  0.00     0.198 A 
ATOM     84  C   UNL A   1      41.031  27.447  26.761  1.00  0.00     0.198 A 
ATOM     85  F   UNL A   1      41.526  29.517  27.773  1.00  0.00    -0.203 F 
ATOM     86  F   UNL A   1      39.111  24.628  27.983  1.00  0.00    -0.200 F 
ATOM     87  C   UNL A   1      40.423  26.201  26.810  1.00  0.00     0.200 A 
ATOM     88  F   UNL A   1      41.722  27.813  25.674  1.00  0.00    -0.200 F 
ATOM     89  F   UNL A   1      40.548  25.352  25.780  1.00  0.00    -0.200 F 
ENDBRANCH  55  79
BRANCH  67  90
ATOM     90  C   UNL A   1      43.904  28.489  34.902  1.00  0.00     0.064 A 
ATOM     91  C   UNL A   1      43.679  27.379  35.733  1.00  0.00     0.173 A 
ATOM     92  C   UNL A   1      45.230  28.903  34.709  1.00  0.00     0.173 A 
ATOM     93  F   UNL A   1      42.429  26.949  35.961  1.00  0.00    -0.203 F 
ATOM     94  C   UNL A   1      44.734  26.731  36.367  1.00  0.00     0.198 A 
ATOM     95  C   UNL A   1      46.287  28.229  35.318  1.00  0.00     0.198 A 
ATOM     96  F   UNL A   1      45.502  29.951  33.916  1.00  0.00    -0.203 F 
ATOM     97  F   UNL A   1      44.487  25.706  37.195  1.00  0.00    -0.200 F 
ATOM     98  C   UNL A   1      46.037  27.154  36.158  1.00  0.00     0.200 A 
ATOM     99  F   UNL A   1      47.548  28.625  35.096  1.00  0.00    -0.200 F 
ATOM    100  F   UNL A   1      47.053  26.525  36.765  1.00  0.00    -0.200 F 
ENDBRANCH  67  90
ENDBRANCH  41  42
ENDBRANCH  34  36
ENDBRANCH  33  34
ENDBRANCH  32  33
ENDBRANCH  31  32
ENDBRANCH  30  31
ENDBRANCH  29  30
ENDBRANCH  28  29
ENDBRANCH  27  28
ENDBRANCH   1  27
TORSDOF 26
ENDMDL
MODEL 3
REMARK VINA RESULT:      -9.6      1.068      7.269
REMARK SMILES C[C@@H](Oc1ccc(F)cc1)C(=O)N[C@@H](CO)C(=O)OCCOCCOCCOCCOC(=O)c1ccc(-c2c3nc(c(-c4c(F)c(F)c(F)c(F)c4F)c4ccc([nH]4)c(-c4c(F)c(F)c(F)c(F)c4F)c4nc(c(-c5c(F)c(F)c(F)c(F)c5F)c5ccc2[nH]5)C=C4)C=C3)cc1
REMARK SMILES IDX 24 1 23 2 22 3 21 4 20 5 19 6 17 7 18 8 14 9 13 10 11 11
REMARK SMILES IDX 12 12 2 14 1 15 3 16 4 17 5 18 10 19 6 20 9 21 7 22 8 23
REMARK SMILES IDX 15 24 16 25 25 27 26 28 27 29 28 30 29 31 30 32 31 33 32 34
REMARK SMILES IDX 33 35 34 36 35 37 96 38 36 39 95 40 37 41 38 42 39 43 89 44
REMARK SMILES IDX 40 45 94 46 88 47 90 48 41 49 93 50 87 51 86 52 42 54 74 55
REMARK SMILES IDX 54 56 73 57 55 58 58 59 72 60 91 61 56 62 57 63 71 65 92 66
REMARK SMILES IDX 59 67 43 68 44 69 52 70 45 71 46 72 50 73 53 74 47 75 48 76
REMARK SMILES IDX 51 77 49 78 75 79 76 80 84 81 77 82 78 83 82 84 85 85 79 86
REMARK SMILES IDX 80 87 83 88 81 89 60 90 61 91 69 92 62 93 63 94 67 95 70 96
REMARK SMILES IDX 64 97 65 98 68 99 66 100
REMARK H PARENT 13 13 16 26 90 53 58 64
REMARK Flexibility Score: inf
ROOT
ATOM      1  C   UNL A   1      32.514  29.330  24.802  1.00  0.00     0.188 C 
ENDROOT
BRANCH   1   2
ATOM      2  C   UNL A   1      31.933  28.455  23.680  1.00  0.00     0.188 C 
BRANCH   2   3
ATOM      3  O   UNL A   1      30.639  27.882  23.803  1.00  0.00    -0.376 OA
BRANCH   3   4
ATOM      4  C   UNL A   1      30.411  26.532  23.427  1.00  0.00     0.202 C 
BRANCH   4   5
ATOM      5  C   UNL A   1      31.493  25.702  22.710  1.00  0.00     0.261 C 
BRANCH   5   6
ATOM      6  O   UNL A   1      31.846  24.449  23.322  1.00  0.00    -0.462 OA
BRANCH   6   7
ATOM      7  C   UNL A   1      33.169  24.150  23.349  1.00  0.00     0.331 C 
ATOM      8  O   UNL A   1      33.902  24.164  22.364  1.00  0.00    -0.250 OA
BRANCH   7   9
ATOM      9  C   UNL A   1      33.687  23.737  24.741  1.00  0.00     0.218 C 
BRANCH   9  10
ATOM     10  N   UNL A   1      34.769  22.741  24.876  1.00  0.00    -0.338 N 
ATOM     11  C   UNL A   1      34.836  21.608  25.650  1.00  0.00     0.261 C 
ATOM     12  O   UNL A   1      35.882  20.953  25.620  1.00  0.00    -0.271 OA
ATOM     13  H   UNL A   1      35.568  22.918  24.327  1.00  0.00     0.164 HD
BRANCH  11  14
ATOM     14  C   UNL A   1      33.650  21.151  26.526  1.00  0.00     0.258 C 
ATOM     15  C   UNL A   1      33.336  22.240  27.546  1.00  0.00     0.064 C 
BRANCH  14  16
ATOM     16  O   UNL A   1      32.570  20.816  25.640  1.00  0.00    -0.481 OA
BRANCH  16  17
ATOM     17  C   UNL A   1      32.604  19.556  25.109  1.00  0.00     0.120 A 
ATOM     18  C   UNL A   1      32.551  19.378  23.725  1.00  0.00     0.049 A 
ATOM     19  C   UNL A   1      32.904  18.473  25.940  1.00  0.00     0.049 A 
ATOM     20  C   UNL A   1      32.743  18.112  23.171  1.00  0.00     0.043 A 
ATOM     21  C   UNL A   1      33.112  17.206  25.383  1.00  0.00     0.043 A 
ATOM     22  C   UNL A   1      33.026  17.037  24.005  1.00  0.00     0.123 A 
ATOM     23  F   UNL A   1      33.245  15.829  23.468  1.00  0.00    -0.207 F 
ENDBRANCH  16  17
ENDBRANCH  14  16
ENDBRANCH  11  14
ENDBRANCH   9  10
BRANCH   9  24
ATOM     24  C   UNL A   1      34.122  25.026  25.444  1.00  0.00     0.193 C 
BRANCH  24  25
ATOM     25  O   UNL A   1      34.075  26.141  24.551  1.00  0.00    -0.394 OA
ATOM     26  H   UNL A   1      33.880  26.949  25.052  1.00  0.00     0.210 HD
ENDBRANCH  24  25
ENDBRANCH   9  24
ENDBRANCH   7   9
ENDBRANCH   6   7
ENDBRANCH   5   6
ENDBRANCH   4   5
ENDBRANCH   3   4
ENDBRANCH   2   3
ENDBRANCH   1   2
BRANCH   1  27
ATOM     27  O   UNL A   1      33.005  28.630  25.928  1.00  0.00    -0.377 OA
BRANCH  27  28
ATOM     28  C   UNL A   1      34.344  28.912  26.297  1.00  0.00     0.188 C 
BRANCH  28  29
ATOM     29  C   UNL A   1      34.558  29.812  27.530  1.00  0.00     0.188 C 
BRANCH  29  30
ATOM     30  O   UNL A   1      34.367  31.198  27.275  1.00  0.00    -0.376 OA
BRANCH  30  31
ATOM     31  C   UNL A   1      33.119  31.796  27.594  1.00  0.00     0.202 C 
BRANCH  31  32
ATOM     32  C   UNL A   1      32.900  33.280  27.244  1.00  0.00     0.261 C 
BRANCH  32  33
ATOM     33  O   UNL A   1      32.237  34.088  28.227  1.00  0.00    -0.460 OA
BRANCH  33  34
ATOM     34  C   UNL A   1      32.902  35.135  28.749  1.00  0.00     0.338 C 
ATOM     35  O   UNL A   1      32.543  36.301  28.772  1.00  0.00    -0.246 OA
BRANCH  34  36
ATOM     36  C   UNL A   1      34.066  34.604  29.491  1.00  0.00     0.060 A 
ATOM     37  C   UNL A   1      35.323  34.607  28.871  1.00  0.00     0.016 A 
ATOM     38  C   UNL A   1      33.923  34.119  30.794  1.00  0.00     0.016 A 
ATOM     39  C   UNL A   1      36.433  34.086  29.535  1.00  0.00     0.010 A 
ATOM     40  C   UNL A   1      35.030  33.571  31.448  1.00  0.00     0.010 A 
ATOM     41  C   UNL A   1      36.280  33.518  30.806  1.00  0.00    -0.014 A 
BRANCH  41  42
ATOM     42  C   UNL A   1      37.367  32.683  31.368  1.00  0.00     0.031 A 
ATOM     43  C   UNL A   1      37.872  33.006  32.746  1.00  0.00     0.074 A 
ATOM     44  C   UNL A   1      37.879  31.643  30.688  1.00  0.00     0.049 A 
ATOM     45  N   UNL A   1      38.843  32.458  33.428  1.00  0.00    -0.248 NA
ATOM     46  C   UNL A   1      37.185  34.103  33.448  1.00  0.00     0.031 C 
ATOM     47  C   UNL A   1      37.436  31.196  29.372  1.00  0.00     0.029 A 
ATOM     48  N   UNL A   1      38.893  30.776  31.019  1.00  0.00    -0.354 N 
ATOM     49  C   UNL A   1      38.889  33.147  34.633  1.00  0.00     0.074 A 
ATOM     50  C   UNL A   1      37.873  34.174  34.577  1.00  0.00     0.031 C 
ATOM     51  C   UNL A   1      38.180  30.141  28.999  1.00  0.00     0.029 A 
ATOM     52  C   UNL A   1      39.176  29.863  30.035  1.00  0.00     0.049 A 
ATOM     53  H   UNL A   1      39.370  30.808  31.879  1.00  0.00     0.167 HD
ATOM     54  C   UNL A   1      39.702  32.933  35.694  1.00  0.00     0.037 A 
ATOM     55  C   UNL A   1      40.144  28.926  29.969  1.00  0.00     0.037 A 
ATOM     56  C   UNL A   1      40.710  31.908  35.743  1.00  0.00     0.049 A 
ATOM     57  C   UNL A   1      41.095  28.760  31.126  1.00  0.00     0.074 A 
ATOM     58  C   UNL A   1      41.570  31.598  36.781  1.00  0.00     0.029 A 
ATOM     59  N   UNL A   1      41.001  31.035  34.706  1.00  0.00    -0.354 N 
ATOM     60  N   UNL A   1      41.128  29.404  32.268  1.00  0.00    -0.248 NA
ATOM     61  C   UNL A   1      42.143  27.738  30.987  1.00  0.00     0.031 C 
ATOM     62  C   UNL A   1      42.428  30.585  36.346  1.00  0.00     0.029 A 
ATOM     63  C   UNL A   1      42.054  30.209  35.065  1.00  0.00     0.049 A 
ATOM     64  H   UNL A   1      40.530  31.005  33.842  1.00  0.00     0.167 HD
ATOM     65  C   UNL A   1      42.178  28.851  32.992  1.00  0.00     0.074 A 
ATOM     66  C   UNL A   1      42.754  27.813  32.163  1.00  0.00     0.031 C 
ATOM     67  C   UNL A   1      42.620  29.176  34.233  1.00  0.00     0.037 A 
BRANCH  54  68
ATOM     68  C   UNL A   1      39.557  33.845  36.878  1.00  0.00     0.064 A 
ATOM     69  C   UNL A   1      40.257  35.060  36.925  1.00  0.00     0.173 A 
ATOM     70  C   UNL A   1      38.765  33.503  37.985  1.00  0.00     0.173 A 
ATOM     71  F   UNL A   1      41.029  35.436  35.894  1.00  0.00    -0.203 F 
ATOM     72  C   UNL A   1      40.180  35.891  38.039  1.00  0.00     0.198 A 
ATOM     73  C   UNL A   1      38.662  34.354  39.083  1.00  0.00     0.198 A 
ATOM     74  F   UNL A   1      38.062  32.361  37.986  1.00  0.00    -0.203 F 
ATOM     75  F   UNL A   1      40.885  37.031  38.072  1.00  0.00    -0.200 F 
ATOM     76  C   UNL A   1      39.378  35.541  39.114  1.00  0.00     0.200 A 
ATOM     77  F   UNL A   1      37.862  34.029  40.107  1.00  0.00    -0.200 F 
ATOM     78  F   UNL A   1      39.290  36.352  40.178  1.00  0.00    -0.200 F 
ENDBRANCH  54  68
BRANCH  55  79
ATOM     79  C   UNL A   1      40.246  28.073  28.756  1.00  0.00     0.064 A 
ATOM     80  C   UNL A   1      39.635  26.812  28.701  1.00  0.00     0.173 A 
ATOM     81  C   UNL A   1      41.004  28.480  27.651  1.00  0.00     0.173 A 
ATOM     82  F   UNL A   1      38.895  26.378  29.732  1.00  0.00    -0.203 F 
ATOM     83  C   UNL A   1      39.806  25.976  27.600  1.00  0.00     0.198 A 
ATOM     84  C   UNL A   1      41.153  27.654  26.538  1.00  0.00     0.198 A 
ATOM     85  F   UNL A   1      41.585  29.688  27.645  1.00  0.00    -0.203 F 
ATOM     86  F   UNL A   1      39.248  24.757  27.592  1.00  0.00    -0.200 F 
ATOM     87  C   UNL A   1      40.565  26.398  26.520  1.00  0.00     0.200 A 
ATOM     88  F   UNL A   1      41.867  28.074  25.485  1.00  0.00    -0.200 F 
ATOM     89  F   UNL A   1      40.732  25.593  25.460  1.00  0.00    -0.200 F 
ENDBRANCH  55  79
BRANCH  67  90
ATOM     90  C   UNL A   1      43.771  28.394  34.800  1.00  0.00     0.064 A 
ATOM     91  C   UNL A   1      45.093  28.809  34.570  1.00  0.00     0.173 A 
ATOM     92  C   UNL A   1      43.575  27.182  35.479  1.00  0.00     0.173 A 
ATOM     93  F   UNL A   1      45.337  29.955  33.916  1.00  0.00    -0.203 F 
ATOM     94  C   UNL A   1      46.172  28.030  34.976  1.00  0.00     0.198 A 
ATOM     95  C   UNL A   1      44.659  26.422  35.914  1.00  0.00     0.198 A 
ATOM     96  F   UNL A   1      42.333  26.744  35.733  1.00  0.00    -0.203 F 
ATOM     97  F   UNL A   1      47.423  28.425  34.700  1.00  0.00    -0.200 F 
ATOM     98  C   UNL A   1      45.955  26.839  35.650  1.00  0.00     0.200 A 
ATOM     99  F   UNL A   1      44.447  25.282  36.586  1.00  0.00    -0.200 F 
ATOM    100  F   UNL A   1      46.995  26.092  36.046  1.00  0.00    -0.200 F 
ENDBRANCH  67  90
ENDBRANCH  41  42
ENDBRANCH  34  36
ENDBRANCH  33  34
ENDBRANCH  32  33
ENDBRANCH  31  32
ENDBRANCH  30  31
ENDBRANCH  29  30
ENDBRANCH  28  29
ENDBRANCH  27  28
ENDBRANCH   1  27
TORSDOF 26
ENDMDL
