MODEL 1
REMARK VINA RESULT:     -11.2      0.000      0.000
REMARK SMILES Cc1cc([N+](=O)[O-])ccc1NC(=O)[C@@H]1[C@@H](C(=O)OCCOCCOCCOCCOC(=O)c2ccc(-c3c4nc(c(-c5c(F)c(F)c(F)c(F)c5F)c5ccc([nH]5)c(-c5c(F)c(F)c(F)c(F)c5F)c5nc(c(-c6c(F)c(F)c(F)c(F)c6F)c6ccc3[nH]6)C=C5)C=C4)cc2)[C@H]2C=C[C@@H]1C2
REMARK SMILES IDX 23 1 22 2 21 3 20 4 19 5 18 6 16 7 17 8 15 9 14 10 99 11
REMARK SMILES IDX 96 12 98 13 100 14 97 15 12 16 11 17 13 19 10 20 1 21 2 22
REMARK SMILES IDX 3 23 4 24 9 25 8 26 5 27 6 28 7 29 24 30 25 31 26 32 27 33
REMARK SMILES IDX 28 34 29 35 30 36 31 37 32 38 33 39 34 40 95 41 35 42 94 43
REMARK SMILES IDX 36 44 37 45 38 46 88 47 39 48 93 49 87 50 89 51 40 52 92 53
REMARK SMILES IDX 86 54 85 55 41 57 73 58 53 59 72 60 54 61 57 62 71 63 90 64
REMARK SMILES IDX 55 65 56 66 70 68 91 69 58 70 42 71 43 72 51 73 44 74 45 75
REMARK SMILES IDX 49 76 52 77 46 78 47 79 50 80 48 81 74 82 75 83 83 84 76 85
REMARK SMILES IDX 77 86 81 87 84 88 78 89 79 90 82 91 80 92 59 93 60 94 68 95
REMARK SMILES IDX 61 96 62 97 66 98 69 99 63 100 64 101 67 102 65 103
REMARK H PARENT 11 18 89 56 57 67
REMARK Flexibility Score: inf
ROOT
ATOM      1  C   UNL A   1      35.840  31.520  28.142  1.00  0.00     0.188 C 
ENDROOT
BRANCH   1   2
ATOM      2  C   UNL A   1      35.115  30.190  27.981  1.00  0.00     0.188 C 
BRANCH   2   3
ATOM      3  O   UNL A   1      34.304  29.917  26.840  1.00  0.00    -0.376 OA
BRANCH   3   4
ATOM      4  C   UNL A   1      32.913  29.728  27.179  1.00  0.00     0.202 C 
BRANCH   4   5
ATOM      5  C   UNL A   1      31.786  29.823  26.089  1.00  0.00     0.261 C 
BRANCH   5   6
ATOM      6  O   UNL A   1      31.204  28.637  25.513  1.00  0.00    -0.463 OA
BRANCH   6   7
ATOM      7  C   UNL A   1      30.899  28.848  24.250  1.00  0.00     0.310 C 
ATOM      8  O   UNL A   1      30.184  29.798  23.938  1.00  0.00    -0.252 OA
BRANCH   7   9
ATOM      9  C   UNL A   1      31.626  28.059  23.210  1.00  0.00     0.119 C 
ATOM     10  C   UNL A   1      31.657  26.671  23.894  1.00  0.00     0.100 C 
ATOM     11  C   UNL A   1      33.002  26.102  23.462  1.00  0.00     0.025 C 
ATOM     12  C   UNL A   1      33.064  28.217  22.692  1.00  0.00     0.027 C 
ATOM     13  C   UNL A   1      34.025  26.888  24.289  1.00  0.00    -0.027 C 
ATOM     14  C   UNL A   1      33.257  26.789  22.123  1.00  0.00     0.017 C 
ATOM     15  C   UNL A   1      34.056  28.144  23.815  1.00  0.00    -0.027 C 
BRANCH  10  16
ATOM     16  C   UNL A   1      30.313  26.017  23.622  1.00  0.00     0.228 C 
ATOM     17  N   UNL A   1      30.136  24.677  23.899  1.00  0.00    -0.326 N 
ATOM     18  H   UNL A   1      29.201  24.370  23.929  1.00  0.00     0.169 HD
ATOM     19  O   UNL A   1      29.341  26.677  23.244  1.00  0.00    -0.274 OA
BRANCH  17  20
ATOM     20  C   UNL A   1      31.113  23.686  24.144  1.00  0.00     0.044 A 
ATOM     21  C   UNL A   1      30.972  24.185  26.641  1.00  0.00     0.047 C 
ATOM     22  C   UNL A   1      31.374  23.334  25.469  1.00  0.00    -0.021 A 
ATOM     23  C   UNL A   1      32.019  22.105  25.719  1.00  0.00     0.091 A 
ATOM     24  C   UNL A   1      32.448  21.289  24.660  1.00  0.00     0.269 A 
ATOM     25  C   UNL A   1      31.756  22.961  23.125  1.00  0.00     0.033 A 
ATOM     26  C   UNL A   1      32.381  21.746  23.357  1.00  0.00     0.088 A 
BRANCH  24  27
ATOM     27  N   UNL A   1      32.951  19.940  24.908  1.00  0.00     0.062 N 
ATOM     28  O   UNL A   1      34.147  19.724  24.677  1.00  0.00    -0.258 OA
ATOM     29  O   UNL A   1      32.153  19.105  25.358  1.00  0.00    -0.258 OA
ENDBRANCH  24  27
ENDBRANCH  17  20
ENDBRANCH  10  16
ENDBRANCH   7   9
ENDBRANCH   6   7
ENDBRANCH   5   6
ENDBRANCH   4   5
ENDBRANCH   3   4
ENDBRANCH   2   3
ENDBRANCH   1   2
BRANCH   1  30
ATOM     30  O   UNL A   1      34.966  32.609  28.445  1.00  0.00    -0.377 OA
BRANCH  30  31
ATOM     31  C   UNL A   1      35.548  33.891  28.242  1.00  0.00     0.188 C 
BRANCH  31  32
ATOM     32  C   UNL A   1      34.572  34.877  27.626  1.00  0.00     0.188 C 
BRANCH  32  33
ATOM     33  O   UNL A   1      33.339  34.824  28.348  1.00  0.00    -0.376 OA
BRANCH  33  34
ATOM     34  C   UNL A   1      32.964  36.035  28.997  1.00  0.00     0.202 C 
BRANCH  34  35
ATOM     35  C   UNL A   1      32.865  35.906  30.522  1.00  0.00     0.261 C 
BRANCH  35  36
ATOM     36  O   UNL A   1      33.400  34.629  30.927  1.00  0.00    -0.460 OA
BRANCH  36  37
ATOM     37  C   UNL A   1      33.471  34.421  32.274  1.00  0.00     0.338 C 
ATOM     38  O   UNL A   1      32.555  34.578  33.049  1.00  0.00    -0.246 OA
BRANCH  37  39
ATOM     39  C   UNL A   1      34.885  34.153  32.680  1.00  0.00     0.060 A 
ATOM     40  C   UNL A   1      35.929  34.331  31.757  1.00  0.00     0.016 A 
ATOM     41  C   UNL A   1      35.131  33.480  33.871  1.00  0.00     0.016 A 
ATOM     42  C   UNL A   1      37.177  33.726  31.974  1.00  0.00     0.010 A 
ATOM     43  C   UNL A   1      36.312  32.778  34.012  1.00  0.00     0.010 A 
ATOM     44  C   UNL A   1      37.348  32.881  33.071  1.00  0.00    -0.014 A 
BRANCH  44  45
ATOM     45  C   UNL A   1      38.446  31.900  33.219  1.00  0.00     0.031 A 
ATOM     46  C   UNL A   1      38.460  30.650  32.355  1.00  0.00     0.074 A 
ATOM     47  C   UNL A   1      39.565  32.417  33.785  1.00  0.00     0.049 A 
ATOM     48  N   UNL A   1      39.374  29.728  32.299  1.00  0.00    -0.248 NA
ATOM     49  C   UNL A   1      37.326  30.300  31.490  1.00  0.00     0.031 C 
ATOM     50  C   UNL A   1      40.883  32.380  33.206  1.00  0.00     0.029 A 
ATOM     51  N   UNL A   1      39.767  33.340  34.803  1.00  0.00    -0.354 N 
ATOM     52  C   UNL A   1      39.139  28.926  31.172  1.00  0.00     0.074 A 
ATOM     53  C   UNL A   1      37.785  29.245  30.808  1.00  0.00     0.031 C 
ATOM     54  C   UNL A   1      41.827  32.919  33.973  1.00  0.00     0.029 A 
ATOM     55  C   UNL A   1      41.142  33.329  35.147  1.00  0.00     0.049 A 
ATOM     56  H   UNL A   1      39.074  33.905  35.215  1.00  0.00     0.167 HD
ATOM     57  C   UNL A   1      40.163  28.211  30.578  1.00  0.00     0.037 A 
ATOM     58  C   UNL A   1      41.552  32.988  36.390  1.00  0.00     0.037 A 
ATOM     59  C   UNL A   1      41.405  28.271  31.396  1.00  0.00     0.049 A 
ATOM     60  C   UNL A   1      42.141  31.582  36.382  1.00  0.00     0.074 A 
ATOM     61  C   UNL A   1      42.735  28.560  31.123  1.00  0.00     0.029 A 
ATOM     62  N   UNL A   1      41.330  28.213  32.795  1.00  0.00    -0.354 N 
ATOM     63  N   UNL A   1      41.938  30.708  35.411  1.00  0.00    -0.248 NA
ATOM     64  C   UNL A   1      43.105  31.089  37.361  1.00  0.00     0.031 C 
ATOM     65  C   UNL A   1      43.391  28.854  32.347  1.00  0.00     0.029 A 
ATOM     66  C   UNL A   1      42.503  28.634  33.386  1.00  0.00     0.049 A 
ATOM     67  H   UNL A   1      40.538  27.909  33.294  1.00  0.00     0.167 HD
ATOM     68  C   UNL A   1      42.697  29.587  35.624  1.00  0.00     0.074 A 
ATOM     69  C   UNL A   1      43.412  29.880  36.855  1.00  0.00     0.031 C 
ATOM     70  C   UNL A   1      42.731  28.482  34.814  1.00  0.00     0.037 A 
BRANCH  57  71
ATOM     71  C   UNL A   1      40.185  27.644  29.113  1.00  0.00     0.064 A 
ATOM     72  C   UNL A   1      39.617  26.376  28.804  1.00  0.00     0.173 A 
ATOM     73  C   UNL A   1      40.827  28.227  27.993  1.00  0.00     0.173 A 
ATOM     74  F   UNL A   1      38.881  25.703  29.696  1.00  0.00    -0.203 F 
ATOM     75  C   UNL A   1      39.762  25.730  27.558  1.00  0.00     0.198 A 
ATOM     76  C   UNL A   1      40.912  27.611  26.727  1.00  0.00     0.198 A 
ATOM     77  F   UNL A   1      41.436  29.409  28.053  1.00  0.00    -0.203 F 
ATOM     78  F   UNL A   1      39.275  24.492  27.386  1.00  0.00    -0.200 F 
ATOM     79  C   UNL A   1      40.405  26.351  26.515  1.00  0.00     0.200 A 
ATOM     80  F   UNL A   1      41.519  28.256  25.718  1.00  0.00    -0.200 F 
ATOM     81  F   UNL A   1      40.532  25.750  25.324  1.00  0.00    -0.200 F 
ENDBRANCH  57  71
BRANCH  58  82
ATOM     82  C   UNL A   1      40.848  33.911  37.348  1.00  0.00     0.064 A 
ATOM     83  C   UNL A   1      39.970  33.187  38.210  1.00  0.00     0.173 A 
ATOM     84  C   UNL A   1      41.593  34.942  37.951  1.00  0.00     0.173 A 
ATOM     85  F   UNL A   1      39.221  32.193  37.702  1.00  0.00    -0.203 F 
ATOM     86  C   UNL A   1      40.107  33.244  39.602  1.00  0.00     0.198 A 
ATOM     87  C   UNL A   1      41.694  35.021  39.353  1.00  0.00     0.198 A 
ATOM     88  F   UNL A   1      42.435  35.676  37.211  1.00  0.00    -0.203 F 
ATOM     89  F   UNL A   1      39.500  32.331  40.375  1.00  0.00    -0.200 F 
ATOM     90  C   UNL A   1      41.012  34.124  40.167  1.00  0.00     0.200 A 
ATOM     91  F   UNL A   1      42.596  35.843  39.911  1.00  0.00    -0.200 F 
ATOM     92  F   UNL A   1      41.308  34.035  41.474  1.00  0.00    -0.200 F 
ENDBRANCH  58  82
BRANCH  70  93
ATOM     93  C   UNL A   1      43.083  27.090  35.299  1.00  0.00     0.064 A 
ATOM     94  C   UNL A   1      42.130  26.064  35.379  1.00  0.00     0.173 A 
ATOM     95  C   UNL A   1      44.432  26.679  35.472  1.00  0.00     0.173 A 
ATOM     96  F   UNL A   1      40.838  26.289  35.106  1.00  0.00    -0.203 F 
ATOM     97  C   UNL A   1      42.484  24.748  35.677  1.00  0.00     0.198 A 
ATOM     98  C   UNL A   1      44.786  25.353  35.704  1.00  0.00     0.198 A 
ATOM     99  F   UNL A   1      45.459  27.534  35.378  1.00  0.00    -0.203 F 
ATOM    100  F   UNL A   1      41.525  23.818  35.780  1.00  0.00    -0.200 F 
ATOM    101  C   UNL A   1      43.809  24.390  35.825  1.00  0.00     0.200 A 
ATOM    102  F   UNL A   1      46.081  25.013  35.779  1.00  0.00    -0.200 F 
ATOM    103  F   UNL A   1      44.145  23.115  36.056  1.00  0.00    -0.200 F 
ENDBRANCH  70  93
ENDBRANCH  44  45
ENDBRANCH  37  39
ENDBRANCH  36  37
ENDBRANCH  35  36
ENDBRANCH  34  35
ENDBRANCH  33  34
ENDBRANCH  32  33
ENDBRANCH  31  32
ENDBRANCH  30  31
ENDBRANCH   1  30
TORSDOF 23
ENDMDL
MODEL 2
REMARK VINA RESULT:     -11.0      1.398      2.137
REMARK SMILES Cc1cc([N+](=O)[O-])ccc1NC(=O)[C@@H]1[C@@H](C(=O)OCCOCCOCCOCCOC(=O)c2ccc(-c3c4nc(c(-c5c(F)c(F)c(F)c(F)c5F)c5ccc([nH]5)c(-c5c(F)c(F)c(F)c(F)c5F)c5nc(c(-c6c(F)c(F)c(F)c(F)c6F)c6ccc3[nH]6)C=C5)C=C4)cc2)[C@H]2C=C[C@@H]1C2
REMARK SMILES IDX 23 1 22 2 21 3 20 4 19 5 18 6 16 7 17 8 15 9 14 10 99 11
REMARK SMILES IDX 96 12 98 13 100 14 97 15 12 16 11 17 13 19 10 20 1 21 2 22
REMARK SMILES IDX 3 23 4 24 9 25 8 26 5 27 6 28 7 29 24 30 25 31 26 32 27 33
REMARK SMILES IDX 28 34 29 35 30 36 31 37 32 38 33 39 34 40 95 41 35 42 94 43
REMARK SMILES IDX 36 44 37 45 38 46 88 47 39 48 93 49 87 50 89 51 40 52 92 53
REMARK SMILES IDX 86 54 85 55 41 57 73 58 53 59 72 60 54 61 57 62 71 63 90 64
REMARK SMILES IDX 55 65 56 66 70 68 91 69 58 70 42 71 43 72 51 73 44 74 45 75
REMARK SMILES IDX 49 76 52 77 46 78 47 79 50 80 48 81 74 82 75 83 83 84 76 85
REMARK SMILES IDX 77 86 81 87 84 88 78 89 79 90 82 91 80 92 59 93 60 94 68 95
REMARK SMILES IDX 61 96 62 97 66 98 69 99 63 100 64 101 67 102 65 103
REMARK H PARENT 11 18 89 56 57 67
REMARK Flexibility Score: inf
ROOT
ATOM      1  C   UNL A   1      34.997  32.993  28.750  1.00  0.00     0.188 C 
ENDROOT
BRANCH   1   2
ATOM      2  C   UNL A   1      34.583  31.547  28.507  1.00  0.00     0.188 C 
BRANCH   2   3
ATOM      3  O   UNL A   1      34.285  31.067  27.197  1.00  0.00    -0.376 OA
BRANCH   3   4
ATOM      4  C   UNL A   1      33.464  29.878  27.213  1.00  0.00     0.202 C 
BRANCH   4   5
ATOM      5  C   UNL A   1      33.515  28.835  26.041  1.00  0.00     0.261 C 
BRANCH   5   6
ATOM      6  O   UNL A   1      34.156  27.555  26.208  1.00  0.00    -0.463 OA
BRANCH   6   7
ATOM      7  C   UNL A   1      33.845  26.757  25.209  1.00  0.00     0.310 C 
ATOM      8  O   UNL A   1      34.529  25.761  24.979  1.00  0.00    -0.252 OA
BRANCH   7   9
ATOM      9  C   UNL A   1      32.529  26.959  24.530  1.00  0.00     0.119 C 
ATOM     10  C   UNL A   1      31.897  25.562  24.744  1.00  0.00     0.100 C 
ATOM     11  C   UNL A   1      31.097  25.345  23.467  1.00  0.00     0.025 C 
ATOM     12  C   UNL A   1      32.227  27.248  23.052  1.00  0.00     0.027 C 
ATOM     13  C   UNL A   1      32.161  25.054  22.403  1.00  0.00    -0.027 C 
ATOM     14  C   UNL A   1      30.755  26.765  23.024  1.00  0.00     0.017 C 
ATOM     15  C   UNL A   1      32.822  26.199  22.161  1.00  0.00    -0.027 C 
BRANCH  10  16
ATOM     16  C   UNL A   1      31.309  25.555  26.145  1.00  0.00     0.228 C 
ATOM     17  N   UNL A   1      31.728  24.611  27.058  1.00  0.00    -0.326 N 
ATOM     18  H   UNL A   1      31.499  24.798  27.998  1.00  0.00     0.169 HD
ATOM     19  O   UNL A   1      30.529  26.435  26.519  1.00  0.00    -0.274 OA
BRANCH  17  20
ATOM     20  C   UNL A   1      32.442  23.412  26.830  1.00  0.00     0.044 A 
ATOM     21  C   UNL A   1      30.292  22.305  26.019  1.00  0.00     0.047 C 
ATOM     22  C   UNL A   1      31.786  22.374  26.166  1.00  0.00    -0.021 A 
ATOM     23  C   UNL A   1      32.568  21.359  25.578  1.00  0.00     0.091 A 
ATOM     24  C   UNL A   1      33.966  21.355  25.716  1.00  0.00     0.269 A 
ATOM     25  C   UNL A   1      33.804  23.249  27.137  1.00  0.00     0.033 A 
ATOM     26  C   UNL A   1      34.586  22.263  26.555  1.00  0.00     0.088 A 
BRANCH  24  27
ATOM     27  N   UNL A   1      34.792  20.414  24.964  1.00  0.00     0.062 N 
ATOM     28  O   UNL A   1      35.949  20.760  24.692  1.00  0.00    -0.258 OA
ATOM     29  O   UNL A   1      34.291  19.320  24.670  1.00  0.00    -0.258 OA
ENDBRANCH  24  27
ENDBRANCH  17  20
ENDBRANCH  10  16
ENDBRANCH   7   9
ENDBRANCH   6   7
ENDBRANCH   5   6
ENDBRANCH   4   5
ENDBRANCH   3   4
ENDBRANCH   2   3
ENDBRANCH   1   2
BRANCH   1  30
ATOM     30  O   UNL A   1      34.157  33.675  29.683  1.00  0.00    -0.377 OA
BRANCH  30  31
ATOM     31  C   UNL A   1      33.238  34.578  29.079  1.00  0.00     0.188 C 
BRANCH  31  32
ATOM     32  C   UNL A   1      33.854  35.941  28.821  1.00  0.00     0.188 C 
BRANCH  32  33
ATOM     33  O   UNL A   1      33.328  36.877  29.764  1.00  0.00    -0.376 OA
BRANCH  33  34
ATOM     34  C   UNL A   1      32.512  36.314  30.787  1.00  0.00     0.202 C 
BRANCH  34  35
ATOM     35  C   UNL A   1      33.005  36.629  32.205  1.00  0.00     0.261 C 
BRANCH  35  36
ATOM     36  O   UNL A   1      34.319  36.061  32.389  1.00  0.00    -0.460 OA
BRANCH  36  37
ATOM     37  C   UNL A   1      34.344  34.759  32.796  1.00  0.00     0.338 C 
ATOM     38  O   UNL A   1      33.367  34.067  32.969  1.00  0.00    -0.246 OA
BRANCH  37  39
ATOM     39  C   UNL A   1      35.737  34.366  33.176  1.00  0.00     0.060 A 
ATOM     40  C   UNL A   1      36.795  34.561  32.273  1.00  0.00     0.016 A 
ATOM     41  C   UNL A   1      35.934  33.573  34.300  1.00  0.00     0.016 A 
ATOM     42  C   UNL A   1      38.001  33.860  32.433  1.00  0.00     0.010 A 
ATOM     43  C   UNL A   1      37.067  32.788  34.376  1.00  0.00     0.010 A 
ATOM     44  C   UNL A   1      38.112  32.910  33.448  1.00  0.00    -0.014 A 
BRANCH  44  45
ATOM     45  C   UNL A   1      39.146  31.852  33.506  1.00  0.00     0.031 A 
ATOM     46  C   UNL A   1      39.057  30.662  32.565  1.00  0.00     0.074 A 
ATOM     47  C   UNL A   1      40.308  32.258  34.073  1.00  0.00     0.049 A 
ATOM     48  N   UNL A   1      39.906  29.688  32.427  1.00  0.00    -0.248 NA
ATOM     49  C   UNL A   1      37.883  30.444  31.710  1.00  0.00     0.031 C 
ATOM     50  C   UNL A   1      41.608  32.172  33.459  1.00  0.00     0.029 A 
ATOM     51  N   UNL A   1      40.594  33.098  35.142  1.00  0.00    -0.354 N 
ATOM     52  C   UNL A   1      39.593  28.977  31.258  1.00  0.00     0.074 A 
ATOM     53  C   UNL A   1      38.256  29.407  30.951  1.00  0.00     0.031 C 
ATOM     54  C   UNL A   1      42.603  32.598  34.234  1.00  0.00     0.029 A 
ATOM     55  C   UNL A   1      41.972  32.975  35.449  1.00  0.00     0.049 A 
ATOM     56  H   UNL A   1      39.949  33.680  35.606  1.00  0.00     0.167 HD
ATOM     57  C   UNL A   1      40.554  28.237  30.595  1.00  0.00     0.037 A 
ATOM     58  C   UNL A   1      42.385  32.529  36.656  1.00  0.00     0.037 A 
ATOM     59  C   UNL A   1      41.815  28.163  31.382  1.00  0.00     0.049 A 
ATOM     60  C   UNL A   1      42.878  31.091  36.545  1.00  0.00     0.074 A 
ATOM     61  C   UNL A   1      43.155  28.381  31.093  1.00  0.00     0.029 A 
ATOM     62  N   UNL A   1      41.766  28.020  32.776  1.00  0.00    -0.354 N 
ATOM     63  N   UNL A   1      42.597  30.297  35.527  1.00  0.00    -0.248 NA
ATOM     64  C   UNL A   1      43.829  30.474  37.465  1.00  0.00     0.031 C 
ATOM     65  C   UNL A   1      43.856  28.552  32.316  1.00  0.00     0.029 A 
ATOM     66  C   UNL A   1      42.978  28.325  33.362  1.00  0.00     0.049 A 
ATOM     67  H   UNL A   1      40.967  27.736  33.276  1.00  0.00     0.167 HD
ATOM     68  C   UNL A   1      43.284  29.117  35.649  1.00  0.00     0.074 A 
ATOM     69  C   UNL A   1      44.044  29.283  36.877  1.00  0.00     0.031 C 
ATOM     70  C   UNL A   1      43.226  28.067  34.771  1.00  0.00     0.037 A 
BRANCH  57  71
ATOM     71  C   UNL A   1      40.506  27.765  29.097  1.00  0.00     0.064 A 
ATOM     72  C   UNL A   1      39.862  26.551  28.725  1.00  0.00     0.173 A 
ATOM     73  C   UNL A   1      41.149  28.384  27.997  1.00  0.00     0.173 A 
ATOM     74  F   UNL A   1      39.114  25.862  29.595  1.00  0.00    -0.203 F 
ATOM     75  C   UNL A   1      39.938  25.981  27.438  1.00  0.00     0.198 A 
ATOM     76  C   UNL A   1      41.168  27.848  26.692  1.00  0.00     0.198 A 
ATOM     77  F   UNL A   1      41.824  29.526  28.113  1.00  0.00    -0.203 F 
ATOM     78  F   UNL A   1      39.379  24.784  27.203  1.00  0.00    -0.200 F 
ATOM     79  C   UNL A   1      40.586  26.633  26.417  1.00  0.00     0.200 A 
ATOM     80  F   UNL A   1      41.782  28.523  25.709  1.00  0.00    -0.200 F 
ATOM     81  F   UNL A   1      40.649  26.104  25.187  1.00  0.00    -0.200 F 
ENDBRANCH  57  71
BRANCH  58  82
ATOM     82  C   UNL A   1      41.766  33.432  37.689  1.00  0.00     0.064 A 
ATOM     83  C   UNL A   1      42.382  34.719  37.684  1.00  0.00     0.173 A 
ATOM     84  C   UNL A   1      40.366  33.418  37.836  1.00  0.00     0.173 A 
ATOM     85  F   UNL A   1      43.717  34.810  37.556  1.00  0.00    -0.203 F 
ATOM     86  C   UNL A   1      41.633  35.882  37.468  1.00  0.00     0.198 A 
ATOM     87  C   UNL A   1      39.620  34.598  37.658  1.00  0.00     0.198 A 
ATOM     88  F   UNL A   1      39.710  32.249  37.859  1.00  0.00    -0.203 F 
ATOM     89  F   UNL A   1      42.252  37.031  37.150  1.00  0.00    -0.200 F 
ATOM     90  C   UNL A   1      40.254  35.808  37.400  1.00  0.00     0.200 A 
ATOM     91  F   UNL A   1      38.284  34.533  37.553  1.00  0.00    -0.200 F 
ATOM     92  F   UNL A   1      39.545  36.868  36.980  1.00  0.00    -0.200 F 
ENDBRANCH  58  82
BRANCH  70  93
ATOM     93  C   UNL A   1      43.496  26.626  35.158  1.00  0.00     0.064 A 
ATOM     94  C   UNL A   1      42.468  25.677  35.264  1.00  0.00     0.173 A 
ATOM     95  C   UNL A   1      44.814  26.099  35.203  1.00  0.00     0.173 A 
ATOM     96  F   UNL A   1      41.182  26.020  35.106  1.00  0.00    -0.203 F 
ATOM     97  C   UNL A   1      42.731  24.323  35.469  1.00  0.00     0.198 A 
ATOM     98  C   UNL A   1      45.071  24.738  35.342  1.00  0.00     0.198 A 
ATOM     99  F   UNL A   1      45.900  26.873  35.069  1.00  0.00    -0.203 F 
ATOM    100  F   UNL A   1      41.708  23.468  35.602  1.00  0.00    -0.200 F 
ATOM    101  C   UNL A   1      44.029  23.852  35.493  1.00  0.00     0.200 A 
ATOM    102  F   UNL A   1      46.335  24.292  35.296  1.00  0.00    -0.200 F 
ATOM    103  F   UNL A   1      44.272  22.543  35.635  1.00  0.00    -0.200 F 
ENDBRANCH  70  93
ENDBRANCH  44  45
ENDBRANCH  37  39
ENDBRANCH  36  37
ENDBRANCH  35  36
ENDBRANCH  34  35
ENDBRANCH  33  34
ENDBRANCH  32  33
ENDBRANCH  31  32
ENDBRANCH  30  31
ENDBRANCH   1  30
TORSDOF 23
ENDMDL
MODEL 3
REMARK VINA RESULT:      -9.8      3.276      7.293
REMARK SMILES Cc1cc([N+](=O)[O-])ccc1NC(=O)[C@@H]1[C@@H](C(=O)OCCOCCOCCOCCOC(=O)c2ccc(-c3c4nc(c(-c5c(F)c(F)c(F)c(F)c5F)c5ccc([nH]5)c(-c5c(F)c(F)c(F)c(F)c5F)c5nc(c(-c6c(F)c(F)c(F)c(F)c6F)c6ccc3[nH]6)C=C5)C=C4)cc2)[C@H]2C=C[C@@H]1C2
REMARK SMILES IDX 23 1 22 2 21 3 20 4 19 5 18 6 16 7 17 8 15 9 14 10 99 11
REMARK SMILES IDX 96 12 98 13 100 14 97 15 12 16 11 17 13 19 10 20 1 21 2 22
REMARK SMILES IDX 3 23 4 24 9 25 8 26 5 27 6 28 7 29 24 30 25 31 26 32 27 33
REMARK SMILES IDX 28 34 29 35 30 36 31 37 32 38 33 39 34 40 95 41 35 42 94 43
REMARK SMILES IDX 36 44 37 45 38 46 88 47 39 48 93 49 87 50 89 51 40 52 92 53
REMARK SMILES IDX 86 54 85 55 41 57 73 58 53 59 72 60 54 61 57 62 71 63 90 64
REMARK SMILES IDX 55 65 56 66 70 68 91 69 58 70 42 71 43 72 51 73 44 74 45 75
REMARK SMILES IDX 49 76 52 77 46 78 47 79 50 80 48 81 74 82 75 83 83 84 76 85
REMARK SMILES IDX 77 86 81 87 84 88 78 89 79 90 82 91 80 92 59 93 60 94 68 95
REMARK SMILES IDX 61 96 62 97 66 98 69 99 63 100 64 101 67 102 65 103
REMARK H PARENT 11 18 89 56 57 67
REMARK Flexibility Score: inf
ROOT
ATOM      1  C   UNL A   1      33.330  34.165  28.626  1.00  0.00     0.188 C 
ENDROOT
BRANCH   1   2
ATOM      2  C   UNL A   1      32.539  33.409  27.565  1.00  0.00     0.188 C 
BRANCH   2   3
ATOM      3  O   UNL A   1      32.826  32.048  27.252  1.00  0.00    -0.376 OA
BRANCH   3   4
ATOM      4  C   UNL A   1      31.768  31.416  26.498  1.00  0.00     0.202 C 
BRANCH   4   5
ATOM      5  C   UNL A   1      31.768  29.869  26.230  1.00  0.00     0.261 C 
BRANCH   5   6
ATOM      6  O   UNL A   1      31.944  29.342  24.900  1.00  0.00    -0.463 OA
BRANCH   6   7
ATOM      7  C   UNL A   1      32.851  28.389  24.904  1.00  0.00     0.310 C 
ATOM      8  O   UNL A   1      33.978  28.611  25.343  1.00  0.00    -0.252 OA
BRANCH   7   9
ATOM      9  C   UNL A   1      32.410  26.996  24.591  1.00  0.00     0.119 C 
ATOM     10  C   UNL A   1      32.165  27.125  23.068  1.00  0.00     0.100 C 
ATOM     11  C   UNL A   1      30.972  26.210  22.830  1.00  0.00     0.025 C 
ATOM     12  C   UNL A   1      31.167  26.233  25.073  1.00  0.00     0.027 C 
ATOM     13  C   UNL A   1      29.783  26.983  23.410  1.00  0.00    -0.027 C 
ATOM     14  C   UNL A   1      31.099  25.174  23.944  1.00  0.00     0.017 C 
ATOM     15  C   UNL A   1      29.909  26.984  24.748  1.00  0.00    -0.027 C 
BRANCH  10  16
ATOM     16  C   UNL A   1      33.517  26.978  22.391  1.00  0.00     0.228 C 
ATOM     17  N   UNL A   1      34.236  25.810  22.547  1.00  0.00    -0.326 N 
ATOM     18  H   UNL A   1      34.974  25.678  21.908  1.00  0.00     0.169 HD
ATOM     19  O   UNL A   1      33.952  27.842  21.625  1.00  0.00    -0.274 OA
BRANCH  17  20
ATOM     20  C   UNL A   1      34.058  24.780  23.497  1.00  0.00     0.044 A 
ATOM     21  C   UNL A   1      32.977  23.329  21.700  1.00  0.00     0.047 C 
ATOM     22  C   UNL A   1      33.620  23.535  23.042  1.00  0.00    -0.021 A 
ATOM     23  C   UNL A   1      33.822  22.413  23.872  1.00  0.00     0.091 A 
ATOM     24  C   UNL A   1      34.385  22.554  25.150  1.00  0.00     0.269 A 
ATOM     25  C   UNL A   1      34.400  24.908  24.855  1.00  0.00     0.033 A 
ATOM     26  C   UNL A   1      34.614  23.812  25.676  1.00  0.00     0.088 A 
BRANCH  24  27
ATOM     27  N   UNL A   1      34.762  21.383  25.939  1.00  0.00     0.062 N 
ATOM     28  O   UNL A   1      33.923  20.932  26.729  1.00  0.00    -0.258 OA
ATOM     29  O   UNL A   1      35.887  20.901  25.747  1.00  0.00    -0.258 OA
ENDBRANCH  24  27
ENDBRANCH  17  20
ENDBRANCH  10  16
ENDBRANCH   7   9
ENDBRANCH   6   7
ENDBRANCH   5   6
ENDBRANCH   4   5
ENDBRANCH   3   4
ENDBRANCH   2   3
ENDBRANCH   1   2
BRANCH   1  30
ATOM     30  O   UNL A   1      32.682  35.357  29.074  1.00  0.00    -0.377 OA
BRANCH  30  31
ATOM     31  C   UNL A   1      33.060  35.763  30.384  1.00  0.00     0.188 C 
BRANCH  31  32
ATOM     32  C   UNL A   1      34.054  34.809  31.020  1.00  0.00     0.188 C 
BRANCH  32  33
ATOM     33  O   UNL A   1      34.114  35.066  32.425  1.00  0.00    -0.376 OA
BRANCH  33  34
ATOM     34  C   UNL A   1      34.311  33.918  33.244  1.00  0.00     0.202 C 
BRANCH  34  35
ATOM     35  C   UNL A   1      35.454  34.076  34.254  1.00  0.00     0.261 C 
BRANCH  35  36
ATOM     36  O   UNL A   1      36.298  32.906  34.205  1.00  0.00    -0.460 OA
BRANCH  36  37
ATOM     37  C   UNL A   1      37.087  32.705  35.299  1.00  0.00     0.338 C 
ATOM     38  O   UNL A   1      36.872  33.154  36.402  1.00  0.00    -0.246 OA
BRANCH  37  39
ATOM     39  C   UNL A   1      38.350  32.007  34.902  1.00  0.00     0.060 A 
ATOM     40  C   UNL A   1      39.355  32.707  34.213  1.00  0.00     0.016 A 
ATOM     41  C   UNL A   1      38.410  30.621  34.978  1.00  0.00     0.016 A 
ATOM     42  C   UNL A   1      40.341  32.008  33.498  1.00  0.00     0.010 A 
ATOM     43  C   UNL A   1      39.298  29.943  34.166  1.00  0.00     0.010 A 
ATOM     44  C   UNL A   1      40.269  30.618  33.411  1.00  0.00    -0.014 A 
BRANCH  44  45
ATOM     45  C   UNL A   1      40.987  29.796  32.412  1.00  0.00     0.031 A 
ATOM     46  C   UNL A   1      42.305  29.137  32.788  1.00  0.00     0.074 A 
ATOM     47  C   UNL A   1      40.194  29.339  31.411  1.00  0.00     0.049 A 
ATOM     48  N   UNL A   1      43.026  28.329  32.071  1.00  0.00    -0.248 NA
ATOM     49  C   UNL A   1      42.973  29.427  34.063  1.00  0.00     0.031 C 
ATOM     50  C   UNL A   1      40.039  27.957  31.038  1.00  0.00     0.029 A 
ATOM     51  N   UNL A   1      39.134  29.905  30.715  1.00  0.00    -0.354 N 
ATOM     52  C   UNL A   1      43.989  27.728  32.897  1.00  0.00     0.074 A 
ATOM     53  C   UNL A   1      43.991  28.559  34.071  1.00  0.00     0.031 C 
ATOM     54  C   UNL A   1      39.235  27.765  29.995  1.00  0.00     0.029 A 
ATOM     55  C   UNL A   1      38.831  29.071  29.610  1.00  0.00     0.049 A 
ATOM     56  H   UNL A   1      38.673  30.743  30.949  1.00  0.00     0.167 HD
ATOM     57  C   UNL A   1      44.552  26.510  32.566  1.00  0.00     0.037 A 
ATOM     58  C   UNL A   1      38.933  29.522  28.340  1.00  0.00     0.037 A 
ATOM     59  C   UNL A   1      44.150  26.084  31.198  1.00  0.00     0.049 A 
ATOM     60  C   UNL A   1      40.185  28.958  27.679  1.00  0.00     0.074 A 
ATOM     61  C   UNL A   1      43.638  24.913  30.656  1.00  0.00     0.029 A 
ATOM     62  N   UNL A   1      44.053  27.030  30.167  1.00  0.00    -0.354 N 
ATOM     63  N   UNL A   1      41.191  28.426  28.350  1.00  0.00    -0.248 NA
ATOM     64  C   UNL A   1      40.355  28.805  26.238  1.00  0.00     0.031 C 
ATOM     65  C   UNL A   1      43.075  25.214  29.388  1.00  0.00     0.029 A 
ATOM     66  C   UNL A   1      43.340  26.540  29.092  1.00  0.00     0.049 A 
ATOM     67  H   UNL A   1      44.446  27.932  30.205  1.00  0.00     0.167 HD
ATOM     68  C   UNL A   1      42.106  27.893  27.480  1.00  0.00     0.074 A 
ATOM     69  C   UNL A   1      41.531  28.153  26.170  1.00  0.00     0.031 C 
ATOM     70  C   UNL A   1      43.271  27.265  27.834  1.00  0.00     0.037 A 
BRANCH  57  71
ATOM     71  C   UNL A   1      45.276  25.515  33.544  1.00  0.00     0.064 A 
ATOM     72  C   UNL A   1      44.579  24.906  34.626  1.00  0.00     0.173 A 
ATOM     73  C   UNL A   1      46.655  25.193  33.551  1.00  0.00     0.173 A 
ATOM     74  F   UNL A   1      43.250  25.003  34.745  1.00  0.00    -0.203 F 
ATOM     75  C   UNL A   1      45.205  24.153  35.641  1.00  0.00     0.198 A 
ATOM     76  C   UNL A   1      47.269  24.383  34.529  1.00  0.00     0.198 A 
ATOM     77  F   UNL A   1      47.503  25.660  32.637  1.00  0.00    -0.203 F 
ATOM     78  F   UNL A   1      44.484  23.697  36.677  1.00  0.00    -0.200 F 
ATOM     79  C   UNL A   1      46.551  23.885  35.590  1.00  0.00     0.200 A 
ATOM     80  F   UNL A   1      48.581  24.113  34.435  1.00  0.00    -0.200 F 
ATOM     81  F   UNL A   1      47.149  23.157  36.544  1.00  0.00    -0.200 F 
ENDBRANCH  57  71
BRANCH  58  82
ATOM     82  C   UNL A   1      38.060  30.745  28.242  1.00  0.00     0.064 A 
ATOM     83  C   UNL A   1      36.709  30.391  27.945  1.00  0.00     0.173 A 
ATOM     84  C   UNL A   1      38.234  31.769  29.192  1.00  0.00     0.173 A 
ATOM     85  F   UNL A   1      36.465  29.427  27.040  1.00  0.00    -0.203 F 
ATOM     86  C   UNL A   1      35.657  30.763  28.790  1.00  0.00     0.198 A 
ATOM     87  C   UNL A   1      37.163  32.169  30.013  1.00  0.00     0.198 A 
ATOM     88  F   UNL A   1      39.471  32.167  29.522  1.00  0.00    -0.203 F 
ATOM     89  F   UNL A   1      34.461  30.166  28.677  1.00  0.00    -0.200 F 
ATOM     90  C   UNL A   1      35.900  31.609  29.857  1.00  0.00     0.200 A 
ATOM     91  F   UNL A   1      37.394  32.958  31.073  1.00  0.00    -0.200 F 
ATOM     92  F   UNL A   1      34.956  31.796  30.793  1.00  0.00    -0.200 F 
ENDBRANCH  58  82
BRANCH  70  93
ATOM     93  C   UNL A   1      44.497  27.196  26.945  1.00  0.00     0.064 A 
ATOM     94  C   UNL A   1      44.819  26.049  26.205  1.00  0.00     0.173 A 
ATOM     95  C   UNL A   1      45.253  28.356  26.626  1.00  0.00     0.173 A 
ATOM     96  F   UNL A   1      44.099  24.925  26.311  1.00  0.00    -0.203 F 
ATOM     97  C   UNL A   1      45.857  26.038  25.273  1.00  0.00     0.198 A 
ATOM     98  C   UNL A   1      46.244  28.356  25.648  1.00  0.00     0.198 A 
ATOM     99  F   UNL A   1      45.033  29.539  27.214  1.00  0.00    -0.203 F 
ATOM    100  F   UNL A   1      46.145  24.902  24.624  1.00  0.00    -0.200 F 
ATOM    101  C   UNL A   1      46.558  27.193  24.984  1.00  0.00     0.200 A 
ATOM    102  F   UNL A   1      46.869  29.502  25.336  1.00  0.00    -0.200 F 
ATOM    103  F   UNL A   1      47.516  27.188  24.049  1.00  0.00    -0.200 F 
ENDBRANCH  70  93
ENDBRANCH  44  45
ENDBRANCH  37  39
ENDBRANCH  36  37
ENDBRANCH  35  36
ENDBRANCH  34  35
ENDBRANCH  33  34
ENDBRANCH  32  33
ENDBRANCH  31  32
ENDBRANCH  30  31
ENDBRANCH   1  30
TORSDOF 23
ENDMDL
