MODEL 1
REMARK VINA RESULT:     -11.1      0.000      0.000
REMARK SMILES Cc1nc2ccc(Cl)cc2cc1C(=O)N1CCC(C(=O)OCCOCCOCCOCCOC(=O)c2ccc(-c3c4nc(c(-c5c(F)c(F)c(F)c(F)c5F)c5ccc([nH]5)c(-c5c(F)c(F)c(F)c(F)c5F)c5nc(c(-c6c(F)c(F)c(F)c(F)c6F)c6ccc3[nH]6)C=C5)C=C4)cc2)CC1
REMARK SMILES IDX 28 1 27 2 26 3 25 4 24 5 23 6 22 7 21 8 19 9 20 10 18 11
REMARK SMILES IDX 13 12 14 13 15 14 16 15 100 16 17 17 99 18 12 19 1 20 2 21
REMARK SMILES IDX 3 22 4 23 11 24 5 25 10 26 6 27 9 28 7 29 8 30 29 31 30 32
REMARK SMILES IDX 31 33 32 34 33 35 34 36 35 37 36 38 37 39 98 40 38 41 97 42
REMARK SMILES IDX 39 43 40 44 41 45 91 46 42 47 96 48 90 49 92 50 43 51 95 52
REMARK SMILES IDX 89 53 88 54 44 56 76 57 56 58 75 59 57 60 60 61 74 62 93 63
REMARK SMILES IDX 58 64 59 65 73 67 94 68 61 69 45 70 46 71 54 72 47 73 48 74
REMARK SMILES IDX 52 75 55 76 49 77 50 78 53 79 51 80 77 81 78 82 86 83 79 84
REMARK SMILES IDX 80 85 84 86 87 87 81 88 82 89 85 90 83 91 62 92 63 93 71 94
REMARK SMILES IDX 64 95 65 96 69 97 72 98 66 99 67 100 70 101 68 102
REMARK H PARENT 92 55 60 66
REMARK Flexibility Score: inf
ROOT
ATOM      1  C   UNL A   1      39.187  22.218  26.126  1.00  0.00     0.188 C 
ENDROOT
BRANCH   1   2
ATOM      2  O   UNL A   1      38.180  23.195  26.383  1.00  0.00    -0.377 OA
BRANCH   2   3
ATOM      3  C   UNL A   1      37.205  23.405  25.379  1.00  0.00     0.188 C 
BRANCH   3   4
ATOM      4  C   UNL A   1      35.823  22.830  25.716  1.00  0.00     0.188 C 
BRANCH   4   5
ATOM      5  O   UNL A   1      35.693  21.471  26.110  1.00  0.00    -0.376 OA
BRANCH   5   6
ATOM      6  C   UNL A   1      34.686  20.644  25.534  1.00  0.00     0.202 C 
BRANCH   6   7
ATOM      7  C   UNL A   1      33.207  21.039  25.628  1.00  0.00     0.261 C 
BRANCH   7   8
ATOM      8  O   UNL A   1      32.354  20.410  24.654  1.00  0.00    -0.463 OA
BRANCH   8   9
ATOM      9  C   UNL A   1      32.303  21.004  23.442  1.00  0.00     0.309 C 
ATOM     10  O   UNL A   1      31.934  20.454  22.409  1.00  0.00    -0.252 OA
BRANCH   9  11
ATOM     11  C   UNL A   1      32.737  22.455  23.441  1.00  0.00     0.103 C 
ATOM     12  C   UNL A   1      33.065  26.645  22.638  1.00  0.00     0.255 C 
ATOM     13  O   UNL A   1      33.647  27.033  21.629  1.00  0.00    -0.269 OA
ATOM     14  N   UNL A   1      32.911  25.290  22.956  1.00  0.00    -0.339 N 
ATOM     15  C   UNL A   1      33.995  24.404  22.548  1.00  0.00     0.120 C 
ATOM     16  C   UNL A   1      31.923  24.772  23.912  1.00  0.00     0.120 C 
ATOM     17  C   UNL A   1      33.527  22.988  22.246  1.00  0.00     0.037 C 
ATOM     18  C   UNL A   1      31.500  23.339  23.609  1.00  0.00     0.037 C 
BRANCH  12  19
ATOM     19  C   UNL A   1      32.660  27.655  23.642  1.00  0.00     0.061 A 
ATOM     20  C   UNL A   1      30.383  28.047  22.579  1.00  0.00     0.067 C 
ATOM     21  C   UNL A   1      31.442  28.328  23.605  1.00  0.00     0.051 A 
ATOM     22  N   UNL A   1      31.155  29.346  24.470  1.00  0.00    -0.252 NA
ATOM     23  C   UNL A   1      32.069  29.713  25.388  1.00  0.00     0.071 A 
ATOM     24  C   UNL A   1      33.613  28.066  24.579  1.00  0.00     0.026 A 
ATOM     25  C   UNL A   1      31.806  30.759  26.264  1.00  0.00     0.030 A 
ATOM     26  C   UNL A   1      33.320  29.078  25.489  1.00  0.00     0.002 A 
ATOM     27  C   UNL A   1      32.733  31.156  27.237  1.00  0.00     0.023 A 
ATOM     28  C   UNL A   1      34.254  29.458  26.467  1.00  0.00     0.030 A 
ATOM     29  C   UNL A   1      33.949  30.493  27.342  1.00  0.00     0.041 A 
ATOM     30  Cl  UNL A   1      35.083  30.949  28.550  1.00  0.00    -0.084 Cl
ENDBRANCH  12  19
ENDBRANCH   9  11
ENDBRANCH   8   9
ENDBRANCH   7   8
ENDBRANCH   6   7
ENDBRANCH   5   6
ENDBRANCH   4   5
ENDBRANCH   3   4
ENDBRANCH   2   3
ENDBRANCH   1   2
BRANCH   1  31
ATOM     31  C   UNL A   1      40.471  22.263  26.975  1.00  0.00     0.188 C 
BRANCH  31  32
ATOM     32  O   UNL A   1      41.470  21.350  26.528  1.00  0.00    -0.376 OA
BRANCH  32  33
ATOM     33  C   UNL A   1      41.342  19.989  26.929  1.00  0.00     0.202 C 
BRANCH  33  34
ATOM     34  C   UNL A   1      42.287  18.992  26.240  1.00  0.00     0.261 C 
BRANCH  34  35
ATOM     35  O   UNL A   1      42.763  19.380  24.936  1.00  0.00    -0.460 OA
BRANCH  35  36
ATOM     36  C   UNL A   1      44.095  19.420  24.728  1.00  0.00     0.338 C 
ATOM     37  O   UNL A   1      44.804  18.535  24.292  1.00  0.00    -0.246 OA
BRANCH  36  38
ATOM     38  C   UNL A   1      44.544  20.811  24.936  1.00  0.00     0.060 A 
ATOM     39  C   UNL A   1      45.221  21.122  26.121  1.00  0.00     0.016 A 
ATOM     40  C   UNL A   1      44.268  21.804  23.994  1.00  0.00     0.016 A 
ATOM     41  C   UNL A   1      45.580  22.443  26.393  1.00  0.00     0.010 A 
ATOM     42  C   UNL A   1      44.608  23.130  24.275  1.00  0.00     0.010 A 
ATOM     43  C   UNL A   1      45.230  23.460  25.494  1.00  0.00    -0.014 A 
BRANCH  43  44
ATOM     44  C   UNL A   1      45.314  24.877  25.923  1.00  0.00     0.031 A 
ATOM     45  C   UNL A   1      46.647  25.567  25.828  1.00  0.00     0.074 A 
ATOM     46  C   UNL A   1      44.235  25.542  26.370  1.00  0.00     0.049 A 
ATOM     47  N   UNL A   1      46.983  26.782  26.181  1.00  0.00    -0.248 NA
ATOM     48  C   UNL A   1      47.755  24.780  25.259  1.00  0.00     0.031 C 
ATOM     49  C   UNL A   1      42.884  24.994  26.474  1.00  0.00     0.029 A 
ATOM     50  N   UNL A   1      44.114  26.830  26.832  1.00  0.00    -0.354 N 
ATOM     51  C   UNL A   1      48.335  26.899  25.884  1.00  0.00     0.074 A 
ATOM     52  C   UNL A   1      48.766  25.631  25.343  1.00  0.00     0.031 C 
ATOM     53  C   UNL A   1      42.072  25.934  26.988  1.00  0.00     0.029 A 
ATOM     54  C   UNL A   1      42.851  27.139  27.274  1.00  0.00     0.049 A 
ATOM     55  H   UNL A   1      44.861  27.470  26.843  1.00  0.00     0.167 HD
ATOM     56  C   UNL A   1      49.143  27.973  26.045  1.00  0.00     0.037 A 
ATOM     57  C   UNL A   1      42.390  28.259  27.867  1.00  0.00     0.037 A 
ATOM     58  C   UNL A   1      48.713  29.238  26.574  1.00  0.00     0.049 A 
ATOM     59  C   UNL A   1      43.330  29.419  28.088  1.00  0.00     0.074 A 
ATOM     60  C   UNL A   1      49.451  30.396  26.746  1.00  0.00     0.029 A 
ATOM     61  N   UNL A   1      47.431  29.508  27.028  1.00  0.00    -0.354 N 
ATOM     62  N   UNL A   1      44.596  29.538  27.764  1.00  0.00    -0.248 NA
ATOM     63  C   UNL A   1      42.774  30.606  28.756  1.00  0.00     0.031 C 
ATOM     64  C   UNL A   1      48.629  31.352  27.350  1.00  0.00     0.029 A 
ATOM     65  C   UNL A   1      47.364  30.806  27.503  1.00  0.00     0.049 A 
ATOM     66  H   UNL A   1      46.680  28.871  27.011  1.00  0.00     0.167 HD
ATOM     67  C   UNL A   1      44.974  30.817  28.156  1.00  0.00     0.074 A 
ATOM     68  C   UNL A   1      43.803  31.442  28.730  1.00  0.00     0.031 C 
ATOM     69  C   UNL A   1      46.183  31.420  28.052  1.00  0.00     0.037 A 
BRANCH  56  70
ATOM     70  C   UNL A   1      50.584  27.826  25.663  1.00  0.00     0.064 A 
ATOM     71  C   UNL A   1      51.575  27.559  26.618  1.00  0.00     0.173 A 
ATOM     72  C   UNL A   1      50.968  27.891  24.316  1.00  0.00     0.173 A 
ATOM     73  F   UNL A   1      51.261  27.505  27.922  1.00  0.00    -0.203 F 
ATOM     74  C   UNL A   1      52.902  27.370  26.238  1.00  0.00     0.198 A 
ATOM     75  C   UNL A   1      52.289  27.677  23.936  1.00  0.00     0.198 A 
ATOM     76  F   UNL A   1      50.057  28.144  23.365  1.00  0.00    -0.203 F 
ATOM     77  F   UNL A   1      53.839  27.144  27.168  1.00  0.00    -0.200 F 
ATOM     78  C   UNL A   1      53.255  27.418  24.897  1.00  0.00     0.200 A 
ATOM     79  F   UNL A   1      52.628  27.713  22.640  1.00  0.00    -0.200 F 
ATOM     80  F   UNL A   1      54.529  27.220  24.532  1.00  0.00    -0.200 F 
ENDBRANCH  56  70
BRANCH  57  81
ATOM     81  C   UNL A   1      40.977  28.342  28.324  1.00  0.00     0.064 A 
ATOM     82  C   UNL A   1      39.980  28.894  27.508  1.00  0.00     0.173 A 
ATOM     83  C   UNL A   1      40.609  27.930  29.614  1.00  0.00     0.173 A 
ATOM     84  F   UNL A   1      40.288  29.330  26.278  1.00  0.00    -0.203 F 
ATOM     85  C   UNL A   1      38.677  29.059  27.974  1.00  0.00     0.198 A 
ATOM     86  C   UNL A   1      39.298  28.068  30.068  1.00  0.00     0.198 A 
ATOM     87  F   UNL A   1      41.525  27.400  30.438  1.00  0.00    -0.203 F 
ATOM     88  F   UNL A   1      37.759  29.648  27.196  1.00  0.00    -0.200 F 
ATOM     89  C   UNL A   1      38.336  28.642  29.253  1.00  0.00     0.200 A 
ATOM     90  F   UNL A   1      38.972  27.656  31.300  1.00  0.00    -0.200 F 
ATOM     91  F   UNL A   1      37.085  28.810  29.704  1.00  0.00    -0.200 F 
ENDBRANCH  57  81
BRANCH  69  92
ATOM     92  C   UNL A   1      46.294  32.841  28.522  1.00  0.00     0.064 A 
ATOM     93  C   UNL A   1      46.729  33.159  29.817  1.00  0.00     0.173 A 
ATOM     94  C   UNL A   1      46.009  33.901  27.646  1.00  0.00     0.173 A 
ATOM     95  F   UNL A   1      47.002  32.182  30.695  1.00  0.00    -0.203 F 
ATOM     96  C   UNL A   1      46.852  34.484  30.225  1.00  0.00     0.198 A 
ATOM     97  C   UNL A   1      46.164  35.224  28.047  1.00  0.00     0.198 A 
ATOM     98  F   UNL A   1      45.599  33.650  26.393  1.00  0.00    -0.203 F 
ATOM     99  F   UNL A   1      47.226  34.764  31.480  1.00  0.00    -0.200 F 
ATOM    100  C   UNL A   1      46.578  35.515  29.338  1.00  0.00     0.200 A 
ATOM    101  F   UNL A   1      45.912  36.218  27.184  1.00  0.00    -0.200 F 
ATOM    102  F   UNL A   1      46.706  36.790  29.730  1.00  0.00    -0.200 F 
ENDBRANCH  69  92
ENDBRANCH  43  44
ENDBRANCH  36  38
ENDBRANCH  35  36
ENDBRANCH  34  35
ENDBRANCH  33  34
ENDBRANCH  32  33
ENDBRANCH  31  32
ENDBRANCH   1  31
TORSDOF 21
ENDMDL
MODEL 2
REMARK VINA RESULT:     -10.2      5.796     11.410
REMARK SMILES Cc1nc2ccc(Cl)cc2cc1C(=O)N1CCC(C(=O)OCCOCCOCCOCCOC(=O)c2ccc(-c3c4nc(c(-c5c(F)c(F)c(F)c(F)c5F)c5ccc([nH]5)c(-c5c(F)c(F)c(F)c(F)c5F)c5nc(c(-c6c(F)c(F)c(F)c(F)c6F)c6ccc3[nH]6)C=C5)C=C4)cc2)CC1
REMARK SMILES IDX 28 1 27 2 26 3 25 4 24 5 23 6 22 7 21 8 19 9 20 10 18 11
REMARK SMILES IDX 13 12 14 13 15 14 16 15 100 16 17 17 99 18 12 19 1 20 2 21
REMARK SMILES IDX 3 22 4 23 11 24 5 25 10 26 6 27 9 28 7 29 8 30 29 31 30 32
REMARK SMILES IDX 31 33 32 34 33 35 34 36 35 37 36 38 37 39 98 40 38 41 97 42
REMARK SMILES IDX 39 43 40 44 41 45 91 46 42 47 96 48 90 49 92 50 43 51 95 52
REMARK SMILES IDX 89 53 88 54 44 56 76 57 56 58 75 59 57 60 60 61 74 62 93 63
REMARK SMILES IDX 58 64 59 65 73 67 94 68 61 69 45 70 46 71 54 72 47 73 48 74
REMARK SMILES IDX 52 75 55 76 49 77 50 78 53 79 51 80 77 81 78 82 86 83 79 84
REMARK SMILES IDX 80 85 84 86 87 87 81 88 82 89 85 90 83 91 62 92 63 93 71 94
REMARK SMILES IDX 64 95 65 96 69 97 72 98 66 99 67 100 70 101 68 102
REMARK H PARENT 92 55 60 66
REMARK Flexibility Score: inf
ROOT
ATOM      1  C   UNL A   1      33.951  28.564  26.662  1.00  0.00     0.188 C 
ENDROOT
BRANCH   1   2
ATOM      2  O   UNL A   1      33.421  27.861  25.540  1.00  0.00    -0.377 OA
BRANCH   2   3
ATOM      3  C   UNL A   1      33.633  26.463  25.488  1.00  0.00     0.188 C 
BRANCH   3   4
ATOM      4  C   UNL A   1      33.333  25.834  24.121  1.00  0.00     0.188 C 
BRANCH   4   5
ATOM      5  O   UNL A   1      32.887  24.487  24.039  1.00  0.00    -0.376 OA
BRANCH   5   6
ATOM      6  C   UNL A   1      33.823  23.423  23.888  1.00  0.00     0.202 C 
BRANCH   6   7
ATOM      7  C   UNL A   1      35.189  23.484  24.582  1.00  0.00     0.261 C 
BRANCH   7   8
ATOM      8  O   UNL A   1      36.076  22.396  24.259  1.00  0.00    -0.463 OA
BRANCH   8   9
ATOM      9  C   UNL A   1      36.266  21.480  25.233  1.00  0.00     0.309 C 
ATOM     10  O   UNL A   1      35.393  20.744  25.680  1.00  0.00    -0.252 OA
BRANCH   9  11
ATOM     11  C   UNL A   1      37.688  21.408  25.750  1.00  0.00     0.103 C 
ATOM     12  C   UNL A   1      41.946  21.623  26.106  1.00  0.00     0.255 C 
ATOM     13  O   UNL A   1      42.648  20.735  25.629  1.00  0.00    -0.269 OA
ATOM     14  N   UNL A   1      40.550  21.622  26.015  1.00  0.00    -0.339 N 
ATOM     15  C   UNL A   1      39.903  20.315  26.032  1.00  0.00     0.120 C 
ATOM     16  C   UNL A   1      39.706  22.808  26.216  1.00  0.00     0.120 C 
ATOM     17  C   UNL A   1      38.597  20.284  25.252  1.00  0.00     0.037 C 
ATOM     18  C   UNL A   1      38.389  22.734  25.453  1.00  0.00     0.037 C 
BRANCH  12  19
ATOM     19  C   UNL A   1      42.598  22.647  26.954  1.00  0.00     0.061 A 
ATOM     20  C   UNL A   1      43.180  24.152  24.989  1.00  0.00     0.067 C 
ATOM     21  C   UNL A   1      43.196  23.797  26.447  1.00  0.00     0.051 A 
ATOM     22  N   UNL A   1      43.899  24.655  27.245  1.00  0.00    -0.252 NA
ATOM     23  C   UNL A   1      44.022  24.387  28.559  1.00  0.00     0.071 A 
ATOM     24  C   UNL A   1      42.758  22.364  28.314  1.00  0.00     0.026 A 
ATOM     25  C   UNL A   1      44.750  25.234  29.385  1.00  0.00     0.030 A 
ATOM     26  C   UNL A   1      43.443  23.246  29.144  1.00  0.00     0.002 A 
ATOM     27  C   UNL A   1      44.886  24.988  30.758  1.00  0.00     0.023 A 
ATOM     28  C   UNL A   1      43.561  22.994  30.521  1.00  0.00     0.030 A 
ATOM     29  C   UNL A   1      44.278  23.874  31.322  1.00  0.00     0.041 A 
ATOM     30  Cl  UNL A   1      44.409  23.577  33.009  1.00  0.00    -0.084 Cl
ENDBRANCH  12  19
ENDBRANCH   9  11
ENDBRANCH   8   9
ENDBRANCH   7   8
ENDBRANCH   6   7
ENDBRANCH   5   6
ENDBRANCH   4   5
ENDBRANCH   3   4
ENDBRANCH   2   3
ENDBRANCH   1   2
BRANCH   1  31
ATOM     31  C   UNL A   1      33.508  30.023  26.876  1.00  0.00     0.188 C 
BRANCH  31  32
ATOM     32  O   UNL A   1      32.277  30.336  26.230  1.00  0.00    -0.376 OA
BRANCH  32  33
ATOM     33  C   UNL A   1      31.772  31.659  26.387  1.00  0.00     0.202 C 
BRANCH  33  34
ATOM     34  C   UNL A   1      32.213  32.401  27.659  1.00  0.00     0.261 C 
BRANCH  34  35
ATOM     35  O   UNL A   1      33.200  33.433  27.471  1.00  0.00    -0.460 OA
BRANCH  35  36
ATOM     36  C   UNL A   1      33.254  34.436  28.371  1.00  0.00     0.338 C 
ATOM     37  O   UNL A   1      32.458  35.341  28.521  1.00  0.00    -0.246 OA
BRANCH  36  38
ATOM     38  C   UNL A   1      34.366  34.152  29.301  1.00  0.00     0.060 A 
ATOM     39  C   UNL A   1      35.671  34.450  28.891  1.00  0.00     0.016 A 
ATOM     40  C   UNL A   1      34.128  33.563  30.545  1.00  0.00     0.016 A 
ATOM     41  C   UNL A   1      36.751  34.111  29.706  1.00  0.00     0.010 A 
ATOM     42  C   UNL A   1      35.212  33.205  31.352  1.00  0.00     0.010 A 
ATOM     43  C   UNL A   1      36.529  33.441  30.917  1.00  0.00    -0.014 A 
BRANCH  43  44
ATOM     44  C   UNL A   1      37.667  32.798  31.617  1.00  0.00     0.031 A 
ATOM     45  C   UNL A   1      38.345  31.634  30.945  1.00  0.00     0.074 A 
ATOM     46  C   UNL A   1      38.103  33.242  32.808  1.00  0.00     0.049 A 
ATOM     47  N   UNL A   1      39.328  30.883  31.372  1.00  0.00    -0.248 NA
ATOM     48  C   UNL A   1      37.844  31.265  29.610  1.00  0.00     0.031 C 
ATOM     49  C   UNL A   1      37.553  34.380  33.541  1.00  0.00     0.029 A 
ATOM     50  N   UNL A   1      39.109  32.774  33.617  1.00  0.00    -0.354 N 
ATOM     51  C   UNL A   1      39.555  29.954  30.365  1.00  0.00     0.074 A 
ATOM     52  C   UNL A   1      38.599  30.217  29.315  1.00  0.00     0.031 C 
ATOM     53  C   UNL A   1      38.216  34.511  34.703  1.00  0.00     0.029 A 
ATOM     54  C   UNL A   1      39.217  33.449  34.807  1.00  0.00     0.049 A 
ATOM     55  H   UNL A   1      39.697  32.025  33.366  1.00  0.00     0.167 HD
ATOM     56  C   UNL A   1      40.485  28.972  30.320  1.00  0.00     0.037 A 
ATOM     57  C   UNL A   1      40.017  33.215  35.867  1.00  0.00     0.037 A 
ATOM     58  C   UNL A   1      41.443  28.714  31.360  1.00  0.00     0.049 A 
ATOM     59  C   UNL A   1      41.003  32.074  35.812  1.00  0.00     0.074 A 
ATOM     60  C   UNL A   1      42.445  27.760  31.392  1.00  0.00     0.029 A 
ATOM     61  N   UNL A   1      41.511  29.408  32.558  1.00  0.00    -0.354 N 
ATOM     62  N   UNL A   1      41.242  31.228  34.838  1.00  0.00    -0.248 NA
ATOM     63  C   UNL A   1      41.835  31.856  37.006  1.00  0.00     0.031 C 
ATOM     64  C   UNL A   1      43.088  27.844  32.631  1.00  0.00     0.029 A 
ATOM     65  C   UNL A   1      42.522  28.887  33.348  1.00  0.00     0.049 A 
ATOM     66  H   UNL A   1      40.928  30.162  32.809  1.00  0.00     0.167 HD
ATOM     67  C   UNL A   1      42.269  30.406  35.289  1.00  0.00     0.074 A 
ATOM     68  C   UNL A   1      42.618  30.861  36.616  1.00  0.00     0.031 C 
ATOM     69  C   UNL A   1      42.869  29.366  34.660  1.00  0.00     0.037 A 
BRANCH  56  70
ATOM     70  C   UNL A   1      40.503  28.082  29.114  1.00  0.00     0.064 A 
ATOM     71  C   UNL A   1      39.689  26.944  29.027  1.00  0.00     0.173 A 
ATOM     72  C   UNL A   1      41.299  28.409  28.008  1.00  0.00     0.173 A 
ATOM     73  F   UNL A   1      38.923  26.579  30.068  1.00  0.00    -0.203 F 
ATOM     74  C   UNL A   1      39.678  26.160  27.877  1.00  0.00     0.198 A 
ATOM     75  C   UNL A   1      41.267  27.639  26.849  1.00  0.00     0.198 A 
ATOM     76  F   UNL A   1      42.095  29.488  28.042  1.00  0.00    -0.203 F 
ATOM     77  F   UNL A   1      38.915  25.060  27.823  1.00  0.00    -0.200 F 
ATOM     78  C   UNL A   1      40.458  26.514  26.785  1.00  0.00     0.200 A 
ATOM     79  F   UNL A   1      42.013  27.987  25.792  1.00  0.00    -0.200 F 
ATOM     80  F   UNL A   1      40.433  25.767  25.672  1.00  0.00    -0.200 F 
ENDBRANCH  56  70
BRANCH  57  81
ATOM     81  C   UNL A   1      39.911  34.055  37.091  1.00  0.00     0.064 A 
ATOM     82  C   UNL A   1      39.058  33.699  38.145  1.00  0.00     0.173 A 
ATOM     83  C   UNL A   1      40.613  35.264  37.202  1.00  0.00     0.173 A 
ATOM     84  F   UNL A   1      38.342  32.567  38.073  1.00  0.00    -0.203 F 
ATOM     85  C   UNL A   1      38.887  34.534  39.248  1.00  0.00     0.198 A 
ATOM     86  C   UNL A   1      40.465  36.084  38.319  1.00  0.00     0.198 A 
ATOM     87  F   UNL A   1      41.439  35.655  36.220  1.00  0.00    -0.203 F 
ATOM     88  F   UNL A   1      38.017  34.200  40.210  1.00  0.00    -0.200 F 
ATOM     89  C   UNL A   1      39.594  35.725  39.335  1.00  0.00     0.200 A 
ATOM     90  F   UNL A   1      41.157  37.228  38.404  1.00  0.00    -0.200 F 
ATOM     91  F   UNL A   1      39.423  36.532  40.391  1.00  0.00    -0.200 F 
ENDBRANCH  57  81
BRANCH  69  92
ATOM     92  C   UNL A   1      43.996  28.678  35.374  1.00  0.00     0.064 A 
ATOM     93  C   UNL A   1      43.779  27.558  36.189  1.00  0.00     0.173 A 
ATOM     94  C   UNL A   1      45.318  29.116  35.198  1.00  0.00     0.173 A 
ATOM     95  F   UNL A   1      42.533  27.108  36.398  1.00  0.00    -0.203 F 
ATOM     96  C   UNL A   1      44.841  26.917  36.821  1.00  0.00     0.198 A 
ATOM     97  C   UNL A   1      46.381  28.454  35.805  1.00  0.00     0.198 A 
ATOM     98  F   UNL A   1      45.581  30.178  34.420  1.00  0.00    -0.203 F 
ATOM     99  F   UNL A   1      44.606  25.876  37.630  1.00  0.00    -0.200 F 
ATOM    100  C   UNL A   1      46.141  27.360  36.622  1.00  0.00     0.200 A 
ATOM    101  F   UNL A   1      47.637  28.874  35.600  1.00  0.00    -0.200 F 
ATOM    102  F   UNL A   1      47.162  26.734  37.223  1.00  0.00    -0.200 F 
ENDBRANCH  69  92
ENDBRANCH  43  44
ENDBRANCH  36  38
ENDBRANCH  35  36
ENDBRANCH  34  35
ENDBRANCH  33  34
ENDBRANCH  32  33
ENDBRANCH  31  32
ENDBRANCH   1  31
TORSDOF 21
ENDMDL
MODEL 3
REMARK VINA RESULT:     -10.1      4.332     11.308
REMARK SMILES Cc1nc2ccc(Cl)cc2cc1C(=O)N1CCC(C(=O)OCCOCCOCCOCCOC(=O)c2ccc(-c3c4nc(c(-c5c(F)c(F)c(F)c(F)c5F)c5ccc([nH]5)c(-c5c(F)c(F)c(F)c(F)c5F)c5nc(c(-c6c(F)c(F)c(F)c(F)c6F)c6ccc3[nH]6)C=C5)C=C4)cc2)CC1
REMARK SMILES IDX 28 1 27 2 26 3 25 4 24 5 23 6 22 7 21 8 19 9 20 10 18 11
REMARK SMILES IDX 13 12 14 13 15 14 16 15 100 16 17 17 99 18 12 19 1 20 2 21
REMARK SMILES IDX 3 22 4 23 11 24 5 25 10 26 6 27 9 28 7 29 8 30 29 31 30 32
REMARK SMILES IDX 31 33 32 34 33 35 34 36 35 37 36 38 37 39 98 40 38 41 97 42
REMARK SMILES IDX 39 43 40 44 41 45 91 46 42 47 96 48 90 49 92 50 43 51 95 52
REMARK SMILES IDX 89 53 88 54 44 56 76 57 56 58 75 59 57 60 60 61 74 62 93 63
REMARK SMILES IDX 58 64 59 65 73 67 94 68 61 69 45 70 46 71 54 72 47 73 48 74
REMARK SMILES IDX 52 75 55 76 49 77 50 78 53 79 51 80 77 81 78 82 86 83 79 84
REMARK SMILES IDX 80 85 84 86 87 87 81 88 82 89 85 90 83 91 62 92 63 93 71 94
REMARK SMILES IDX 64 95 65 96 69 97 72 98 66 99 67 100 70 101 68 102
REMARK H PARENT 92 55 60 66
REMARK Flexibility Score: inf
ROOT
ATOM      1  C   UNL A   1      39.201  33.123  31.341  1.00  0.00     0.188 C 
ENDROOT
BRANCH   1   2
ATOM      2  O   UNL A   1      37.811  32.813  31.256  1.00  0.00    -0.377 OA
BRANCH   2   3
ATOM      3  C   UNL A   1      36.926  33.872  30.943  1.00  0.00     0.188 C 
BRANCH   3   4
ATOM      4  C   UNL A   1      35.489  33.422  30.647  1.00  0.00     0.188 C 
BRANCH   4   5
ATOM      5  O   UNL A   1      35.074  33.201  29.306  1.00  0.00    -0.376 OA
BRANCH   5   6
ATOM      6  C   UNL A   1      34.362  32.018  28.955  1.00  0.00     0.202 C 
BRANCH   6   7
ATOM      7  C   UNL A   1      34.092  31.681  27.483  1.00  0.00     0.261 C 
BRANCH   7   8
ATOM      8  O   UNL A   1      33.505  30.385  27.261  1.00  0.00    -0.463 OA
BRANCH   8   9
ATOM      9  C   UNL A   1      32.446  30.351  26.424  1.00  0.00     0.309 C 
ATOM     10  O   UNL A   1      31.561  31.200  26.384  1.00  0.00    -0.252 OA
BRANCH   9  11
ATOM     11  C   UNL A   1      32.427  29.158  25.493  1.00  0.00     0.103 C 
ATOM     12  C   UNL A   1      33.536  26.077  22.739  1.00  0.00     0.255 C 
ATOM     13  O   UNL A   1      33.627  26.328  21.540  1.00  0.00    -0.269 OA
ATOM     14  N   UNL A   1      33.190  27.038  23.695  1.00  0.00    -0.339 N 
ATOM     15  C   UNL A   1      32.263  28.077  23.260  1.00  0.00     0.120 C 
ATOM     16  C   UNL A   1      33.437  26.899  25.137  1.00  0.00     0.120 C 
ATOM     17  C   UNL A   1      32.466  29.399  23.983  1.00  0.00     0.037 C 
ATOM     18  C   UNL A   1      33.598  28.239  25.843  1.00  0.00     0.037 C 
BRANCH  12  19
ATOM     19  C   UNL A   1      33.634  24.662  23.165  1.00  0.00     0.061 A 
ATOM     20  C   UNL A   1      31.114  24.328  23.228  1.00  0.00     0.067 C 
ATOM     21  C   UNL A   1      32.527  23.859  23.423  1.00  0.00     0.051 A 
ATOM     22  N   UNL A   1      32.654  22.600  23.938  1.00  0.00    -0.252 NA
ATOM     23  C   UNL A   1      33.882  22.115  24.205  1.00  0.00     0.071 A 
ATOM     24  C   UNL A   1      34.901  24.158  23.475  1.00  0.00     0.026 A 
ATOM     25  C   UNL A   1      34.033  20.845  24.748  1.00  0.00     0.030 A 
ATOM     26  C   UNL A   1      35.047  22.865  23.967  1.00  0.00     0.002 A 
ATOM     27  C   UNL A   1      35.297  20.308  25.025  1.00  0.00     0.023 A 
ATOM     28  C   UNL A   1      36.321  22.334  24.230  1.00  0.00     0.030 A 
ATOM     29  C   UNL A   1      36.438  21.052  24.751  1.00  0.00     0.041 A 
ATOM     30  Cl  UNL A   1      37.995  20.395  25.058  1.00  0.00    -0.084 Cl
ENDBRANCH  12  19
ENDBRANCH   9  11
ENDBRANCH   8   9
ENDBRANCH   7   8
ENDBRANCH   6   7
ENDBRANCH   5   6
ENDBRANCH   4   5
ENDBRANCH   3   4
ENDBRANCH   2   3
ENDBRANCH   1   2
BRANCH   1  31
ATOM     31  C   UNL A   1      39.786  33.440  32.730  1.00  0.00     0.188 C 
BRANCH  31  32
ATOM     32  O   UNL A   1      40.506  34.670  32.767  1.00  0.00    -0.376 OA
BRANCH  32  33
ATOM     33  C   UNL A   1      41.887  34.631  32.417  1.00  0.00     0.202 C 
BRANCH  33  34
ATOM     34  C   UNL A   1      42.755  35.768  32.981  1.00  0.00     0.261 C 
BRANCH  34  35
ATOM     35  O   UNL A   1      43.694  36.355  32.059  1.00  0.00    -0.460 OA
BRANCH  35  36
ATOM     36  C   UNL A   1      45.001  36.056  32.199  1.00  0.00     0.338 C 
ATOM     37  O   UNL A   1      45.834  36.661  32.843  1.00  0.00    -0.246 OA
BRANCH  36  38
ATOM     38  C   UNL A   1      45.231  34.732  31.588  1.00  0.00     0.060 A 
ATOM     39  C   UNL A   1      45.079  34.602  30.202  1.00  0.00     0.016 A 
ATOM     40  C   UNL A   1      45.556  33.624  32.374  1.00  0.00     0.016 A 
ATOM     41  C   UNL A   1      45.199  33.348  29.603  1.00  0.00     0.010 A 
ATOM     42  C   UNL A   1      45.655  32.365  31.776  1.00  0.00     0.010 A 
ATOM     43  C   UNL A   1      45.438  32.216  30.394  1.00  0.00    -0.014 A 
BRANCH  43  44
ATOM     44  C   UNL A   1      45.243  30.865  29.816  1.00  0.00     0.031 A 
ATOM     45  C   UNL A   1      43.835  30.358  29.658  1.00  0.00     0.074 A 
ATOM     46  C   UNL A   1      46.284  30.111  29.422  1.00  0.00     0.049 A 
ATOM     47  N   UNL A   1      43.411  29.200  29.220  1.00  0.00    -0.248 NA
ATOM     48  C   UNL A   1      42.757  31.283  30.049  1.00  0.00     0.031 C 
ATOM     49  C   UNL A   1      47.689  30.505  29.491  1.00  0.00     0.029 A 
ATOM     50  N   UNL A   1      46.313  28.843  28.895  1.00  0.00    -0.354 N 
ATOM     51  C   UNL A   1      42.025  29.256  29.291  1.00  0.00     0.074 A 
ATOM     52  C   UNL A   1      41.675  30.550  29.831  1.00  0.00     0.031 C 
ATOM     53  C   UNL A   1      48.448  29.490  29.041  1.00  0.00     0.029 A 
ATOM     54  C   UNL A   1      47.583  28.366  28.679  1.00  0.00     0.049 A 
ATOM     55  H   UNL A   1      45.502  28.326  28.691  1.00  0.00     0.167 HD
ATOM     56  C   UNL A   1      41.123  28.313  28.931  1.00  0.00     0.037 A 
ATOM     57  C   UNL A   1      47.994  27.152  28.264  1.00  0.00     0.037 A 
ATOM     58  C   UNL A   1      41.469  27.029  28.385  1.00  0.00     0.049 A 
ATOM     59  C   UNL A   1      46.966  26.098  27.927  1.00  0.00     0.074 A 
ATOM     60  C   UNL A   1      40.625  26.017  27.961  1.00  0.00     0.029 A 
ATOM     61  N   UNL A   1      42.765  26.576  28.197  1.00  0.00    -0.354 N 
ATOM     62  N   UNL A   1      45.657  26.175  27.954  1.00  0.00    -0.248 NA
ATOM     63  C   UNL A   1      47.476  24.786  27.497  1.00  0.00     0.031 C 
ATOM     64  C   UNL A   1      41.411  24.932  27.563  1.00  0.00     0.029 A 
ATOM     65  C   UNL A   1      42.745  25.289  27.688  1.00  0.00     0.049 A 
ATOM     66  H   UNL A   1      43.579  27.094  28.395  1.00  0.00     0.167 HD
ATOM     67  C   UNL A   1      45.192  24.941  27.515  1.00  0.00     0.074 A 
ATOM     68  C   UNL A   1      46.356  24.137  27.215  1.00  0.00     0.031 C 
ATOM     69  C   UNL A   1      43.914  24.510  27.374  1.00  0.00     0.037 A 
BRANCH  56  70
ATOM     70  C   UNL A   1      39.671  28.621  29.134  1.00  0.00     0.064 A 
ATOM     71  C   UNL A   1      39.051  28.456  30.380  1.00  0.00     0.173 A 
ATOM     72  C   UNL A   1      38.908  29.148  28.083  1.00  0.00     0.173 A 
ATOM     73  F   UNL A   1      39.735  27.938  31.413  1.00  0.00    -0.203 F 
ATOM     74  C   UNL A   1      37.714  28.800  30.565  1.00  0.00     0.198 A 
ATOM     75  C   UNL A   1      37.579  29.515  28.276  1.00  0.00     0.198 A 
ATOM     76  F   UNL A   1      39.456  29.325  26.872  1.00  0.00    -0.203 F 
ATOM     77  F   UNL A   1      37.131  28.607  31.755  1.00  0.00    -0.200 F 
ATOM     78  C   UNL A   1      36.983  29.339  29.515  1.00  0.00     0.200 A 
ATOM     79  F   UNL A   1      36.877  30.045  27.265  1.00  0.00    -0.200 F 
ATOM     80  F   UNL A   1      35.701  29.685  29.699  1.00  0.00    -0.200 F 
ENDBRANCH  56  70
BRANCH  57  81
ATOM     81  C   UNL A   1      49.446  26.841  28.164  1.00  0.00     0.064 A 
ATOM     82  C   UNL A   1      50.167  26.374  29.271  1.00  0.00     0.173 A 
ATOM     83  C   UNL A   1      50.153  27.066  26.974  1.00  0.00     0.173 A 
ATOM     84  F   UNL A   1      49.541  26.171  30.440  1.00  0.00    -0.203 F 
ATOM     85  C   UNL A   1      51.545  26.174  29.202  1.00  0.00     0.198 A 
ATOM     86  C   UNL A   1      51.526  26.837  26.897  1.00  0.00     0.198 A 
ATOM     87  F   UNL A   1      49.513  27.518  25.885  1.00  0.00    -0.203 F 
ATOM     88  F   UNL A   1      52.219  25.789  30.294  1.00  0.00    -0.200 F 
ATOM     89  C   UNL A   1      52.223  26.402  28.013  1.00  0.00     0.200 A 
ATOM     90  F   UNL A   1      52.175  27.050  25.745  1.00  0.00    -0.200 F 
ATOM     91  F   UNL A   1      53.549  26.219  27.950  1.00  0.00    -0.200 F 
ENDBRANCH  57  81
BRANCH  69  92
ATOM     92  C   UNL A   1      43.702  23.128  26.829  1.00  0.00     0.064 A 
ATOM     93  C   UNL A   1      43.084  22.123  27.585  1.00  0.00     0.173 A 
ATOM     94  C   UNL A   1      44.078  22.822  25.511  1.00  0.00     0.173 A 
ATOM     95  F   UNL A   1      42.717  22.362  28.853  1.00  0.00    -0.203 F 
ATOM     96  C   UNL A   1      42.871  20.854  27.052  1.00  0.00     0.198 A 
ATOM     97  C   UNL A   1      43.835  21.563  24.970  1.00  0.00     0.198 A 
ATOM     98  F   UNL A   1      44.665  23.752  24.741  1.00  0.00    -0.203 F 
ATOM     99  F   UNL A   1      42.319  19.896  27.807  1.00  0.00    -0.200 F 
ATOM    100  C   UNL A   1      43.239  20.579  25.742  1.00  0.00     0.200 A 
ATOM    101  F   UNL A   1      44.178  21.303  23.700  1.00  0.00    -0.200 F 
ATOM    102  F   UNL A   1      43.024  19.360  25.228  1.00  0.00    -0.200 F 
ENDBRANCH  69  92
ENDBRANCH  43  44
ENDBRANCH  36  38
ENDBRANCH  35  36
ENDBRANCH  34  35
ENDBRANCH  33  34
ENDBRANCH  32  33
ENDBRANCH  31  32
ENDBRANCH   1  31
TORSDOF 21
ENDMDL
