MODEL 1
REMARK VINA RESULT:     -11.0      0.000      0.000
REMARK SMILES Cc1cc(OCC(C)(C)C(=O)OCCOCCOCCOCCOC(=O)c2ccc(-c3c4nc(c(-c5c(F)c(F)c(F)c(F)c5F)c5ccc([nH]5)c(-c5c(F)c(F)c(F)c(F)c5F)c5nc(c(-c6c(F)c(F)c(F)c(F)c6F)c6ccc3[nH]6)C=C5)C=C4)cc2)cc(C(C)C)c1
REMARK SMILES IDX 17 1 16 2 15 3 14 4 13 5 12 6 10 7 11 8 7 9 8 10 9 11 6 12
REMARK SMILES IDX 5 13 4 14 1 15 2 16 3 17 95 18 91 19 90 20 92 21 93 22 94 23
REMARK SMILES IDX 18 24 19 25 20 26 21 27 22 28 23 29 24 30 25 31 26 32 27 33
REMARK SMILES IDX 28 34 89 35 29 36 88 37 30 38 31 39 32 40 82 41 33 42 87 43
REMARK SMILES IDX 81 44 83 45 34 46 86 47 80 48 79 49 35 51 67 52 47 53 66 54
REMARK SMILES IDX 48 55 51 56 65 57 84 58 49 59 50 60 64 62 85 63 52 64 36 65
REMARK SMILES IDX 37 66 45 67 38 68 39 69 43 70 46 71 40 72 41 73 44 74 42 75
REMARK SMILES IDX 68 76 69 77 77 78 70 79 71 80 75 81 78 82 72 83 73 84 76 85
REMARK SMILES IDX 74 86 53 87 54 88 62 89 55 90 56 91 60 92 63 93 57 94 58 95
REMARK SMILES IDX 61 96 59 97
REMARK H PARENT 83 50 51 61
REMARK Flexibility Score: inf
ROOT
ATOM      1  C   UNL A   1      38.410  21.079  25.355  1.00  0.00     0.188 C 
ENDROOT
BRANCH   1   2
ATOM      2  C   UNL A   1      36.999  21.672  25.221  1.00  0.00     0.188 C 
BRANCH   2   3
ATOM      3  O   UNL A   1      36.498  22.656  26.105  1.00  0.00    -0.376 OA
BRANCH   3   4
ATOM      4  C   UNL A   1      36.435  24.001  25.672  1.00  0.00     0.202 C 
BRANCH   4   5
ATOM      5  C   UNL A   1      35.114  24.635  25.303  1.00  0.00     0.261 C 
BRANCH   5   6
ATOM      6  O   UNL A   1      34.057  23.762  25.673  1.00  0.00    -0.463 OA
BRANCH   6   7
ATOM      7  C   UNL A   1      33.084  23.750  24.745  1.00  0.00     0.315 C 
ATOM      8  O   UNL A   1      33.291  23.942  23.559  1.00  0.00    -0.251 OA
BRANCH   7   9
ATOM      9  C   UNL A   1      31.732  23.427  25.346  1.00  0.00     0.096 C 
ATOM     10  C   UNL A   1      30.734  24.551  25.039  1.00  0.00     0.027 C 
ATOM     11  C   UNL A   1      31.697  23.358  26.876  1.00  0.00     0.027 C 
BRANCH   9  12
ATOM     12  C   UNL A   1      31.460  21.990  24.812  1.00  0.00     0.247 C 
BRANCH  12  13
ATOM     13  O   UNL A   1      31.987  20.885  25.584  1.00  0.00    -0.492 OA
BRANCH  13  14
ATOM     14  C   UNL A   1      32.411  19.824  24.843  1.00  0.00     0.119 A 
ATOM     15  C   UNL A   1      32.235  18.561  21.273  1.00  0.00     0.044 C 
ATOM     16  C   UNL A   1      32.436  18.620  22.760  1.00  0.00    -0.047 A 
ATOM     17  C   UNL A   1      32.123  19.777  23.484  1.00  0.00     0.049 A 
ATOM     18  C   UNL A   1      32.902  17.485  23.452  1.00  0.00     0.007 A 
ATOM     19  C   UNL A   1      33.203  17.541  24.821  1.00  0.00    -0.042 A 
ATOM     20  C   UNL A   1      33.063  18.768  25.460  1.00  0.00     0.050 A 
BRANCH  19  21
ATOM     21  C   UNL A   1      33.595  16.302  25.611  1.00  0.00     0.013 C 
ATOM     22  C   UNL A   1      32.638  15.115  25.399  1.00  0.00     0.012 C 
ATOM     23  C   UNL A   1      35.028  15.835  25.293  1.00  0.00     0.012 C 
ENDBRANCH  19  21
ENDBRANCH  13  14
ENDBRANCH  12  13
ENDBRANCH   9  12
ENDBRANCH   7   9
ENDBRANCH   6   7
ENDBRANCH   5   6
ENDBRANCH   4   5
ENDBRANCH   3   4
ENDBRANCH   2   3
ENDBRANCH   1   2
BRANCH   1  24
ATOM     24  O   UNL A   1      39.310  21.624  26.303  1.00  0.00    -0.377 OA
BRANCH  24  25
ATOM     25  C   UNL A   1      40.688  21.266  26.220  1.00  0.00     0.188 C 
BRANCH  25  26
ATOM     26  C   UNL A   1      41.116  19.934  26.814  1.00  0.00     0.188 C 
BRANCH  26  27
ATOM     27  O   UNL A   1      41.655  19.155  25.747  1.00  0.00    -0.376 OA
BRANCH  27  28
ATOM     28  C   UNL A   1      42.878  18.480  26.015  1.00  0.00     0.202 C 
BRANCH  28  29
ATOM     29  C   UNL A   1      43.941  18.768  24.959  1.00  0.00     0.261 C 
BRANCH  29  30
ATOM     30  O   UNL A   1      45.089  19.345  25.616  1.00  0.00    -0.460 OA
BRANCH  30  31
ATOM     31  C   UNL A   1      45.751  20.283  24.894  1.00  0.00     0.338 C 
ATOM     32  O   UNL A   1      46.889  20.142  24.445  1.00  0.00    -0.246 OA
BRANCH  31  33
ATOM     33  C   UNL A   1      45.032  21.588  24.925  1.00  0.00     0.060 A 
ATOM     34  C   UNL A   1      45.385  22.618  24.038  1.00  0.00     0.016 A 
ATOM     35  C   UNL A   1      44.230  21.891  26.015  1.00  0.00     0.016 A 
ATOM     36  C   UNL A   1      45.089  23.960  24.344  1.00  0.00     0.010 A 
ATOM     37  C   UNL A   1      44.053  23.218  26.364  1.00  0.00     0.010 A 
ATOM     38  C   UNL A   1      44.512  24.283  25.570  1.00  0.00    -0.014 A 
BRANCH  38  39
ATOM     39  C   UNL A   1      44.498  25.639  26.186  1.00  0.00     0.031 A 
ATOM     40  C   UNL A   1      43.199  26.405  26.267  1.00  0.00     0.074 A 
ATOM     41  C   UNL A   1      45.549  25.991  26.979  1.00  0.00     0.049 A 
ATOM     42  N   UNL A   1      43.012  27.534  26.870  1.00  0.00    -0.248 NA
ATOM     43  C   UNL A   1      41.953  25.911  25.683  1.00  0.00     0.031 C 
ATOM     44  C   UNL A   1      45.511  26.828  28.182  1.00  0.00     0.029 A 
ATOM     45  N   UNL A   1      46.889  25.587  26.940  1.00  0.00    -0.354 N 
ATOM     46  C   UNL A   1      41.645  27.734  27.049  1.00  0.00     0.074 A 
ATOM     47  C   UNL A   1      41.039  26.720  26.228  1.00  0.00     0.031 C 
ATOM     48  C   UNL A   1      46.727  26.929  28.739  1.00  0.00     0.029 A 
ATOM     49  C   UNL A   1      47.653  26.457  27.750  1.00  0.00     0.049 A 
ATOM     50  H   UNL A   1      47.241  24.821  26.431  1.00  0.00     0.167 HD
ATOM     51  C   UNL A   1      41.212  28.646  27.984  1.00  0.00     0.037 A 
ATOM     52  C   UNL A   1      48.566  27.301  27.174  1.00  0.00     0.037 A 
ATOM     53  C   UNL A   1      42.367  29.377  28.544  1.00  0.00     0.049 A 
ATOM     54  C   UNL A   1      48.083  28.749  27.159  1.00  0.00     0.074 A 
ATOM     55  C   UNL A   1      42.936  29.459  29.805  1.00  0.00     0.029 A 
ATOM     56  N   UNL A   1      43.282  29.975  27.678  1.00  0.00    -0.354 N 
ATOM     57  N   UNL A   1      46.818  29.077  27.287  1.00  0.00    -0.248 NA
ATOM     58  C   UNL A   1      48.940  29.933  27.130  1.00  0.00     0.031 C 
ATOM     59  C   UNL A   1      44.244  29.998  29.669  1.00  0.00     0.029 A 
ATOM     60  C   UNL A   1      44.450  30.308  28.334  1.00  0.00     0.049 A 
ATOM     61  H   UNL A   1      43.116  30.140  26.722  1.00  0.00     0.167 HD
ATOM     62  C   UNL A   1      46.685  30.429  27.417  1.00  0.00     0.074 A 
ATOM     63  C   UNL A   1      48.041  30.927  27.278  1.00  0.00     0.031 C 
ATOM     64  C   UNL A   1      45.492  31.054  27.650  1.00  0.00     0.037 A 
BRANCH  51  65
ATOM     65  C   UNL A   1      39.800  28.767  28.606  1.00  0.00     0.064 A 
ATOM     66  C   UNL A   1      38.739  29.365  27.874  1.00  0.00     0.173 A 
ATOM     67  C   UNL A   1      39.413  28.382  29.906  1.00  0.00     0.173 A 
ATOM     68  F   UNL A   1      38.873  29.673  26.580  1.00  0.00    -0.203 F 
ATOM     69  C   UNL A   1      37.473  29.645  28.419  1.00  0.00     0.198 A 
ATOM     70  C   UNL A   1      38.139  28.636  30.446  1.00  0.00     0.198 A 
ATOM     71  F   UNL A   1      40.224  27.704  30.717  1.00  0.00    -0.203 F 
ATOM     72  F   UNL A   1      36.545  30.254  27.668  1.00  0.00    -0.200 F 
ATOM     73  C   UNL A   1      37.174  29.286  29.712  1.00  0.00     0.200 A 
ATOM     74  F   UNL A   1      37.856  28.228  31.693  1.00  0.00    -0.200 F 
ATOM     75  F   UNL A   1      35.963  29.531  30.232  1.00  0.00    -0.200 F 
ENDBRANCH  51  65
BRANCH  52  76
ATOM     76  C   UNL A   1      49.459  26.518  26.255  1.00  0.00     0.064 A 
ATOM     77  C   UNL A   1      49.344  26.948  24.909  1.00  0.00     0.173 A 
ATOM     78  C   UNL A   1      50.741  26.146  26.694  1.00  0.00     0.173 A 
ATOM     79  F   UNL A   1      48.134  27.267  24.418  1.00  0.00    -0.203 F 
ATOM     80  C   UNL A   1      50.470  27.343  24.188  1.00  0.00     0.198 A 
ATOM     81  C   UNL A   1      51.869  26.481  25.932  1.00  0.00     0.198 A 
ATOM     82  F   UNL A   1      50.919  25.683  27.939  1.00  0.00    -0.203 F 
ATOM     83  F   UNL A   1      50.324  28.048  23.055  1.00  0.00    -0.200 F 
ATOM     84  C   UNL A   1      51.731  27.159  24.727  1.00  0.00     0.200 A 
ATOM     85  F   UNL A   1      53.097  26.297  26.439  1.00  0.00    -0.200 F 
ATOM     86  F   UNL A   1      52.799  27.717  24.138  1.00  0.00    -0.200 F 
ENDBRANCH  52  76
BRANCH  64  87
ATOM     87  C   UNL A   1      45.188  32.483  27.279  1.00  0.00     0.064 A 
ATOM     88  C   UNL A   1      44.285  32.815  26.258  1.00  0.00     0.173 A 
ATOM     89  C   UNL A   1      45.598  33.557  28.110  1.00  0.00     0.173 A 
ATOM     90  F   UNL A   1      43.739  31.872  25.477  1.00  0.00    -0.203 F 
ATOM     91  C   UNL A   1      43.857  34.127  26.053  1.00  0.00     0.198 A 
ATOM     92  C   UNL A   1      45.116  34.852  27.943  1.00  0.00     0.198 A 
ATOM     93  F   UNL A   1      46.441  33.375  29.138  1.00  0.00    -0.203 F 
ATOM     94  F   UNL A   1      43.016  34.395  25.045  1.00  0.00    -0.200 F 
ATOM     95  C   UNL A   1      44.256  35.140  26.906  1.00  0.00     0.200 A 
ATOM     96  F   UNL A   1      45.463  35.810  28.816  1.00  0.00    -0.200 F 
ATOM     97  F   UNL A   1      43.794  36.384  26.739  1.00  0.00    -0.200 F 
ENDBRANCH  64  87
ENDBRANCH  38  39
ENDBRANCH  31  33
ENDBRANCH  30  31
ENDBRANCH  29  30
ENDBRANCH  28  29
ENDBRANCH  27  28
ENDBRANCH  26  27
ENDBRANCH  25  26
ENDBRANCH  24  25
ENDBRANCH   1  24
TORSDOF 24
ENDMDL
MODEL 2
REMARK VINA RESULT:     -11.0      1.724      3.753
REMARK SMILES Cc1cc(OCC(C)(C)C(=O)OCCOCCOCCOCCOC(=O)c2ccc(-c3c4nc(c(-c5c(F)c(F)c(F)c(F)c5F)c5ccc([nH]5)c(-c5c(F)c(F)c(F)c(F)c5F)c5nc(c(-c6c(F)c(F)c(F)c(F)c6F)c6ccc3[nH]6)C=C5)C=C4)cc2)cc(C(C)C)c1
REMARK SMILES IDX 17 1 16 2 15 3 14 4 13 5 12 6 10 7 11 8 7 9 8 10 9 11 6 12
REMARK SMILES IDX 5 13 4 14 1 15 2 16 3 17 95 18 91 19 90 20 92 21 93 22 94 23
REMARK SMILES IDX 18 24 19 25 20 26 21 27 22 28 23 29 24 30 25 31 26 32 27 33
REMARK SMILES IDX 28 34 89 35 29 36 88 37 30 38 31 39 32 40 82 41 33 42 87 43
REMARK SMILES IDX 81 44 83 45 34 46 86 47 80 48 79 49 35 51 67 52 47 53 66 54
REMARK SMILES IDX 48 55 51 56 65 57 84 58 49 59 50 60 64 62 85 63 52 64 36 65
REMARK SMILES IDX 37 66 45 67 38 68 39 69 43 70 46 71 40 72 41 73 44 74 42 75
REMARK SMILES IDX 68 76 69 77 77 78 70 79 71 80 75 81 78 82 72 83 73 84 76 85
REMARK SMILES IDX 74 86 53 87 54 88 62 89 55 90 56 91 60 92 63 93 57 94 58 95
REMARK SMILES IDX 61 96 59 97
REMARK H PARENT 83 50 51 61
REMARK Flexibility Score: inf
ROOT
ATOM      1  C   UNL A   1      38.579  21.060  25.389  1.00  0.00     0.188 C 
ENDROOT
BRANCH   1   2
ATOM      2  C   UNL A   1      37.373  21.681  24.668  1.00  0.00     0.188 C 
BRANCH   2   3
ATOM      3  O   UNL A   1      36.092  21.084  24.672  1.00  0.00    -0.376 OA
BRANCH   3   4
ATOM      4  C   UNL A   1      34.957  21.890  24.925  1.00  0.00     0.202 C 
BRANCH   4   5
ATOM      5  C   UNL A   1      35.077  23.395  25.003  1.00  0.00     0.261 C 
BRANCH   5   6
ATOM      6  O   UNL A   1      33.862  23.984  24.565  1.00  0.00    -0.463 OA
BRANCH   6   7
ATOM      7  C   UNL A   1      32.940  23.989  25.543  1.00  0.00     0.315 C 
ATOM      8  O   UNL A   1      33.163  24.404  26.668  1.00  0.00    -0.251 OA
BRANCH   7   9
ATOM      9  C   UNL A   1      31.602  23.466  25.063  1.00  0.00     0.096 C 
ATOM     10  C   UNL A   1      31.419  22.005  25.494  1.00  0.00     0.027 C 
ATOM     11  C   UNL A   1      31.439  23.388  23.542  1.00  0.00     0.027 C 
BRANCH   9  12
ATOM     12  C   UNL A   1      30.611  24.550  25.579  1.00  0.00     0.247 C 
BRANCH  12  13
ATOM     13  O   UNL A   1      29.957  25.376  24.586  1.00  0.00    -0.492 OA
BRANCH  13  14
ATOM     14  C   UNL A   1      30.291  26.695  24.633  1.00  0.00     0.119 A 
ATOM     15  C   UNL A   1      30.101  29.785  22.445  1.00  0.00     0.044 C 
ATOM     16  C   UNL A   1      30.473  28.834  23.546  1.00  0.00    -0.047 A 
ATOM     17  C   UNL A   1      30.000  27.515  23.549  1.00  0.00     0.049 A 
ATOM     18  C   UNL A   1      31.349  29.250  24.567  1.00  0.00     0.007 A 
ATOM     19  C   UNL A   1      31.630  28.423  25.665  1.00  0.00    -0.042 A 
ATOM     20  C   UNL A   1      30.981  27.194  25.727  1.00  0.00     0.050 A 
BRANCH  19  21
ATOM     21  C   UNL A   1      32.659  28.803  26.719  1.00  0.00     0.013 C 
ATOM     22  C   UNL A   1      34.107  28.497  26.295  1.00  0.00     0.012 C 
ATOM     23  C   UNL A   1      32.570  30.289  27.113  1.00  0.00     0.012 C 
ENDBRANCH  19  21
ENDBRANCH  13  14
ENDBRANCH  12  13
ENDBRANCH   9  12
ENDBRANCH   7   9
ENDBRANCH   6   7
ENDBRANCH   5   6
ENDBRANCH   4   5
ENDBRANCH   3   4
ENDBRANCH   2   3
ENDBRANCH   1   2
BRANCH   1  24
ATOM     24  O   UNL A   1      39.456  21.891  26.127  1.00  0.00    -0.377 OA
BRANCH  24  25
ATOM     25  C   UNL A   1      40.788  21.439  26.364  1.00  0.00     0.188 C 
BRANCH  25  26
ATOM     26  C   UNL A   1      41.029  19.939  26.446  1.00  0.00     0.188 C 
BRANCH  26  27
ATOM     27  O   UNL A   1      41.971  19.612  25.427  1.00  0.00    -0.376 OA
BRANCH  27  28
ATOM     28  C   UNL A   1      42.999  18.697  25.790  1.00  0.00     0.202 C 
BRANCH  28  29
ATOM     29  C   UNL A   1      44.210  18.792  24.867  1.00  0.00     0.261 C 
BRANCH  29  30
ATOM     30  O   UNL A   1      45.288  19.417  25.595  1.00  0.00    -0.460 OA
BRANCH  30  31
ATOM     31  C   UNL A   1      45.870  20.468  24.967  1.00  0.00     0.338 C 
ATOM     32  O   UNL A   1      47.017  20.463  24.517  1.00  0.00    -0.246 OA
BRANCH  31  33
ATOM     33  C   UNL A   1      45.046  21.701  25.108  1.00  0.00     0.060 A 
ATOM     34  C   UNL A   1      45.114  22.721  24.145  1.00  0.00     0.016 A 
ATOM     35  C   UNL A   1      44.446  21.975  26.328  1.00  0.00     0.016 A 
ATOM     36  C   UNL A   1      44.752  24.041  24.471  1.00  0.00     0.010 A 
ATOM     37  C   UNL A   1      44.210  23.294  26.674  1.00  0.00     0.010 A 
ATOM     38  C   UNL A   1      44.397  24.361  25.779  1.00  0.00    -0.014 A 
BRANCH  38  39
ATOM     39  C   UNL A   1      44.368  25.736  26.353  1.00  0.00     0.031 A 
ATOM     40  C   UNL A   1      43.066  26.499  26.391  1.00  0.00     0.074 A 
ATOM     41  C   UNL A   1      45.405  26.116  27.152  1.00  0.00     0.049 A 
ATOM     42  N   UNL A   1      42.866  27.645  26.956  1.00  0.00    -0.248 NA
ATOM     43  C   UNL A   1      41.831  25.982  25.803  1.00  0.00     0.031 C 
ATOM     44  C   UNL A   1      45.346  26.989  28.328  1.00  0.00     0.029 A 
ATOM     45  N   UNL A   1      46.747  25.715  27.146  1.00  0.00    -0.354 N 
ATOM     46  C   UNL A   1      41.496  27.845  27.108  1.00  0.00     0.074 A 
ATOM     47  C   UNL A   1      40.906  26.804  26.309  1.00  0.00     0.031 C 
ATOM     48  C   UNL A   1      46.553  27.110  28.901  1.00  0.00     0.029 A 
ATOM     49  C   UNL A   1      47.496  26.612  27.941  1.00  0.00     0.049 A 
ATOM     50  H   UNL A   1      47.110  24.936  26.666  1.00  0.00     0.167 HD
ATOM     51  C   UNL A   1      41.045  28.783  28.009  1.00  0.00     0.037 A 
ATOM     52  C   UNL A   1      48.415  27.442  27.353  1.00  0.00     0.037 A 
ATOM     53  C   UNL A   1      42.189  29.536  28.564  1.00  0.00     0.049 A 
ATOM     54  C   UNL A   1      47.927  28.887  27.287  1.00  0.00     0.074 A 
ATOM     55  C   UNL A   1      42.737  29.658  29.830  1.00  0.00     0.029 A 
ATOM     56  N   UNL A   1      43.115  30.110  27.694  1.00  0.00    -0.354 N 
ATOM     57  N   UNL A   1      46.660  29.214  27.386  1.00  0.00    -0.248 NA
ATOM     58  C   UNL A   1      48.782  30.073  27.236  1.00  0.00     0.031 C 
ATOM     59  C   UNL A   1      44.046  30.198  29.699  1.00  0.00     0.029 A 
ATOM     60  C   UNL A   1      44.271  30.467  28.358  1.00  0.00     0.049 A 
ATOM     61  H   UNL A   1      42.964  30.245  26.731  1.00  0.00     0.167 HD
ATOM     62  C   UNL A   1      46.521  30.568  27.473  1.00  0.00     0.074 A 
ATOM     63  C   UNL A   1      47.877  31.067  27.339  1.00  0.00     0.031 C 
ATOM     64  C   UNL A   1      45.322  31.196  27.668  1.00  0.00     0.037 A 
BRANCH  51  65
ATOM     65  C   UNL A   1      39.623  28.918  28.604  1.00  0.00     0.064 A 
ATOM     66  C   UNL A   1      38.578  29.514  27.848  1.00  0.00     0.173 A 
ATOM     67  C   UNL A   1      39.212  28.548  29.901  1.00  0.00     0.173 A 
ATOM     68  F   UNL A   1      38.736  29.808  26.553  1.00  0.00    -0.203 F 
ATOM     69  C   UNL A   1      37.305  29.806  28.367  1.00  0.00     0.198 A 
ATOM     70  C   UNL A   1      37.929  28.814  30.416  1.00  0.00     0.198 A 
ATOM     71  F   UNL A   1      40.005  27.875  30.733  1.00  0.00    -0.203 F 
ATOM     72  F   UNL A   1      36.393  30.412  27.594  1.00  0.00    -0.200 F 
ATOM     73  C   UNL A   1      36.981  29.462  29.659  1.00  0.00     0.200 A 
ATOM     74  F   UNL A   1      37.623  28.421  31.662  1.00  0.00    -0.200 F 
ATOM     75  F   UNL A   1      35.763  29.718  30.155  1.00  0.00    -0.200 F 
ENDBRANCH  51  65
BRANCH  52  76
ATOM     76  C   UNL A   1      49.325  26.635  26.473  1.00  0.00     0.064 A 
ATOM     77  C   UNL A   1      49.305  27.088  25.130  1.00  0.00     0.173 A 
ATOM     78  C   UNL A   1      50.563  26.202  26.977  1.00  0.00     0.173 A 
ATOM     79  F   UNL A   1      48.139  27.466  24.578  1.00  0.00    -0.203 F 
ATOM     80  C   UNL A   1      50.485  27.446  24.480  1.00  0.00     0.198 A 
ATOM     81  C   UNL A   1      51.745  26.499  26.285  1.00  0.00     0.198 A 
ATOM     82  F   UNL A   1      50.651  25.713  28.222  1.00  0.00    -0.203 F 
ATOM     83  F   UNL A   1      50.433  28.172  23.353  1.00  0.00    -0.200 F 
ATOM     84  C   UNL A   1      51.705  27.200  25.086  1.00  0.00     0.200 A 
ATOM     85  F   UNL A   1      52.935  26.254  26.856  1.00  0.00    -0.200 F 
ATOM     86  F   UNL A   1      52.827  27.720  24.567  1.00  0.00    -0.200 F 
ENDBRANCH  52  76
BRANCH  64  87
ATOM     87  C   UNL A   1      45.019  32.612  27.249  1.00  0.00     0.064 A 
ATOM     88  C   UNL A   1      44.187  32.908  26.159  1.00  0.00     0.173 A 
ATOM     89  C   UNL A   1      45.347  33.708  28.088  1.00  0.00     0.173 A 
ATOM     90  F   UNL A   1      43.718  31.941  25.358  1.00  0.00    -0.203 F 
ATOM     91  C   UNL A   1      43.751  34.207  25.898  1.00  0.00     0.198 A 
ATOM     92  C   UNL A   1      44.854  34.991  27.861  1.00  0.00     0.198 A 
ATOM     93  F   UNL A   1      46.115  33.561  29.177  1.00  0.00    -0.203 F 
ATOM     94  F   UNL A   1      42.982  34.441  24.827  1.00  0.00    -0.200 F 
ATOM     95  C   UNL A   1      44.068  35.243  26.759  1.00  0.00     0.200 A 
ATOM     96  F   UNL A   1      45.118  35.970  28.739  1.00  0.00    -0.200 F 
ATOM     97  F   UNL A   1      43.596  36.475  26.535  1.00  0.00    -0.200 F 
ENDBRANCH  64  87
ENDBRANCH  38  39
ENDBRANCH  31  33
ENDBRANCH  30  31
ENDBRANCH  29  30
ENDBRANCH  28  29
ENDBRANCH  27  28
ENDBRANCH  26  27
ENDBRANCH  25  26
ENDBRANCH  24  25
ENDBRANCH   1  24
TORSDOF 24
ENDMDL
MODEL 3
REMARK VINA RESULT:      -9.5      6.126     11.376
REMARK SMILES Cc1cc(OCC(C)(C)C(=O)OCCOCCOCCOCCOC(=O)c2ccc(-c3c4nc(c(-c5c(F)c(F)c(F)c(F)c5F)c5ccc([nH]5)c(-c5c(F)c(F)c(F)c(F)c5F)c5nc(c(-c6c(F)c(F)c(F)c(F)c6F)c6ccc3[nH]6)C=C5)C=C4)cc2)cc(C(C)C)c1
REMARK SMILES IDX 17 1 16 2 15 3 14 4 13 5 12 6 10 7 11 8 7 9 8 10 9 11 6 12
REMARK SMILES IDX 5 13 4 14 1 15 2 16 3 17 95 18 91 19 90 20 92 21 93 22 94 23
REMARK SMILES IDX 18 24 19 25 20 26 21 27 22 28 23 29 24 30 25 31 26 32 27 33
REMARK SMILES IDX 28 34 89 35 29 36 88 37 30 38 31 39 32 40 82 41 33 42 87 43
REMARK SMILES IDX 81 44 83 45 34 46 86 47 80 48 79 49 35 51 67 52 47 53 66 54
REMARK SMILES IDX 48 55 51 56 65 57 84 58 49 59 50 60 64 62 85 63 52 64 36 65
REMARK SMILES IDX 37 66 45 67 38 68 39 69 43 70 46 71 40 72 41 73 44 74 42 75
REMARK SMILES IDX 68 76 69 77 77 78 70 79 71 80 75 81 78 82 72 83 73 84 76 85
REMARK SMILES IDX 74 86 53 87 54 88 62 89 55 90 56 91 60 92 63 93 57 94 58 95
REMARK SMILES IDX 61 96 59 97
REMARK H PARENT 83 50 51 61
REMARK Flexibility Score: inf
ROOT
ATOM      1  C   UNL A   1      35.356  32.261  28.004  1.00  0.00     0.188 C 
ENDROOT
BRANCH   1   2
ATOM      2  C   UNL A   1      34.143  31.323  27.912  1.00  0.00     0.188 C 
BRANCH   2   3
ATOM      3  O   UNL A   1      33.972  30.399  26.854  1.00  0.00    -0.376 OA
BRANCH   3   4
ATOM      4  C   UNL A   1      32.697  30.263  26.258  1.00  0.00     0.202 C 
BRANCH   4   5
ATOM      5  C   UNL A   1      32.515  29.457  24.993  1.00  0.00     0.261 C 
BRANCH   5   6
ATOM      6  O   UNL A   1      31.653  28.360  25.258  1.00  0.00    -0.463 OA
BRANCH   6   7
ATOM      7  C   UNL A   1      32.309  27.190  25.167  1.00  0.00     0.315 C 
ATOM      8  O   UNL A   1      33.499  27.072  25.400  1.00  0.00    -0.251 OA
BRANCH   7   9
ATOM      9  C   UNL A   1      31.384  26.051  24.791  1.00  0.00     0.096 C 
ATOM     10  C   UNL A   1      30.705  26.342  23.445  1.00  0.00     0.027 C 
ATOM     11  C   UNL A   1      30.190  25.842  25.728  1.00  0.00     0.027 C 
BRANCH   9  12
ATOM     12  C   UNL A   1      32.307  24.806  24.932  1.00  0.00     0.247 C 
BRANCH  12  13
ATOM     13  O   UNL A   1      31.789  23.539  24.459  1.00  0.00    -0.492 OA
BRANCH  13  14
ATOM     14  C   UNL A   1      32.691  22.519  24.461  1.00  0.00     0.119 A 
ATOM     15  C   UNL A   1      32.873  18.850  25.396  1.00  0.00     0.044 C 
ATOM     16  C   UNL A   1      33.264  20.252  25.028  1.00  0.00    -0.047 A 
ATOM     17  C   UNL A   1      32.298  21.258  24.895  1.00  0.00     0.049 A 
ATOM     18  C   UNL A   1      34.623  20.581  24.860  1.00  0.00     0.007 A 
ATOM     19  C   UNL A   1      35.013  21.852  24.412  1.00  0.00    -0.042 A 
ATOM     20  C   UNL A   1      34.007  22.760  24.101  1.00  0.00     0.050 A 
BRANCH  19  21
ATOM     21  C   UNL A   1      36.475  22.266  24.334  1.00  0.00     0.013 C 
ATOM     22  C   UNL A   1      36.803  23.506  25.186  1.00  0.00     0.012 C 
ATOM     23  C   UNL A   1      37.427  21.128  24.744  1.00  0.00     0.012 C 
ENDBRANCH  19  21
ENDBRANCH  13  14
ENDBRANCH  12  13
ENDBRANCH   9  12
ENDBRANCH   7   9
ENDBRANCH   6   7
ENDBRANCH   5   6
ENDBRANCH   4   5
ENDBRANCH   3   4
ENDBRANCH   2   3
ENDBRANCH   1   2
BRANCH   1  24
ATOM     24  O   UNL A   1      35.298  33.539  27.400  1.00  0.00    -0.377 OA
BRANCH  24  25
ATOM     25  C   UNL A   1      34.630  34.592  28.091  1.00  0.00     0.188 C 
BRANCH  25  26
ATOM     26  C   UNL A   1      34.151  34.325  29.510  1.00  0.00     0.188 C 
BRANCH  26  27
ATOM     27  O   UNL A   1      34.076  35.587  30.170  1.00  0.00    -0.376 OA
BRANCH  27  28
ATOM     28  C   UNL A   1      32.916  35.816  30.961  1.00  0.00     0.202 C 
BRANCH  28  29
ATOM     29  C   UNL A   1      32.938  35.020  32.262  1.00  0.00     0.261 C 
BRANCH  29  30
ATOM     30  O   UNL A   1      34.278  34.526  32.471  1.00  0.00    -0.460 OA
BRANCH  30  31
ATOM     31  C   UNL A   1      34.951  35.107  33.494  1.00  0.00     0.338 C 
ATOM     32  O   UNL A   1      34.470  35.944  34.259  1.00  0.00    -0.246 OA
BRANCH  31  33
ATOM     33  C   UNL A   1      36.406  34.793  33.425  1.00  0.00     0.060 A 
ATOM     34  C   UNL A   1      37.042  34.625  32.184  1.00  0.00     0.016 A 
ATOM     35  C   UNL A   1      37.060  34.373  34.574  1.00  0.00     0.016 A 
ATOM     36  C   UNL A   1      38.233  33.881  32.085  1.00  0.00     0.010 A 
ATOM     37  C   UNL A   1      38.161  33.544  34.448  1.00  0.00     0.010 A 
ATOM     38  C   UNL A   1      38.748  33.239  33.208  1.00  0.00    -0.014 A 
BRANCH  38  39
ATOM     39  C   UNL A   1      39.745  32.132  33.187  1.00  0.00     0.031 A 
ATOM     40  C   UNL A   1      39.448  30.879  32.400  1.00  0.00     0.074 A 
ATOM     41  C   UNL A   1      41.025  32.419  33.557  1.00  0.00     0.049 A 
ATOM     42  N   UNL A   1      40.259  29.891  32.199  1.00  0.00    -0.248 NA
ATOM     43  C   UNL A   1      38.174  30.658  31.718  1.00  0.00     0.031 C 
ATOM     44  C   UNL A   1      42.257  31.844  33.009  1.00  0.00     0.029 A 
ATOM     45  N   UNL A   1      41.517  33.381  34.448  1.00  0.00    -0.354 N 
ATOM     46  C   UNL A   1      39.781  29.117  31.143  1.00  0.00     0.074 A 
ATOM     47  C   UNL A   1      38.445  29.610  30.933  1.00  0.00     0.031 C 
ATOM     48  C   UNL A   1      43.341  32.393  33.577  1.00  0.00     0.029 A 
ATOM     49  C   UNL A   1      42.867  33.085  34.742  1.00  0.00     0.049 A 
ATOM     50  H   UNL A   1      41.005  34.139  34.812  1.00  0.00     0.167 HD
ATOM     51  C   UNL A   1      40.636  28.256  30.495  1.00  0.00     0.037 A 
ATOM     52  C   UNL A   1      43.220  32.677  36.002  1.00  0.00     0.037 A 
ATOM     53  C   UNL A   1      41.939  28.224  31.191  1.00  0.00     0.049 A 
ATOM     54  C   UNL A   1      43.531  31.184  36.058  1.00  0.00     0.074 A 
ATOM     55  C   UNL A   1      43.227  28.596  30.841  1.00  0.00     0.029 A 
ATOM     56  N   UNL A   1      41.973  27.990  32.566  1.00  0.00    -0.354 N 
ATOM     57  N   UNL A   1      43.116  30.337  35.145  1.00  0.00    -0.248 NA
ATOM     58  C   UNL A   1      44.408  30.532  37.029  1.00  0.00     0.031 C 
ATOM     59  C   UNL A   1      43.998  28.701  32.031  1.00  0.00     0.029 A 
ATOM     60  C   UNL A   1      43.200  28.328  33.100  1.00  0.00     0.049 A 
ATOM     61  H   UNL A   1      41.220  27.631  33.087  1.00  0.00     0.167 HD
ATOM     62  C   UNL A   1      43.679  29.109  35.339  1.00  0.00     0.074 A 
ATOM     63  C   UNL A   1      44.455  29.271  36.555  1.00  0.00     0.031 C 
ATOM     64  C   UNL A   1      43.496  28.050  34.495  1.00  0.00     0.037 A 
BRANCH  51  65
ATOM     65  C   UNL A   1      40.444  27.595  29.109  1.00  0.00     0.064 A 
ATOM     66  C   UNL A   1      39.624  26.443  28.966  1.00  0.00     0.173 A 
ATOM     67  C   UNL A   1      41.053  27.981  27.897  1.00  0.00     0.173 A 
ATOM     68  F   UNL A   1      38.858  26.005  29.971  1.00  0.00    -0.203 F 
ATOM     69  C   UNL A   1      39.517  25.702  27.777  1.00  0.00     0.198 A 
ATOM     70  C   UNL A   1      40.927  27.257  26.697  1.00  0.00     0.198 A 
ATOM     71  F   UNL A   1      41.772  29.097  27.787  1.00  0.00    -0.203 F 
ATOM     72  F   UNL A   1      38.754  24.599  27.746  1.00  0.00    -0.200 F 
ATOM     73  C   UNL A   1      40.177  26.105  26.640  1.00  0.00     0.200 A 
ATOM     74  F   UNL A   1      41.539  27.701  25.589  1.00  0.00    -0.200 F 
ATOM     75  F   UNL A   1      40.063  25.415  25.496  1.00  0.00    -0.200 F 
ENDBRANCH  51  65
BRANCH  52  76
ATOM     76  C   UNL A   1      42.662  33.638  37.011  1.00  0.00     0.064 A 
ATOM     77  C   UNL A   1      41.742  33.011  37.889  1.00  0.00     0.173 A 
ATOM     78  C   UNL A   1      43.502  34.617  37.568  1.00  0.00     0.173 A 
ATOM     79  F   UNL A   1      40.877  32.104  37.403  1.00  0.00    -0.203 F 
ATOM     80  C   UNL A   1      41.918  33.075  39.271  1.00  0.00     0.198 A 
ATOM     81  C   UNL A   1      43.624  34.728  38.959  1.00  0.00     0.198 A 
ATOM     82  F   UNL A   1      44.363  35.287  36.790  1.00  0.00    -0.203 F 
ATOM     83  F   UNL A   1      41.254  32.224  40.068  1.00  0.00    -0.200 F 
ATOM     84  C   UNL A   1      42.899  33.894  39.801  1.00  0.00     0.200 A 
ATOM     85  F   UNL A   1      44.563  35.529  39.487  1.00  0.00    -0.200 F 
ATOM     86  F   UNL A   1      43.211  33.809  41.103  1.00  0.00    -0.200 F 
ENDBRANCH  52  76
BRANCH  64  87
ATOM     87  C   UNL A   1      43.618  26.602  34.900  1.00  0.00     0.064 A 
ATOM     88  C   UNL A   1      42.495  25.796  35.139  1.00  0.00     0.173 A 
ATOM     89  C   UNL A   1      44.858  25.919  34.806  1.00  0.00     0.173 A 
ATOM     90  F   UNL A   1      41.257  26.308  35.138  1.00  0.00    -0.203 F 
ATOM     91  C   UNL A   1      42.605  24.416  35.315  1.00  0.00     0.198 A 
ATOM     92  C   UNL A   1      44.953  24.535  34.917  1.00  0.00     0.198 A 
ATOM     93  F   UNL A   1      46.006  26.566  34.558  1.00  0.00    -0.203 F 
ATOM     94  F   UNL A   1      41.505  23.696  35.571  1.00  0.00    -0.200 F 
ATOM     95  C   UNL A   1      43.829  23.785  35.185  1.00  0.00     0.200 A 
ATOM     96  F   UNL A   1      46.136  23.931  34.725  1.00  0.00    -0.200 F 
ATOM     97  F   UNL A   1      43.917  22.454  35.296  1.00  0.00    -0.200 F 
ENDBRANCH  64  87
ENDBRANCH  38  39
ENDBRANCH  31  33
ENDBRANCH  30  31
ENDBRANCH  29  30
ENDBRANCH  28  29
ENDBRANCH  27  28
ENDBRANCH  26  27
ENDBRANCH  25  26
ENDBRANCH  24  25
ENDBRANCH   1  24
TORSDOF 24
ENDMDL
