MODEL 1
REMARK VINA RESULT:     -10.4      0.000      0.000
REMARK SMILES O=C(OCCOCCOCCOCCOC(=O)[C@]12COc3ccccc3[C@H]1C[N@H+](CCO)C2)c1ccc(-c2c3nc(c(-c4c(F)c(F)c(F)c(F)c4F)c4ccc([nH]4)c(-c4c(F)c(F)c(F)c(F)c4F)c4nc(c(-c5c(F)c(F)c(F)c(F)c5F)c5ccc2[nH]5)C=C4)C=C3)cc1
REMARK SMILES IDX 10 1 9 2 8 3 7 4 6 5 5 6 4 7 3 8 2 9 1 10 34 11 35 12 96 13
REMARK SMILES IDX 36 14 95 15 37 16 38 17 39 18 89 19 40 20 94 21 88 22 90 23
REMARK SMILES IDX 41 24 93 25 87 26 86 27 42 29 74 30 54 31 73 32 55 33 58 34
REMARK SMILES IDX 72 35 91 36 56 37 57 38 71 40 92 41 59 42 43 43 44 44 52 45
REMARK SMILES IDX 45 46 46 47 50 48 53 49 47 50 48 51 51 52 49 53 75 54 76 55
REMARK SMILES IDX 84 56 77 57 78 58 82 59 85 60 79 61 80 62 83 63 81 64 60 65
REMARK SMILES IDX 61 66 69 67 62 68 63 69 67 70 70 71 64 72 65 73 68 74 66 75
REMARK SMILES IDX 11 76 12 77 13 78 14 79 15 80 16 81 17 82 18 83 19 84 27 85
REMARK SMILES IDX 33 86 20 87 26 88 28 89 29 90 21 91 25 92 22 94 24 95 23 96
REMARK SMILES IDX 30 97 31 98 32 99
REMARK H PARENT 90 28 58 39 29 93 32 100
REMARK Flexibility Score: inf
ROOT
ATOM      1  C   UNL A   1      34.284  22.356  27.238  1.00  0.00     0.188 C 
ENDROOT
BRANCH   1   2
ATOM      2  O   UNL A   1      34.703  22.629  25.906  1.00  0.00    -0.377 OA
BRANCH   2   3
ATOM      3  C   UNL A   1      34.524  21.681  24.863  1.00  0.00     0.188 C 
BRANCH   3   4
ATOM      4  C   UNL A   1      35.461  20.494  24.916  1.00  0.00     0.188 C 
BRANCH   4   5
ATOM      5  O   UNL A   1      36.819  20.871  24.752  1.00  0.00    -0.376 OA
BRANCH   5   6
ATOM      6  C   UNL A   1      37.794  19.870  24.949  1.00  0.00     0.202 C 
BRANCH   6   7
ATOM      7  C   UNL A   1      39.028  20.551  25.528  1.00  0.00     0.261 C 
BRANCH   7   8
ATOM      8  O   UNL A   1      40.060  19.616  25.924  1.00  0.00    -0.460 OA
BRANCH   8   9
ATOM      9  C   UNL A   1      41.401  19.777  26.046  1.00  0.00     0.338 C 
ATOM     10  O   UNL A   1      42.118  18.839  25.691  1.00  0.00    -0.246 OA
BRANCH   9  11
ATOM     11  C   UNL A   1      42.096  21.013  26.559  1.00  0.00     0.060 A 
ATOM     12  C   UNL A   1      42.685  21.846  25.585  1.00  0.00     0.016 A 
ATOM     13  C   UNL A   1      42.233  21.396  27.899  1.00  0.00     0.016 A 
ATOM     14  C   UNL A   1      43.392  23.001  25.937  1.00  0.00     0.010 A 
ATOM     15  C   UNL A   1      42.984  22.523  28.265  1.00  0.00     0.010 A 
ATOM     16  C   UNL A   1      43.538  23.350  27.284  1.00  0.00    -0.014 A 
BRANCH  16  17
ATOM     17  C   UNL A   1      43.985  24.714  27.643  1.00  0.00     0.031 A 
ATOM     18  C   UNL A   1      45.416  25.138  27.613  1.00  0.00     0.074 A 
ATOM     19  C   UNL A   1      43.016  25.569  28.024  1.00  0.00     0.049 A 
ATOM     20  N   UNL A   1      45.914  26.338  27.773  1.00  0.00    -0.248 NA
ATOM     21  C   UNL A   1      46.421  24.089  27.397  1.00  0.00     0.031 C 
ATOM     22  C   UNL A   1      41.600  25.211  28.141  1.00  0.00     0.029 A 
ATOM     23  N   UNL A   1      43.058  26.891  28.373  1.00  0.00    -0.354 N 
ATOM     24  C   UNL A   1      47.288  26.202  27.646  1.00  0.00     0.074 A 
ATOM     25  C   UNL A   1      47.551  24.789  27.455  1.00  0.00     0.031 C 
ATOM     26  C   UNL A   1      40.903  26.293  28.506  1.00  0.00     0.029 A 
ATOM     27  C   UNL A   1      41.821  27.416  28.655  1.00  0.00     0.049 A 
ATOM     28  H   UNL A   1      43.891  27.413  28.417  1.00  0.00     0.167 HD
ATOM     29  C   UNL A   1      48.228  27.180  27.672  1.00  0.00     0.037 A 
ATOM     30  C   UNL A   1      41.460  28.670  28.975  1.00  0.00     0.037 A 
ATOM     31  C   UNL A   1      47.925  28.576  27.894  1.00  0.00     0.049 A 
ATOM     32  C   UNL A   1      42.518  29.731  29.008  1.00  0.00     0.074 A 
ATOM     33  C   UNL A   1      48.783  29.661  27.870  1.00  0.00     0.029 A 
ATOM     34  N   UNL A   1      46.665  29.074  28.205  1.00  0.00    -0.354 N 
ATOM     35  N   UNL A   1      43.799  29.618  28.754  1.00  0.00    -0.248 NA
ATOM     36  C   UNL A   1      42.088  31.088  29.361  1.00  0.00     0.031 C 
ATOM     37  C   UNL A   1      48.058  30.801  28.230  1.00  0.00     0.029 A 
ATOM     38  C   UNL A   1      46.733  30.441  28.424  1.00  0.00     0.049 A 
ATOM     39  H   UNL A   1      45.843  28.534  28.261  1.00  0.00     0.167 HD
ATOM     40  C   UNL A   1      44.332  30.886  28.912  1.00  0.00     0.074 A 
ATOM     41  C   UNL A   1      43.227  31.761  29.258  1.00  0.00     0.031 C 
ATOM     42  C   UNL A   1      45.621  31.287  28.790  1.00  0.00     0.037 A 
BRANCH  29  43
ATOM     43  C   UNL A   1      49.663  26.793  27.446  1.00  0.00     0.064 A 
ATOM     44  C   UNL A   1      50.531  26.531  28.518  1.00  0.00     0.173 A 
ATOM     45  C   UNL A   1      50.162  26.598  26.147  1.00  0.00     0.173 A 
ATOM     46  F   UNL A   1      50.108  26.692  29.782  1.00  0.00    -0.203 F 
ATOM     47  C   UNL A   1      51.845  26.121  28.302  1.00  0.00     0.198 A 
ATOM     48  C   UNL A   1      51.468  26.159  25.934  1.00  0.00     0.198 A 
ATOM     49  F   UNL A   1      49.378  26.816  25.081  1.00  0.00    -0.203 F 
ATOM     50  F   UNL A   1      52.662  25.918  29.345  1.00  0.00    -0.200 F 
ATOM     51  C   UNL A   1      52.310  25.927  27.011  1.00  0.00     0.200 A 
ATOM     52  F   UNL A   1      51.910  25.953  24.686  1.00  0.00    -0.200 F 
ATOM     53  F   UNL A   1      53.570  25.521  26.805  1.00  0.00    -0.200 F 
ENDBRANCH  29  43
BRANCH  30  54
ATOM     54  C   UNL A   1      40.023  28.963  29.203  1.00  0.00     0.064 A 
ATOM     55  C   UNL A   1      39.191  29.333  28.138  1.00  0.00     0.173 A 
ATOM     56  C   UNL A   1      39.429  28.761  30.458  1.00  0.00     0.173 A 
ATOM     57  F   UNL A   1      39.715  29.541  26.921  1.00  0.00    -0.203 F 
ATOM     58  C   UNL A   1      37.818  29.482  28.318  1.00  0.00     0.198 A 
ATOM     59  C   UNL A   1      38.052  28.884  30.631  1.00  0.00     0.198 A 
ATOM     60  F   UNL A   1      40.180  28.385  31.505  1.00  0.00    -0.203 F 
ATOM     61  F   UNL A   1      37.045  29.842  27.285  1.00  0.00    -0.200 F 
ATOM     62  C   UNL A   1      37.248  29.245  29.560  1.00  0.00     0.200 A 
ATOM     63  F   UNL A   1      37.503  28.627  31.825  1.00  0.00    -0.200 F 
ATOM     64  F   UNL A   1      35.923  29.355  29.724  1.00  0.00    -0.200 F 
ENDBRANCH  30  54
BRANCH  42  65
ATOM     65  C   UNL A   1      45.920  32.731  29.072  1.00  0.00     0.064 A 
ATOM     66  C   UNL A   1      45.876  33.690  28.050  1.00  0.00     0.173 A 
ATOM     67  C   UNL A   1      46.156  33.172  30.383  1.00  0.00     0.173 A 
ATOM     68  F   UNL A   1      45.672  33.313  26.779  1.00  0.00    -0.203 F 
ATOM     69  C   UNL A   1      46.058  35.040  28.330  1.00  0.00     0.198 A 
ATOM     70  C   UNL A   1      46.309  34.528  30.662  1.00  0.00     0.198 A 
ATOM     71  F   UNL A   1      46.203  32.294  31.395  1.00  0.00    -0.203 F 
ATOM     72  F   UNL A   1      46.036  35.937  27.334  1.00  0.00    -0.200 F 
ATOM     73  C   UNL A   1      46.260  35.460  29.636  1.00  0.00     0.200 A 
ATOM     74  F   UNL A   1      46.487  34.933  31.927  1.00  0.00    -0.200 F 
ATOM     75  F   UNL A   1      46.408  36.763  29.907  1.00  0.00    -0.200 F 
ENDBRANCH  42  65
ENDBRANCH  16  17
ENDBRANCH   9  11
ENDBRANCH   8   9
ENDBRANCH   7   8
ENDBRANCH   6   7
ENDBRANCH   5   6
ENDBRANCH   4   5
ENDBRANCH   3   4
ENDBRANCH   2   3
ENDBRANCH   1   2
BRANCH   1  76
ATOM     76  C   UNL A   1      32.827  22.692  27.530  1.00  0.00     0.188 C 
BRANCH  76  77
ATOM     77  O   UNL A   1      32.393  23.638  26.570  1.00  0.00    -0.376 OA
BRANCH  77  78
ATOM     78  C   UNL A   1      31.130  23.387  25.963  1.00  0.00     0.202 C 
BRANCH  78  79
ATOM     79  C   UNL A   1      30.611  24.177  24.712  1.00  0.00     0.261 C 
BRANCH  79  80
ATOM     80  O   UNL A   1      31.253  25.435  24.441  1.00  0.00    -0.463 OA
BRANCH  80  81
ATOM     81  C   UNL A   1      31.367  25.906  23.157  1.00  0.00     0.322 C 
ATOM     82  O   UNL A   1      31.440  25.185  22.167  1.00  0.00    -0.251 OA
BRANCH  81  83
ATOM     83  C   UNL A   1      31.421  27.443  23.156  1.00  0.00     0.162 C 
ATOM     84  C   UNL A   1      32.867  27.857  22.877  1.00  0.00     0.255 C 
ATOM     85  C   UNL A   1      30.918  28.210  24.391  1.00  0.00     0.105 C 
ATOM     86  C   UNL A   1      30.394  27.913  22.108  1.00  0.00     0.285 C 
ATOM     87  O   UNL A   1      33.746  27.712  24.003  1.00  0.00    -0.492 OA
ATOM     88  C   UNL A   1      31.968  28.563  25.405  1.00  0.00     0.004 A 
ATOM     89  C   UNL A   1      30.404  29.549  23.805  1.00  0.00     0.272 C 
ATOM     90  N   UNL A   1      29.992  29.264  22.452  1.00  0.00    -0.331 N 
ATOM     91  C   UNL A   1      33.315  28.327  25.142  1.00  0.00     0.123 A 
ATOM     92  C   UNL A   1      31.612  29.247  26.580  1.00  0.00     0.008 A 
ATOM     93  H   UNL A   1      30.506  29.908  21.851  1.00  0.00     0.348 HD
ATOM     94  C   UNL A   1      34.291  28.722  26.056  1.00  0.00     0.047 A 
ATOM     95  C   UNL A   1      32.590  29.680  27.474  1.00  0.00     0.001 A 
ATOM     96  C   UNL A   1      33.931  29.408  27.217  1.00  0.00     0.004 A 
BRANCH  90  97
ATOM     97  C   UNL A   1      28.678  29.712  22.008  1.00  0.00     0.290 C 
BRANCH  97  98
ATOM     98  C   UNL A   1      27.531  29.724  23.032  1.00  0.00     0.217 C 
BRANCH  98  99
ATOM     99  O   UNL A   1      26.767  28.525  23.007  1.00  0.00    -0.391 OA
ATOM    100  H   UNL A   1      27.337  27.774  23.231  1.00  0.00     0.210 HD
ENDBRANCH  98  99
ENDBRANCH  97  98
ENDBRANCH  90  97
ENDBRANCH  81  83
ENDBRANCH  80  81
ENDBRANCH  79  80
ENDBRANCH  78  79
ENDBRANCH  77  78
ENDBRANCH  76  77
ENDBRANCH   1  76
TORSDOF 23
ENDMDL
MODEL 2
REMARK VINA RESULT:      -9.3      7.277     12.501
REMARK SMILES O=C(OCCOCCOCCOCCOC(=O)[C@]12COc3ccccc3[C@H]1C[N@H+](CCO)C2)c1ccc(-c2c3nc(c(-c4c(F)c(F)c(F)c(F)c4F)c4ccc([nH]4)c(-c4c(F)c(F)c(F)c(F)c4F)c4nc(c(-c5c(F)c(F)c(F)c(F)c5F)c5ccc2[nH]5)C=C4)C=C3)cc1
REMARK SMILES IDX 10 1 9 2 8 3 7 4 6 5 5 6 4 7 3 8 2 9 1 10 34 11 35 12 96 13
REMARK SMILES IDX 36 14 95 15 37 16 38 17 39 18 89 19 40 20 94 21 88 22 90 23
REMARK SMILES IDX 41 24 93 25 87 26 86 27 42 29 74 30 54 31 73 32 55 33 58 34
REMARK SMILES IDX 72 35 91 36 56 37 57 38 71 40 92 41 59 42 43 43 44 44 52 45
REMARK SMILES IDX 45 46 46 47 50 48 53 49 47 50 48 51 51 52 49 53 75 54 76 55
REMARK SMILES IDX 84 56 77 57 78 58 82 59 85 60 79 61 80 62 83 63 81 64 60 65
REMARK SMILES IDX 61 66 69 67 62 68 63 69 67 70 70 71 64 72 65 73 68 74 66 75
REMARK SMILES IDX 11 76 12 77 13 78 14 79 15 80 16 81 17 82 18 83 19 84 27 85
REMARK SMILES IDX 33 86 20 87 26 88 28 89 29 90 21 91 25 92 22 94 24 95 23 96
REMARK SMILES IDX 30 97 31 98 32 99
REMARK H PARENT 90 28 58 39 29 93 32 100
REMARK Flexibility Score: inf
ROOT
ATOM      1  C   UNL A   1      35.254  32.698  32.878  1.00  0.00     0.188 C 
ENDROOT
BRANCH   1   2
ATOM      2  O   UNL A   1      34.968  34.082  33.044  1.00  0.00    -0.377 OA
BRANCH   2   3
ATOM      3  C   UNL A   1      34.382  34.848  32.001  1.00  0.00     0.188 C 
BRANCH   3   4
ATOM      4  C   UNL A   1      34.427  34.199  30.634  1.00  0.00     0.188 C 
BRANCH   4   5
ATOM      5  O   UNL A   1      33.301  34.538  29.839  1.00  0.00    -0.376 OA
BRANCH   5   6
ATOM      6  C   UNL A   1      33.338  34.169  28.477  1.00  0.00     0.202 C 
BRANCH   6   7
ATOM      7  C   UNL A   1      34.373  33.060  28.340  1.00  0.00     0.261 C 
BRANCH   7   8
ATOM      8  O   UNL A   1      33.859  31.881  27.674  1.00  0.00    -0.460 OA
BRANCH   8   9
ATOM      9  C   UNL A   1      34.324  30.608  27.645  1.00  0.00     0.338 C 
ATOM     10  O   UNL A   1      33.608  29.757  27.113  1.00  0.00    -0.246 OA
BRANCH   9  11
ATOM     11  C   UNL A   1      35.652  30.142  28.187  1.00  0.00     0.060 A 
ATOM     12  C   UNL A   1      36.731  30.143  27.280  1.00  0.00     0.016 A 
ATOM     13  C   UNL A   1      35.907  29.688  29.488  1.00  0.00     0.016 A 
ATOM     14  C   UNL A   1      38.004  29.698  27.652  1.00  0.00     0.010 A 
ATOM     15  C   UNL A   1      37.166  29.191  29.855  1.00  0.00     0.010 A 
ATOM     16  C   UNL A   1      38.230  29.225  28.949  1.00  0.00    -0.014 A 
BRANCH  16  17
ATOM     17  C   UNL A   1      39.616  29.069  29.441  1.00  0.00     0.031 A 
ATOM     18  C   UNL A   1      40.262  30.035  30.379  1.00  0.00     0.074 A 
ATOM     19  C   UNL A   1      40.288  27.999  28.975  1.00  0.00     0.049 A 
ATOM     20  N   UNL A   1      41.418  29.932  30.985  1.00  0.00    -0.248 NA
ATOM     21  C   UNL A   1      39.538  31.280  30.663  1.00  0.00     0.031 C 
ATOM     22  C   UNL A   1      39.747  27.044  28.004  1.00  0.00     0.029 A 
ATOM     23  N   UNL A   1      41.544  27.527  29.245  1.00  0.00    -0.354 N 
ATOM     24  C   UNL A   1      41.552  31.082  31.749  1.00  0.00     0.074 A 
ATOM     25  C   UNL A   1      40.384  31.897  31.484  1.00  0.00     0.031 C 
ATOM     26  C   UNL A   1      40.653  26.084  27.782  1.00  0.00     0.029 A 
ATOM     27  C   UNL A   1      41.837  26.359  28.586  1.00  0.00     0.049 A 
ATOM     28  H   UNL A   1      42.173  27.980  29.852  1.00  0.00     0.167 HD
ATOM     29  C   UNL A   1      42.558  31.401  32.602  1.00  0.00     0.037 A 
ATOM     30  C   UNL A   1      42.931  25.579  28.640  1.00  0.00     0.037 A 
ATOM     31  C   UNL A   1      43.721  30.571  32.816  1.00  0.00     0.049 A 
ATOM     32  C   UNL A   1      44.032  25.961  29.582  1.00  0.00     0.074 A 
ATOM     33  C   UNL A   1      44.765  30.757  33.706  1.00  0.00     0.029 A 
ATOM     34  N   UNL A   1      44.004  29.406  32.113  1.00  0.00    -0.354 N 
ATOM     35  N   UNL A   1      44.091  26.981  30.403  1.00  0.00    -0.248 NA
ATOM     36  C   UNL A   1      45.210  25.087  29.616  1.00  0.00     0.031 C 
ATOM     37  C   UNL A   1      45.707  29.746  33.495  1.00  0.00     0.029 A 
ATOM     38  C   UNL A   1      45.228  28.892  32.512  1.00  0.00     0.049 A 
ATOM     39  H   UNL A   1      43.419  29.004  31.429  1.00  0.00     0.167 HD
ATOM     40  C   UNL A   1      45.309  26.875  31.055  1.00  0.00     0.074 A 
ATOM     41  C   UNL A   1      45.945  25.672  30.552  1.00  0.00     0.031 C 
ATOM     42  C   UNL A   1      45.852  27.704  31.979  1.00  0.00     0.037 A 
BRANCH  29  43
ATOM     43  C   UNL A   1      42.450  32.686  33.377  1.00  0.00     0.064 A 
ATOM     44  C   UNL A   1      42.931  33.898  32.857  1.00  0.00     0.173 A 
ATOM     45  C   UNL A   1      41.788  32.729  34.614  1.00  0.00     0.173 A 
ATOM     46  F   UNL A   1      43.566  33.921  31.674  1.00  0.00    -0.203 F 
ATOM     47  C   UNL A   1      42.781  35.094  33.556  1.00  0.00     0.198 A 
ATOM     48  C   UNL A   1      41.613  33.932  35.298  1.00  0.00     0.198 A 
ATOM     49  F   UNL A   1      41.292  31.607  35.157  1.00  0.00    -0.203 F 
ATOM     50  F   UNL A   1      43.286  36.230  33.054  1.00  0.00    -0.200 F 
ATOM     51  C   UNL A   1      42.115  35.112  34.772  1.00  0.00     0.200 A 
ATOM     52  F   UNL A   1      40.952  33.950  36.464  1.00  0.00    -0.200 F 
ATOM     53  F   UNL A   1      41.961  36.265  35.437  1.00  0.00    -0.200 F 
ENDBRANCH  29  43
BRANCH  30  54
ATOM     54  C   UNL A   1      42.963  24.338  27.828  1.00  0.00     0.064 A 
ATOM     55  C   UNL A   1      42.541  23.118  28.369  1.00  0.00     0.173 A 
ATOM     56  C   UNL A   1      43.298  24.370  26.465  1.00  0.00     0.173 A 
ATOM     57  F   UNL A   1      42.214  23.039  29.667  1.00  0.00    -0.203 F 
ATOM     58  C   UNL A   1      42.444  21.976  27.577  1.00  0.00     0.198 A 
ATOM     59  C   UNL A   1      43.176  23.233  25.668  1.00  0.00     0.198 A 
ATOM     60  F   UNL A   1      43.688  25.520  25.895  1.00  0.00    -0.203 F 
ATOM     61  F   UNL A   1      42.043  20.819  28.120  1.00  0.00    -0.200 F 
ATOM     62  C   UNL A   1      42.749  22.038  26.225  1.00  0.00     0.200 A 
ATOM     63  F   UNL A   1      43.444  23.305  24.357  1.00  0.00    -0.200 F 
ATOM     64  F   UNL A   1      42.623  20.947  25.457  1.00  0.00    -0.200 F 
ENDBRANCH  30  54
BRANCH  42  65
ATOM     65  C   UNL A   1      47.225  27.364  32.482  1.00  0.00     0.064 A 
ATOM     66  C   UNL A   1      47.401  26.501  33.574  1.00  0.00     0.173 A 
ATOM     67  C   UNL A   1      48.369  27.824  31.814  1.00  0.00     0.173 A 
ATOM     68  F   UNL A   1      46.337  26.050  34.256  1.00  0.00    -0.203 F 
ATOM     69  C   UNL A   1      48.673  26.111  33.978  1.00  0.00     0.198 A 
ATOM     70  C   UNL A   1      49.639  27.408  32.204  1.00  0.00     0.198 A 
ATOM     71  F   UNL A   1      48.253  28.648  30.762  1.00  0.00    -0.203 F 
ATOM     72  F   UNL A   1      48.819  25.304  35.039  1.00  0.00    -0.200 F 
ATOM     73  C   UNL A   1      49.790  26.553  33.285  1.00  0.00     0.200 A 
ATOM     74  F   UNL A   1      50.716  27.823  31.523  1.00  0.00    -0.200 F 
ATOM     75  F   UNL A   1      51.013  26.154  33.659  1.00  0.00    -0.200 F 
ENDBRANCH  42  65
ENDBRANCH  16  17
ENDBRANCH   9  11
ENDBRANCH   8   9
ENDBRANCH   7   8
ENDBRANCH   6   7
ENDBRANCH   5   6
ENDBRANCH   4   5
ENDBRANCH   3   4
ENDBRANCH   2   3
ENDBRANCH   1   2
BRANCH   1  76
ATOM     76  C   UNL A   1      36.635  32.269  33.356  1.00  0.00     0.188 C 
BRANCH  76  77
ATOM     77  O   UNL A   1      36.675  32.413  34.765  1.00  0.00    -0.376 OA
BRANCH  77  78
ATOM     78  C   UNL A   1      37.860  31.955  35.411  1.00  0.00     0.202 C 
BRANCH  78  79
ATOM     79  C   UNL A   1      38.164  32.225  36.925  1.00  0.00     0.261 C 
BRANCH  79  80
ATOM     80  O   UNL A   1      37.033  32.220  37.814  1.00  0.00    -0.463 OA
BRANCH  80  81
ATOM     81  C   UNL A   1      36.969  31.343  38.867  1.00  0.00     0.322 C 
ATOM     82  O   UNL A   1      36.964  30.123  38.744  1.00  0.00    -0.251 OA
BRANCH  81  83
ATOM     83  C   UNL A   1      36.873  32.112  40.196  1.00  0.00     0.162 C 
ATOM     84  C   UNL A   1      38.207  32.829  40.415  1.00  0.00     0.255 C 
ATOM     85  C   UNL A   1      36.509  31.347  41.479  1.00  0.00     0.105 C 
ATOM     86  C   UNL A   1      35.648  33.037  40.076  1.00  0.00     0.285 C 
ATOM     87  O   UNL A   1      39.269  31.970  40.856  1.00  0.00    -0.492 OA
ATOM     88  C   UNL A   1      37.674  30.859  42.294  1.00  0.00     0.004 A 
ATOM     89  C   UNL A   1      35.779  32.406  42.342  1.00  0.00     0.272 C 
ATOM     90  N   UNL A   1      35.179  33.335  41.416  1.00  0.00    -0.331 N 
ATOM     91  C   UNL A   1      38.974  31.224  41.959  1.00  0.00     0.123 A 
ATOM     92  C   UNL A   1      37.451  30.131  43.476  1.00  0.00     0.008 A 
ATOM     93  H   UNL A   1      35.522  34.261  41.672  1.00  0.00     0.348 HD
ATOM     94  C   UNL A   1      40.045  30.829  42.760  1.00  0.00     0.047 A 
ATOM     95  C   UNL A   1      38.517  29.773  44.300  1.00  0.00     0.001 A 
ATOM     96  C   UNL A   1      39.817  30.114  43.936  1.00  0.00     0.004 A 
BRANCH  90  97
ATOM     97  C   UNL A   1      33.773  33.681  41.580  1.00  0.00     0.290 C 
BRANCH  97  98
ATOM     98  C   UNL A   1      33.238  33.888  43.007  1.00  0.00     0.217 C 
BRANCH  98  99
ATOM     99  O   UNL A   1      32.512  35.102  43.145  1.00  0.00    -0.391 OA
ATOM    100  H   UNL A   1      32.762  35.711  42.433  1.00  0.00     0.210 HD
ENDBRANCH  98  99
ENDBRANCH  97  98
ENDBRANCH  90  97
ENDBRANCH  81  83
ENDBRANCH  80  81
ENDBRANCH  79  80
ENDBRANCH  78  79
ENDBRANCH  77  78
ENDBRANCH  76  77
ENDBRANCH   1  76
TORSDOF 23
ENDMDL
MODEL 3
REMARK VINA RESULT:      -9.2      4.580      9.736
REMARK SMILES O=C(OCCOCCOCCOCCOC(=O)[C@]12COc3ccccc3[C@H]1C[N@H+](CCO)C2)c1ccc(-c2c3nc(c(-c4c(F)c(F)c(F)c(F)c4F)c4ccc([nH]4)c(-c4c(F)c(F)c(F)c(F)c4F)c4nc(c(-c5c(F)c(F)c(F)c(F)c5F)c5ccc2[nH]5)C=C4)C=C3)cc1
REMARK SMILES IDX 10 1 9 2 8 3 7 4 6 5 5 6 4 7 3 8 2 9 1 10 34 11 35 12 96 13
REMARK SMILES IDX 36 14 95 15 37 16 38 17 39 18 89 19 40 20 94 21 88 22 90 23
REMARK SMILES IDX 41 24 93 25 87 26 86 27 42 29 74 30 54 31 73 32 55 33 58 34
REMARK SMILES IDX 72 35 91 36 56 37 57 38 71 40 92 41 59 42 43 43 44 44 52 45
REMARK SMILES IDX 45 46 46 47 50 48 53 49 47 50 48 51 51 52 49 53 75 54 76 55
REMARK SMILES IDX 84 56 77 57 78 58 82 59 85 60 79 61 80 62 83 63 81 64 60 65
REMARK SMILES IDX 61 66 69 67 62 68 63 69 67 70 70 71 64 72 65 73 68 74 66 75
REMARK SMILES IDX 11 76 12 77 13 78 14 79 15 80 16 81 17 82 18 83 19 84 27 85
REMARK SMILES IDX 33 86 20 87 26 88 28 89 29 90 21 91 25 92 22 94 24 95 23 96
REMARK SMILES IDX 30 97 31 98 32 99
REMARK H PARENT 90 28 58 39 29 93 32 100
REMARK Flexibility Score: inf
ROOT
ATOM      1  C   UNL A   1      41.104  21.049  26.367  1.00  0.00     0.188 C 
ENDROOT
BRANCH   1   2
ATOM      2  O   UNL A   1      41.964  21.613  25.385  1.00  0.00    -0.377 OA
BRANCH   2   3
ATOM      3  C   UNL A   1      42.741  22.771  25.657  1.00  0.00     0.188 C 
BRANCH   3   4
ATOM      4  C   UNL A   1      43.820  23.066  24.638  1.00  0.00     0.188 C 
BRANCH   4   5
ATOM      5  O   UNL A   1      45.064  22.477  24.984  1.00  0.00    -0.376 OA
BRANCH   5   6
ATOM      6  C   UNL A   1      45.993  23.289  25.670  1.00  0.00     0.202 C 
BRANCH   6   7
ATOM      7  C   UNL A   1      45.684  24.736  25.304  1.00  0.00     0.261 C 
BRANCH   7   8
ATOM      8  O   UNL A   1      46.819  25.619  25.468  1.00  0.00    -0.460 OA
BRANCH   8   9
ATOM      9  C   UNL A   1      46.885  26.910  25.875  1.00  0.00     0.338 C 
ATOM     10  O   UNL A   1      47.830  27.586  25.464  1.00  0.00    -0.246 OA
BRANCH   9  11
ATOM     11  C   UNL A   1      45.890  27.602  26.774  1.00  0.00     0.060 A 
ATOM     12  C   UNL A   1      45.263  26.796  27.746  1.00  0.00     0.016 A 
ATOM     13  C   UNL A   1      45.515  28.950  26.718  1.00  0.00     0.016 A 
ATOM     14  C   UNL A   1      44.294  27.312  28.614  1.00  0.00     0.010 A 
ATOM     15  C   UNL A   1      44.507  29.463  27.548  1.00  0.00     0.010 A 
ATOM     16  C   UNL A   1      43.916  28.656  28.523  1.00  0.00    -0.014 A 
BRANCH  16  17
ATOM     17  C   UNL A   1      43.155  29.279  29.628  1.00  0.00     0.031 A 
ATOM     18  C   UNL A   1      41.729  29.701  29.500  1.00  0.00     0.074 A 
ATOM     19  C   UNL A   1      43.834  29.468  30.776  1.00  0.00     0.049 A 
ATOM     20  N   UNL A   1      40.919  30.130  30.435  1.00  0.00    -0.248 NA
ATOM     21  C   UNL A   1      41.135  29.657  28.158  1.00  0.00     0.031 C 
ATOM     22  C   UNL A   1      45.251  29.142  30.959  1.00  0.00     0.029 A 
ATOM     23  N   UNL A   1      43.445  29.964  31.990  1.00  0.00    -0.354 N 
ATOM     24  C   UNL A   1      39.708  30.379  29.806  1.00  0.00     0.074 A 
ATOM     25  C   UNL A   1      39.907  30.109  28.397  1.00  0.00     0.031 C 
ATOM     26  C   UNL A   1      45.605  29.418  32.220  1.00  0.00     0.029 A 
ATOM     27  C   UNL A   1      44.446  29.946  32.929  1.00  0.00     0.049 A 
ATOM     28  H   UNL A   1      42.537  30.300  32.172  1.00  0.00     0.167 HD
ATOM     29  C   UNL A   1      38.543  30.779  30.375  1.00  0.00     0.037 A 
ATOM     30  C   UNL A   1      44.429  30.293  34.228  1.00  0.00     0.037 A 
ATOM     31  C   UNL A   1      38.394  31.065  31.783  1.00  0.00     0.049 A 
ATOM     32  C   UNL A   1      43.131  30.743  34.828  1.00  0.00     0.074 A 
ATOM     33  C   UNL A   1      37.249  31.407  32.481  1.00  0.00     0.029 A 
ATOM     34  N   UNL A   1      39.434  31.065  32.706  1.00  0.00    -0.354 N 
ATOM     35  N   UNL A   1      41.956  30.847  34.256  1.00  0.00    -0.248 NA
ATOM     36  C   UNL A   1      43.150  31.114  36.247  1.00  0.00     0.031 C 
ATOM     37  C   UNL A   1      37.606  31.678  33.805  1.00  0.00     0.029 A 
ATOM     38  C   UNL A   1      38.966  31.450  33.953  1.00  0.00     0.049 A 
ATOM     39  H   UNL A   1      40.368  30.826  32.503  1.00  0.00     0.167 HD
ATOM     40  C   UNL A   1      41.091  31.293  35.242  1.00  0.00     0.074 A 
ATOM     41  C   UNL A   1      41.874  31.412  36.458  1.00  0.00     0.031 C 
ATOM     42  C   UNL A   1      39.771  31.584  35.144  1.00  0.00     0.037 A 
BRANCH  29  43
ATOM     43  C   UNL A   1      37.334  30.922  29.490  1.00  0.00     0.064 A 
ATOM     44  C   UNL A   1      36.965  32.162  28.947  1.00  0.00     0.173 A 
ATOM     45  C   UNL A   1      36.581  29.799  29.111  1.00  0.00     0.173 A 
ATOM     46  F   UNL A   1      37.652  33.270  29.266  1.00  0.00    -0.203 F 
ATOM     47  C   UNL A   1      35.875  32.279  28.086  1.00  0.00     0.198 A 
ATOM     48  C   UNL A   1      35.510  29.913  28.226  1.00  0.00     0.198 A 
ATOM     49  F   UNL A   1      36.893  28.582  29.584  1.00  0.00    -0.203 F 
ATOM     50  F   UNL A   1      35.522  33.483  27.615  1.00  0.00    -0.200 F 
ATOM     51  C   UNL A   1      35.154  31.153  27.720  1.00  0.00     0.200 A 
ATOM     52  F   UNL A   1      34.825  28.821  27.858  1.00  0.00    -0.200 F 
ATOM     53  F   UNL A   1      34.114  31.266  26.882  1.00  0.00    -0.200 F 
ENDBRANCH  29  43
BRANCH  30  54
ATOM     54  C   UNL A   1      45.671  30.141  35.023  1.00  0.00     0.064 A 
ATOM     55  C   UNL A   1      46.568  31.208  35.161  1.00  0.00     0.173 A 
ATOM     56  C   UNL A   1      45.926  28.972  35.758  1.00  0.00     0.173 A 
ATOM     57  F   UNL A   1      46.367  32.343  34.476  1.00  0.00    -0.203 F 
ATOM     58  C   UNL A   1      47.668  31.116  36.011  1.00  0.00     0.198 A 
ATOM     59  C   UNL A   1      47.012  28.891  36.627  1.00  0.00     0.198 A 
ATOM     60  F   UNL A   1      45.085  27.930  35.675  1.00  0.00    -0.203 F 
ATOM     61  F   UNL A   1      48.514  32.149  36.121  1.00  0.00    -0.200 F 
ATOM     62  C   UNL A   1      47.882  29.963  36.752  1.00  0.00     0.200 A 
ATOM     63  F   UNL A   1      47.198  27.787  37.362  1.00  0.00    -0.200 F 
ATOM     64  F   UNL A   1      48.921  29.889  37.595  1.00  0.00    -0.200 F 
ENDBRANCH  30  54
BRANCH  42  65
ATOM     65  C   UNL A   1      39.091  32.101  36.378  1.00  0.00     0.064 A 
ATOM     66  C   UNL A   1      39.213  33.445  36.761  1.00  0.00     0.173 A 
ATOM     67  C   UNL A   1      38.238  31.277  37.127  1.00  0.00     0.173 A 
ATOM     68  F   UNL A   1      40.031  34.267  36.087  1.00  0.00    -0.203 F 
ATOM     69  C   UNL A   1      38.506  33.945  37.850  1.00  0.00     0.198 A 
ATOM     70  C   UNL A   1      37.510  31.788  38.198  1.00  0.00     0.198 A 
ATOM     71  F   UNL A   1      38.085  29.985  36.799  1.00  0.00    -0.203 F 
ATOM     72  F   UNL A   1      38.657  35.226  38.212  1.00  0.00    -0.200 F 
ATOM     73  C   UNL A   1      37.645  33.121  38.558  1.00  0.00     0.200 A 
ATOM     74  F   UNL A   1      36.665  30.994  38.872  1.00  0.00    -0.200 F 
ATOM     75  F   UNL A   1      36.943  33.611  39.589  1.00  0.00    -0.200 F 
ENDBRANCH  42  65
ENDBRANCH  16  17
ENDBRANCH   9  11
ENDBRANCH   8   9
ENDBRANCH   7   8
ENDBRANCH   6   7
ENDBRANCH   5   6
ENDBRANCH   4   5
ENDBRANCH   3   4
ENDBRANCH   2   3
ENDBRANCH   1   2
BRANCH   1  76
ATOM     76  C   UNL A   1      39.803  21.810  26.591  1.00  0.00     0.188 C 
BRANCH  76  77
ATOM     77  O   UNL A   1      38.797  21.202  25.801  1.00  0.00    -0.376 OA
BRANCH  77  78
ATOM     78  C   UNL A   1      37.672  22.015  25.477  1.00  0.00     0.202 C 
BRANCH  78  79
ATOM     79  C   UNL A   1      36.477  21.507  24.600  1.00  0.00     0.261 C 
BRANCH  79  80
ATOM     80  O   UNL A   1      35.282  22.307  24.628  1.00  0.00    -0.463 OA
BRANCH  80  81
ATOM     81  C   UNL A   1      34.999  23.186  23.612  1.00  0.00     0.322 C 
ATOM     82  O   UNL A   1      35.750  23.408  22.668  1.00  0.00    -0.251 OA
BRANCH  81  83
ATOM     83  C   UNL A   1      33.638  23.860  23.855  1.00  0.00     0.162 C 
ATOM     84  C   UNL A   1      33.073  24.271  22.493  1.00  0.00     0.255 C 
ATOM     85  C   UNL A   1      33.559  25.068  24.804  1.00  0.00     0.105 C 
ATOM     86  C   UNL A   1      32.783  22.846  24.636  1.00  0.00     0.285 C 
ATOM     87  O   UNL A   1      33.684  25.443  21.934  1.00  0.00    -0.492 OA
ATOM     88  C   UNL A   1      33.672  26.415  24.149  1.00  0.00     0.004 A 
ATOM     89  C   UNL A   1      32.128  24.980  25.390  1.00  0.00     0.272 C 
ATOM     90  N   UNL A   1      31.769  23.583  25.366  1.00  0.00    -0.331 N 
ATOM     91  C   UNL A   1      33.693  26.528  22.761  1.00  0.00     0.123 A 
ATOM     92  C   UNL A   1      33.632  27.584  24.928  1.00  0.00     0.008 A 
ATOM     93  H   UNL A   1      30.895  23.518  24.843  1.00  0.00     0.348 HD
ATOM     94  C   UNL A   1      33.724  27.784  22.157  1.00  0.00     0.047 A 
ATOM     95  C   UNL A   1      33.619  28.840  24.324  1.00  0.00     0.001 A 
ATOM     96  C   UNL A   1      33.676  28.941  22.937  1.00  0.00     0.004 A 
BRANCH  90  97
ATOM     97  C   UNL A   1      31.228  22.976  26.575  1.00  0.00     0.290 C 
BRANCH  97  98
ATOM     98  C   UNL A   1      29.743  23.205  26.902  1.00  0.00     0.217 C 
BRANCH  98  99
ATOM     99  O   UNL A   1      29.300  22.417  27.999  1.00  0.00    -0.391 OA
ATOM    100  H   UNL A   1      29.900  22.543  28.750  1.00  0.00     0.210 HD
ENDBRANCH  98  99
ENDBRANCH  97  98
ENDBRANCH  90  97
ENDBRANCH  81  83
ENDBRANCH  80  81
ENDBRANCH  79  80
ENDBRANCH  78  79
ENDBRANCH  77  78
ENDBRANCH  76  77
ENDBRANCH   1  76
TORSDOF 23
ENDMDL
