MODEL 1
REMARK VINA RESULT:      -9.6      0.000      0.000
REMARK SMILES CCn1c(=O)n(CC)c2cc(C(=O)OCCOCCOCCOCCOC(=O)c3ccc(-c4c5nc(c(-c6c(F)c(F)c(F)c(F)c6F)c6ccc([nH]6)c(-c6c(F)c(F)c(F)c(F)c6F)c6nc(c(-c7c(F)c(F)c(F)c(F)c7F)c7ccc4[nH]7)C=C6)C=C5)cc3)ccc21
REMARK SMILES IDX 21 1 20 2 19 3 18 4 17 5 16 6 15 7 14 8 12 9 13 10 11 11
REMARK SMILES IDX 3 12 4 13 94 14 5 15 6 16 9 17 93 18 10 19 92 20 2 21 1 22
REMARK SMILES IDX 7 23 8 24 22 25 23 26 24 27 25 28 26 29 27 30 28 31 29 32
REMARK SMILES IDX 30 33 91 34 31 35 90 36 32 37 33 38 34 39 84 40 35 41 89 42
REMARK SMILES IDX 83 43 85 44 36 45 88 46 82 47 81 48 37 50 69 51 49 52 68 53
REMARK SMILES IDX 50 54 53 55 67 56 86 57 51 58 52 59 66 61 87 62 54 63 38 64
REMARK SMILES IDX 39 65 47 66 40 67 41 68 45 69 48 70 42 71 43 72 46 73 44 74
REMARK SMILES IDX 70 75 71 76 79 77 72 78 73 79 77 80 80 81 74 82 75 83 78 84
REMARK SMILES IDX 76 85 55 86 56 87 64 88 57 89 58 90 62 91 65 92 59 93 60 94
REMARK SMILES IDX 63 95 61 96
REMARK H PARENT 85 49 53 60
REMARK Flexibility Score: inf
ROOT
ATOM      1  C   UNL A   1      44.935  18.875  25.144  1.00  0.00     0.188 C 
ENDROOT
BRANCH   1   2
ATOM      2  O   UNL A   1      43.619  18.350  25.087  1.00  0.00    -0.377 OA
BRANCH   2   3
ATOM      3  C   UNL A   1      42.909  18.283  26.304  1.00  0.00     0.188 C 
BRANCH   3   4
ATOM      4  C   UNL A   1      41.742  19.277  26.348  1.00  0.00     0.188 C 
BRANCH   4   5
ATOM      5  O   UNL A   1      41.922  20.405  27.178  1.00  0.00    -0.376 OA
BRANCH   5   6
ATOM      6  C   UNL A   1      41.821  21.745  26.713  1.00  0.00     0.202 C 
BRANCH   6   7
ATOM      7  C   UNL A   1      40.592  22.493  26.149  1.00  0.00     0.261 C 
BRANCH   7   8
ATOM      8  O   UNL A   1      39.304  22.124  26.617  1.00  0.00    -0.460 OA
BRANCH   8   9
ATOM      9  C   UNL A   1      38.255  22.741  26.048  1.00  0.00     0.338 C 
ATOM     10  O   UNL A   1      38.189  23.896  25.670  1.00  0.00    -0.246 OA
BRANCH   9  11
ATOM     11  C   UNL A   1      37.288  21.681  25.694  1.00  0.00     0.062 A 
ATOM     12  N   UNL A   1      34.232  19.081  24.748  1.00  0.00    -0.292 N 
ATOM     13  C   UNL A   1      33.105  19.855  25.113  1.00  0.00     0.329 A 
ATOM     14  C   UNL A   1      35.391  19.842  24.947  1.00  0.00     0.069 A 
ATOM     15  O   UNL A   1      31.932  19.525  25.027  1.00  0.00    -0.248 OA
ATOM     16  N   UNL A   1      33.608  21.094  25.580  1.00  0.00    -0.292 N 
ATOM     17  C   UNL A   1      35.007  21.052  25.527  1.00  0.00     0.070 A 
ATOM     18  C   UNL A   1      36.710  19.556  24.651  1.00  0.00     0.029 A 
ATOM     19  C   UNL A   1      35.941  21.972  25.932  1.00  0.00     0.044 A 
ATOM     20  C   UNL A   1      37.674  20.500  25.022  1.00  0.00     0.018 A 
BRANCH  12  21
ATOM     21  C   UNL A   1      34.185  17.706  24.317  1.00  0.00     0.124 C 
ATOM     22  C   UNL A   1      33.398  17.522  23.025  1.00  0.00     0.028 C 
ENDBRANCH  12  21
BRANCH  16  23
ATOM     23  C   UNL A   1      32.786  22.253  25.847  1.00  0.00     0.124 C 
ATOM     24  C   UNL A   1      31.778  22.608  24.767  1.00  0.00     0.028 C 
ENDBRANCH  16  23
ENDBRANCH   9  11
ENDBRANCH   8   9
ENDBRANCH   7   8
ENDBRANCH   6   7
ENDBRANCH   5   6
ENDBRANCH   4   5
ENDBRANCH   3   4
ENDBRANCH   2   3
ENDBRANCH   1   2
BRANCH   1  25
ATOM     25  C   UNL A   1      45.355  20.030  24.219  1.00  0.00     0.188 C 
BRANCH  25  26
ATOM     26  O   UNL A   1      44.309  20.978  24.009  1.00  0.00    -0.376 OA
BRANCH  26  27
ATOM     27  C   UNL A   1      44.718  22.345  23.931  1.00  0.00     0.202 C 
BRANCH  27  28
ATOM     28  C   UNL A   1      46.001  22.660  24.715  1.00  0.00     0.261 C 
BRANCH  28  29
ATOM     29  O   UNL A   1      46.154  24.065  24.976  1.00  0.00    -0.460 OA
BRANCH  29  30
ATOM     30  C   UNL A   1      46.658  24.422  26.180  1.00  0.00     0.338 C 
ATOM     31  O   UNL A   1      47.719  24.070  26.666  1.00  0.00    -0.246 OA
BRANCH  30  32
ATOM     32  C   UNL A   1      45.878  25.609  26.602  1.00  0.00     0.060 A 
ATOM     33  C   UNL A   1      46.511  26.806  26.962  1.00  0.00     0.016 A 
ATOM     34  C   UNL A   1      44.530  25.391  26.917  1.00  0.00     0.016 A 
ATOM     35  C   UNL A   1      45.820  27.731  27.740  1.00  0.00     0.010 A 
ATOM     36  C   UNL A   1      43.851  26.309  27.712  1.00  0.00     0.010 A 
ATOM     37  C   UNL A   1      44.510  27.456  28.166  1.00  0.00    -0.014 A 
BRANCH  37  38
ATOM     38  C   UNL A   1      43.822  28.464  28.981  1.00  0.00     0.031 A 
ATOM     39  C   UNL A   1      43.590  28.070  30.398  1.00  0.00     0.074 A 
ATOM     40  C   UNL A   1      43.574  29.737  28.607  1.00  0.00     0.049 A 
ATOM     41  N   UNL A   1      42.503  28.132  31.099  1.00  0.00    -0.248 NA
ATOM     42  C   UNL A   1      44.741  27.493  31.111  1.00  0.00     0.031 C 
ATOM     43  C   UNL A   1      44.033  30.407  27.393  1.00  0.00     0.029 A 
ATOM     44  N   UNL A   1      42.955  30.741  29.305  1.00  0.00    -0.354 N 
ATOM     45  C   UNL A   1      42.863  27.731  32.382  1.00  0.00     0.074 A 
ATOM     46  C   UNL A   1      44.222  27.259  32.312  1.00  0.00     0.031 C 
ATOM     47  C   UNL A   1      43.835  31.737  27.517  1.00  0.00     0.029 A 
ATOM     48  C   UNL A   1      43.196  32.009  28.795  1.00  0.00     0.049 A 
ATOM     49  H   UNL A   1      42.389  30.578  30.095  1.00  0.00     0.167 HD
ATOM     50  C   UNL A   1      42.095  27.965  33.479  1.00  0.00     0.037 A 
ATOM     51  C   UNL A   1      42.993  33.202  29.410  1.00  0.00     0.037 A 
ATOM     52  C   UNL A   1      40.723  28.221  33.161  1.00  0.00     0.049 A 
ATOM     53  C   UNL A   1      42.066  32.993  30.550  1.00  0.00     0.074 A 
ATOM     54  C   UNL A   1      39.738  27.506  32.507  1.00  0.00     0.029 A 
ATOM     55  N   UNL A   1      40.234  29.497  33.274  1.00  0.00    -0.354 N 
ATOM     56  N   UNL A   1      40.792  32.745  30.439  1.00  0.00    -0.248 NA
ATOM     57  C   UNL A   1      42.649  32.695  31.850  1.00  0.00     0.031 C 
ATOM     58  C   UNL A   1      38.947  28.483  31.839  1.00  0.00     0.029 A 
ATOM     59  C   UNL A   1      39.498  29.729  32.139  1.00  0.00     0.049 A 
ATOM     60  H   UNL A   1      40.381  30.122  34.020  1.00  0.00     0.167 HD
ATOM     61  C   UNL A   1      40.505  31.893  31.496  1.00  0.00     0.074 A 
ATOM     62  C   UNL A   1      41.655  31.987  32.387  1.00  0.00     0.031 C 
ATOM     63  C   UNL A   1      39.495  30.979  31.418  1.00  0.00     0.037 A 
BRANCH  50  64
ATOM     64  C   UNL A   1      42.685  28.202  34.835  1.00  0.00     0.064 A 
ATOM     65  C   UNL A   1      43.440  29.356  35.096  1.00  0.00     0.173 A 
ATOM     66  C   UNL A   1      42.722  27.195  35.825  1.00  0.00     0.173 A 
ATOM     67  F   UNL A   1      43.517  30.340  34.188  1.00  0.00    -0.203 F 
ATOM     68  C   UNL A   1      44.185  29.490  36.271  1.00  0.00     0.198 A 
ATOM     69  C   UNL A   1      43.419  27.354  37.018  1.00  0.00     0.198 A 
ATOM     70  F   UNL A   1      42.161  25.994  35.621  1.00  0.00    -0.203 F 
ATOM     71  F   UNL A   1      44.961  30.567  36.448  1.00  0.00    -0.200 F 
ATOM     72  C   UNL A   1      44.166  28.494  37.234  1.00  0.00     0.200 A 
ATOM     73  F   UNL A   1      43.410  26.368  37.926  1.00  0.00    -0.200 F 
ATOM     74  F   UNL A   1      44.903  28.610  38.346  1.00  0.00    -0.200 F 
ENDBRANCH  50  64
BRANCH  51  75
ATOM     75  C   UNL A   1      43.744  34.469  29.206  1.00  0.00     0.064 A 
ATOM     76  C   UNL A   1      43.108  35.655  28.805  1.00  0.00     0.173 A 
ATOM     77  C   UNL A   1      45.091  34.597  29.602  1.00  0.00     0.173 A 
ATOM     78  F   UNL A   1      41.806  35.649  28.486  1.00  0.00    -0.203 F 
ATOM     79  C   UNL A   1      43.786  36.881  28.778  1.00  0.00     0.198 A 
ATOM     80  C   UNL A   1      45.774  35.811  29.549  1.00  0.00     0.198 A 
ATOM     81  F   UNL A   1      45.757  33.561  30.133  1.00  0.00    -0.203 F 
ATOM     82  F   UNL A   1      43.131  38.000  28.437  1.00  0.00    -0.200 F 
ATOM     83  C   UNL A   1      45.120  36.956  29.143  1.00  0.00     0.200 A 
ATOM     84  F   UNL A   1      47.054  35.870  29.943  1.00  0.00    -0.200 F 
ATOM     85  F   UNL A   1      45.762  38.132  29.143  1.00  0.00    -0.200 F 
ENDBRANCH  51  75
BRANCH  63  86
ATOM     86  C   UNL A   1      38.501  31.102  30.302  1.00  0.00     0.064 A 
ATOM     87  C   UNL A   1      38.648  30.463  29.059  1.00  0.00     0.173 A 
ATOM     88  C   UNL A   1      37.271  31.723  30.569  1.00  0.00     0.173 A 
ATOM     89  F   UNL A   1      39.751  29.757  28.772  1.00  0.00    -0.203 F 
ATOM     90  C   UNL A   1      37.622  30.476  28.118  1.00  0.00     0.198 A 
ATOM     91  C   UNL A   1      36.234  31.702  29.640  1.00  0.00     0.198 A 
ATOM     92  F   UNL A   1      37.051  32.295  31.765  1.00  0.00    -0.203 F 
ATOM     93  F   UNL A   1      37.784  29.853  26.942  1.00  0.00    -0.200 F 
ATOM     94  C   UNL A   1      36.414  31.085  28.412  1.00  0.00     0.200 A 
ATOM     95  F   UNL A   1      35.048  32.244  29.950  1.00  0.00    -0.200 F 
ATOM     96  F   UNL A   1      35.407  31.044  27.528  1.00  0.00    -0.200 F 
ENDBRANCH  63  86
ENDBRANCH  37  38
ENDBRANCH  30  32
ENDBRANCH  29  30
ENDBRANCH  28  29
ENDBRANCH  27  28
ENDBRANCH  26  27
ENDBRANCH  25  26
ENDBRANCH   1  25
TORSDOF 22
ENDMDL
MODEL 2
REMARK VINA RESULT:      -9.5      1.597      2.429
REMARK SMILES CCn1c(=O)n(CC)c2cc(C(=O)OCCOCCOCCOCCOC(=O)c3ccc(-c4c5nc(c(-c6c(F)c(F)c(F)c(F)c6F)c6ccc([nH]6)c(-c6c(F)c(F)c(F)c(F)c6F)c6nc(c(-c7c(F)c(F)c(F)c(F)c7F)c7ccc4[nH]7)C=C6)C=C5)cc3)ccc21
REMARK SMILES IDX 21 1 20 2 19 3 18 4 17 5 16 6 15 7 14 8 12 9 13 10 11 11
REMARK SMILES IDX 3 12 4 13 94 14 5 15 6 16 9 17 93 18 10 19 92 20 2 21 1 22
REMARK SMILES IDX 7 23 8 24 22 25 23 26 24 27 25 28 26 29 27 30 28 31 29 32
REMARK SMILES IDX 30 33 91 34 31 35 90 36 32 37 33 38 34 39 84 40 35 41 89 42
REMARK SMILES IDX 83 43 85 44 36 45 88 46 82 47 81 48 37 50 69 51 49 52 68 53
REMARK SMILES IDX 50 54 53 55 67 56 86 57 51 58 52 59 66 61 87 62 54 63 38 64
REMARK SMILES IDX 39 65 47 66 40 67 41 68 45 69 48 70 42 71 43 72 46 73 44 74
REMARK SMILES IDX 70 75 71 76 79 77 72 78 73 79 77 80 80 81 74 82 75 83 78 84
REMARK SMILES IDX 76 85 55 86 56 87 64 88 57 89 58 90 62 91 65 92 59 93 60 94
REMARK SMILES IDX 63 95 61 96
REMARK H PARENT 85 49 53 60
REMARK Flexibility Score: inf
ROOT
ATOM      1  C   UNL A   1      44.319  18.857  24.559  1.00  0.00     0.188 C 
ENDROOT
BRANCH   1   2
ATOM      2  O   UNL A   1      43.300  19.385  25.393  1.00  0.00    -0.377 OA
BRANCH   2   3
ATOM      3  C   UNL A   1      42.676  18.484  26.282  1.00  0.00     0.188 C 
BRANCH   3   4
ATOM      4  C   UNL A   1      42.050  19.200  27.484  1.00  0.00     0.188 C 
BRANCH   4   5
ATOM      5  O   UNL A   1      42.194  20.605  27.510  1.00  0.00    -0.376 OA
BRANCH   5   6
ATOM      6  C   UNL A   1      41.099  21.507  27.422  1.00  0.00     0.202 C 
BRANCH   6   7
ATOM      7  C   UNL A   1      40.302  21.959  26.177  1.00  0.00     0.261 C 
BRANCH   7   8
ATOM      8  O   UNL A   1      38.887  21.842  26.203  1.00  0.00    -0.460 OA
BRANCH   8   9
ATOM      9  C   UNL A   1      38.185  22.986  26.142  1.00  0.00     0.338 C 
ATOM     10  O   UNL A   1      38.615  24.123  26.195  1.00  0.00    -0.246 OA
BRANCH   9  11
ATOM     11  C   UNL A   1      36.824  22.617  25.702  1.00  0.00     0.062 A 
ATOM     12  N   UNL A   1      32.898  22.076  24.563  1.00  0.00    -0.292 N 
ATOM     13  C   UNL A   1      32.319  23.278  25.035  1.00  0.00     0.329 A 
ATOM     14  C   UNL A   1      34.277  22.106  24.813  1.00  0.00     0.069 A 
ATOM     15  O   UNL A   1      31.148  23.611  24.944  1.00  0.00    -0.248 OA
ATOM     16  N   UNL A   1      33.373  24.026  25.616  1.00  0.00    -0.292 N 
ATOM     17  C   UNL A   1      34.552  23.275  25.526  1.00  0.00     0.070 A 
ATOM     18  C   UNL A   1      35.270  21.214  24.457  1.00  0.00     0.029 A 
ATOM     19  C   UNL A   1      35.811  23.536  26.003  1.00  0.00     0.044 A 
ATOM     20  C   UNL A   1      36.569  21.482  24.902  1.00  0.00     0.018 A 
BRANCH  12  21
ATOM     21  C   UNL A   1      32.165  20.974  23.992  1.00  0.00     0.124 C 
ATOM     22  C   UNL A   1      32.071  21.056  22.474  1.00  0.00     0.028 C 
ENDBRANCH  12  21
BRANCH  16  23
ATOM     23  C   UNL A   1      33.256  25.408  26.024  1.00  0.00     0.124 C 
ATOM     24  C   UNL A   1      33.295  26.431  24.901  1.00  0.00     0.028 C 
ENDBRANCH  16  23
ENDBRANCH   9  11
ENDBRANCH   8   9
ENDBRANCH   7   8
ENDBRANCH   6   7
ENDBRANCH   5   6
ENDBRANCH   4   5
ENDBRANCH   3   4
ENDBRANCH   2   3
ENDBRANCH   1   2
BRANCH   1  25
ATOM     25  C   UNL A   1      45.281  19.796  23.813  1.00  0.00     0.188 C 
BRANCH  25  26
ATOM     26  O   UNL A   1      46.299  20.331  24.660  1.00  0.00    -0.376 OA
BRANCH  26  27
ATOM     27  C   UNL A   1      46.374  21.757  24.713  1.00  0.00     0.202 C 
BRANCH  27  28
ATOM     28  C   UNL A   1      45.859  22.363  26.028  1.00  0.00     0.261 C 
BRANCH  28  29
ATOM     29  O   UNL A   1      44.431  22.528  26.034  1.00  0.00    -0.460 OA
BRANCH  29  30
ATOM     30  C   UNL A   1      43.884  23.245  25.026  1.00  0.00     0.338 C 
ATOM     31  O   UNL A   1      43.409  22.811  23.991  1.00  0.00    -0.246 OA
BRANCH  30  32
ATOM     32  C   UNL A   1      43.614  24.587  25.592  1.00  0.00     0.060 A 
ATOM     33  C   UNL A   1      44.642  25.521  25.775  1.00  0.00     0.016 A 
ATOM     34  C   UNL A   1      42.369  24.765  26.210  1.00  0.00     0.016 A 
ATOM     35  C   UNL A   1      44.454  26.568  26.673  1.00  0.00     0.010 A 
ATOM     36  C   UNL A   1      42.194  25.802  27.121  1.00  0.00     0.010 A 
ATOM     37  C   UNL A   1      43.252  26.675  27.391  1.00  0.00    -0.014 A 
BRANCH  37  38
ATOM     38  C   UNL A   1      43.100  27.799  28.322  1.00  0.00     0.031 A 
ATOM     39  C   UNL A   1      43.199  27.435  29.763  1.00  0.00     0.074 A 
ATOM     40  C   UNL A   1      43.076  29.104  27.977  1.00  0.00     0.049 A 
ATOM     41  N   UNL A   1      42.411  27.746  30.743  1.00  0.00    -0.248 NA
ATOM     42  C   UNL A   1      44.327  26.570  30.141  1.00  0.00     0.031 C 
ATOM     43  C   UNL A   1      43.315  29.673  26.653  1.00  0.00     0.029 A 
ATOM     44  N   UNL A   1      42.953  30.211  28.777  1.00  0.00    -0.354 N 
ATOM     45  C   UNL A   1      43.016  27.232  31.885  1.00  0.00     0.074 A 
ATOM     46  C   UNL A   1      44.137  26.439  31.450  1.00  0.00     0.031 C 
ATOM     47  C   UNL A   1      43.495  31.006  26.768  1.00  0.00     0.029 A 
ATOM     48  C   UNL A   1      43.342  31.392  28.161  1.00  0.00     0.049 A 
ATOM     49  H   UNL A   1      42.618  30.172  29.702  1.00  0.00     0.167 HD
ATOM     50  C   UNL A   1      42.681  27.619  33.144  1.00  0.00     0.037 A 
ATOM     51  C   UNL A   1      43.626  32.580  28.753  1.00  0.00     0.037 A 
ATOM     52  C   UNL A   1      41.383  28.218  33.223  1.00  0.00     0.049 A 
ATOM     53  C   UNL A   1      43.047  32.576  30.120  1.00  0.00     0.074 A 
ATOM     54  C   UNL A   1      40.107  27.790  32.913  1.00  0.00     0.029 A 
ATOM     55  N   UNL A   1      41.279  29.572  33.413  1.00  0.00    -0.354 N 
ATOM     56  N   UNL A   1      41.775  32.657  30.391  1.00  0.00    -0.248 NA
ATOM     57  C   UNL A   1      43.889  32.106  31.210  1.00  0.00     0.031 C 
ATOM     58  C   UNL A   1      39.423  28.951  32.456  1.00  0.00     0.029 A 
ATOM     59  C   UNL A   1      40.327  30.012  32.528  1.00  0.00     0.049 A 
ATOM     60  H   UNL A   1      41.785  30.119  34.056  1.00  0.00     0.167 HD
ATOM     61  C   UNL A   1      41.606  31.874  31.524  1.00  0.00     0.074 A 
ATOM     62  C   UNL A   1      42.950  31.653  32.042  1.00  0.00     0.031 C 
ATOM     63  C   UNL A   1      40.424  31.243  31.781  1.00  0.00     0.037 A 
BRANCH  50  64
ATOM     64  C   UNL A   1      43.678  27.663  34.261  1.00  0.00     0.064 A 
ATOM     65  C   UNL A   1      43.477  26.915  35.432  1.00  0.00     0.173 A 
ATOM     66  C   UNL A   1      44.719  28.617  34.303  1.00  0.00     0.173 A 
ATOM     67  F   UNL A   1      42.474  26.029  35.510  1.00  0.00    -0.203 F 
ATOM     68  C   UNL A   1      44.266  27.113  36.568  1.00  0.00     0.198 A 
ATOM     69  C   UNL A   1      45.538  28.773  35.416  1.00  0.00     0.198 A 
ATOM     70  F   UNL A   1      44.909  29.487  33.300  1.00  0.00    -0.203 F 
ATOM     71  F   UNL A   1      43.990  26.442  37.695  1.00  0.00    -0.200 F 
ATOM     72  C   UNL A   1      45.301  28.034  36.556  1.00  0.00     0.200 A 
ATOM     73  F   UNL A   1      46.517  29.688  35.394  1.00  0.00    -0.200 F 
ATOM     74  F   UNL A   1      46.037  28.244  37.655  1.00  0.00    -0.200 F 
ENDBRANCH  50  64
BRANCH  51  75
ATOM     75  C   UNL A   1      44.574  33.626  28.285  1.00  0.00     0.064 A 
ATOM     76  C   UNL A   1      44.134  34.874  27.816  1.00  0.00     0.173 A 
ATOM     77  C   UNL A   1      45.965  33.496  28.478  1.00  0.00     0.173 A 
ATOM     78  F   UNL A   1      42.823  35.119  27.676  1.00  0.00    -0.203 F 
ATOM     79  C   UNL A   1      45.031  35.913  27.536  1.00  0.00     0.198 A 
ATOM     80  C   UNL A   1      46.860  34.521  28.173  1.00  0.00     0.198 A 
ATOM     81  F   UNL A   1      46.484  32.401  29.050  1.00  0.00    -0.203 F 
ATOM     82  F   UNL A   1      44.568  37.107  27.138  1.00  0.00    -0.200 F 
ATOM     83  C   UNL A   1      46.393  35.733  27.708  1.00  0.00     0.200 A 
ATOM     84  F   UNL A   1      48.172  34.339  28.383  1.00  0.00    -0.200 F 
ATOM     85  F   UNL A   1      47.250  36.735  27.466  1.00  0.00    -0.200 F 
ENDBRANCH  51  75
BRANCH  63  86
ATOM     86  C   UNL A   1      39.211  31.642  30.993  1.00  0.00     0.064 A 
ATOM     87  C   UNL A   1      38.401  32.742  31.323  1.00  0.00     0.173 A 
ATOM     88  C   UNL A   1      38.981  31.014  29.759  1.00  0.00     0.173 A 
ATOM     89  F   UNL A   1      38.629  33.461  32.431  1.00  0.00    -0.203 F 
ATOM     90  C   UNL A   1      37.385  33.168  30.470  1.00  0.00     0.198 A 
ATOM     91  C   UNL A   1      37.989  31.466  28.893  1.00  0.00     0.198 A 
ATOM     92  F   UNL A   1      39.766  29.998  29.364  1.00  0.00    -0.203 F 
ATOM     93  F   UNL A   1      36.630  34.224  30.803  1.00  0.00    -0.200 F 
ATOM     94  C   UNL A   1      37.187  32.538  29.252  1.00  0.00     0.200 A 
ATOM     95  F   UNL A   1      37.838  30.890  27.693  1.00  0.00    -0.200 F 
ATOM     96  F   UNL A   1      36.250  32.987  28.407  1.00  0.00    -0.200 F 
ENDBRANCH  63  86
ENDBRANCH  37  38
ENDBRANCH  30  32
ENDBRANCH  29  30
ENDBRANCH  28  29
ENDBRANCH  27  28
ENDBRANCH  26  27
ENDBRANCH  25  26
ENDBRANCH   1  25
TORSDOF 22
ENDMDL
MODEL 3
REMARK VINA RESULT:      -9.5      4.133      9.803
REMARK SMILES CCn1c(=O)n(CC)c2cc(C(=O)OCCOCCOCCOCCOC(=O)c3ccc(-c4c5nc(c(-c6c(F)c(F)c(F)c(F)c6F)c6ccc([nH]6)c(-c6c(F)c(F)c(F)c(F)c6F)c6nc(c(-c7c(F)c(F)c(F)c(F)c7F)c7ccc4[nH]7)C=C6)C=C5)cc3)ccc21
REMARK SMILES IDX 21 1 20 2 19 3 18 4 17 5 16 6 15 7 14 8 12 9 13 10 11 11
REMARK SMILES IDX 3 12 4 13 94 14 5 15 6 16 9 17 93 18 10 19 92 20 2 21 1 22
REMARK SMILES IDX 7 23 8 24 22 25 23 26 24 27 25 28 26 29 27 30 28 31 29 32
REMARK SMILES IDX 30 33 91 34 31 35 90 36 32 37 33 38 34 39 84 40 35 41 89 42
REMARK SMILES IDX 83 43 85 44 36 45 88 46 82 47 81 48 37 50 69 51 49 52 68 53
REMARK SMILES IDX 50 54 53 55 67 56 86 57 51 58 52 59 66 61 87 62 54 63 38 64
REMARK SMILES IDX 39 65 47 66 40 67 41 68 45 69 48 70 42 71 43 72 46 73 44 74
REMARK SMILES IDX 70 75 71 76 79 77 72 78 73 79 77 80 80 81 74 82 75 83 78 84
REMARK SMILES IDX 76 85 55 86 56 87 64 88 57 89 58 90 62 91 65 92 59 93 60 94
REMARK SMILES IDX 63 95 61 96
REMARK H PARENT 85 49 53 60
REMARK Flexibility Score: inf
ROOT
ATOM      1  C   UNL A   1      34.044  31.735  27.844  1.00  0.00     0.188 C 
ENDROOT
BRANCH   1   2
ATOM      2  O   UNL A   1      33.974  30.320  27.769  1.00  0.00    -0.377 OA
BRANCH   2   3
ATOM      3  C   UNL A   1      33.324  29.775  26.641  1.00  0.00     0.188 C 
BRANCH   3   4
ATOM      4  C   UNL A   1      31.999  30.485  26.340  1.00  0.00     0.188 C 
BRANCH   4   5
ATOM      5  O   UNL A   1      31.336  30.080  25.160  1.00  0.00    -0.376 OA
BRANCH   5   6
ATOM      6  C   UNL A   1      31.453  28.777  24.604  1.00  0.00     0.202 C 
BRANCH   6   7
ATOM      7  C   UNL A   1      31.476  28.347  23.119  1.00  0.00     0.261 C 
BRANCH   7   8
ATOM      8  O   UNL A   1      32.541  27.521  22.673  1.00  0.00    -0.460 OA
BRANCH   8   9
ATOM      9  C   UNL A   1      32.210  26.301  22.218  1.00  0.00     0.338 C 
ATOM     10  O   UNL A   1      31.644  26.026  21.176  1.00  0.00    -0.246 OA
BRANCH   9  11
ATOM     11  C   UNL A   1      32.921  25.329  23.074  1.00  0.00     0.062 A 
ATOM     12  N   UNL A   1      34.473  22.582  25.728  1.00  0.00    -0.292 N 
ATOM     13  C   UNL A   1      33.478  22.598  26.734  1.00  0.00     0.329 A 
ATOM     14  C   UNL A   1      34.079  23.433  24.687  1.00  0.00     0.069 A 
ATOM     15  O   UNL A   1      33.469  21.942  27.765  1.00  0.00    -0.248 OA
ATOM     16  N   UNL A   1      32.485  23.511  26.299  1.00  0.00    -0.292 N 
ATOM     17  C   UNL A   1      32.893  24.056  25.075  1.00  0.00     0.070 A 
ATOM     18  C   UNL A   1      34.668  23.675  23.459  1.00  0.00     0.029 A 
ATOM     19  C   UNL A   1      32.313  25.026  24.297  1.00  0.00     0.044 A 
ATOM     20  C   UNL A   1      34.069  24.633  22.635  1.00  0.00     0.018 A 
BRANCH  12  21
ATOM     21  C   UNL A   1      35.720  21.866  25.811  1.00  0.00     0.124 C 
ATOM     22  C   UNL A   1      35.691  20.546  25.050  1.00  0.00     0.028 C 
ENDBRANCH  12  21
BRANCH  16  23
ATOM     23  C   UNL A   1      31.192  23.661  26.927  1.00  0.00     0.124 C 
ATOM     24  C   UNL A   1      30.173  22.582  26.602  1.00  0.00     0.028 C 
ENDBRANCH  16  23
ENDBRANCH   9  11
ENDBRANCH   8   9
ENDBRANCH   7   8
ENDBRANCH   6   7
ENDBRANCH   5   6
ENDBRANCH   4   5
ENDBRANCH   3   4
ENDBRANCH   2   3
ENDBRANCH   1   2
BRANCH   1  25
ATOM     25  C   UNL A   1      34.989  32.417  28.847  1.00  0.00     0.188 C 
BRANCH  25  26
ATOM     26  O   UNL A   1      34.491  33.673  29.309  1.00  0.00    -0.376 OA
BRANCH  26  27
ATOM     27  C   UNL A   1      34.437  33.833  30.728  1.00  0.00     0.202 C 
BRANCH  27  28
ATOM     28  C   UNL A   1      34.925  32.607  31.516  1.00  0.00     0.261 C 
BRANCH  28  29
ATOM     29  O   UNL A   1      35.745  32.966  32.639  1.00  0.00    -0.460 OA
BRANCH  29  30
ATOM     30  C   UNL A   1      36.585  34.015  32.486  1.00  0.00     0.338 C 
ATOM     31  O   UNL A   1      36.433  35.146  32.914  1.00  0.00    -0.246 OA
BRANCH  30  32
ATOM     32  C   UNL A   1      37.878  33.432  32.057  1.00  0.00     0.060 A 
ATOM     33  C   UNL A   1      38.080  32.995  30.742  1.00  0.00     0.016 A 
ATOM     34  C   UNL A   1      38.763  33.059  33.077  1.00  0.00     0.016 A 
ATOM     35  C   UNL A   1      39.103  32.089  30.478  1.00  0.00     0.010 A 
ATOM     36  C   UNL A   1      39.772  32.138  32.812  1.00  0.00     0.010 A 
ATOM     37  C   UNL A   1      39.912  31.614  31.523  1.00  0.00    -0.014 A 
BRANCH  37  38
ATOM     38  C   UNL A   1      40.981  30.663  31.195  1.00  0.00     0.031 A 
ATOM     39  C   UNL A   1      41.967  31.153  30.192  1.00  0.00     0.074 A 
ATOM     40  C   UNL A   1      41.233  29.512  31.851  1.00  0.00     0.049 A 
ATOM     41  N   UNL A   1      42.411  30.568  29.126  1.00  0.00    -0.248 NA
ATOM     42  C   UNL A   1      42.497  32.509  30.407  1.00  0.00     0.031 C 
ATOM     43  C   UNL A   1      40.595  29.033  33.075  1.00  0.00     0.029 A 
ATOM     44  N   UNL A   1      42.212  28.579  31.623  1.00  0.00    -0.354 N 
ATOM     45  C   UNL A   1      43.380  31.422  28.607  1.00  0.00     0.074 A 
ATOM     46  C   UNL A   1      43.326  32.640  29.376  1.00  0.00     0.031 C 
ATOM     47  C   UNL A   1      41.310  28.005  33.577  1.00  0.00     0.029 A 
ATOM     48  C   UNL A   1      42.429  27.721  32.692  1.00  0.00     0.049 A 
ATOM     49  H   UNL A   1      42.713  28.521  30.777  1.00  0.00     0.167 HD
ATOM     50  C   UNL A   1      44.303  31.032  27.688  1.00  0.00     0.037 A 
ATOM     51  C   UNL A   1      43.499  26.913  32.901  1.00  0.00     0.037 A 
ATOM     52  C   UNL A   1      43.918  29.856  26.968  1.00  0.00     0.049 A 
ATOM     53  C   UNL A   1      44.217  26.738  31.614  1.00  0.00     0.074 A 
ATOM     54  C   UNL A   1      42.842  29.529  26.166  1.00  0.00     0.029 A 
ATOM     55  N   UNL A   1      44.549  28.668  27.236  1.00  0.00    -0.354 N 
ATOM     56  N   UNL A   1      43.783  26.033  30.608  1.00  0.00    -0.248 NA
ATOM     57  C   UNL A   1      45.288  27.673  31.305  1.00  0.00     0.031 C 
ATOM     58  C   UNL A   1      42.605  28.146  26.403  1.00  0.00     0.029 A 
ATOM     59  C   UNL A   1      43.560  27.721  27.327  1.00  0.00     0.049 A 
ATOM     60  H   UNL A   1      45.516  28.524  27.342  1.00  0.00     0.167 HD
ATOM     61  C   UNL A   1      44.229  26.712  29.483  1.00  0.00     0.074 A 
ATOM     62  C   UNL A   1      45.236  27.645  29.972  1.00  0.00     0.031 C 
ATOM     63  C   UNL A   1      43.546  26.658  28.303  1.00  0.00     0.037 A 
BRANCH  50  64
ATOM     64  C   UNL A   1      45.682  31.613  27.642  1.00  0.00     0.064 A 
ATOM     65  C   UNL A   1      46.576  31.425  28.708  1.00  0.00     0.173 A 
ATOM     66  C   UNL A   1      46.067  32.558  26.665  1.00  0.00     0.173 A 
ATOM     67  F   UNL A   1      46.269  30.595  29.715  1.00  0.00    -0.203 F 
ATOM     68  C   UNL A   1      47.774  32.139  28.790  1.00  0.00     0.198 A 
ATOM     69  C   UNL A   1      47.286  33.226  26.720  1.00  0.00     0.198 A 
ATOM     70  F   UNL A   1      45.232  32.927  25.682  1.00  0.00    -0.203 F 
ATOM     71  F   UNL A   1      48.562  31.997  29.864  1.00  0.00    -0.200 F 
ATOM     72  C   UNL A   1      48.133  33.031  27.792  1.00  0.00     0.200 A 
ATOM     73  F   UNL A   1      47.602  34.105  25.759  1.00  0.00    -0.200 F 
ATOM     74  F   UNL A   1      49.267  33.737  27.886  1.00  0.00    -0.200 F 
ENDBRANCH  50  64
BRANCH  51  75
ATOM     75  C   UNL A   1      44.066  26.475  34.204  1.00  0.00     0.064 A 
ATOM     76  C   UNL A   1      44.101  25.123  34.585  1.00  0.00     0.173 A 
ATOM     77  C   UNL A   1      44.782  27.365  35.030  1.00  0.00     0.173 A 
ATOM     78  F   UNL A   1      43.515  24.191  33.819  1.00  0.00    -0.203 F 
ATOM     79  C   UNL A   1      44.784  24.699  35.731  1.00  0.00     0.198 A 
ATOM     80  C   UNL A   1      45.440  26.947  36.186  1.00  0.00     0.198 A 
ATOM     81  F   UNL A   1      44.935  28.653  34.690  1.00  0.00    -0.203 F 
ATOM     82  F   UNL A   1      44.836  23.394  36.035  1.00  0.00    -0.200 F 
ATOM     83  C   UNL A   1      45.447  25.612  36.535  1.00  0.00     0.200 A 
ATOM     84  F   UNL A   1      46.108  27.841  36.929  1.00  0.00    -0.200 F 
ATOM     85  F   UNL A   1      46.124  25.204  37.616  1.00  0.00    -0.200 F 
ENDBRANCH  51  75
BRANCH  63  86
ATOM     86  C   UNL A   1      42.477  25.618  28.141  1.00  0.00     0.064 A 
ATOM     87  C   UNL A   1      41.144  25.809  28.542  1.00  0.00     0.173 A 
ATOM     88  C   UNL A   1      42.767  24.476  27.378  1.00  0.00     0.173 A 
ATOM     89  F   UNL A   1      40.767  26.927  29.178  1.00  0.00    -0.203 F 
ATOM     90  C   UNL A   1      40.156  24.880  28.223  1.00  0.00     0.198 A 
ATOM     91  C   UNL A   1      41.770  23.568  27.030  1.00  0.00     0.198 A 
ATOM     92  F   UNL A   1      44.011  24.274  26.914  1.00  0.00    -0.203 F 
ATOM     93  F   UNL A   1      38.890  25.088  28.610  1.00  0.00    -0.200 F 
ATOM     94  C   UNL A   1      40.467  23.767  27.458  1.00  0.00     0.200 A 
ATOM     95  F   UNL A   1      42.064  22.524  26.243  1.00  0.00    -0.200 F 
ATOM     96  F   UNL A   1      39.504  22.906  27.100  1.00  0.00    -0.200 F 
ENDBRANCH  63  86
ENDBRANCH  37  38
ENDBRANCH  30  32
ENDBRANCH  29  30
ENDBRANCH  28  29
ENDBRANCH  27  28
ENDBRANCH  26  27
ENDBRANCH  25  26
ENDBRANCH   1  25
TORSDOF 22
ENDMDL
