MODEL 1
REMARK VINA RESULT:      -9.8      0.000      0.000
REMARK SMILES O=C(C[C@@H]([NH2+]Cc1cccnc1)C(=O)OCCOCCOCCOCCOC(=O)c1ccc(-c2c3nc(c(-c4c(F)c(F)c(F)c(F)c4F)c4ccc([nH]4)c(-c4c(F)c(F)c(F)c(F)c4F)c4nc(c(-c5c(F)c(F)c(F)c(F)c5F)c5ccc2[nH]5)C=C4)C=C3)cc1)Nc1ccc2ccccc2c1
REMARK SMILES IDX 20 1 19 2 18 3 17 4 16 5 15 6 13 7 14 8 4 9 3 10 2 11 1 12
REMARK SMILES IDX 93 13 94 15 95 16 103 17 96 18 102 19 97 20 101 21 98 22
REMARK SMILES IDX 100 23 99 24 5 25 6 28 7 29 8 30 12 31 9 32 11 33 10 34
REMARK SMILES IDX 21 35 22 36 23 37 24 38 25 39 26 40 27 41 28 42 29 43 30 44
REMARK SMILES IDX 31 45 92 46 32 47 91 48 33 49 34 50 35 51 85 52 36 53 90 54
REMARK SMILES IDX 84 55 86 56 37 57 89 58 83 59 82 60 38 62 70 63 50 64 69 65
REMARK SMILES IDX 51 66 54 67 68 68 87 69 52 70 53 71 67 73 88 74 55 75 39 76
REMARK SMILES IDX 40 77 48 78 41 79 42 80 46 81 49 82 43 83 44 84 47 85 45 86
REMARK SMILES IDX 71 87 72 88 80 89 73 90 74 91 78 92 81 93 75 94 76 95 79 96
REMARK SMILES IDX 77 97 56 98 57 99 65 100 58 101 59 102 63 103 66 104 60 105
REMARK SMILES IDX 61 106 64 107 62 108
REMARK H PARENT 93 14 5 26 5 27 86 61 54 72
REMARK Flexibility Score: inf
ROOT
ATOM      1  C   UNL A   1      34.041  32.946  27.971  1.00  0.00     0.188 C 
ENDROOT
BRANCH   1   2
ATOM      2  C   UNL A   1      33.514  31.543  27.644  1.00  0.00     0.188 C 
BRANCH   2   3
ATOM      3  O   UNL A   1      34.423  30.472  27.516  1.00  0.00    -0.376 OA
BRANCH   3   4
ATOM      4  C   UNL A   1      34.081  29.113  27.308  1.00  0.00     0.202 C 
BRANCH   4   5
ATOM      5  C   UNL A   1      32.858  28.508  26.582  1.00  0.00     0.261 C 
BRANCH   5   6
ATOM      6  O   UNL A   1      32.741  28.622  25.162  1.00  0.00    -0.459 OA
BRANCH   6   7
ATOM      7  C   UNL A   1      31.638  29.303  24.786  1.00  0.00     0.365 C 
ATOM      8  O   UNL A   1      31.172  30.213  25.470  1.00  0.00    -0.245 OA
BRANCH   7   9
ATOM      9  C   UNL A   1      31.065  28.931  23.401  1.00  0.00     0.303 C 
BRANCH   9  10
ATOM     10  C   UNL A   1      32.069  28.452  22.324  1.00  0.00     0.177 C 
BRANCH  10  11
ATOM     11  C   UNL A   1      32.268  26.932  22.401  1.00  0.00     0.231 C 
ATOM     12  O   UNL A   1      31.424  26.134  22.013  1.00  0.00    -0.274 OA
ATOM     13  N   UNL A   1      33.434  26.621  23.080  1.00  0.00    -0.326 N 
ATOM     14  H   UNL A   1      34.084  27.350  23.199  1.00  0.00     0.169 HD
BRANCH  13  15
ATOM     15  C   UNL A   1      33.782  25.371  23.615  1.00  0.00     0.041 A 
ATOM     16  C   UNL A   1      33.939  24.332  22.692  1.00  0.00     0.027 A 
ATOM     17  C   UNL A   1      33.874  25.106  24.981  1.00  0.00     0.034 A 
ATOM     18  C   UNL A   1      34.259  23.048  23.116  1.00  0.00     0.011 A 
ATOM     19  C   UNL A   1      34.029  23.770  25.425  1.00  0.00    -0.016 A 
ATOM     20  C   UNL A   1      34.275  22.745  24.477  1.00  0.00    -0.018 A 
ATOM     21  C   UNL A   1      33.882  23.396  26.772  1.00  0.00     0.009 A 
ATOM     22  C   UNL A   1      34.467  21.422  24.893  1.00  0.00     0.009 A 
ATOM     23  C   UNL A   1      33.972  22.054  27.162  1.00  0.00     0.001 A 
ATOM     24  C   UNL A   1      34.292  21.073  26.229  1.00  0.00     0.001 A 
ENDBRANCH  13  15
ENDBRANCH  10  11
ENDBRANCH   9  10
BRANCH   9  25
ATOM     25  N   UNL A   1      29.914  27.977  23.496  1.00  0.00    -0.330 N 
ATOM     26  H   UNL A   1      29.963  27.539  24.415  1.00  0.00     0.347 HD
ATOM     27  H   UNL A   1      30.036  27.358  22.696  1.00  0.00     0.347 HD
BRANCH  25  28
ATOM     28  C   UNL A   1      28.552  28.508  23.340  1.00  0.00     0.299 C 
BRANCH  28  29
ATOM     29  C   UNL A   1      28.425  29.884  22.733  1.00  0.00     0.024 A 
ATOM     30  C   UNL A   1      28.328  30.991  23.584  1.00  0.00     0.013 A 
ATOM     31  C   UNL A   1      28.468  30.169  21.371  1.00  0.00     0.120 A 
ATOM     32  C   UNL A   1      28.209  32.276  23.061  1.00  0.00     0.021 A 
ATOM     33  N   UNL A   1      28.332  31.403  20.829  1.00  0.00    -0.264 NA
ATOM     34  C   UNL A   1      28.198  32.429  21.687  1.00  0.00     0.111 A 
ENDBRANCH  28  29
ENDBRANCH  25  28
ENDBRANCH   9  25
ENDBRANCH   7   9
ENDBRANCH   6   7
ENDBRANCH   5   6
ENDBRANCH   4   5
ENDBRANCH   3   4
ENDBRANCH   2   3
ENDBRANCH   1   2
BRANCH   1  35
ATOM     35  O   UNL A   1      33.282  33.654  28.925  1.00  0.00    -0.377 OA
BRANCH  35  36
ATOM     36  C   UNL A   1      33.387  35.070  28.981  1.00  0.00     0.188 C 
BRANCH  36  37
ATOM     37  C   UNL A   1      32.801  35.868  30.164  1.00  0.00     0.188 C 
BRANCH  37  38
ATOM     38  O   UNL A   1      32.657  35.131  31.366  1.00  0.00    -0.376 OA
BRANCH  38  39
ATOM     39  C   UNL A   1      33.659  35.253  32.362  1.00  0.00     0.202 C 
BRANCH  39  40
ATOM     40  C   UNL A   1      34.229  33.956  32.959  1.00  0.00     0.261 C 
BRANCH  40  41
ATOM     41  O   UNL A   1      34.792  33.013  32.031  1.00  0.00    -0.460 OA
BRANCH  41  42
ATOM     42  C   UNL A   1      35.958  33.324  31.427  1.00  0.00     0.338 C 
ATOM     43  O   UNL A   1      36.146  34.146  30.556  1.00  0.00    -0.246 OA
BRANCH  42  44
ATOM     44  C   UNL A   1      37.036  32.616  32.154  1.00  0.00     0.060 A 
ATOM     45  C   UNL A   1      36.694  31.713  33.172  1.00  0.00     0.016 A 
ATOM     46  C   UNL A   1      38.375  32.851  31.839  1.00  0.00     0.016 A 
ATOM     47  C   UNL A   1      37.695  31.084  33.914  1.00  0.00     0.010 A 
ATOM     48  C   UNL A   1      39.376  32.239  32.597  1.00  0.00     0.010 A 
ATOM     49  C   UNL A   1      39.039  31.389  33.668  1.00  0.00    -0.014 A 
BRANCH  49  50
ATOM     50  C   UNL A   1      40.074  31.038  34.669  1.00  0.00     0.031 A 
ATOM     51  C   UNL A   1      40.310  32.003  35.800  1.00  0.00     0.074 A 
ATOM     52  C   UNL A   1      40.784  29.900  34.593  1.00  0.00     0.049 A 
ATOM     53  N   UNL A   1      41.217  31.984  36.742  1.00  0.00    -0.248 NA
ATOM     54  C   UNL A   1      39.394  33.154  35.869  1.00  0.00     0.031 C 
ATOM     55  C   UNL A   1      40.606  28.857  33.589  1.00  0.00     0.029 A 
ATOM     56  N   UNL A   1      41.811  29.442  35.381  1.00  0.00    -0.354 N 
ATOM     57  C   UNL A   1      40.989  33.122  37.505  1.00  0.00     0.074 A 
ATOM     58  C   UNL A   1      39.884  33.829  36.896  1.00  0.00     0.031 C 
ATOM     59  C   UNL A   1      41.506  27.883  33.812  1.00  0.00     0.029 A 
ATOM     60  C   UNL A   1      42.348  28.255  34.949  1.00  0.00     0.049 A 
ATOM     61  H   UNL A   1      42.132  29.919  36.181  1.00  0.00     0.167 HD
ATOM     62  C   UNL A   1      41.635  33.538  38.619  1.00  0.00     0.037 A 
ATOM     63  C   UNL A   1      43.415  27.569  35.405  1.00  0.00     0.037 A 
ATOM     64  C   UNL A   1      42.742  32.838  39.215  1.00  0.00     0.049 A 
ATOM     65  C   UNL A   1      44.191  28.105  36.584  1.00  0.00     0.074 A 
ATOM     66  C   UNL A   1      43.473  33.175  40.339  1.00  0.00     0.029 A 
ATOM     67  N   UNL A   1      43.283  31.659  38.722  1.00  0.00    -0.354 N 
ATOM     68  N   UNL A   1      43.970  29.178  37.307  1.00  0.00    -0.248 NA
ATOM     69  C   UNL A   1      45.366  27.333  37.011  1.00  0.00     0.031 C 
ATOM     70  C   UNL A   1      44.496  32.233  40.492  1.00  0.00     0.029 A 
ATOM     71  C   UNL A   1      44.356  31.269  39.507  1.00  0.00     0.049 A 
ATOM     72  H   UNL A   1      42.954  31.173  37.932  1.00  0.00     0.167 HD
ATOM     73  C   UNL A   1      44.946  29.184  38.296  1.00  0.00     0.074 A 
ATOM     74  C   UNL A   1      45.762  28.007  38.082  1.00  0.00     0.031 C 
ATOM     75  C   UNL A   1      45.145  30.080  39.295  1.00  0.00     0.037 A 
BRANCH  62  76
ATOM     76  C   UNL A   1      41.183  34.832  39.237  1.00  0.00     0.064 A 
ATOM     77  C   UNL A   1      40.100  34.888  40.129  1.00  0.00     0.173 A 
ATOM     78  C   UNL A   1      41.842  36.033  38.932  1.00  0.00     0.173 A 
ATOM     79  F   UNL A   1      39.424  33.772  40.442  1.00  0.00    -0.203 F 
ATOM     80  C   UNL A   1      39.669  36.101  40.659  1.00  0.00     0.198 A 
ATOM     81  C   UNL A   1      41.433  37.238  39.494  1.00  0.00     0.198 A 
ATOM     82  F   UNL A   1      42.886  36.037  38.090  1.00  0.00    -0.203 F 
ATOM     83  F   UNL A   1      38.592  36.138  41.455  1.00  0.00    -0.200 F 
ATOM     84  C   UNL A   1      40.341  37.274  40.347  1.00  0.00     0.200 A 
ATOM     85  F   UNL A   1      42.091  38.369  39.202  1.00  0.00    -0.200 F 
ATOM     86  F   UNL A   1      39.926  38.441  40.859  1.00  0.00    -0.200 F 
ENDBRANCH  62  76
BRANCH  63  87
ATOM     87  C   UNL A   1      43.822  26.298  34.749  1.00  0.00     0.064 A 
ATOM     88  C   UNL A   1      43.322  25.065  35.192  1.00  0.00     0.173 A 
ATOM     89  C   UNL A   1      44.736  26.284  33.684  1.00  0.00     0.173 A 
ATOM     90  F   UNL A   1      42.467  25.022  36.224  1.00  0.00    -0.203 F 
ATOM     91  C   UNL A   1      43.733  23.868  34.608  1.00  0.00     0.198 A 
ATOM     92  C   UNL A   1      45.121  25.088  33.080  1.00  0.00     0.198 A 
ATOM     93  F   UNL A   1      45.249  27.433  33.224  1.00  0.00    -0.203 F 
ATOM     94  F   UNL A   1      43.275  22.702  35.085  1.00  0.00    -0.200 F 
ATOM     95  C   UNL A   1      44.626  23.881  33.548  1.00  0.00     0.200 A 
ATOM     96  F   UNL A   1      45.976  25.107  32.048  1.00  0.00    -0.200 F 
ATOM     97  F   UNL A   1      45.017  22.730  32.984  1.00  0.00    -0.200 F 
ENDBRANCH  63  87
BRANCH  75  98
ATOM     98  C   UNL A   1      46.240  29.794  40.284  1.00  0.00     0.064 A 
ATOM     99  C   UNL A   1      46.037  28.983  41.409  1.00  0.00     0.173 A 
ATOM    100  C   UNL A   1      47.533  30.296  40.064  1.00  0.00     0.173 A 
ATOM    101  F   UNL A   1      44.819  28.488  41.674  1.00  0.00    -0.203 F 
ATOM    102  C   UNL A   1      47.082  28.702  42.289  1.00  0.00     0.198 A 
ATOM    103  C   UNL A   1      48.582  29.985  40.924  1.00  0.00     0.198 A 
ATOM    104  F   UNL A   1      47.786  31.071  38.998  1.00  0.00    -0.203 F 
ATOM    105  F   UNL A   1      46.853  27.963  43.383  1.00  0.00    -0.200 F 
ATOM    106  C   UNL A   1      48.354  29.194  42.040  1.00  0.00     0.200 A 
ATOM    107  F   UNL A   1      49.815  30.447  40.671  1.00  0.00    -0.200 F 
ATOM    108  F   UNL A   1      49.360  28.912  42.879  1.00  0.00    -0.200 F 
ENDBRANCH  75  98
ENDBRANCH  49  50
ENDBRANCH  42  44
ENDBRANCH  41  42
ENDBRANCH  40  41
ENDBRANCH  39  40
ENDBRANCH  38  39
ENDBRANCH  37  38
ENDBRANCH  36  37
ENDBRANCH  35  36
ENDBRANCH   1  35
TORSDOF 26
ENDMDL
MODEL 2
REMARK VINA RESULT:      -9.5      3.767      5.842
REMARK SMILES O=C(C[C@@H]([NH2+]Cc1cccnc1)C(=O)OCCOCCOCCOCCOC(=O)c1ccc(-c2c3nc(c(-c4c(F)c(F)c(F)c(F)c4F)c4ccc([nH]4)c(-c4c(F)c(F)c(F)c(F)c4F)c4nc(c(-c5c(F)c(F)c(F)c(F)c5F)c5ccc2[nH]5)C=C4)C=C3)cc1)Nc1ccc2ccccc2c1
REMARK SMILES IDX 20 1 19 2 18 3 17 4 16 5 15 6 13 7 14 8 4 9 3 10 2 11 1 12
REMARK SMILES IDX 93 13 94 15 95 16 103 17 96 18 102 19 97 20 101 21 98 22
REMARK SMILES IDX 100 23 99 24 5 25 6 28 7 29 8 30 12 31 9 32 11 33 10 34
REMARK SMILES IDX 21 35 22 36 23 37 24 38 25 39 26 40 27 41 28 42 29 43 30 44
REMARK SMILES IDX 31 45 92 46 32 47 91 48 33 49 34 50 35 51 85 52 36 53 90 54
REMARK SMILES IDX 84 55 86 56 37 57 89 58 83 59 82 60 38 62 70 63 50 64 69 65
REMARK SMILES IDX 51 66 54 67 68 68 87 69 52 70 53 71 67 73 88 74 55 75 39 76
REMARK SMILES IDX 40 77 48 78 41 79 42 80 46 81 49 82 43 83 44 84 47 85 45 86
REMARK SMILES IDX 71 87 72 88 80 89 73 90 74 91 78 92 81 93 75 94 76 95 79 96
REMARK SMILES IDX 77 97 56 98 57 99 65 100 58 101 59 102 63 103 66 104 60 105
REMARK SMILES IDX 61 106 64 107 62 108
REMARK H PARENT 93 14 5 26 5 27 86 61 54 72
REMARK Flexibility Score: inf
ROOT
ATOM      1  C   UNL A   1      33.984  33.409  28.077  1.00  0.00     0.188 C 
ENDROOT
BRANCH   1   2
ATOM      2  C   UNL A   1      33.659  31.976  27.639  1.00  0.00     0.188 C 
BRANCH   2   3
ATOM      3  O   UNL A   1      34.694  31.020  27.566  1.00  0.00    -0.376 OA
BRANCH   3   4
ATOM      4  C   UNL A   1      34.547  29.664  27.183  1.00  0.00     0.202 C 
BRANCH   4   5
ATOM      5  C   UNL A   1      33.347  28.957  26.512  1.00  0.00     0.261 C 
BRANCH   5   6
ATOM      6  O   UNL A   1      33.186  29.015  25.093  1.00  0.00    -0.459 OA
BRANCH   6   7
ATOM      7  C   UNL A   1      31.963  29.452  24.727  1.00  0.00     0.365 C 
ATOM      8  O   UNL A   1      31.319  30.237  25.423  1.00  0.00    -0.245 OA
BRANCH   7   9
ATOM      9  C   UNL A   1      31.473  28.982  23.340  1.00  0.00     0.303 C 
BRANCH   9  10
ATOM     10  C   UNL A   1      32.548  28.501  22.335  1.00  0.00     0.177 C 
BRANCH  10  11
ATOM     11  C   UNL A   1      32.712  26.977  22.398  1.00  0.00     0.231 C 
ATOM     12  O   UNL A   1      31.958  26.207  21.815  1.00  0.00    -0.274 OA
ATOM     13  N   UNL A   1      33.709  26.623  23.290  1.00  0.00    -0.326 N 
ATOM     14  H   UNL A   1      34.328  27.337  23.567  1.00  0.00     0.169 HD
BRANCH  13  15
ATOM     15  C   UNL A   1      33.926  25.351  23.841  1.00  0.00     0.041 A 
ATOM     16  C   UNL A   1      34.175  24.323  22.926  1.00  0.00     0.027 A 
ATOM     17  C   UNL A   1      33.808  25.058  25.199  1.00  0.00     0.034 A 
ATOM     18  C   UNL A   1      34.380  23.019  23.362  1.00  0.00     0.011 A 
ATOM     19  C   UNL A   1      33.844  23.709  25.629  1.00  0.00    -0.016 A 
ATOM     20  C   UNL A   1      34.186  22.692  24.703  1.00  0.00    -0.018 A 
ATOM     21  C   UNL A   1      33.489  23.319  26.932  1.00  0.00     0.009 A 
ATOM     22  C   UNL A   1      34.263  21.355  25.112  1.00  0.00     0.009 A 
ATOM     23  C   UNL A   1      33.468  21.967  27.299  1.00  0.00     0.001 A 
ATOM     24  C   UNL A   1      33.882  20.990  26.400  1.00  0.00     0.001 A 
ENDBRANCH  13  15
ENDBRANCH  10  11
ENDBRANCH   9  10
BRANCH   9  25
ATOM     25  N   UNL A   1      30.368  27.975  23.436  1.00  0.00    -0.330 N 
ATOM     26  H   UNL A   1      30.528  27.433  24.284  1.00  0.00     0.347 HD
ATOM     27  H   UNL A   1      30.421  27.461  22.557  1.00  0.00     0.347 HD
BRANCH  25  28
ATOM     28  C   UNL A   1      28.981  28.462  23.486  1.00  0.00     0.299 C 
BRANCH  28  29
ATOM     29  C   UNL A   1      28.710  29.804  22.850  1.00  0.00     0.024 A 
ATOM     30  C   UNL A   1      28.250  30.853  23.654  1.00  0.00     0.013 A 
ATOM     31  C   UNL A   1      28.949  30.123  21.516  1.00  0.00     0.120 A 
ATOM     32  C   UNL A   1      27.988  32.104  23.102  1.00  0.00     0.021 A 
ATOM     33  N   UNL A   1      28.684  31.322  20.942  1.00  0.00    -0.264 NA
ATOM     34  C   UNL A   1      28.202  32.284  21.748  1.00  0.00     0.111 A 
ENDBRANCH  28  29
ENDBRANCH  25  28
ENDBRANCH   9  25
ENDBRANCH   7   9
ENDBRANCH   6   7
ENDBRANCH   5   6
ENDBRANCH   4   5
ENDBRANCH   3   4
ENDBRANCH   2   3
ENDBRANCH   1   2
BRANCH   1  35
ATOM     35  O   UNL A   1      33.277  33.854  29.213  1.00  0.00    -0.377 OA
BRANCH  35  36
ATOM     36  C   UNL A   1      33.447  35.194  29.652  1.00  0.00     0.188 C 
BRANCH  36  37
ATOM     37  C   UNL A   1      33.080  35.616  31.091  1.00  0.00     0.188 C 
BRANCH  37  38
ATOM     38  O   UNL A   1      33.168  34.580  32.054  1.00  0.00    -0.376 OA
BRANCH  38  39
ATOM     39  C   UNL A   1      34.368  34.442  32.796  1.00  0.00     0.202 C 
BRANCH  39  40
ATOM     40  C   UNL A   1      34.986  33.037  32.893  1.00  0.00     0.261 C 
BRANCH  40  41
ATOM     41  O   UNL A   1      35.353  32.409  31.653  1.00  0.00    -0.460 OA
BRANCH  41  42
ATOM     42  C   UNL A   1      36.321  32.979  30.906  1.00  0.00     0.338 C 
ATOM     43  O   UNL A   1      36.380  34.126  30.519  1.00  0.00    -0.246 OA
BRANCH  42  44
ATOM     44  C   UNL A   1      37.428  32.001  30.793  1.00  0.00     0.060 A 
ATOM     45  C   UNL A   1      37.517  30.961  31.731  1.00  0.00     0.016 A 
ATOM     46  C   UNL A   1      38.375  32.117  29.775  1.00  0.00     0.016 A 
ATOM     47  C   UNL A   1      38.588  30.067  31.683  1.00  0.00     0.010 A 
ATOM     48  C   UNL A   1      39.458  31.236  29.741  1.00  0.00     0.010 A 
ATOM     49  C   UNL A   1      39.594  30.237  30.723  1.00  0.00    -0.014 A 
BRANCH  49  50
ATOM     50  C   UNL A   1      40.899  29.555  30.889  1.00  0.00     0.031 A 
ATOM     51  C   UNL A   1      41.895  30.168  31.836  1.00  0.00     0.074 A 
ATOM     52  C   UNL A   1      41.202  28.423  30.231  1.00  0.00     0.049 A 
ATOM     53  N   UNL A   1      43.134  29.831  32.083  1.00  0.00    -0.248 NA
ATOM     54  C   UNL A   1      41.422  31.331  32.606  1.00  0.00     0.031 C 
ATOM     55  C   UNL A   1      40.305  27.696  29.340  1.00  0.00     0.029 A 
ATOM     56  N   UNL A   1      42.365  27.694  30.211  1.00  0.00    -0.354 N 
ATOM     57  C   UNL A   1      43.590  30.746  33.025  1.00  0.00     0.074 A 
ATOM     58  C   UNL A   1      42.510  31.673  33.277  1.00  0.00     0.031 C 
ATOM     59  C   UNL A   1      40.956  26.628  28.845  1.00  0.00     0.029 A 
ATOM     60  C   UNL A   1      42.327  26.622  29.353  1.00  0.00     0.049 A 
ATOM     61  H   UNL A   1      43.152  27.918  30.758  1.00  0.00     0.167 HD
ATOM     62  C   UNL A   1      44.798  30.803  33.632  1.00  0.00     0.037 A 
ATOM     63  C   UNL A   1      43.300  25.758  29.004  1.00  0.00     0.037 A 
ATOM     64  C   UNL A   1      45.875  29.885  33.370  1.00  0.00     0.049 A 
ATOM     65  C   UNL A   1      44.675  25.904  29.611  1.00  0.00     0.074 A 
ATOM     66  C   UNL A   1      47.141  29.857  33.925  1.00  0.00     0.029 A 
ATOM     67  N   UNL A   1      45.810  28.836  32.463  1.00  0.00    -0.354 N 
ATOM     68  N   UNL A   1      45.102  26.765  30.505  1.00  0.00    -0.248 NA
ATOM     69  C   UNL A   1      45.703  24.955  29.161  1.00  0.00     0.031 C 
ATOM     70  C   UNL A   1      47.863  28.829  33.310  1.00  0.00     0.029 A 
ATOM     71  C   UNL A   1      47.024  28.170  32.426  1.00  0.00     0.049 A 
ATOM     72  H   UNL A   1      45.019  28.601  31.926  1.00  0.00     0.167 HD
ATOM     73  C   UNL A   1      46.428  26.434  30.755  1.00  0.00     0.074 A 
ATOM     74  C   UNL A   1      46.736  25.292  29.920  1.00  0.00     0.031 C 
ATOM     75  C   UNL A   1      47.309  27.019  31.605  1.00  0.00     0.037 A 
BRANCH  62  76
ATOM     76  C   UNL A   1      45.027  31.922  34.610  1.00  0.00     0.064 A 
ATOM     77  C   UNL A   1      44.762  31.774  35.981  1.00  0.00     0.173 A 
ATOM     78  C   UNL A   1      45.517  33.161  34.169  1.00  0.00     0.173 A 
ATOM     79  F   UNL A   1      44.278  30.615  36.454  1.00  0.00    -0.203 F 
ATOM     80  C   UNL A   1      44.940  32.835  36.864  1.00  0.00     0.198 A 
ATOM     81  C   UNL A   1      45.730  34.207  35.061  1.00  0.00     0.198 A 
ATOM     82  F   UNL A   1      45.790  33.357  32.870  1.00  0.00    -0.203 F 
ATOM     83  F   UNL A   1      44.618  32.689  38.157  1.00  0.00    -0.200 F 
ATOM     84  C   UNL A   1      45.431  34.048  36.405  1.00  0.00     0.200 A 
ATOM     85  F   UNL A   1      46.217  35.374  34.618  1.00  0.00    -0.200 F 
ATOM     86  F   UNL A   1      45.604  35.068  37.257  1.00  0.00    -0.200 F 
ENDBRANCH  62  76
BRANCH  63  87
ATOM     87  C   UNL A   1      43.019  24.674  28.024  1.00  0.00     0.064 A 
ATOM     88  C   UNL A   1      42.594  23.409  28.452  1.00  0.00     0.173 A 
ATOM     89  C   UNL A   1      43.193  24.870  26.645  1.00  0.00     0.173 A 
ATOM     90  F   UNL A   1      42.439  23.162  29.761  1.00  0.00    -0.203 F 
ATOM     91  C   UNL A   1      42.370  22.377  27.542  1.00  0.00     0.198 A 
ATOM     92  C   UNL A   1      42.937  23.846  25.734  1.00  0.00     0.198 A 
ATOM     93  F   UNL A   1      43.603  26.059  26.182  1.00  0.00    -0.203 F 
ATOM     94  F   UNL A   1      42.010  21.163  27.984  1.00  0.00    -0.200 F 
ATOM     95  C   UNL A   1      42.535  22.599  26.184  1.00  0.00     0.200 A 
ATOM     96  F   UNL A   1      43.087  24.069  24.421  1.00  0.00    -0.200 F 
ATOM     97  F   UNL A   1      42.314  21.608  25.308  1.00  0.00    -0.200 F 
ENDBRANCH  63  87
BRANCH  75  98
ATOM     98  C   UNL A   1      48.671  26.397  31.738  1.00  0.00     0.064 A 
ATOM     99  C   UNL A   1      48.938  25.372  32.656  1.00  0.00     0.173 A 
ATOM    100  C   UNL A   1      49.712  26.799  30.885  1.00  0.00     0.173 A 
ATOM    101  F   UNL A   1      47.984  24.959  33.503  1.00  0.00    -0.203 F 
ATOM    102  C   UNL A   1      50.201  24.787  32.731  1.00  0.00     0.198 A 
ATOM    103  C   UNL A   1      50.962  26.189  30.937  1.00  0.00     0.198 A 
ATOM    104  F   UNL A   1      49.510  27.771  29.982  1.00  0.00    -0.203 F 
ATOM    105  F   UNL A   1      50.446  23.841  33.648  1.00  0.00    -0.200 F 
ATOM    106  C   UNL A   1      51.208  25.188  31.865  1.00  0.00     0.200 A 
ATOM    107  F   UNL A   1      51.927  26.566  30.087  1.00  0.00    -0.200 F 
ATOM    108  F   UNL A   1      52.417  24.615  31.928  1.00  0.00    -0.200 F 
ENDBRANCH  75  98
ENDBRANCH  49  50
ENDBRANCH  42  44
ENDBRANCH  41  42
ENDBRANCH  40  41
ENDBRANCH  39  40
ENDBRANCH  38  39
ENDBRANCH  37  38
ENDBRANCH  36  37
ENDBRANCH  35  36
ENDBRANCH   1  35
TORSDOF 26
ENDMDL
MODEL 3
REMARK VINA RESULT:      -9.4      6.152     11.604
REMARK SMILES O=C(C[C@@H]([NH2+]Cc1cccnc1)C(=O)OCCOCCOCCOCCOC(=O)c1ccc(-c2c3nc(c(-c4c(F)c(F)c(F)c(F)c4F)c4ccc([nH]4)c(-c4c(F)c(F)c(F)c(F)c4F)c4nc(c(-c5c(F)c(F)c(F)c(F)c5F)c5ccc2[nH]5)C=C4)C=C3)cc1)Nc1ccc2ccccc2c1
REMARK SMILES IDX 20 1 19 2 18 3 17 4 16 5 15 6 13 7 14 8 4 9 3 10 2 11 1 12
REMARK SMILES IDX 93 13 94 15 95 16 103 17 96 18 102 19 97 20 101 21 98 22
REMARK SMILES IDX 100 23 99 24 5 25 6 28 7 29 8 30 12 31 9 32 11 33 10 34
REMARK SMILES IDX 21 35 22 36 23 37 24 38 25 39 26 40 27 41 28 42 29 43 30 44
REMARK SMILES IDX 31 45 92 46 32 47 91 48 33 49 34 50 35 51 85 52 36 53 90 54
REMARK SMILES IDX 84 55 86 56 37 57 89 58 83 59 82 60 38 62 70 63 50 64 69 65
REMARK SMILES IDX 51 66 54 67 68 68 87 69 52 70 53 71 67 73 88 74 55 75 39 76
REMARK SMILES IDX 40 77 48 78 41 79 42 80 46 81 49 82 43 83 44 84 47 85 45 86
REMARK SMILES IDX 71 87 72 88 80 89 73 90 74 91 78 92 81 93 75 94 76 95 79 96
REMARK SMILES IDX 77 97 56 98 57 99 65 100 58 101 59 102 63 103 66 104 60 105
REMARK SMILES IDX 61 106 64 107 62 108
REMARK H PARENT 93 14 5 26 5 27 86 61 54 72
REMARK Flexibility Score: inf
ROOT
ATOM      1  C   UNL A   1      33.953  23.258  23.579  1.00  0.00     0.188 C 
ENDROOT
BRANCH   1   2
ATOM      2  C   UNL A   1      32.847  22.973  22.556  1.00  0.00     0.188 C 
BRANCH   2   3
ATOM      3  O   UNL A   1      31.520  22.792  22.998  1.00  0.00    -0.376 OA
BRANCH   3   4
ATOM      4  C   UNL A   1      30.673  23.801  23.519  1.00  0.00     0.202 C 
BRANCH   4   5
ATOM      5  C   UNL A   1      30.481  25.261  23.049  1.00  0.00     0.261 C 
BRANCH   5   6
ATOM      6  O   UNL A   1      31.116  26.329  23.755  1.00  0.00    -0.459 OA
BRANCH   6   7
ATOM      7  C   UNL A   1      30.410  27.478  23.700  1.00  0.00     0.365 C 
ATOM      8  O   UNL A   1      29.295  27.532  23.183  1.00  0.00    -0.245 OA
BRANCH   7   9
ATOM      9  C   UNL A   1      31.049  28.689  24.415  1.00  0.00     0.303 C 
BRANCH   9  10
ATOM     10  C   UNL A   1      32.538  28.566  24.821  1.00  0.00     0.177 C 
BRANCH  10  11
ATOM     11  C   UNL A   1      32.797  29.267  26.162  1.00  0.00     0.231 C 
ATOM     12  O   UNL A   1      31.904  29.788  26.819  1.00  0.00    -0.274 OA
ATOM     13  N   UNL A   1      34.154  29.339  26.428  1.00  0.00    -0.326 N 
ATOM     14  H   UNL A   1      34.740  28.752  25.899  1.00  0.00     0.169 HD
BRANCH  13  15
ATOM     15  C   UNL A   1      34.778  30.166  27.375  1.00  0.00     0.041 A 
ATOM     16  C   UNL A   1      35.846  29.597  28.075  1.00  0.00     0.027 A 
ATOM     17  C   UNL A   1      34.333  31.445  27.708  1.00  0.00     0.034 A 
ATOM     18  C   UNL A   1      36.519  30.319  29.053  1.00  0.00     0.011 A 
ATOM     19  C   UNL A   1      34.903  32.117  28.817  1.00  0.00    -0.016 A 
ATOM     20  C   UNL A   1      36.040  31.564  29.456  1.00  0.00    -0.018 A 
ATOM     21  C   UNL A   1      34.347  33.287  29.362  1.00  0.00     0.009 A 
ATOM     22  C   UNL A   1      36.643  32.227  30.532  1.00  0.00     0.009 A 
ATOM     23  C   UNL A   1      34.898  33.883  30.503  1.00  0.00     0.001 A 
ATOM     24  C   UNL A   1      36.061  33.371  31.070  1.00  0.00     0.001 A 
ENDBRANCH  13  15
ENDBRANCH  10  11
ENDBRANCH   9  10
BRANCH   9  25
ATOM     25  N   UNL A   1      30.818  29.973  23.680  1.00  0.00    -0.330 N 
ATOM     26  H   UNL A   1      30.842  29.758  22.684  1.00  0.00     0.347 HD
ATOM     27  H   UNL A   1      31.550  30.593  24.023  1.00  0.00     0.347 HD
BRANCH  25  28
ATOM     28  C   UNL A   1      29.571  30.710  23.935  1.00  0.00     0.299 C 
BRANCH  28  29
ATOM     29  C   UNL A   1      28.919  31.373  22.746  1.00  0.00     0.024 A 
ATOM     30  C   UNL A   1      28.659  30.607  21.604  1.00  0.00     0.013 A 
ATOM     31  C   UNL A   1      28.479  32.693  22.705  1.00  0.00     0.120 A 
ATOM     32  C   UNL A   1      28.060  31.186  20.488  1.00  0.00     0.021 A 
ATOM     33  N   UNL A   1      27.914  33.292  21.628  1.00  0.00    -0.264 NA
ATOM     34  C   UNL A   1      27.724  32.525  20.541  1.00  0.00     0.111 A 
ENDBRANCH  28  29
ENDBRANCH  25  28
ENDBRANCH   9  25
ENDBRANCH   7   9
ENDBRANCH   6   7
ENDBRANCH   5   6
ENDBRANCH   4   5
ENDBRANCH   3   4
ENDBRANCH   2   3
ENDBRANCH   1   2
BRANCH   1  35
ATOM     35  O   UNL A   1      33.707  22.748  24.871  1.00  0.00    -0.377 OA
BRANCH  35  36
ATOM     36  C   UNL A   1      33.569  21.346  25.048  1.00  0.00     0.188 C 
BRANCH  36  37
ATOM     37  C   UNL A   1      34.803  20.421  25.092  1.00  0.00     0.188 C 
BRANCH  37  38
ATOM     38  O   UNL A   1      36.035  21.060  24.809  1.00  0.00    -0.376 OA
BRANCH  38  39
ATOM     39  C   UNL A   1      37.239  20.339  25.017  1.00  0.00     0.202 C 
BRANCH  39  40
ATOM     40  C   UNL A   1      38.541  21.148  25.131  1.00  0.00     0.261 C 
BRANCH  40  41
ATOM     41  O   UNL A   1      39.289  20.996  26.349  1.00  0.00    -0.460 OA
BRANCH  41  42
ATOM     42  C   UNL A   1      40.504  20.413  26.288  1.00  0.00     0.338 C 
ATOM     43  O   UNL A   1      40.765  19.278  25.948  1.00  0.00    -0.246 OA
BRANCH  42  44
ATOM     44  C   UNL A   1      41.516  21.468  26.523  1.00  0.00     0.060 A 
ATOM     45  C   UNL A   1      42.873  21.167  26.333  1.00  0.00     0.016 A 
ATOM     46  C   UNL A   1      41.127  22.743  26.936  1.00  0.00     0.016 A 
ATOM     47  C   UNL A   1      43.848  22.126  26.611  1.00  0.00     0.010 A 
ATOM     48  C   UNL A   1      42.103  23.695  27.237  1.00  0.00     0.010 A 
ATOM     49  C   UNL A   1      43.469  23.375  27.120  1.00  0.00    -0.014 A 
BRANCH  49  50
ATOM     50  C   UNL A   1      44.477  24.247  27.769  1.00  0.00     0.031 A 
ATOM     51  C   UNL A   1      45.443  24.983  26.879  1.00  0.00     0.074 A 
ATOM     52  C   UNL A   1      44.538  24.397  29.102  1.00  0.00     0.049 A 
ATOM     53  N   UNL A   1      46.475  25.722  27.194  1.00  0.00    -0.248 NA
ATOM     54  C   UNL A   1      45.211  24.857  25.431  1.00  0.00     0.031 C 
ATOM     55  C   UNL A   1      43.623  23.795  30.066  1.00  0.00     0.029 A 
ATOM     56  N   UNL A   1      45.428  25.103  29.875  1.00  0.00    -0.354 N 
ATOM     57  C   UNL A   1      47.020  26.137  25.985  1.00  0.00     0.074 A 
ATOM     58  C   UNL A   1      46.230  25.539  24.932  1.00  0.00     0.031 C 
ATOM     59  C   UNL A   1      44.007  24.145  31.306  1.00  0.00     0.029 A 
ATOM     60  C   UNL A   1      45.218  24.961  31.224  1.00  0.00     0.049 A 
ATOM     61  H   UNL A   1      46.148  25.658  29.497  1.00  0.00     0.167 HD
ATOM     62  C   UNL A   1      48.080  26.951  25.770  1.00  0.00     0.037 A 
ATOM     63  C   UNL A   1      45.941  25.416  32.266  1.00  0.00     0.037 A 
ATOM     64  C   UNL A   1      48.871  27.535  26.821  1.00  0.00     0.049 A 
ATOM     65  C   UNL A   1      47.183  26.234  32.005  1.00  0.00     0.074 A 
ATOM     66  C   UNL A   1      49.968  28.370  26.714  1.00  0.00     0.029 A 
ATOM     67  N   UNL A   1      48.650  27.334  28.176  1.00  0.00    -0.354 N 
ATOM     68  N   UNL A   1      47.693  26.630  30.862  1.00  0.00    -0.248 NA
ATOM     69  C   UNL A   1      47.950  26.669  33.181  1.00  0.00     0.031 C 
ATOM     70  C   UNL A   1      50.450  28.623  28.002  1.00  0.00     0.029 A 
ATOM     71  C   UNL A   1      49.608  28.008  28.915  1.00  0.00     0.049 A 
ATOM     72  H   UNL A   1      47.921  26.792  28.555  1.00  0.00     0.167 HD
ATOM     73  C   UNL A   1      48.809  27.394  31.183  1.00  0.00     0.074 A 
ATOM     74  C   UNL A   1      48.902  27.408  32.628  1.00  0.00     0.031 C 
ATOM     75  C   UNL A   1      49.673  28.033  30.356  1.00  0.00     0.037 A 
BRANCH  62  76
ATOM     76  C   UNL A   1      48.464  27.222  24.342  1.00  0.00     0.064 A 
ATOM     77  C   UNL A   1      49.659  26.734  23.792  1.00  0.00     0.173 A 
ATOM     78  C   UNL A   1      47.624  27.981  23.513  1.00  0.00     0.173 A 
ATOM     79  F   UNL A   1      50.507  26.016  24.544  1.00  0.00    -0.203 F 
ATOM     80  C   UNL A   1      50.018  27.030  22.479  1.00  0.00     0.198 A 
ATOM     81  C   UNL A   1      47.967  28.242  22.190  1.00  0.00     0.198 A 
ATOM     82  F   UNL A   1      46.467  28.469  23.986  1.00  0.00    -0.203 F 
ATOM     83  F   UNL A   1      51.195  26.609  21.996  1.00  0.00    -0.200 F 
ATOM     84  C   UNL A   1      49.168  27.778  21.678  1.00  0.00     0.200 A 
ATOM     85  F   UNL A   1      47.139  28.954  21.413  1.00  0.00    -0.200 F 
ATOM     86  F   UNL A   1      49.514  28.060  20.414  1.00  0.00    -0.200 F 
ENDBRANCH  62  76
BRANCH  63  87
ATOM     87  C   UNL A   1      45.518  25.111  33.659  1.00  0.00     0.064 A 
ATOM     88  C   UNL A   1      44.568  25.906  34.315  1.00  0.00     0.173 A 
ATOM     89  C   UNL A   1      46.069  24.035  34.372  1.00  0.00     0.173 A 
ATOM     90  F   UNL A   1      44.032  26.964  33.686  1.00  0.00    -0.203 F 
ATOM     91  C   UNL A   1      44.199  25.650  35.634  1.00  0.00     0.198 A 
ATOM     92  C   UNL A   1      45.674  23.761  35.681  1.00  0.00     0.198 A 
ATOM     93  F   UNL A   1      46.984  23.244  33.795  1.00  0.00    -0.203 F 
ATOM     94  F   UNL A   1      43.325  26.458  36.252  1.00  0.00    -0.200 F 
ATOM     95  C   UNL A   1      44.747  24.574  36.313  1.00  0.00     0.200 A 
ATOM     96  F   UNL A   1      46.199  22.711  36.329  1.00  0.00    -0.200 F 
ATOM     97  F   UNL A   1      44.388  24.324  37.581  1.00  0.00    -0.200 F 
ENDBRANCH  63  87
BRANCH  75  98
ATOM     98  C   UNL A   1      50.758  28.864  30.983  1.00  0.00     0.064 A 
ATOM     99  C   UNL A   1      52.060  28.377  31.167  1.00  0.00     0.173 A 
ATOM    100  C   UNL A   1      50.499  30.195  31.349  1.00  0.00     0.173 A 
ATOM    101  F   UNL A   1      52.358  27.110  30.846  1.00  0.00    -0.203 F 
ATOM    102  C   UNL A   1      53.055  29.184  31.716  1.00  0.00     0.198 A 
ATOM    103  C   UNL A   1      51.504  31.009  31.864  1.00  0.00     0.198 A 
ATOM    104  F   UNL A   1      49.272  30.715  31.187  1.00  0.00    -0.203 F 
ATOM    105  F   UNL A   1      54.280  28.682  31.926  1.00  0.00    -0.200 F 
ATOM    106  C   UNL A   1      52.780  30.500  32.053  1.00  0.00     0.200 A 
ATOM    107  F   UNL A   1      51.239  32.286  32.171  1.00  0.00    -0.200 F 
ATOM    108  F   UNL A   1      53.742  31.279  32.567  1.00  0.00    -0.200 F 
ENDBRANCH  75  98
ENDBRANCH  49  50
ENDBRANCH  42  44
ENDBRANCH  41  42
ENDBRANCH  40  41
ENDBRANCH  39  40
ENDBRANCH  38  39
ENDBRANCH  37  38
ENDBRANCH  36  37
ENDBRANCH  35  36
ENDBRANCH   1  35
TORSDOF 26
ENDMDL
