MODEL 1
REMARK VINA RESULT:     -11.7      0.000      0.000
REMARK SMILES Cc1cccc(S(=O)(=O)Nc2cc(C(=O)OCCOCCOCCOCCOC(=O)c3ccc(-c4c5nc(c(-c6c(F)c(F)c(F)c(F)c6F)c6ccc([nH]6)c(-c6c(F)c(F)c(F)c(F)c6F)c6nc(c(-c7c(F)c(F)c(F)c(F)c7F)c7ccc4[nH]7)C=C6)C=C5)cc3)ccc2N2CCC[C@H](C[NH+]3CCCC3)C2)c1
REMARK SMILES IDX 21 1 20 2 19 3 18 4 17 5 16 6 14 7 15 8 13 9 11 10 12 11
REMARK SMILES IDX 96 12 95 13 94 14 10 15 7 17 8 18 9 19 6 20 1 21 2 22 3 23
REMARK SMILES IDX 109 24 4 25 5 26 97 27 98 28 108 29 99 30 101 31 100 32
REMARK SMILES IDX 102 33 103 34 104 35 107 36 105 38 106 39 22 40 23 41 24 42
REMARK SMILES IDX 25 43 26 44 27 45 28 46 29 47 30 48 31 49 32 50 93 51 33 52
REMARK SMILES IDX 92 53 34 54 35 55 36 56 86 57 37 58 91 59 85 60 87 61 38 62
REMARK SMILES IDX 90 63 84 64 83 65 39 67 71 68 51 69 70 70 52 71 55 72 69 73
REMARK SMILES IDX 88 74 53 75 54 76 68 78 89 79 56 80 40 81 41 82 49 83 42 84
REMARK SMILES IDX 43 85 47 86 50 87 44 88 45 89 48 90 46 91 72 92 73 93 81 94
REMARK SMILES IDX 74 95 75 96 79 97 82 98 76 99 77 100 80 101 78 102 57 103
REMARK SMILES IDX 58 104 66 105 59 106 60 107 64 108 67 109 61 110 62 111
REMARK SMILES IDX 65 112 63 113
REMARK H PARENT 10 16 103 37 87 66 55 77
REMARK Flexibility Score: inf
ROOT
ATOM      1  C   UNL A   1      40.837  22.308  27.385  1.00  0.00     0.188 C 
ENDROOT
BRANCH   1   2
ATOM      2  C   UNL A   1      41.231  20.693  27.105  1.00  0.00     0.188 C 
BRANCH   2   3
ATOM      3  O   UNL A   1      40.490  19.217  26.282  1.00  0.00    -0.376 OA
BRANCH   3   4
ATOM      4  C   UNL A   1      39.009  18.898  25.355  1.00  0.00     0.202 C 
BRANCH   4   5
ATOM      5  C   UNL A   1      37.602  20.092  25.070  1.00  0.00     0.261 C 
BRANCH   5   6
ATOM      6  O   UNL A   1      37.729  21.908  25.137  1.00  0.00    -0.460 OA
BRANCH   6   7
ATOM      7  C   UNL A   1      37.030  23.224  25.286  1.00  0.00     0.338 C 
ATOM      8  O   UNL A   1      37.486  24.201  25.897  1.00  0.00    -0.246 OA
BRANCH   7   9
ATOM      9  C   UNL A   1      35.626  23.673  24.624  1.00  0.00     0.062 A 
ATOM     10  C   UNL A   1      33.614  23.540  23.106  1.00  0.00     0.073 A 
ATOM     11  C   UNL A   1      34.906  23.181  23.501  1.00  0.00     0.044 A 
ATOM     12  C   UNL A   1      33.154  24.772  23.541  1.00  0.00     0.061 A 
ATOM     13  C   UNL A   1      33.977  25.486  24.427  1.00  0.00     0.029 A 
ATOM     14  C   UNL A   1      35.127  24.915  25.022  1.00  0.00     0.018 A 
BRANCH  10  15
ATOM     15  N   UNL A   1      32.900  22.771  22.081  1.00  0.00    -0.277 N 
ATOM     16  H   UNL A   1      33.024  23.043  21.143  1.00  0.00     0.180 HD
BRANCH  15  17
ATOM     17  S   UNL A   1      31.854  21.421  22.389  1.00  0.00     0.261 S 
ATOM     18  O   UNL A   1      31.779  20.694  21.125  1.00  0.00    -0.201 OA
ATOM     19  O   UNL A   1      30.639  21.924  22.974  1.00  0.00    -0.201 OA
BRANCH  17  20
ATOM     20  C   UNL A   1      32.530  20.290  23.564  1.00  0.00     0.088 A 
ATOM     21  C   UNL A   1      33.292  16.689  23.498  1.00  0.00     0.044 C 
ATOM     22  C   UNL A   1      33.237  18.065  24.034  1.00  0.00    -0.050 A 
ATOM     23  C   UNL A   1      33.201  18.313  25.407  1.00  0.00     0.003 A 
ATOM     24  C   UNL A   1      32.988  19.073  23.121  1.00  0.00     0.025 A 
ATOM     25  C   UNL A   1      32.908  19.593  25.862  1.00  0.00     0.002 A 
ATOM     26  C   UNL A   1      32.546  20.582  24.939  1.00  0.00     0.022 A 
ENDBRANCH  17  20
ENDBRANCH  15  17
ENDBRANCH  10  15
BRANCH  12  27
ATOM     27  N   UNL A   1      31.965  25.264  23.044  1.00  0.00    -0.369 N 
ATOM     28  C   UNL A   1      31.943  26.168  21.901  1.00  0.00     0.116 C 
ATOM     29  C   UNL A   1      30.815  25.263  23.946  1.00  0.00     0.126 C 
ATOM     30  C   UNL A   1      31.593  27.582  22.349  1.00  0.00     0.022 C 
ATOM     31  C   UNL A   1      30.515  26.668  24.472  1.00  0.00     0.064 C 
ATOM     32  C   UNL A   1      30.353  27.579  23.244  1.00  0.00     0.013 C 
BRANCH  31  33
ATOM     33  C   UNL A   1      31.579  27.091  25.519  1.00  0.00     0.267 C 
BRANCH  33  34
ATOM     34  N   UNL A   1      31.914  28.499  25.732  1.00  0.00    -0.335 N 
ATOM     35  C   UNL A   1      33.240  28.884  25.263  1.00  0.00     0.262 C 
ATOM     36  C   UNL A   1      31.780  28.975  27.107  1.00  0.00     0.262 C 
ATOM     37  H   UNL A   1      31.200  28.949  25.159  1.00  0.00     0.348 HD
ATOM     38  C   UNL A   1      34.121  28.822  26.494  1.00  0.00     0.067 C 
ATOM     39  C   UNL A   1      33.192  29.226  27.626  1.00  0.00     0.067 C 
ENDBRANCH  33  34
ENDBRANCH  31  33
ENDBRANCH  12  27
ENDBRANCH   7   9
ENDBRANCH   6   7
ENDBRANCH   5   6
ENDBRANCH   4   5
ENDBRANCH   3   4
ENDBRANCH   2   3
ENDBRANCH   1   2
BRANCH   1  40
ATOM     40  O   UNL A   1      41.278  23.296  28.321  1.00  0.00    -0.377 OA
BRANCH  40  41
ATOM     41  C   UNL A   1      42.389  23.216  29.185  1.00  0.00     0.188 C 
BRANCH  41  42
ATOM     42  C   UNL A   1      43.650  22.542  28.763  1.00  0.00     0.188 C 
BRANCH  42  43
ATOM     43  O   UNL A   1      43.914  22.805  27.408  1.00  0.00    -0.376 OA
BRANCH  43  44
ATOM     44  C   UNL A   1      45.258  23.142  27.154  1.00  0.00     0.202 C 
BRANCH  44  45
ATOM     45  C   UNL A   1      45.601  24.551  27.666  1.00  0.00     0.261 C 
BRANCH  45  46
ATOM     46  O   UNL A   1      45.346  25.542  26.633  1.00  0.00    -0.460 OA
BRANCH  46  47
ATOM     47  C   UNL A   1      44.441  25.253  25.623  1.00  0.00     0.338 C 
ATOM     48  O   UNL A   1      44.689  24.606  24.631  1.00  0.00    -0.246 OA
BRANCH  47  49
ATOM     49  C   UNL A   1      43.225  26.153  25.773  1.00  0.00     0.060 A 
ATOM     50  C   UNL A   1      43.201  27.513  25.392  1.00  0.00     0.016 A 
ATOM     51  C   UNL A   1      42.460  25.854  26.833  1.00  0.00     0.016 A 
ATOM     52  C   UNL A   1      42.860  28.595  26.321  1.00  0.00     0.010 A 
ATOM     53  C   UNL A   1      42.338  26.895  27.741  1.00  0.00     0.010 A 
ATOM     54  C   UNL A   1      42.665  28.357  27.678  1.00  0.00    -0.014 A 
BRANCH  54  55
ATOM     55  C   UNL A   1      42.642  29.637  29.060  1.00  0.00     0.031 A 
ATOM     56  C   UNL A   1      40.892  30.384  29.757  1.00  0.00     0.074 A 
ATOM     57  C   UNL A   1      44.004  30.067  29.335  1.00  0.00     0.049 A 
ATOM     58  N   UNL A   1      40.516  31.692  29.763  1.00  0.00    -0.248 NA
ATOM     59  C   UNL A   1      39.280  29.839  29.729  1.00  0.00     0.031 C 
ATOM     60  C   UNL A   1      44.638  31.044  30.284  1.00  0.00     0.029 A 
ATOM     61  N   UNL A   1      45.237  29.734  28.691  1.00  0.00    -0.354 N 
ATOM     62  C   UNL A   1      39.216  32.039  29.983  1.00  0.00     0.074 A 
ATOM     63  C   UNL A   1      38.470  30.888  29.693  1.00  0.00     0.031 C 
ATOM     64  C   UNL A   1      45.955  31.186  30.259  1.00  0.00     0.029 A 
ATOM     65  C   UNL A   1      46.228  30.721  28.989  1.00  0.00     0.049 A 
ATOM     66  H   UNL A   1      45.382  28.940  28.124  1.00  0.00     0.167 HD
ATOM     67  C   UNL A   1      38.891  33.263  30.478  1.00  0.00     0.037 A 
ATOM     68  C   UNL A   1      46.680  31.647  28.117  1.00  0.00     0.037 A 
ATOM     69  C   UNL A   1      40.098  34.026  30.807  1.00  0.00     0.049 A 
ATOM     70  C   UNL A   1      45.925  33.059  28.290  1.00  0.00     0.074 A 
ATOM     71  C   UNL A   1      40.700  34.296  32.013  1.00  0.00     0.029 A 
ATOM     72  N   UNL A   1      41.046  34.389  29.836  1.00  0.00    -0.354 N 
ATOM     73  N   UNL A   1      44.773  33.325  28.918  1.00  0.00    -0.248 NA
ATOM     74  C   UNL A   1      46.542  34.302  27.856  1.00  0.00     0.031 C 
ATOM     75  C   UNL A   1      41.917  34.952  31.731  1.00  0.00     0.029 A 
ATOM     76  C   UNL A   1      42.282  34.779  30.392  1.00  0.00     0.049 A 
ATOM     77  H   UNL A   1      40.866  34.372  28.868  1.00  0.00     0.167 HD
ATOM     78  C   UNL A   1      44.477  34.690  28.973  1.00  0.00     0.074 A 
ATOM     79  C   UNL A   1      45.636  35.226  28.234  1.00  0.00     0.031 C 
ATOM     80  C   UNL A   1      43.400  35.372  29.579  1.00  0.00     0.037 A 
BRANCH  67  81
ATOM     81  C   UNL A   1      37.489  33.508  31.041  1.00  0.00     0.064 A 
ATOM     82  C   UNL A   1      36.397  33.788  30.196  1.00  0.00     0.173 A 
ATOM     83  C   UNL A   1      37.175  33.564  32.420  1.00  0.00     0.173 A 
ATOM     84  F   UNL A   1      36.472  33.618  28.872  1.00  0.00    -0.203 F 
ATOM     85  C   UNL A   1      35.161  34.238  30.675  1.00  0.00     0.198 A 
ATOM     86  C   UNL A   1      35.953  34.056  32.901  1.00  0.00     0.198 A 
ATOM     87  F   UNL A   1      38.025  33.095  33.345  1.00  0.00    -0.203 F 
ATOM     88  F   UNL A   1      34.175  34.512  29.807  1.00  0.00    -0.200 F 
ATOM     89  C   UNL A   1      34.950  34.411  32.025  1.00  0.00     0.200 A 
ATOM     90  F   UNL A   1      35.752  34.178  34.222  1.00  0.00    -0.200 F 
ATOM     91  F   UNL A   1      33.776  34.871  32.478  1.00  0.00    -0.200 F 
ENDBRANCH  67  81
BRANCH  68  92
ATOM     92  C   UNL A   1      47.285  30.787  27.042  1.00  0.00     0.064 A 
ATOM     93  C   UNL A   1      48.498  30.086  27.411  1.00  0.00     0.173 A 
ATOM     94  C   UNL A   1      46.459  30.149  26.128  1.00  0.00     0.173 A 
ATOM     95  F   UNL A   1      49.352  30.639  28.294  1.00  0.00    -0.203 F 
ATOM     96  C   UNL A   1      48.660  28.725  27.152  1.00  0.00     0.198 A 
ATOM     97  C   UNL A   1      46.704  28.813  25.771  1.00  0.00     0.198 A 
ATOM     98  F   UNL A   1      45.310  30.726  25.761  1.00  0.00    -0.203 F 
ATOM     99  F   UNL A   1      49.590  28.010  27.808  1.00  0.00    -0.200 F 
ATOM    100  C   UNL A   1      47.744  28.085  26.349  1.00  0.00     0.200 A 
ATOM    101  F   UNL A   1      45.802  28.167  25.019  1.00  0.00    -0.200 F 
ATOM    102  F   UNL A   1      47.802  26.753  26.207  1.00  0.00    -0.200 F 
ENDBRANCH  68  92
BRANCH  80 103
ATOM    103  C   UNL A   1      43.261  36.901  29.519  1.00  0.00     0.064 A 
ATOM    104  C   UNL A   1      43.753  37.780  30.488  1.00  0.00     0.173 A 
ATOM    105  C   UNL A   1      42.493  37.521  28.491  1.00  0.00     0.173 A 
ATOM    106  F   UNL A   1      44.268  37.327  31.639  1.00  0.00    -0.203 F 
ATOM    107  C   UNL A   1      43.686  39.166  30.322  1.00  0.00     0.198 A 
ATOM    108  C   UNL A   1      42.329  38.896  28.392  1.00  0.00     0.198 A 
ATOM    109  F   UNL A   1      41.872  36.823  27.532  1.00  0.00    -0.203 F 
ATOM    110  F   UNL A   1      44.314  39.965  31.197  1.00  0.00    -0.200 F 
ATOM    111  C   UNL A   1      42.980  39.723  29.272  1.00  0.00     0.200 A 
ATOM    112  F   UNL A   1      41.552  39.402  27.424  1.00  0.00    -0.200 F 
ATOM    113  F   UNL A   1      42.917  41.051  29.116  1.00  0.00    -0.200 F 
ENDBRANCH  80 103
ENDBRANCH  54  55
ENDBRANCH  47  49
ENDBRANCH  46  47
ENDBRANCH  45  46
ENDBRANCH  44  45
ENDBRANCH  43  44
ENDBRANCH  42  43
ENDBRANCH  41  42
ENDBRANCH  40  41
ENDBRANCH   1  40
TORSDOF 26
ENDMDL
MODEL 2
REMARK VINA RESULT:     -11.7      3.607      6.726
REMARK SMILES Cc1cccc(S(=O)(=O)Nc2cc(C(=O)OCCOCCOCCOCCOC(=O)c3ccc(-c4c5nc(c(-c6c(F)c(F)c(F)c(F)c6F)c6ccc([nH]6)c(-c6c(F)c(F)c(F)c(F)c6F)c6nc(c(-c7c(F)c(F)c(F)c(F)c7F)c7ccc4[nH]7)C=C6)C=C5)cc3)ccc2N2CCC[C@H](C[NH+]3CCCC3)C2)c1
REMARK SMILES IDX 21 1 20 2 19 3 18 4 17 5 16 6 14 7 15 8 13 9 11 10 12 11
REMARK SMILES IDX 96 12 95 13 94 14 10 15 7 17 8 18 9 19 6 20 1 21 2 22 3 23
REMARK SMILES IDX 109 24 4 25 5 26 97 27 98 28 108 29 99 30 101 31 100 32
REMARK SMILES IDX 102 33 103 34 104 35 107 36 105 38 106 39 22 40 23 41 24 42
REMARK SMILES IDX 25 43 26 44 27 45 28 46 29 47 30 48 31 49 32 50 93 51 33 52
REMARK SMILES IDX 92 53 34 54 35 55 36 56 86 57 37 58 91 59 85 60 87 61 38 62
REMARK SMILES IDX 90 63 84 64 83 65 39 67 71 68 51 69 70 70 52 71 55 72 69 73
REMARK SMILES IDX 88 74 53 75 54 76 68 78 89 79 56 80 40 81 41 82 49 83 42 84
REMARK SMILES IDX 43 85 47 86 50 87 44 88 45 89 48 90 46 91 72 92 73 93 81 94
REMARK SMILES IDX 74 95 75 96 79 97 82 98 76 99 77 100 80 101 78 102 57 103
REMARK SMILES IDX 58 104 66 105 59 106 60 107 64 108 67 109 61 110 62 111
REMARK SMILES IDX 65 112 63 113
REMARK H PARENT 10 16 103 37 87 66 55 77
REMARK Flexibility Score: inf
ROOT
ATOM      1  C   UNL A   1      40.488  20.432  26.928  1.00  0.00     0.188 C 
ENDROOT
BRANCH   1   2
ATOM      2  C   UNL A   1      39.836  19.629  25.597  1.00  0.00     0.188 C 
BRANCH   2   3
ATOM      3  O   UNL A   1      38.192  19.012  25.028  1.00  0.00    -0.376 OA
BRANCH   3   4
ATOM      4  C   UNL A   1      37.021  17.813  25.616  1.00  0.00     0.202 C 
BRANCH   4   5
ATOM      5  C   UNL A   1      35.735  16.927  24.593  1.00  0.00     0.261 C 
BRANCH   5   6
ATOM      6  O   UNL A   1      33.990  17.426  24.427  1.00  0.00    -0.460 OA
BRANCH   6   7
ATOM      7  C   UNL A   1      32.861  18.276  24.923  1.00  0.00     0.338 C 
ATOM      8  O   UNL A   1      31.951  17.878  25.663  1.00  0.00    -0.246 OA
BRANCH   7   9
ATOM      9  C   UNL A   1      32.645  19.861  24.689  1.00  0.00     0.062 A 
ATOM     10  C   UNL A   1      31.513  22.110  24.852  1.00  0.00     0.073 A 
ATOM     11  C   UNL A   1      31.538  20.715  24.946  1.00  0.00     0.044 A 
ATOM     12  C   UNL A   1      32.462  22.693  24.030  1.00  0.00     0.061 A 
ATOM     13  C   UNL A   1      33.427  21.843  23.464  1.00  0.00     0.029 A 
ATOM     14  C   UNL A   1      33.571  20.491  23.855  1.00  0.00     0.018 A 
BRANCH  10  15
ATOM     15  N   UNL A   1      30.385  22.879  25.389  1.00  0.00    -0.277 N 
ATOM     16  H   UNL A   1      29.512  22.767  24.949  1.00  0.00     0.180 HD
BRANCH  15  17
ATOM     17  S   UNL A   1      30.466  23.970  26.736  1.00  0.00     0.261 S 
ATOM     18  O   UNL A   1      31.721  23.657  27.413  1.00  0.00    -0.201 OA
ATOM     19  O   UNL A   1      29.234  23.859  27.471  1.00  0.00    -0.201 OA
BRANCH  17  20
ATOM     20  C   UNL A   1      30.586  25.660  26.238  1.00  0.00     0.088 A 
ATOM     21  C   UNL A   1      29.798  27.467  23.128  1.00  0.00     0.044 C 
ATOM     22  C   UNL A   1      30.216  27.283  24.534  1.00  0.00    -0.050 A 
ATOM     23  C   UNL A   1      31.077  28.182  25.165  1.00  0.00     0.003 A 
ATOM     24  C   UNL A   1      29.907  26.066  25.114  1.00  0.00     0.025 A 
ATOM     25  C   UNL A   1      31.633  27.847  26.393  1.00  0.00     0.002 A 
ATOM     26  C   UNL A   1      31.408  26.571  26.923  1.00  0.00     0.022 A 
ENDBRANCH  17  20
ENDBRANCH  15  17
ENDBRANCH  10  15
BRANCH  12  27
ATOM     27  N   UNL A   1      32.382  24.042  23.753  1.00  0.00    -0.369 N 
ATOM     28  C   UNL A   1      31.859  24.520  22.481  1.00  0.00     0.116 C 
ATOM     29  C   UNL A   1      33.251  24.932  24.521  1.00  0.00     0.126 C 
ATOM     30  C   UNL A   1      32.986  25.069  21.615  1.00  0.00     0.022 C 
ATOM     31  C   UNL A   1      34.438  25.414  23.685  1.00  0.00     0.064 C 
ATOM     32  C   UNL A   1      33.856  26.046  22.409  1.00  0.00     0.013 C 
BRANCH  31  33
ATOM     33  C   UNL A   1      35.463  24.266  23.490  1.00  0.00     0.267 C 
BRANCH  33  34
ATOM     34  N   UNL A   1      36.456  23.956  24.518  1.00  0.00    -0.335 N 
ATOM     35  C   UNL A   1      37.069  22.638  24.390  1.00  0.00     0.262 C 
ATOM     36  C   UNL A   1      35.996  24.092  25.897  1.00  0.00     0.262 C 
ATOM     37  H   UNL A   1      37.150  24.679  24.332  1.00  0.00     0.348 HD
ATOM     38  C   UNL A   1      36.285  21.751  25.335  1.00  0.00     0.067 C 
ATOM     39  C   UNL A   1      35.902  22.682  26.472  1.00  0.00     0.067 C 
ENDBRANCH  33  34
ENDBRANCH  31  33
ENDBRANCH  12  27
ENDBRANCH   7   9
ENDBRANCH   6   7
ENDBRANCH   5   6
ENDBRANCH   4   5
ENDBRANCH   3   4
ENDBRANCH   2   3
ENDBRANCH   1   2
BRANCH   1  40
ATOM     40  O   UNL A   1      41.779  20.959  27.242  1.00  0.00    -0.377 OA
BRANCH  40  41
ATOM     41  C   UNL A   1      42.860  21.153  26.358  1.00  0.00     0.188 C 
BRANCH  41  42
ATOM     42  C   UNL A   1      43.473  22.498  26.169  1.00  0.00     0.188 C 
BRANCH  42  43
ATOM     43  O   UNL A   1      42.949  23.408  27.102  1.00  0.00    -0.376 OA
BRANCH  43  44
ATOM     44  C   UNL A   1      43.841  23.711  28.151  1.00  0.00     0.202 C 
BRANCH  44  45
ATOM     45  C   UNL A   1      43.097  24.062  29.450  1.00  0.00     0.261 C 
BRANCH  45  46
ATOM     46  O   UNL A   1      43.964  24.813  30.345  1.00  0.00    -0.460 OA
BRANCH  46  47
ATOM     47  C   UNL A   1      44.484  24.189  31.469  1.00  0.00     0.338 C 
ATOM     48  O   UNL A   1      44.555  22.992  31.630  1.00  0.00    -0.246 OA
BRANCH  47  49
ATOM     49  C   UNL A   1      44.613  25.210  32.588  1.00  0.00     0.060 A 
ATOM     50  C   UNL A   1      43.529  25.658  33.375  1.00  0.00     0.016 A 
ATOM     51  C   UNL A   1      45.566  26.129  32.370  1.00  0.00     0.016 A 
ATOM     52  C   UNL A   1      43.160  27.071  33.493  1.00  0.00     0.010 A 
ATOM     53  C   UNL A   1      45.085  27.429  32.332  1.00  0.00     0.010 A 
ATOM     54  C   UNL A   1      43.779  28.053  32.726  1.00  0.00    -0.014 A 
BRANCH  54  55
ATOM     55  C   UNL A   1      43.171  29.812  32.432  1.00  0.00     0.031 A 
ATOM     56  C   UNL A   1      42.804  31.059  33.987  1.00  0.00     0.074 A 
ATOM     57  C   UNL A   1      42.863  29.981  31.020  1.00  0.00     0.049 A 
ATOM     58  N   UNL A   1      41.619  31.660  34.280  1.00  0.00    -0.248 NA
ATOM     59  C   UNL A   1      43.322  31.112  35.607  1.00  0.00     0.031 C 
ATOM     60  C   UNL A   1      42.343  31.107  30.175  1.00  0.00     0.029 A 
ATOM     61  N   UNL A   1      42.883  29.042  29.942  1.00  0.00    -0.354 N 
ATOM     62  C   UNL A   1      41.416  32.236  35.499  1.00  0.00     0.074 A 
ATOM     63  C   UNL A   1      42.365  31.651  36.349  1.00  0.00     0.031 C 
ATOM     64  C   UNL A   1      42.178  30.900  28.876  1.00  0.00     0.029 A 
ATOM     65  C   UNL A   1      42.083  29.523  28.858  1.00  0.00     0.049 A 
ATOM     66  H   UNL A   1      43.375  28.188  29.944  1.00  0.00     0.167 HD
ATOM     67  C   UNL A   1      40.505  33.232  35.660  1.00  0.00     0.037 A 
ATOM     68  C   UNL A   1      40.874  29.030  28.515  1.00  0.00     0.037 A 
ATOM     69  C   UNL A   1      39.917  33.612  34.373  1.00  0.00     0.049 A 
ATOM     70  C   UNL A   1      39.668  29.892  29.145  1.00  0.00     0.074 A 
ATOM     71  C   UNL A   1      40.148  34.691  33.553  1.00  0.00     0.029 A 
ATOM     72  N   UNL A   1      39.174  32.712  33.591  1.00  0.00    -0.354 N 
ATOM     73  N   UNL A   1      39.702  30.774  30.151  1.00  0.00    -0.248 NA
ATOM     74  C   UNL A   1      38.345  29.889  28.544  1.00  0.00     0.031 C 
ATOM     75  C   UNL A   1      39.411  34.478  32.369  1.00  0.00     0.029 A 
ATOM     76  C   UNL A   1      39.018  33.139  32.256  1.00  0.00     0.049 A 
ATOM     77  H   UNL A   1      38.800  31.870  33.940  1.00  0.00     0.167 HD
ATOM     78  C   UNL A   1      38.482  31.427  30.354  1.00  0.00     0.074 A 
ATOM     79  C   UNL A   1      37.671  30.767  29.315  1.00  0.00     0.031 C 
ATOM     80  C   UNL A   1      38.125  32.442  31.267  1.00  0.00     0.037 A 
BRANCH  67  81
ATOM     81  C   UNL A   1      40.536  34.094  36.925  1.00  0.00     0.064 A 
ATOM     82  C   UNL A   1      39.606  33.903  37.967  1.00  0.00     0.173 A 
ATOM     83  C   UNL A   1      41.411  35.186  37.132  1.00  0.00     0.173 A 
ATOM     84  F   UNL A   1      38.817  32.825  38.016  1.00  0.00    -0.203 F 
ATOM     85  C   UNL A   1      39.456  34.806  39.027  1.00  0.00     0.198 A 
ATOM     86  C   UNL A   1      41.235  36.115  38.168  1.00  0.00     0.198 A 
ATOM     87  F   UNL A   1      42.498  35.359  36.365  1.00  0.00    -0.203 F 
ATOM     88  F   UNL A   1      38.529  34.572  39.968  1.00  0.00    -0.200 F 
ATOM     89  C   UNL A   1      40.243  35.933  39.107  1.00  0.00     0.200 A 
ATOM     90  F   UNL A   1      42.039  37.186  38.253  1.00  0.00    -0.200 F 
ATOM     91  F   UNL A   1      40.076  36.811  40.106  1.00  0.00    -0.200 F 
ENDBRANCH  67  81
BRANCH  68  92
ATOM     92  C   UNL A   1      41.212  27.609  28.159  1.00  0.00     0.064 A 
ATOM     93  C   UNL A   1      40.406  26.593  28.806  1.00  0.00     0.173 A 
ATOM     94  C   UNL A   1      41.667  27.312  26.882  1.00  0.00     0.173 A 
ATOM     95  F   UNL A   1      39.924  26.807  30.046  1.00  0.00    -0.203 F 
ATOM     96  C   UNL A   1      39.829  25.550  28.081  1.00  0.00     0.198 A 
ATOM     97  C   UNL A   1      41.177  26.185  26.204  1.00  0.00     0.198 A 
ATOM     98  F   UNL A   1      42.395  28.214  26.214  1.00  0.00    -0.203 F 
ATOM     99  F   UNL A   1      38.805  24.846  28.593  1.00  0.00    -0.200 F 
ATOM    100  C   UNL A   1      40.201  25.364  26.769  1.00  0.00     0.200 A 
ATOM    101  F   UNL A   1      41.502  26.009  24.916  1.00  0.00    -0.200 F 
ATOM    102  F   UNL A   1      39.553  24.461  26.018  1.00  0.00    -0.200 F 
ENDBRANCH  68  92
BRANCH  80 103
ATOM    103  C   UNL A   1      36.706  33.029  31.327  1.00  0.00     0.064 A 
ATOM    104  C   UNL A   1      35.777  32.754  32.333  1.00  0.00     0.173 A 
ATOM    105  C   UNL A   1      36.205  33.827  30.258  1.00  0.00     0.173 A 
ATOM    106  F   UNL A   1      36.017  31.819  33.264  1.00  0.00    -0.203 F 
ATOM    107  C   UNL A   1      34.540  33.402  32.387  1.00  0.00     0.198 A 
ATOM    108  C   UNL A   1      34.930  34.377  30.257  1.00  0.00     0.198 A 
ATOM    109  F   UNL A   1      36.928  34.114  29.169  1.00  0.00    -0.203 F 
ATOM    110  F   UNL A   1      33.751  33.228  33.456  1.00  0.00    -0.200 F 
ATOM    111  C   UNL A   1      34.120  34.218  31.353  1.00  0.00     0.200 A 
ATOM    112  F   UNL A   1      34.512  35.078  29.193  1.00  0.00    -0.200 F 
ATOM    113  F   UNL A   1      32.935  34.838  31.406  1.00  0.00    -0.200 F 
ENDBRANCH  80 103
ENDBRANCH  54  55
ENDBRANCH  47  49
ENDBRANCH  46  47
ENDBRANCH  45  46
ENDBRANCH  44  45
ENDBRANCH  43  44
ENDBRANCH  42  43
ENDBRANCH  41  42
ENDBRANCH  40  41
ENDBRANCH   1  40
TORSDOF 26
ENDMDL
MODEL 3
REMARK VINA RESULT:     -11.2      3.996      8.420
REMARK SMILES Cc1cccc(S(=O)(=O)Nc2cc(C(=O)OCCOCCOCCOCCOC(=O)c3ccc(-c4c5nc(c(-c6c(F)c(F)c(F)c(F)c6F)c6ccc([nH]6)c(-c6c(F)c(F)c(F)c(F)c6F)c6nc(c(-c7c(F)c(F)c(F)c(F)c7F)c7ccc4[nH]7)C=C6)C=C5)cc3)ccc2N2CCC[C@H](C[NH+]3CCCC3)C2)c1
REMARK SMILES IDX 21 1 20 2 19 3 18 4 17 5 16 6 14 7 15 8 13 9 11 10 12 11
REMARK SMILES IDX 96 12 95 13 94 14 10 15 7 17 8 18 9 19 6 20 1 21 2 22 3 23
REMARK SMILES IDX 109 24 4 25 5 26 97 27 98 28 108 29 99 30 101 31 100 32
REMARK SMILES IDX 102 33 103 34 104 35 107 36 105 38 106 39 22 40 23 41 24 42
REMARK SMILES IDX 25 43 26 44 27 45 28 46 29 47 30 48 31 49 32 50 93 51 33 52
REMARK SMILES IDX 92 53 34 54 35 55 36 56 86 57 37 58 91 59 85 60 87 61 38 62
REMARK SMILES IDX 90 63 84 64 83 65 39 67 71 68 51 69 70 70 52 71 55 72 69 73
REMARK SMILES IDX 88 74 53 75 54 76 68 78 89 79 56 80 40 81 41 82 49 83 42 84
REMARK SMILES IDX 43 85 47 86 50 87 44 88 45 89 48 90 46 91 72 92 73 93 81 94
REMARK SMILES IDX 74 95 75 96 79 97 82 98 76 99 77 100 80 101 78 102 57 103
REMARK SMILES IDX 58 104 66 105 59 106 60 107 64 108 67 109 61 110 62 111
REMARK SMILES IDX 65 112 63 113
REMARK H PARENT 10 16 103 37 87 66 55 77
REMARK Flexibility Score: inf
ROOT
ATOM      1  C   UNL A   1      40.461  20.265  26.498  1.00  0.00     0.188 C 
ENDROOT
BRANCH   1   2
ATOM      2  C   UNL A   1      39.552  19.267  25.490  1.00  0.00     0.188 C 
BRANCH   2   3
ATOM      3  O   UNL A   1      37.835  18.595  25.400  1.00  0.00    -0.376 OA
BRANCH   3   4
ATOM      4  C   UNL A   1      37.071  17.032  25.752  1.00  0.00     0.202 C 
BRANCH   4   5
ATOM      5  C   UNL A   1      35.652  16.257  24.818  1.00  0.00     0.261 C 
BRANCH   5   6
ATOM      6  O   UNL A   1      33.948  16.901  24.761  1.00  0.00    -0.460 OA
BRANCH   6   7
ATOM      7  C   UNL A   1      32.923  17.829  25.336  1.00  0.00     0.338 C 
ATOM      8  O   UNL A   1      32.084  17.512  26.190  1.00  0.00    -0.246 OA
BRANCH   7   9
ATOM      9  C   UNL A   1      32.758  19.412  25.052  1.00  0.00     0.062 A 
ATOM     10  C   UNL A   1      31.681  21.693  25.111  1.00  0.00     0.073 A 
ATOM     11  C   UNL A   1      31.665  20.301  25.244  1.00  0.00     0.044 A 
ATOM     12  C   UNL A   1      32.674  22.228  24.309  1.00  0.00     0.061 A 
ATOM     13  C   UNL A   1      33.636  21.338  23.803  1.00  0.00     0.029 A 
ATOM     14  C   UNL A   1      33.730  19.994  24.236  1.00  0.00     0.018 A 
BRANCH  10  15
ATOM     15  N   UNL A   1      30.555  22.505  25.584  1.00  0.00    -0.277 N 
ATOM     16  H   UNL A   1      29.689  22.386  25.132  1.00  0.00     0.180 HD
BRANCH  15  17
ATOM     17  S   UNL A   1      30.625  23.660  26.878  1.00  0.00     0.261 S 
ATOM     18  O   UNL A   1      31.874  23.380  27.580  1.00  0.00    -0.201 OA
ATOM     19  O   UNL A   1      29.387  23.586  27.607  1.00  0.00    -0.201 OA
BRANCH  17  20
ATOM     20  C   UNL A   1      30.752  25.323  26.299  1.00  0.00     0.088 A 
ATOM     21  C   UNL A   1      29.751  27.031  23.195  1.00  0.00     0.044 C 
ATOM     22  C   UNL A   1      30.284  26.889  24.566  1.00  0.00    -0.050 A 
ATOM     23  C   UNL A   1      31.223  27.783  25.082  1.00  0.00     0.003 A 
ATOM     24  C   UNL A   1      29.990  25.707  25.221  1.00  0.00     0.025 A 
ATOM     25  C   UNL A   1      31.873  27.480  26.272  1.00  0.00     0.002 A 
ATOM     26  C   UNL A   1      31.657  26.234  26.872  1.00  0.00     0.022 A 
ENDBRANCH  17  20
ENDBRANCH  15  17
ENDBRANCH  10  15
BRANCH  12  27
ATOM     27  N   UNL A   1      32.640  23.570  23.993  1.00  0.00    -0.369 N 
ATOM     28  C   UNL A   1      31.986  24.042  22.779  1.00  0.00     0.116 C 
ATOM     29  C   UNL A   1      33.653  24.426  24.609  1.00  0.00     0.126 C 
ATOM     30  C   UNL A   1      33.023  24.490  21.757  1.00  0.00     0.022 C 
ATOM     31  C   UNL A   1      34.748  24.804  23.610  1.00  0.00     0.064 C 
ATOM     32  C   UNL A   1      34.045  25.433  22.395  1.00  0.00     0.013 C 
BRANCH  31  33
ATOM     33  C   UNL A   1      35.669  23.588  23.331  1.00  0.00     0.267 C 
BRANCH  33  34
ATOM     34  N   UNL A   1      36.892  23.371  24.103  1.00  0.00    -0.335 N 
ATOM     35  C   UNL A   1      37.211  21.970  24.353  1.00  0.00     0.262 C 
ATOM     36  C   UNL A   1      36.959  24.071  25.383  1.00  0.00     0.262 C 
ATOM     37  H   UNL A   1      37.584  23.775  23.472  1.00  0.00     0.348 HD
ATOM     38  C   UNL A   1      36.670  21.691  25.741  1.00  0.00     0.067 C 
ATOM     39  C   UNL A   1      36.849  23.010  26.472  1.00  0.00     0.067 C 
ENDBRANCH  33  34
ENDBRANCH  31  33
ENDBRANCH  12  27
ENDBRANCH   7   9
ENDBRANCH   6   7
ENDBRANCH   5   6
ENDBRANCH   4   5
ENDBRANCH   3   4
ENDBRANCH   2   3
ENDBRANCH   1   2
BRANCH   1  40
ATOM     40  O   UNL A   1      41.065  21.553  26.348  1.00  0.00    -0.377 OA
BRANCH  40  41
ATOM     41  C   UNL A   1      41.891  22.221  27.276  1.00  0.00     0.188 C 
BRANCH  41  42
ATOM     42  C   UNL A   1      43.254  22.691  26.899  1.00  0.00     0.188 C 
BRANCH  42  43
ATOM     43  O   UNL A   1      43.182  23.952  26.283  1.00  0.00    -0.376 OA
BRANCH  43  44
ATOM     44  C   UNL A   1      43.359  25.025  27.179  1.00  0.00     0.202 C 
BRANCH  44  45
ATOM     45  C   UNL A   1      42.200  26.033  27.100  1.00  0.00     0.261 C 
BRANCH  45  46
ATOM     46  O   UNL A   1      41.460  26.054  28.352  1.00  0.00    -0.460 OA
BRANCH  46  47
ATOM     47  C   UNL A   1      40.124  25.681  28.357  1.00  0.00     0.338 C 
ATOM     48  O   UNL A   1      39.701  24.606  28.003  1.00  0.00    -0.246 OA
BRANCH  47  49
ATOM     49  C   UNL A   1      39.263  26.924  28.528  1.00  0.00     0.060 A 
ATOM     50  C   UNL A   1      39.406  28.094  27.750  1.00  0.00     0.016 A 
ATOM     51  C   UNL A   1      38.868  27.135  29.793  1.00  0.00     0.016 A 
ATOM     52  C   UNL A   1      39.654  29.415  28.336  1.00  0.00     0.010 A 
ATOM     53  C   UNL A   1      39.299  28.346  30.314  1.00  0.00     0.010 A 
ATOM     54  C   UNL A   1      39.895  29.576  29.696  1.00  0.00    -0.014 A 
BRANCH  54  55
ATOM     55  C   UNL A   1      40.632  31.088  30.544  1.00  0.00     0.031 A 
ATOM     56  C   UNL A   1      42.367  30.955  31.582  1.00  0.00     0.074 A 
ATOM     57  C   UNL A   1      39.684  32.189  30.468  1.00  0.00     0.049 A 
ATOM     58  N   UNL A   1      42.547  31.248  32.899  1.00  0.00    -0.248 NA
ATOM     59  C   UNL A   1      43.674  29.865  31.566  1.00  0.00     0.031 C 
ATOM     60  C   UNL A   1      39.669  33.611  30.947  1.00  0.00     0.029 A 
ATOM     61  N   UNL A   1      38.351  32.238  29.952  1.00  0.00    -0.354 N 
ATOM     62  C   UNL A   1      43.675  30.846  33.552  1.00  0.00     0.074 A 
ATOM     63  C   UNL A   1      44.195  29.796  32.783  1.00  0.00     0.031 C 
ATOM     64  C   UNL A   1      38.600  34.353  30.692  1.00  0.00     0.029 A 
ATOM     65  C   UNL A   1      37.657  33.365  30.494  1.00  0.00     0.049 A 
ATOM     66  H   UNL A   1      37.966  31.591  29.316  1.00  0.00     0.167 HD
ATOM     67  C   UNL A   1      44.117  31.505  34.656  1.00  0.00     0.037 A 
ATOM     68  C   UNL A   1      36.686  33.295  31.429  1.00  0.00     0.037 A 
ATOM     69  C   UNL A   1      43.293  32.688  34.921  1.00  0.00     0.049 A 
ATOM     70  C   UNL A   1      37.255  33.550  32.914  1.00  0.00     0.074 A 
ATOM     71  C   UNL A   1      43.524  34.023  34.694  1.00  0.00     0.029 A 
ATOM     72  N   UNL A   1      41.922  32.598  35.212  1.00  0.00    -0.354 N 
ATOM     73  N   UNL A   1      38.521  33.506  33.347  1.00  0.00    -0.248 NA
ATOM     74  C   UNL A   1      36.389  34.019  33.983  1.00  0.00     0.031 C 
ATOM     75  C   UNL A   1      42.331  34.709  35.006  1.00  0.00     0.029 A 
ATOM     76  C   UNL A   1      41.246  33.828  35.068  1.00  0.00     0.049 A 
ATOM     77  H   UNL A   1      41.479  31.763  35.488  1.00  0.00     0.167 HD
ATOM     78  C   UNL A   1      38.661  33.900  34.681  1.00  0.00     0.074 A 
ATOM     79  C   UNL A   1      37.249  34.164  35.012  1.00  0.00     0.031 C 
ATOM     80  C   UNL A   1      39.815  34.035  35.482  1.00  0.00     0.037 A 
BRANCH  67  81
ATOM     81  C   UNL A   1      45.543  31.270  35.161  1.00  0.00     0.064 A 
ATOM     82  C   UNL A   1      46.651  31.887  34.547  1.00  0.00     0.173 A 
ATOM     83  C   UNL A   1      45.889  30.375  36.201  1.00  0.00     0.173 A 
ATOM     84  F   UNL A   1      46.502  32.879  33.664  1.00  0.00    -0.203 F 
ATOM     85  C   UNL A   1      47.974  31.526  34.828  1.00  0.00     0.198 A 
ATOM     86  C   UNL A   1      47.211  29.980  36.454  1.00  0.00     0.198 A 
ATOM     87  F   UNL A   1      44.961  29.893  37.040  1.00  0.00    -0.203 F 
ATOM     88  F   UNL A   1      48.978  32.138  34.182  1.00  0.00    -0.200 F 
ATOM     89  C   UNL A   1      48.255  30.544  35.753  1.00  0.00     0.200 A 
ATOM     90  F   UNL A   1      47.467  29.051  37.388  1.00  0.00    -0.200 F 
ATOM     91  F   UNL A   1      49.521  30.179  35.997  1.00  0.00    -0.200 F 
ENDBRANCH  67  81
BRANCH  68  92
ATOM     92  C   UNL A   1      35.635  32.486  30.720  1.00  0.00     0.064 A 
ATOM     93  C   UNL A   1      34.858  33.201  29.729  1.00  0.00     0.173 A 
ATOM     94  C   UNL A   1      35.859  31.139  30.472  1.00  0.00     0.173 A 
ATOM     95  F   UNL A   1      34.599  34.512  29.896  1.00  0.00    -0.203 F 
ATOM     96  C   UNL A   1      34.649  32.680  28.452  1.00  0.00     0.198 A 
ATOM     97  C   UNL A   1      35.527  30.588  29.224  1.00  0.00     0.198 A 
ATOM     98  F   UNL A   1      36.591  30.422  31.332  1.00  0.00    -0.203 F 
ATOM     99  F   UNL A   1      34.266  33.479  27.441  1.00  0.00    -0.200 F 
ATOM    100  C   UNL A   1      35.008  31.376  28.196  1.00  0.00     0.200 A 
ATOM    101  F   UNL A   1      35.902  29.332  28.948  1.00  0.00    -0.200 F 
ATOM    102  F   UNL A   1      34.950  30.905  26.942  1.00  0.00    -0.200 F 
ENDBRANCH  68  92
BRANCH  80 103
ATOM    103  C   UNL A   1      39.747  34.488  36.949  1.00  0.00     0.064 A 
ATOM    104  C   UNL A   1      39.691  35.821  37.365  1.00  0.00     0.173 A 
ATOM    105  C   UNL A   1      39.858  33.540  38.007  1.00  0.00     0.173 A 
ATOM    106  F   UNL A   1      39.842  36.828  36.493  1.00  0.00    -0.203 F 
ATOM    107  C   UNL A   1      39.524  36.163  38.709  1.00  0.00     0.198 A 
ATOM    108  C   UNL A   1      39.808  33.894  39.349  1.00  0.00     0.198 A 
ATOM    109  F   UNL A   1      40.012  32.229  37.790  1.00  0.00    -0.203 F 
ATOM    110  F   UNL A   1      39.312  37.444  39.041  1.00  0.00    -0.200 F 
ATOM    111  C   UNL A   1      39.576  35.200  39.699  1.00  0.00     0.200 A 
ATOM    112  F   UNL A   1      39.967  32.951  40.288  1.00  0.00    -0.200 F 
ATOM    113  F   UNL A   1      39.416  35.530  40.987  1.00  0.00    -0.200 F 
ENDBRANCH  80 103
ENDBRANCH  54  55
ENDBRANCH  47  49
ENDBRANCH  46  47
ENDBRANCH  45  46
ENDBRANCH  44  45
ENDBRANCH  43  44
ENDBRANCH  42  43
ENDBRANCH  41  42
ENDBRANCH  40  41
ENDBRANCH   1  40
TORSDOF 26
ENDMDL
