MODEL 1
REMARK VINA RESULT:     -10.8      0.000      0.000
REMARK SMILES COc1cc(OC)cc(-n2nnc(C(=O)OCCOCCOCCOCCOC(=O)c3ccc(-c4c5nc(c(-c6c(F)c(F)c(F)c(F)c6F)c6ccc([nH]6)c(-c6c(F)c(F)c(F)c(F)c6F)c6nc(c(-c7c(F)c(F)c(F)c(F)c7F)c7ccc4[nH]7)C=C6)C=C5)cc3)c2C)c1
REMARK SMILES IDX 22 1 21 2 20 3 19 4 18 5 17 6 16 7 14 8 15 9 13 10 10 11
REMARK SMILES IDX 11 12 94 13 12 14 95 15 9 16 3 17 4 18 96 19 5 20 8 21 2 22
REMARK SMILES IDX 1 23 6 24 7 25 23 26 24 27 25 28 26 29 27 30 28 31 29 32
REMARK SMILES IDX 30 33 31 34 32 35 93 36 33 37 92 38 34 39 35 40 36 41 86 42
REMARK SMILES IDX 37 43 91 44 85 45 87 46 38 47 90 48 84 49 83 50 39 52 71 53
REMARK SMILES IDX 51 54 70 55 52 56 55 57 69 58 88 59 53 60 54 61 68 63 89 64
REMARK SMILES IDX 56 65 40 66 41 67 49 68 42 69 43 70 47 71 50 72 44 73 45 74
REMARK SMILES IDX 48 75 46 76 72 77 73 78 81 79 74 80 75 81 79 82 82 83 76 84
REMARK SMILES IDX 77 85 80 86 78 87 57 88 58 89 66 90 59 91 60 92 64 93 67 94
REMARK SMILES IDX 61 95 62 96 65 97 63 98
REMARK H PARENT 87 51 55 62
REMARK Flexibility Score: inf
ROOT
ATOM      1  O   UNL A   1      38.765  22.841  25.880  1.00  0.00    -0.377 OA
ENDROOT
BRANCH   1   2
ATOM      2  C   UNL A   1      37.365  22.656  25.779  1.00  0.00     0.188 C 
BRANCH   2   3
ATOM      3  C   UNL A   1      36.798  21.521  24.896  1.00  0.00     0.188 C 
BRANCH   3   4
ATOM      4  O   UNL A   1      35.455  21.620  24.480  1.00  0.00    -0.376 OA
BRANCH   4   5
ATOM      5  C   UNL A   1      34.384  20.854  24.976  1.00  0.00     0.202 C 
BRANCH   5   6
ATOM      6  C   UNL A   1      33.733  20.991  26.356  1.00  0.00     0.261 C 
BRANCH   6   7
ATOM      7  O   UNL A   1      32.977  22.165  26.599  1.00  0.00    -0.458 OA
BRANCH   7   8
ATOM      8  C   UNL A   1      31.780  22.263  25.955  1.00  0.00     0.360 C 
ATOM      9  O   UNL A   1      31.150  21.311  25.503  1.00  0.00    -0.244 OA
BRANCH   8  10
ATOM     10  C   UNL A   1      31.291  23.630  25.987  1.00  0.00     0.193 A 
ATOM     11  N   UNL A   1      31.040  25.773  25.759  1.00  0.00    -0.217 N 
ATOM     12  N   UNL A   1      30.080  25.348  26.607  1.00  0.00    -0.061 NA
ATOM     13  C   UNL A   1      31.925  24.753  25.488  1.00  0.00     0.076 A 
ATOM     14  N   UNL A   1      30.164  24.022  26.668  1.00  0.00    -0.122 NA
ATOM     15  C   UNL A   1      33.255  24.934  24.853  1.00  0.00     0.069 C 
BRANCH  11  16
ATOM     16  C   UNL A   1      30.947  26.999  25.087  1.00  0.00     0.074 A 
ATOM     17  C   UNL A   1      31.409  29.365  25.133  1.00  0.00     0.124 A 
ATOM     18  C   UNL A   1      30.619  29.505  23.992  1.00  0.00     0.093 A 
ATOM     19  C   UNL A   1      31.549  28.108  25.697  1.00  0.00     0.075 A 
ATOM     20  C   UNL A   1      30.022  28.393  23.376  1.00  0.00     0.124 A 
ATOM     21  C   UNL A   1      30.228  27.115  23.896  1.00  0.00     0.075 A 
BRANCH  17  22
ATOM     22  O   UNL A   1      31.942  30.507  25.661  1.00  0.00    -0.497 OA
ATOM     23  C   UNL A   1      32.556  30.362  26.941  1.00  0.00     0.278 C 
ENDBRANCH  17  22
BRANCH  20  24
ATOM     24  O   UNL A   1      29.254  28.696  22.285  1.00  0.00    -0.497 OA
ATOM     25  C   UNL A   1      28.046  29.405  22.533  1.00  0.00     0.278 C 
ENDBRANCH  20  24
ENDBRANCH  11  16
ENDBRANCH   8  10
ENDBRANCH   7   8
ENDBRANCH   6   7
ENDBRANCH   5   6
ENDBRANCH   4   5
ENDBRANCH   3   4
ENDBRANCH   2   3
ENDBRANCH   1   2
BRANCH   1  26
ATOM     26  C   UNL A   1      39.605  21.767  26.292  1.00  0.00     0.188 C 
BRANCH  26  27
ATOM     27  C   UNL A   1      40.487  21.798  27.573  1.00  0.00     0.188 C 
BRANCH  27  28
ATOM     28  O   UNL A   1      41.481  20.796  27.656  1.00  0.00    -0.376 OA
BRANCH  28  29
ATOM     29  C   UNL A   1      41.499  19.632  26.857  1.00  0.00     0.202 C 
BRANCH  29  30
ATOM     30  C   UNL A   1      42.539  19.524  25.750  1.00  0.00     0.261 C 
BRANCH  30  31
ATOM     31  O   UNL A   1      43.085  20.773  25.382  1.00  0.00    -0.460 OA
BRANCH  31  32
ATOM     32  C   UNL A   1      44.386  20.730  25.043  1.00  0.00     0.338 C 
ATOM     33  O   UNL A   1      45.116  19.756  25.026  1.00  0.00    -0.246 OA
BRANCH  32  34
ATOM     34  C   UNL A   1      44.822  22.109  24.794  1.00  0.00     0.060 A 
ATOM     35  C   UNL A   1      45.909  22.523  25.562  1.00  0.00     0.016 A 
ATOM     36  C   UNL A   1      43.851  22.992  24.304  1.00  0.00     0.016 A 
ATOM     37  C   UNL A   1      45.803  23.745  26.174  1.00  0.00     0.010 A 
ATOM     38  C   UNL A   1      43.712  24.178  24.961  1.00  0.00     0.010 A 
ATOM     39  C   UNL A   1      44.630  24.475  25.964  1.00  0.00    -0.014 A 
BRANCH  39  40
ATOM     40  C   UNL A   1      44.364  25.589  26.833  1.00  0.00     0.031 A 
ATOM     41  C   UNL A   1      45.359  26.663  26.682  1.00  0.00     0.074 A 
ATOM     42  C   UNL A   1      43.250  25.644  27.581  1.00  0.00     0.049 A 
ATOM     43  N   UNL A   1      46.288  27.002  27.509  1.00  0.00    -0.248 NA
ATOM     44  C   UNL A   1      45.470  27.284  25.351  1.00  0.00     0.031 C 
ATOM     45  C   UNL A   1      42.069  24.777  27.538  1.00  0.00     0.029 A 
ATOM     46  N   UNL A   1      42.905  26.586  28.493  1.00  0.00    -0.354 N 
ATOM     47  C   UNL A   1      46.978  28.023  26.868  1.00  0.00     0.074 A 
ATOM     48  C   UNL A   1      46.607  27.962  25.482  1.00  0.00     0.031 C 
ATOM     49  C   UNL A   1      41.061  25.367  28.224  1.00  0.00     0.029 A 
ATOM     50  C   UNL A   1      41.564  26.578  28.848  1.00  0.00     0.049 A 
ATOM     51  H   UNL A   1      43.553  27.224  28.872  1.00  0.00     0.167 HD
ATOM     52  C   UNL A   1      47.557  29.029  27.573  1.00  0.00     0.037 A 
ATOM     53  C   UNL A   1      40.938  27.581  29.511  1.00  0.00     0.037 A 
ATOM     54  C   UNL A   1      47.730  28.660  28.955  1.00  0.00     0.049 A 
ATOM     55  C   UNL A   1      41.997  28.419  30.144  1.00  0.00     0.074 A 
ATOM     56  C   UNL A   1      48.436  27.669  29.607  1.00  0.00     0.029 A 
ATOM     57  N   UNL A   1      46.806  29.121  29.862  1.00  0.00    -0.354 N 
ATOM     58  N   UNL A   1      42.762  28.011  31.120  1.00  0.00    -0.248 NA
ATOM     59  C   UNL A   1      42.523  29.537  29.370  1.00  0.00     0.031 C 
ATOM     60  C   UNL A   1      47.606  27.272  30.697  1.00  0.00     0.029 A 
ATOM     61  C   UNL A   1      46.465  28.075  30.682  1.00  0.00     0.049 A 
ATOM     62  H   UNL A   1      46.453  30.039  29.915  1.00  0.00     0.167 HD
ATOM     63  C   UNL A   1      44.019  28.531  30.834  1.00  0.00     0.074 A 
ATOM     64  C   UNL A   1      43.793  29.519  29.785  1.00  0.00     0.031 C 
ATOM     65  C   UNL A   1      45.154  27.907  31.267  1.00  0.00     0.037 A 
BRANCH  52  66
ATOM     66  C   UNL A   1      47.607  30.455  27.088  1.00  0.00     0.064 A 
ATOM     67  C   UNL A   1      48.836  31.139  27.127  1.00  0.00     0.173 A 
ATOM     68  C   UNL A   1      46.473  31.263  26.840  1.00  0.00     0.173 A 
ATOM     69  F   UNL A   1      49.976  30.478  27.378  1.00  0.00    -0.203 F 
ATOM     70  C   UNL A   1      48.911  32.527  26.995  1.00  0.00     0.198 A 
ATOM     71  C   UNL A   1      46.558  32.638  26.646  1.00  0.00     0.198 A 
ATOM     72  F   UNL A   1      45.223  30.790  26.887  1.00  0.00    -0.203 F 
ATOM     73  F   UNL A   1      50.086  33.146  27.166  1.00  0.00    -0.200 F 
ATOM     74  C   UNL A   1      47.773  33.276  26.757  1.00  0.00     0.200 A 
ATOM     75  F   UNL A   1      45.438  33.343  26.433  1.00  0.00    -0.200 F 
ATOM     76  F   UNL A   1      47.835  34.611  26.687  1.00  0.00    -0.200 F 
ENDBRANCH  52  66
BRANCH  53  77
ATOM     77  C   UNL A   1      39.556  28.076  29.300  1.00  0.00     0.064 A 
ATOM     78  C   UNL A   1      38.657  28.186  30.372  1.00  0.00     0.173 A 
ATOM     79  C   UNL A   1      39.178  28.707  28.098  1.00  0.00     0.173 A 
ATOM     80  F   UNL A   1      38.966  27.659  31.566  1.00  0.00    -0.203 F 
ATOM     81  C   UNL A   1      37.459  28.900  30.254  1.00  0.00     0.198 A 
ATOM     82  C   UNL A   1      37.980  29.412  27.979  1.00  0.00     0.198 A 
ATOM     83  F   UNL A   1      40.007  28.737  27.044  1.00  0.00    -0.203 F 
ATOM     84  F   UNL A   1      36.653  29.034  31.316  1.00  0.00    -0.200 F 
ATOM     85  C   UNL A   1      37.126  29.519  29.060  1.00  0.00     0.200 A 
ATOM     86  F   UNL A   1      37.690  30.039  26.830  1.00  0.00    -0.200 F 
ATOM     87  F   UNL A   1      36.009  30.252  28.963  1.00  0.00    -0.200 F 
ENDBRANCH  53  77
BRANCH  65  88
ATOM     88  C   UNL A   1      44.998  26.791  32.264  1.00  0.00     0.064 A 
ATOM     89  C   UNL A   1      44.780  25.448  31.907  1.00  0.00     0.173 A 
ATOM     90  C   UNL A   1      45.235  27.067  33.617  1.00  0.00     0.173 A 
ATOM     91  F   UNL A   1      44.649  25.090  30.624  1.00  0.00    -0.203 F 
ATOM     92  C   UNL A   1      44.757  24.438  32.869  1.00  0.00     0.198 A 
ATOM     93  C   UNL A   1      45.249  26.052  34.569  1.00  0.00     0.198 A 
ATOM     94  F   UNL A   1      45.506  28.322  34.008  1.00  0.00    -0.203 F 
ATOM     95  F   UNL A   1      44.536  23.166  32.503  1.00  0.00    -0.200 F 
ATOM     96  C   UNL A   1      45.001  24.740  34.199  1.00  0.00     0.200 A 
ATOM     97  F   UNL A   1      45.537  26.342  35.846  1.00  0.00    -0.200 F 
ATOM     98  F   UNL A   1      45.025  23.765  35.117  1.00  0.00    -0.200 F 
ENDBRANCH  65  88
ENDBRANCH  39  40
ENDBRANCH  32  34
ENDBRANCH  31  32
ENDBRANCH  30  31
ENDBRANCH  29  30
ENDBRANCH  28  29
ENDBRANCH  27  28
ENDBRANCH  26  27
ENDBRANCH   1  26
TORSDOF 23
ENDMDL
MODEL 2
REMARK VINA RESULT:     -10.8      1.048      2.062
REMARK SMILES COc1cc(OC)cc(-n2nnc(C(=O)OCCOCCOCCOCCOC(=O)c3ccc(-c4c5nc(c(-c6c(F)c(F)c(F)c(F)c6F)c6ccc([nH]6)c(-c6c(F)c(F)c(F)c(F)c6F)c6nc(c(-c7c(F)c(F)c(F)c(F)c7F)c7ccc4[nH]7)C=C6)C=C5)cc3)c2C)c1
REMARK SMILES IDX 22 1 21 2 20 3 19 4 18 5 17 6 16 7 14 8 15 9 13 10 10 11
REMARK SMILES IDX 11 12 94 13 12 14 95 15 9 16 3 17 4 18 96 19 5 20 8 21 2 22
REMARK SMILES IDX 1 23 6 24 7 25 23 26 24 27 25 28 26 29 27 30 28 31 29 32
REMARK SMILES IDX 30 33 31 34 32 35 93 36 33 37 92 38 34 39 35 40 36 41 86 42
REMARK SMILES IDX 37 43 91 44 85 45 87 46 38 47 90 48 84 49 83 50 39 52 71 53
REMARK SMILES IDX 51 54 70 55 52 56 55 57 69 58 88 59 53 60 54 61 68 63 89 64
REMARK SMILES IDX 56 65 40 66 41 67 49 68 42 69 43 70 47 71 50 72 44 73 45 74
REMARK SMILES IDX 48 75 46 76 72 77 73 78 81 79 74 80 75 81 79 82 82 83 76 84
REMARK SMILES IDX 77 85 80 86 78 87 57 88 58 89 66 90 59 91 60 92 64 93 67 94
REMARK SMILES IDX 61 95 62 96 65 97 63 98
REMARK H PARENT 87 51 55 62
REMARK Flexibility Score: inf
ROOT
ATOM      1  O   UNL A   1      39.682  21.226  27.142  1.00  0.00    -0.377 OA
ENDROOT
BRANCH   1   2
ATOM      2  C   UNL A   1      39.312  21.922  25.966  1.00  0.00     0.188 C 
BRANCH   2   3
ATOM      3  C   UNL A   1      37.967  21.605  25.272  1.00  0.00     0.188 C 
BRANCH   3   4
ATOM      4  O   UNL A   1      36.792  22.131  25.846  1.00  0.00    -0.376 OA
BRANCH   4   5
ATOM      5  C   UNL A   1      35.511  21.554  25.764  1.00  0.00     0.202 C 
BRANCH   5   6
ATOM      6  C   UNL A   1      34.210  22.281  25.410  1.00  0.00     0.261 C 
BRANCH   6   7
ATOM      7  O   UNL A   1      33.687  22.071  24.110  1.00  0.00    -0.458 OA
BRANCH   7   8
ATOM      8  C   UNL A   1      33.717  23.137  23.261  1.00  0.00     0.360 C 
ATOM      9  O   UNL A   1      34.482  23.248  22.307  1.00  0.00    -0.244 OA
BRANCH   8  10
ATOM     10  C   UNL A   1      32.640  24.062  23.560  1.00  0.00     0.193 A 
ATOM     11  N   UNL A   1      31.456  25.795  24.113  1.00  0.00    -0.217 N 
ATOM     12  N   UNL A   1      30.611  24.747  24.030  1.00  0.00    -0.061 NA
ATOM     13  C   UNL A   1      32.761  25.369  23.997  1.00  0.00     0.076 A 
ATOM     14  N   UNL A   1      31.313  23.706  23.590  1.00  0.00    -0.122 NA
ATOM     15  C   UNL A   1      33.951  26.186  24.343  1.00  0.00     0.069 C 
BRANCH  11  16
ATOM     16  C   UNL A   1      31.003  27.120  24.062  1.00  0.00     0.074 A 
ATOM     17  C   UNL A   1      29.790  28.790  22.816  1.00  0.00     0.124 A 
ATOM     18  C   UNL A   1      30.256  29.749  23.716  1.00  0.00     0.093 A 
ATOM     19  C   UNL A   1      30.191  27.475  22.976  1.00  0.00     0.075 A 
ATOM     20  C   UNL A   1      31.064  29.392  24.808  1.00  0.00     0.124 A 
ATOM     21  C   UNL A   1      31.402  28.055  25.018  1.00  0.00     0.075 A 
BRANCH  17  22
ATOM     22  O   UNL A   1      29.015  29.237  21.783  1.00  0.00    -0.497 OA
ATOM     23  C   UNL A   1      29.103  30.636  21.513  1.00  0.00     0.278 C 
ENDBRANCH  17  22
BRANCH  20  24
ATOM     24  O   UNL A   1      31.464  30.447  25.583  1.00  0.00    -0.497 OA
ATOM     25  C   UNL A   1      32.192  30.130  26.764  1.00  0.00     0.278 C 
ENDBRANCH  20  24
ENDBRANCH  11  16
ENDBRANCH   8  10
ENDBRANCH   7   8
ENDBRANCH   6   7
ENDBRANCH   5   6
ENDBRANCH   4   5
ENDBRANCH   3   4
ENDBRANCH   2   3
ENDBRANCH   1   2
BRANCH   1  26
ATOM     26  C   UNL A   1      41.041  20.862  27.367  1.00  0.00     0.188 C 
BRANCH  26  27
ATOM     27  C   UNL A   1      42.132  20.862  26.260  1.00  0.00     0.188 C 
BRANCH  27  28
ATOM     28  O   UNL A   1      42.268  19.658  25.533  1.00  0.00    -0.376 OA
BRANCH  28  29
ATOM     29  C   UNL A   1      43.433  18.859  25.537  1.00  0.00     0.202 C 
BRANCH  29  30
ATOM     30  C   UNL A   1      44.454  19.053  24.423  1.00  0.00     0.261 C 
BRANCH  30  31
ATOM     31  O   UNL A   1      44.524  20.386  23.965  1.00  0.00    -0.460 OA
BRANCH  31  32
ATOM     32  C   UNL A   1      45.480  21.125  24.557  1.00  0.00     0.338 C 
ATOM     33  O   UNL A   1      46.351  20.740  25.316  1.00  0.00    -0.246 OA
BRANCH  32  34
ATOM     34  C   UNL A   1      45.227  22.530  24.215  1.00  0.00     0.060 A 
ATOM     35  C   UNL A   1      46.295  23.391  24.460  1.00  0.00     0.016 A 
ATOM     36  C   UNL A   1      43.888  22.946  24.237  1.00  0.00     0.016 A 
ATOM     37  C   UNL A   1      46.009  24.557  25.120  1.00  0.00     0.010 A 
ATOM     38  C   UNL A   1      43.608  24.074  24.948  1.00  0.00     0.010 A 
ATOM     39  C   UNL A   1      44.678  24.793  25.472  1.00  0.00    -0.014 A 
BRANCH  39  40
ATOM     40  C   UNL A   1      44.406  25.834  26.426  1.00  0.00     0.031 A 
ATOM     41  C   UNL A   1      45.374  26.939  26.335  1.00  0.00     0.074 A 
ATOM     42  C   UNL A   1      43.308  25.807  27.199  1.00  0.00     0.049 A 
ATOM     43  N   UNL A   1      46.313  27.237  27.166  1.00  0.00    -0.248 NA
ATOM     44  C   UNL A   1      45.443  27.659  25.052  1.00  0.00     0.031 C 
ATOM     45  C   UNL A   1      42.146  24.918  27.115  1.00  0.00     0.029 A 
ATOM     46  N   UNL A   1      42.962  26.671  28.185  1.00  0.00    -0.354 N 
ATOM     47  C   UNL A   1      46.966  28.319  26.589  1.00  0.00     0.074 A 
ATOM     48  C   UNL A   1      46.567  28.352  25.210  1.00  0.00     0.031 C 
ATOM     49  C   UNL A   1      41.140  25.432  27.863  1.00  0.00     0.029 A 
ATOM     50  C   UNL A   1      41.630  26.605  28.565  1.00  0.00     0.049 A 
ATOM     51  H   UNL A   1      43.604  27.295  28.597  1.00  0.00     0.167 HD
ATOM     52  C   UNL A   1      47.538  29.283  27.355  1.00  0.00     0.037 A 
ATOM     53  C   UNL A   1      40.997  27.542  29.313  1.00  0.00     0.037 A 
ATOM     54  C   UNL A   1      47.749  28.819  28.701  1.00  0.00     0.049 A 
ATOM     55  C   UNL A   1      42.050  28.356  29.985  1.00  0.00     0.074 A 
ATOM     56  C   UNL A   1      48.492  27.799  29.264  1.00  0.00     0.029 A 
ATOM     57  N   UNL A   1      46.836  29.190  29.659  1.00  0.00    -0.354 N 
ATOM     58  N   UNL A   1      42.845  27.895  30.912  1.00  0.00    -0.248 NA
ATOM     59  C   UNL A   1      42.535  29.540  29.285  1.00  0.00     0.031 C 
ATOM     60  C   UNL A   1      47.694  27.304  30.338  1.00  0.00     0.029 A 
ATOM     61  C   UNL A   1      46.536  28.078  30.406  1.00  0.00     0.049 A 
ATOM     62  H   UNL A   1      46.464  30.092  29.787  1.00  0.00     0.167 HD
ATOM     63  C   UNL A   1      44.084  28.464  30.641  1.00  0.00     0.074 A 
ATOM     64  C   UNL A   1      43.814  29.522  29.672  1.00  0.00     0.031 C 
ATOM     65  C   UNL A   1      45.242  27.836  31.003  1.00  0.00     0.037 A 
BRANCH  52  66
ATOM     66  C   UNL A   1      47.547  30.742  26.976  1.00  0.00     0.064 A 
ATOM     67  C   UNL A   1      48.747  31.466  27.101  1.00  0.00     0.173 A 
ATOM     68  C   UNL A   1      46.389  31.524  26.753  1.00  0.00     0.173 A 
ATOM     69  F   UNL A   1      49.904  30.831  27.338  1.00  0.00    -0.203 F 
ATOM     70  C   UNL A   1      48.772  32.862  27.073  1.00  0.00     0.198 A 
ATOM     71  C   UNL A   1      46.427  32.912  26.661  1.00  0.00     0.198 A 
ATOM     72  F   UNL A   1      45.157  31.004  26.727  1.00  0.00    -0.203 F 
ATOM     73  F   UNL A   1      49.916  33.509  27.323  1.00  0.00    -0.200 F 
ATOM     74  C   UNL A   1      47.612  33.585  26.855  1.00  0.00     0.200 A 
ATOM     75  F   UNL A   1      45.287  33.589  26.465  1.00  0.00    -0.200 F 
ATOM     76  F   UNL A   1      47.625  34.922  26.883  1.00  0.00    -0.200 F 
ENDBRANCH  52  66
BRANCH  53  77
ATOM     77  C   UNL A   1      39.600  28.019  29.168  1.00  0.00     0.064 A 
ATOM     78  C   UNL A   1      38.743  28.094  30.276  1.00  0.00     0.173 A 
ATOM     79  C   UNL A   1      39.164  28.666  27.994  1.00  0.00     0.173 A 
ATOM     80  F   UNL A   1      39.108  27.549  31.447  1.00  0.00    -0.203 F 
ATOM     81  C   UNL A   1      37.530  28.791  30.220  1.00  0.00     0.198 A 
ATOM     82  C   UNL A   1      37.952  29.354  27.937  1.00  0.00     0.198 A 
ATOM     83  F   UNL A   1      39.949  28.730  26.909  1.00  0.00    -0.203 F 
ATOM     84  F   UNL A   1      36.766  28.892  31.316  1.00  0.00    -0.200 F 
ATOM     85  C   UNL A   1      37.140  29.426  29.053  1.00  0.00     0.200 A 
ATOM     86  F   UNL A   1      37.606  29.998  26.813  1.00  0.00    -0.200 F 
ATOM     87  F   UNL A   1      36.009  30.143  29.016  1.00  0.00    -0.200 F 
ENDBRANCH  53  77
BRANCH  65  88
ATOM     88  C   UNL A   1      45.133  26.647  31.918  1.00  0.00     0.064 A 
ATOM     89  C   UNL A   1      45.074  26.741  33.320  1.00  0.00     0.173 A 
ATOM     90  C   UNL A   1      44.924  25.384  31.349  1.00  0.00     0.173 A 
ATOM     91  F   UNL A   1      45.161  27.928  33.934  1.00  0.00    -0.203 F 
ATOM     92  C   UNL A   1      44.860  25.614  34.113  1.00  0.00     0.198 A 
ATOM     93  C   UNL A   1      44.671  24.268  32.141  1.00  0.00     0.198 A 
ATOM     94  F   UNL A   1      44.911  25.244  30.014  1.00  0.00    -0.203 F 
ATOM     95  F   UNL A   1      44.818  25.730  35.449  1.00  0.00    -0.200 F 
ATOM     96  C   UNL A   1      44.649  24.380  33.522  1.00  0.00     0.200 A 
ATOM     97  F   UNL A   1      44.417  23.086  31.563  1.00  0.00    -0.200 F 
ATOM     98  F   UNL A   1      44.396  23.305  34.281  1.00  0.00    -0.200 F 
ENDBRANCH  65  88
ENDBRANCH  39  40
ENDBRANCH  32  34
ENDBRANCH  31  32
ENDBRANCH  30  31
ENDBRANCH  29  30
ENDBRANCH  28  29
ENDBRANCH  27  28
ENDBRANCH  26  27
ENDBRANCH   1  26
TORSDOF 23
ENDMDL
MODEL 3
REMARK VINA RESULT:     -10.7      2.515      3.629
REMARK SMILES COc1cc(OC)cc(-n2nnc(C(=O)OCCOCCOCCOCCOC(=O)c3ccc(-c4c5nc(c(-c6c(F)c(F)c(F)c(F)c6F)c6ccc([nH]6)c(-c6c(F)c(F)c(F)c(F)c6F)c6nc(c(-c7c(F)c(F)c(F)c(F)c7F)c7ccc4[nH]7)C=C6)C=C5)cc3)c2C)c1
REMARK SMILES IDX 22 1 21 2 20 3 19 4 18 5 17 6 16 7 14 8 15 9 13 10 10 11
REMARK SMILES IDX 11 12 94 13 12 14 95 15 9 16 3 17 4 18 96 19 5 20 8 21 2 22
REMARK SMILES IDX 1 23 6 24 7 25 23 26 24 27 25 28 26 29 27 30 28 31 29 32
REMARK SMILES IDX 30 33 31 34 32 35 93 36 33 37 92 38 34 39 35 40 36 41 86 42
REMARK SMILES IDX 37 43 91 44 85 45 87 46 38 47 90 48 84 49 83 50 39 52 71 53
REMARK SMILES IDX 51 54 70 55 52 56 55 57 69 58 88 59 53 60 54 61 68 63 89 64
REMARK SMILES IDX 56 65 40 66 41 67 49 68 42 69 43 70 47 71 50 72 44 73 45 74
REMARK SMILES IDX 48 75 46 76 72 77 73 78 81 79 74 80 75 81 79 82 82 83 76 84
REMARK SMILES IDX 77 85 80 86 78 87 57 88 58 89 66 90 59 91 60 92 64 93 67 94
REMARK SMILES IDX 61 95 62 96 65 97 63 98
REMARK H PARENT 87 51 55 62
REMARK Flexibility Score: inf
ROOT
ATOM      1  O   UNL A   1      39.069  22.541  26.452  1.00  0.00    -0.377 OA
ENDROOT
BRANCH   1   2
ATOM      2  C   UNL A   1      37.838  22.528  25.754  1.00  0.00     0.188 C 
BRANCH   2   3
ATOM      3  C   UNL A   1      37.426  21.281  24.939  1.00  0.00     0.188 C 
BRANCH   3   4
ATOM      4  O   UNL A   1      36.284  20.569  25.359  1.00  0.00    -0.376 OA
BRANCH   4   5
ATOM      5  C   UNL A   1      34.974  21.079  25.416  1.00  0.00     0.202 C 
BRANCH   5   6
ATOM      6  C   UNL A   1      33.686  20.304  25.121  1.00  0.00     0.261 C 
BRANCH   6   7
ATOM      7  O   UNL A   1      32.468  21.024  25.199  1.00  0.00    -0.458 OA
BRANCH   7   8
ATOM      8  C   UNL A   1      32.295  22.030  24.295  1.00  0.00     0.360 C 
ATOM      9  O   UNL A   1      32.262  21.875  23.077  1.00  0.00    -0.244 OA
BRANCH   8  10
ATOM     10  C   UNL A   1      32.030  23.287  24.970  1.00  0.00     0.193 A 
ATOM     11  N   UNL A   1      32.056  25.346  25.655  1.00  0.00    -0.217 N 
ATOM     12  N   UNL A   1      31.239  24.662  26.482  1.00  0.00    -0.061 NA
ATOM     13  C   UNL A   1      32.707  24.481  24.802  1.00  0.00     0.076 A 
ATOM     14  N   UNL A   1      31.138  23.424  26.006  1.00  0.00    -0.122 NA
ATOM     15  C   UNL A   1      33.889  24.837  23.978  1.00  0.00     0.069 C 
BRANCH  11  16
ATOM     16  C   UNL A   1      32.009  26.743  25.552  1.00  0.00     0.074 A 
ATOM     17  C   UNL A   1      32.532  28.859  26.580  1.00  0.00     0.124 A 
ATOM     18  C   UNL A   1      31.769  29.486  25.596  1.00  0.00     0.093 A 
ATOM     19  C   UNL A   1      32.628  27.478  26.572  1.00  0.00     0.075 A 
ATOM     20  C   UNL A   1      31.155  28.750  24.569  1.00  0.00     0.124 A 
ATOM     21  C   UNL A   1      31.317  27.365  24.512  1.00  0.00     0.075 A 
BRANCH  17  22
ATOM     22  O   UNL A   1      33.084  29.662  27.539  1.00  0.00    -0.497 OA
ATOM     23  C   UNL A   1      33.215  31.038  27.183  1.00  0.00     0.278 C 
ENDBRANCH  17  22
BRANCH  20  24
ATOM     24  O   UNL A   1      30.417  29.502  23.697  1.00  0.00    -0.497 OA
ATOM     25  C   UNL A   1      29.299  28.863  23.091  1.00  0.00     0.278 C 
ENDBRANCH  20  24
ENDBRANCH  11  16
ENDBRANCH   8  10
ENDBRANCH   7   8
ENDBRANCH   6   7
ENDBRANCH   5   6
ENDBRANCH   4   5
ENDBRANCH   3   4
ENDBRANCH   2   3
ENDBRANCH   1   2
BRANCH   1  26
ATOM     26  C   UNL A   1      39.982  21.455  26.323  1.00  0.00     0.188 C 
BRANCH  26  27
ATOM     27  C   UNL A   1      40.821  20.881  27.500  1.00  0.00     0.188 C 
BRANCH  27  28
ATOM     28  O   UNL A   1      42.216  20.819  27.284  1.00  0.00    -0.376 OA
BRANCH  28  29
ATOM     29  C   UNL A   1      42.814  20.653  26.016  1.00  0.00     0.202 C 
BRANCH  29  30
ATOM     30  C   UNL A   1      43.748  21.740  25.501  1.00  0.00     0.261 C 
BRANCH  30  31
ATOM     31  O   UNL A   1      43.754  22.893  26.315  1.00  0.00    -0.460 OA
BRANCH  31  32
ATOM     32  C   UNL A   1      43.243  23.990  25.727  1.00  0.00     0.338 C 
ATOM     33  O   UNL A   1      43.673  24.575  24.750  1.00  0.00    -0.246 OA
BRANCH  32  34
ATOM     34  C   UNL A   1      42.112  24.442  26.544  1.00  0.00     0.060 A 
ATOM     35  C   UNL A   1      41.285  25.380  25.926  1.00  0.00     0.016 A 
ATOM     36  C   UNL A   1      42.275  24.366  27.934  1.00  0.00     0.016 A 
ATOM     37  C   UNL A   1      40.946  26.485  26.662  1.00  0.00     0.010 A 
ATOM     38  C   UNL A   1      41.994  25.492  28.648  1.00  0.00     0.010 A 
ATOM     39  C   UNL A   1      41.439  26.571  27.967  1.00  0.00    -0.014 A 
BRANCH  39  40
ATOM     40  C   UNL A   1      41.366  27.842  28.633  1.00  0.00     0.031 A 
ATOM     41  C   UNL A   1      42.506  28.711  28.300  1.00  0.00     0.074 A 
ATOM     42  C   UNL A   1      40.293  28.191  29.363  1.00  0.00     0.049 A 
ATOM     43  N   UNL A   1      43.497  29.039  29.057  1.00  0.00    -0.248 NA
ATOM     44  C   UNL A   1      42.673  29.076  26.884  1.00  0.00     0.031 C 
ATOM     45  C   UNL A   1      38.995  27.518  29.469  1.00  0.00     0.029 A 
ATOM     46  N   UNL A   1      40.118  29.314  30.102  1.00  0.00    -0.354 N 
ATOM     47  C   UNL A   1      44.314  29.821  28.251  1.00  0.00     0.074 A 
ATOM     48  C   UNL A   1      43.901  29.586  26.896  1.00  0.00     0.031 C 
ATOM     49  C   UNL A   1      38.105  28.361  30.047  1.00  0.00     0.029 A 
ATOM     50  C   UNL A   1      38.801  29.569  30.455  1.00  0.00     0.049 A 
ATOM     51  H   UNL A   1      40.864  29.900  30.366  1.00  0.00     0.167 HD
ATOM     52  C   UNL A   1      45.056  30.831  28.773  1.00  0.00     0.037 A 
ATOM     53  C   UNL A   1      38.350  30.753  30.938  1.00  0.00     0.037 A 
ATOM     54  C   UNL A   1      45.209  30.678  30.197  1.00  0.00     0.049 A 
ATOM     55  C   UNL A   1      39.539  31.515  31.418  1.00  0.00     0.074 A 
ATOM     56  C   UNL A   1      45.777  29.715  31.008  1.00  0.00     0.029 A 
ATOM     57  N   UNL A   1      44.390  31.420  31.014  1.00  0.00    -0.354 N 
ATOM     58  N   UNL A   1      40.261  31.165  32.448  1.00  0.00    -0.248 NA
ATOM     59  C   UNL A   1      40.206  32.393  30.464  1.00  0.00     0.031 C 
ATOM     60  C   UNL A   1      44.927  29.638  32.150  1.00  0.00     0.029 A 
ATOM     61  C   UNL A   1      43.919  30.591  32.000  1.00  0.00     0.049 A 
ATOM     62  H   UNL A   1      44.180  32.376  30.911  1.00  0.00     0.167 HD
ATOM     63  C   UNL A   1      41.573  31.432  32.076  1.00  0.00     0.074 A 
ATOM     64  C   UNL A   1      41.470  32.253  30.874  1.00  0.00     0.031 C 
ATOM     65  C   UNL A   1      42.614  30.724  32.607  1.00  0.00     0.037 A 
BRANCH  52  66
ATOM     66  C   UNL A   1      45.306  32.131  28.052  1.00  0.00     0.064 A 
ATOM     67  C   UNL A   1      44.217  32.987  27.806  1.00  0.00     0.173 A 
ATOM     68  C   UNL A   1      46.498  32.455  27.363  1.00  0.00     0.173 A 
ATOM     69  F   UNL A   1      43.029  32.763  28.387  1.00  0.00    -0.203 F 
ATOM     70  C   UNL A   1      44.300  34.040  26.891  1.00  0.00     0.198 A 
ATOM     71  C   UNL A   1      46.596  33.543  26.501  1.00  0.00     0.198 A 
ATOM     72  F   UNL A   1      47.587  31.679  27.395  1.00  0.00    -0.203 F 
ATOM     73  F   UNL A   1      43.203  34.748  26.596  1.00  0.00    -0.200 F 
ATOM     74  C   UNL A   1      45.488  34.316  26.238  1.00  0.00     0.200 A 
ATOM     75  F   UNL A   1      47.753  33.779  25.868  1.00  0.00    -0.200 F 
ATOM     76  F   UNL A   1      45.553  35.287  25.321  1.00  0.00    -0.200 F 
ENDBRANCH  52  66
BRANCH  53  77
ATOM     77  C   UNL A   1      37.053  31.410  30.648  1.00  0.00     0.064 A 
ATOM     78  C   UNL A   1      36.120  31.649  31.669  1.00  0.00     0.173 A 
ATOM     79  C   UNL A   1      36.818  32.060  29.420  1.00  0.00     0.173 A 
ATOM     80  F   UNL A   1      36.299  31.109  32.884  1.00  0.00    -0.203 F 
ATOM     81  C   UNL A   1      35.027  32.502  31.478  1.00  0.00     0.198 A 
ATOM     82  C   UNL A   1      35.724  32.905  29.229  1.00  0.00     0.198 A 
ATOM     83  F   UNL A   1      37.698  31.970  28.412  1.00  0.00    -0.203 F 
ATOM     84  F   UNL A   1      34.190  32.753  32.494  1.00  0.00    -0.200 F 
ATOM     85  C   UNL A   1      34.835  33.135  30.261  1.00  0.00     0.200 A 
ATOM     86  F   UNL A   1      35.574  33.542  28.059  1.00  0.00    -0.200 F 
ATOM     87  F   UNL A   1      33.823  33.997  30.097  1.00  0.00    -0.200 F 
ENDBRANCH  53  77
BRANCH  65  88
ATOM     88  C   UNL A   1      42.320  29.829  33.781  1.00  0.00     0.064 A 
ATOM     89  C   UNL A   1      41.909  28.489  33.658  1.00  0.00     0.173 A 
ATOM     90  C   UNL A   1      42.616  30.296  35.068  1.00  0.00     0.173 A 
ATOM     91  F   UNL A   1      41.707  27.939  32.454  1.00  0.00    -0.203 F 
ATOM     92  C   UNL A   1      41.761  27.673  34.778  1.00  0.00     0.198 A 
ATOM     93  C   UNL A   1      42.505  29.467  36.180  1.00  0.00     0.198 A 
ATOM     94  F   UNL A   1      43.068  31.548  35.239  1.00  0.00    -0.203 F 
ATOM     95  F   UNL A   1      41.358  26.401  34.635  1.00  0.00    -0.200 F 
ATOM     96  C   UNL A   1      42.068  28.160  36.038  1.00  0.00     0.200 A 
ATOM     97  F   UNL A   1      42.852  29.927  37.390  1.00  0.00    -0.200 F 
ATOM     98  F   UNL A   1      41.971  27.362  37.110  1.00  0.00    -0.200 F 
ENDBRANCH  65  88
ENDBRANCH  39  40
ENDBRANCH  32  34
ENDBRANCH  31  32
ENDBRANCH  30  31
ENDBRANCH  29  30
ENDBRANCH  28  29
ENDBRANCH  27  28
ENDBRANCH  26  27
ENDBRANCH   1  26
TORSDOF 23
ENDMDL
