MODEL 1
REMARK VINA RESULT:     -13.1      0.000      0.000
REMARK SMILES Cc1ccccc1/C=C1\SC(=O)N(CC(=O)Nc2ccccc2C(=O)OCCOCCOCCOCCOC(=O)c2ccc(-c3c4nc(c(-c5c(F)c(F)c(F)c(F)c5F)c5ccc([nH]5)c(-c5c(F)c(F)c(F)c(F)c5F)c5nc(c(-c6c(F)c(F)c(F)c(F)c6F)c6ccc3[nH]6)C=C5)C=C4)cc2)C1=O
REMARK SMILES IDX 31 1 30 2 29 3 28 4 27 5 26 6 24 7 25 8 23 9 18 10 19 11
REMARK SMILES IDX 20 12 22 13 21 14 17 15 15 16 16 17 14 19 13 20 8 21 9 22
REMARK SMILES IDX 10 23 104 24 11 25 105 26 12 27 7 28 1 29 2 30 3 31 4 32
REMARK SMILES IDX 6 33 5 34 32 35 33 36 34 37 35 38 36 39 37 40 38 41 39 42
REMARK SMILES IDX 40 43 41 44 42 45 103 46 43 47 102 48 44 49 45 50 46 51
REMARK SMILES IDX 96 52 47 53 101 54 95 55 97 56 48 57 100 58 94 59 93 60
REMARK SMILES IDX 49 62 81 63 61 64 80 65 62 66 65 67 79 68 98 69 63 70 64 71
REMARK SMILES IDX 78 73 99 74 66 75 50 76 51 77 59 78 52 79 53 80 57 81 60 82
REMARK SMILES IDX 54 83 55 84 58 85 56 86 82 87 83 88 91 89 84 90 85 91 89 92
REMARK SMILES IDX 92 93 86 94 87 95 90 96 88 97 67 98 68 99 76 100 69 101
REMARK SMILES IDX 70 102 74 103 77 104 71 105 72 106 75 107 73 108
REMARK H PARENT 17 18 97 61 65 72
REMARK Flexibility Score: inf
ROOT
ATOM      1  C   UNL A   1      43.814  26.075  28.720  1.00  0.00     0.188 C 
ENDROOT
BRANCH   1   2
ATOM      2  C   UNL A   1      42.221  25.501  28.715  1.00  0.00     0.188 C 
BRANCH   2   3
ATOM      3  O   UNL A   1      40.662  25.745  27.832  1.00  0.00    -0.376 OA
BRANCH   3   4
ATOM      4  C   UNL A   1      39.131  24.767  27.712  1.00  0.00     0.202 C 
BRANCH   4   5
ATOM      5  C   UNL A   1      38.533  23.533  26.312  1.00  0.00     0.261 C 
BRANCH   5   6
ATOM      6  O   UNL A   1      37.410  23.025  24.895  1.00  0.00    -0.460 OA
BRANCH   6   7
ATOM      7  C   UNL A   1      36.110  22.841  23.847  1.00  0.00     0.340 C 
ATOM      8  O   UNL A   1      36.127  23.321  22.698  1.00  0.00    -0.246 OA
BRANCH   7   9
ATOM      9  C   UNL A   1      34.530  22.187  23.913  1.00  0.00     0.083 A 
ATOM     10  C   UNL A   1      33.269  22.266  23.136  1.00  0.00     0.055 A 
ATOM     11  C   UNL A   1      32.185  21.400  23.455  1.00  0.00     0.027 A 
ATOM     12  C   UNL A   1      32.218  20.555  24.549  1.00  0.00     0.002 A 
ATOM     13  C   UNL A   1      34.398  21.444  25.108  1.00  0.00     0.018 A 
ATOM     14  C   UNL A   1      33.300  20.620  25.404  1.00  0.00     0.001 A 
BRANCH  10  15
ATOM     15  N   UNL A   1      32.875  23.205  22.080  1.00  0.00    -0.324 N 
ATOM     16  C   UNL A   1      32.669  24.607  22.295  1.00  0.00     0.244 C 
ATOM     17  O   UNL A   1      33.527  25.439  21.994  1.00  0.00    -0.273 OA
ATOM     18  H   UNL A   1      32.744  22.851  21.171  1.00  0.00     0.170 HD
BRANCH  16  19
ATOM     19  C   UNL A   1      31.307  25.081  22.862  1.00  0.00     0.230 C 
BRANCH  19  20
ATOM     20  N   UNL A   1      31.670  26.213  23.633  1.00  0.00    -0.259 N 
ATOM     21  C   UNL A   1      34.219  28.416  26.348  1.00  0.00     0.029 C 
ATOM     22  C   UNL A   1      33.483  27.635  25.100  1.00  0.00     0.083 C 
ATOM     23  S   UNL A   1      32.478  28.390  23.721  1.00  0.00    -0.022 SA
ATOM     24  C   UNL A   1      32.648  26.121  24.654  1.00  0.00     0.268 C 
ATOM     25  C   UNL A   1      31.500  27.331  22.947  1.00  0.00     0.294 C 
ATOM     26  O   UNL A   1      32.796  24.967  25.051  1.00  0.00    -0.268 OA
ATOM     27  O   UNL A   1      30.955  27.541  21.885  1.00  0.00    -0.261 OA
BRANCH  21  28
ATOM     28  C   UNL A   1      34.970  29.785  27.401  1.00  0.00    -0.021 A 
ATOM     29  C   UNL A   1      37.633  29.745  27.905  1.00  0.00     0.045 C 
ATOM     30  C   UNL A   1      36.151  29.919  28.290  1.00  0.00    -0.044 A 
ATOM     31  C   UNL A   1      36.187  30.718  29.486  1.00  0.00     0.004 A 
ATOM     32  C   UNL A   1      35.291  31.718  29.677  1.00  0.00     0.000 A 
ATOM     33  C   UNL A   1      34.376  31.062  27.474  1.00  0.00     0.008 A 
ATOM     34  C   UNL A   1      34.505  31.979  28.583  1.00  0.00     0.001 A 
ENDBRANCH  21  28
ENDBRANCH  19  20
ENDBRANCH  16  19
ENDBRANCH  10  15
ENDBRANCH   7   9
ENDBRANCH   6   7
ENDBRANCH   5   6
ENDBRANCH   4   5
ENDBRANCH   3   4
ENDBRANCH   2   3
ENDBRANCH   1   2
BRANCH   1  35
ATOM     35  O   UNL A   1      45.095  25.594  28.302  1.00  0.00    -0.377 OA
BRANCH  35  36
ATOM     36  C   UNL A   1      45.890  26.025  27.200  1.00  0.00     0.188 C 
BRANCH  36  37
ATOM     37  C   UNL A   1      46.242  27.473  27.150  1.00  0.00     0.188 C 
BRANCH  37  38
ATOM     38  O   UNL A   1      45.509  28.006  26.068  1.00  0.00    -0.376 OA
BRANCH  38  39
ATOM     39  C   UNL A   1      44.698  27.065  25.402  1.00  0.00     0.202 C 
BRANCH  39  40
ATOM     40  C   UNL A   1      43.332  27.701  25.216  1.00  0.00     0.261 C 
BRANCH  40  41
ATOM     41  O   UNL A   1      43.261  28.885  26.060  1.00  0.00    -0.460 OA
BRANCH  41  42
ATOM     42  C   UNL A   1      42.181  28.958  26.913  1.00  0.00     0.338 C 
ATOM     43  O   UNL A   1      41.020  28.795  26.576  1.00  0.00    -0.246 OA
BRANCH  42  44
ATOM     44  C   UNL A   1      42.571  29.595  28.216  1.00  0.00     0.060 A 
ATOM     45  C   UNL A   1      41.680  29.681  29.300  1.00  0.00     0.016 A 
ATOM     46  C   UNL A   1      43.595  30.481  28.216  1.00  0.00     0.016 A 
ATOM     47  C   UNL A   1      41.484  30.912  30.021  1.00  0.00     0.010 A 
ATOM     48  C   UNL A   1      43.397  31.632  28.974  1.00  0.00     0.010 A 
ATOM     49  C   UNL A   1      42.154  32.084  29.660  1.00  0.00    -0.014 A 
BRANCH  49  50
ATOM     50  C   UNL A   1      41.540  33.844  29.966  1.00  0.00     0.031 A 
ATOM     51  C   UNL A   1      42.025  35.398  28.718  1.00  0.00     0.074 A 
ATOM     52  C   UNL A   1      41.045  33.769  31.373  1.00  0.00     0.049 A 
ATOM     53  N   UNL A   1      43.071  36.350  28.836  1.00  0.00    -0.248 NA
ATOM     54  C   UNL A   1      41.937  35.705  27.119  1.00  0.00     0.031 C 
ATOM     55  C   UNL A   1      39.944  34.451  32.147  1.00  0.00     0.029 A 
ATOM     56  N   UNL A   1      41.825  33.377  32.588  1.00  0.00    -0.354 N 
ATOM     57  C   UNL A   1      43.276  37.457  27.858  1.00  0.00     0.074 A 
ATOM     58  C   UNL A   1      42.701  36.760  26.743  1.00  0.00     0.031 C 
ATOM     59  C   UNL A   1      40.330  34.815  33.391  1.00  0.00     0.029 A 
ATOM     60  C   UNL A   1      41.703  34.445  33.592  1.00  0.00     0.049 A 
ATOM     61  H   UNL A   1      42.335  32.541  32.698  1.00  0.00     0.167 HD
ATOM     62  C   UNL A   1      43.622  38.916  28.002  1.00  0.00     0.037 A 
ATOM     63  C   UNL A   1      42.580  34.956  34.548  1.00  0.00     0.037 A 
ATOM     64  C   UNL A   1      43.440  39.775  29.422  1.00  0.00     0.049 A 
ATOM     65  C   UNL A   1      43.180  36.562  34.683  1.00  0.00     0.074 A 
ATOM     66  C   UNL A   1      42.402  40.583  29.953  1.00  0.00     0.029 A 
ATOM     67  N   UNL A   1      44.343  39.904  30.513  1.00  0.00    -0.354 N 
ATOM     68  N   UNL A   1      43.375  37.450  33.712  1.00  0.00    -0.248 NA
ATOM     69  C   UNL A   1      43.666  37.201  35.920  1.00  0.00     0.031 C 
ATOM     70  C   UNL A   1      42.460  40.606  31.389  1.00  0.00     0.029 A 
ATOM     71  C   UNL A   1      43.633  39.993  31.801  1.00  0.00     0.049 A 
ATOM     72  H   UNL A   1      45.323  39.931  30.419  1.00  0.00     0.167 HD
ATOM     73  C   UNL A   1      43.888  38.714  34.087  1.00  0.00     0.074 A 
ATOM     74  C   UNL A   1      44.056  38.447  35.524  1.00  0.00     0.031 C 
ATOM     75  C   UNL A   1      44.236  39.808  33.218  1.00  0.00     0.037 A 
BRANCH  62  76
ATOM     76  C   UNL A   1      43.533  39.906  26.754  1.00  0.00     0.064 A 
ATOM     77  C   UNL A   1      44.704  40.520  26.221  1.00  0.00     0.173 A 
ATOM     78  C   UNL A   1      42.359  40.340  26.121  1.00  0.00     0.173 A 
ATOM     79  F   UNL A   1      45.929  40.022  26.433  1.00  0.00    -0.203 F 
ATOM     80  C   UNL A   1      44.686  41.626  25.367  1.00  0.00     0.198 A 
ATOM     81  C   UNL A   1      42.333  41.442  25.241  1.00  0.00     0.198 A 
ATOM     82  F   UNL A   1      41.212  39.662  26.252  1.00  0.00    -0.203 F 
ATOM     83  F   UNL A   1      45.840  42.193  24.983  1.00  0.00    -0.200 F 
ATOM     84  C   UNL A   1      43.491  42.114  24.903  1.00  0.00     0.200 A 
ATOM     85  F   UNL A   1      41.169  41.839  24.706  1.00  0.00    -0.200 F 
ATOM     86  F   UNL A   1      43.464  43.168  24.074  1.00  0.00    -0.200 F 
ENDBRANCH  62  76
BRANCH  63  87
ATOM     87  C   UNL A   1      42.880  33.753  35.448  1.00  0.00     0.064 A 
ATOM     88  C   UNL A   1      44.269  33.444  35.520  1.00  0.00     0.173 A 
ATOM     89  C   UNL A   1      42.201  33.715  36.679  1.00  0.00     0.173 A 
ATOM     90  F   UNL A   1      44.998  33.409  34.391  1.00  0.00    -0.203 F 
ATOM     91  C   UNL A   1      44.963  33.519  36.739  1.00  0.00     0.198 A 
ATOM     92  C   UNL A   1      42.891  33.779  37.895  1.00  0.00     0.198 A 
ATOM     93  F   UNL A   1      40.876  33.822  36.720  1.00  0.00    -0.203 F 
ATOM     94  F   UNL A   1      46.304  33.552  36.745  1.00  0.00    -0.200 F 
ATOM     95  C   UNL A   1      44.274  33.756  37.916  1.00  0.00     0.200 A 
ATOM     96  F   UNL A   1      42.216  34.040  39.025  1.00  0.00    -0.200 F 
ATOM     97  F   UNL A   1      44.935  34.082  39.036  1.00  0.00    -0.200 F 
ENDBRANCH  63  87
BRANCH  75  98
ATOM     98  C   UNL A   1      45.416  40.830  33.478  1.00  0.00     0.064 A 
ATOM     99  C   UNL A   1      46.781  40.538  33.340  1.00  0.00     0.173 A 
ATOM    100  C   UNL A   1      45.143  42.236  33.483  1.00  0.00     0.173 A 
ATOM    101  F   UNL A   1      47.245  39.287  33.347  1.00  0.00    -0.203 F 
ATOM    102  C   UNL A   1      47.743  41.528  33.058  1.00  0.00     0.198 A 
ATOM    103  C   UNL A   1      46.081  43.207  33.120  1.00  0.00     0.198 A 
ATOM    104  F   UNL A   1      43.934  42.732  33.784  1.00  0.00    -0.203 F 
ATOM    105  F   UNL A   1      49.017  41.165  32.853  1.00  0.00    -0.200 F 
ATOM    106  C   UNL A   1      47.384  42.848  32.887  1.00  0.00     0.200 A 
ATOM    107  F   UNL A   1      45.692  44.479  32.937  1.00  0.00    -0.200 F 
ATOM    108  F   UNL A   1      48.281  43.761  32.489  1.00  0.00    -0.200 F 
ENDBRANCH  75  98
ENDBRANCH  49  50
ENDBRANCH  42  44
ENDBRANCH  41  42
ENDBRANCH  40  41
ENDBRANCH  39  40
ENDBRANCH  38  39
ENDBRANCH  37  38
ENDBRANCH  36  37
ENDBRANCH  35  36
ENDBRANCH   1  35
TORSDOF 24
ENDMDL
MODEL 2
REMARK VINA RESULT:     -12.9      1.406      2.200
REMARK SMILES Cc1ccccc1/C=C1\SC(=O)N(CC(=O)Nc2ccccc2C(=O)OCCOCCOCCOCCOC(=O)c2ccc(-c3c4nc(c(-c5c(F)c(F)c(F)c(F)c5F)c5ccc([nH]5)c(-c5c(F)c(F)c(F)c(F)c5F)c5nc(c(-c6c(F)c(F)c(F)c(F)c6F)c6ccc3[nH]6)C=C5)C=C4)cc2)C1=O
REMARK SMILES IDX 31 1 30 2 29 3 28 4 27 5 26 6 24 7 25 8 23 9 18 10 19 11
REMARK SMILES IDX 20 12 22 13 21 14 17 15 15 16 16 17 14 19 13 20 8 21 9 22
REMARK SMILES IDX 10 23 104 24 11 25 105 26 12 27 7 28 1 29 2 30 3 31 4 32
REMARK SMILES IDX 6 33 5 34 32 35 33 36 34 37 35 38 36 39 37 40 38 41 39 42
REMARK SMILES IDX 40 43 41 44 42 45 103 46 43 47 102 48 44 49 45 50 46 51
REMARK SMILES IDX 96 52 47 53 101 54 95 55 97 56 48 57 100 58 94 59 93 60
REMARK SMILES IDX 49 62 81 63 61 64 80 65 62 66 65 67 79 68 98 69 63 70 64 71
REMARK SMILES IDX 78 73 99 74 66 75 50 76 51 77 59 78 52 79 53 80 57 81 60 82
REMARK SMILES IDX 54 83 55 84 58 85 56 86 82 87 83 88 91 89 84 90 85 91 89 92
REMARK SMILES IDX 92 93 86 94 87 95 90 96 88 97 67 98 68 99 76 100 69 101
REMARK SMILES IDX 70 102 74 103 77 104 71 105 72 106 75 107 73 108
REMARK H PARENT 17 18 97 61 65 72
REMARK Flexibility Score: inf
ROOT
ATOM      1  C   UNL A   1      43.503  25.683  28.251  1.00  0.00     0.188 C 
ENDROOT
BRANCH   1   2
ATOM      2  C   UNL A   1      42.319  24.534  28.631  1.00  0.00     0.188 C 
BRANCH   2   3
ATOM      3  O   UNL A   1      40.608  24.116  28.217  1.00  0.00    -0.376 OA
BRANCH   3   4
ATOM      4  C   UNL A   1      39.715  23.940  26.640  1.00  0.00     0.202 C 
BRANCH   4   5
ATOM      5  C   UNL A   1      37.800  24.100  26.255  1.00  0.00     0.261 C 
BRANCH   5   6
ATOM      6  O   UNL A   1      36.304  23.989  25.125  1.00  0.00    -0.460 OA
BRANCH   6   7
ATOM      7  C   UNL A   1      34.743  23.887  24.513  1.00  0.00     0.340 C 
ATOM      8  O   UNL A   1      34.510  24.019  23.298  1.00  0.00    -0.246 OA
BRANCH   7   9
ATOM      9  C   UNL A   1      33.160  23.721  25.141  1.00  0.00     0.083 A 
ATOM     10  C   UNL A   1      31.770  24.033  24.728  1.00  0.00     0.055 A 
ATOM     11  C   UNL A   1      30.676  23.566  25.510  1.00  0.00     0.027 A 
ATOM     12  C   UNL A   1      30.861  22.921  26.719  1.00  0.00     0.002 A 
ATOM     13  C   UNL A   1      33.247  23.235  26.465  1.00  0.00     0.018 A 
ATOM     14  C   UNL A   1      32.142  22.809  27.220  1.00  0.00     0.001 A 
BRANCH  10  15
ATOM     15  N   UNL A   1      31.285  24.874  23.628  1.00  0.00    -0.324 N 
ATOM     16  C   UNL A   1      31.624  26.258  23.471  1.00  0.00     0.244 C 
ATOM     17  O   UNL A   1      32.492  26.624  22.676  1.00  0.00    -0.273 OA
ATOM     18  H   UNL A   1      30.691  24.464  22.959  1.00  0.00     0.170 HD
BRANCH  16  19
ATOM     19  C   UNL A   1      30.832  27.315  24.281  1.00  0.00     0.230 C 
BRANCH  19  20
ATOM     20  N   UNL A   1      31.784  27.753  25.235  1.00  0.00    -0.259 N 
ATOM     21  C   UNL A   1      34.375  30.685  27.081  1.00  0.00     0.029 C 
ATOM     22  C   UNL A   1      33.153  29.736  26.521  1.00  0.00     0.083 C 
ATOM     23  S   UNL A   1      32.283  28.353  27.423  1.00  0.00    -0.022 SA
ATOM     24  C   UNL A   1      32.504  28.960  25.050  1.00  0.00     0.268 C 
ATOM     25  C   UNL A   1      31.482  27.315  26.445  1.00  0.00     0.294 C 
ATOM     26  O   UNL A   1      32.530  29.308  23.871  1.00  0.00    -0.268 OA
ATOM     27  O   UNL A   1      30.662  26.504  26.819  1.00  0.00    -0.261 OA
BRANCH  21  28
ATOM     28  C   UNL A   1      35.571  31.546  28.254  1.00  0.00    -0.021 A 
ATOM     29  C   UNL A   1      35.168  34.156  28.860  1.00  0.00     0.045 C 
ATOM     30  C   UNL A   1      36.031  32.940  28.472  1.00  0.00    -0.044 A 
ATOM     31  C   UNL A   1      37.363  33.309  28.873  1.00  0.00     0.004 A 
ATOM     32  C   UNL A   1      38.181  32.404  29.467  1.00  0.00     0.000 A 
ATOM     33  C   UNL A   1      36.296  30.821  29.222  1.00  0.00     0.008 A 
ATOM     34  C   UNL A   1      37.567  31.219  29.783  1.00  0.00     0.001 A 
ENDBRANCH  21  28
ENDBRANCH  19  20
ENDBRANCH  16  19
ENDBRANCH  10  15
ENDBRANCH   7   9
ENDBRANCH   6   7
ENDBRANCH   5   6
ENDBRANCH   4   5
ENDBRANCH   3   4
ENDBRANCH   2   3
ENDBRANCH   1   2
BRANCH   1  35
ATOM     35  O   UNL A   1      44.881  25.669  27.864  1.00  0.00    -0.377 OA
BRANCH  35  36
ATOM     36  C   UNL A   1      45.505  26.348  26.777  1.00  0.00     0.188 C 
BRANCH  36  37
ATOM     37  C   UNL A   1      45.526  27.838  26.837  1.00  0.00     0.188 C 
BRANCH  37  38
ATOM     38  O   UNL A   1      44.783  28.274  25.720  1.00  0.00    -0.376 OA
BRANCH  38  39
ATOM     39  C   UNL A   1      43.843  27.334  25.249  1.00  0.00     0.202 C 
BRANCH  39  40
ATOM     40  C   UNL A   1      42.481  28.002  25.287  1.00  0.00     0.261 C 
BRANCH  40  41
ATOM     41  O   UNL A   1      42.509  29.039  26.309  1.00  0.00    -0.460 OA
BRANCH  41  42
ATOM     42  C   UNL A   1      41.713  28.826  27.413  1.00  0.00     0.338 C 
ATOM     43  O   UNL A   1      40.586  28.360  27.375  1.00  0.00    -0.246 OA
BRANCH  42  44
ATOM     44  C   UNL A   1      42.258  29.546  28.613  1.00  0.00     0.060 A 
ATOM     45  C   UNL A   1      41.514  29.691  29.797  1.00  0.00     0.016 A 
ATOM     46  C   UNL A   1      43.258  30.440  28.425  1.00  0.00     0.016 A 
ATOM     47  C   UNL A   1      41.393  30.963  30.461  1.00  0.00     0.010 A 
ATOM     48  C   UNL A   1      43.142  31.634  29.132  1.00  0.00     0.010 A 
ATOM     49  C   UNL A   1      41.990  32.116  29.946  1.00  0.00    -0.014 A 
BRANCH  49  50
ATOM     50  C   UNL A   1      41.391  33.886  30.222  1.00  0.00     0.031 A 
ATOM     51  C   UNL A   1      41.881  35.413  28.943  1.00  0.00     0.074 A 
ATOM     52  C   UNL A   1      40.904  33.842  31.634  1.00  0.00     0.049 A 
ATOM     53  N   UNL A   1      42.934  36.359  29.037  1.00  0.00    -0.248 NA
ATOM     54  C   UNL A   1      41.785  35.691  27.339  1.00  0.00     0.031 C 
ATOM     55  C   UNL A   1      39.812  34.546  32.400  1.00  0.00     0.029 A 
ATOM     56  N   UNL A   1      41.688  33.466  32.851  1.00  0.00    -0.354 N 
ATOM     57  C   UNL A   1      43.142  37.446  28.038  1.00  0.00     0.074 A 
ATOM     58  C   UNL A   1      42.556  36.733  26.939  1.00  0.00     0.031 C 
ATOM     59  C   UNL A   1      40.208  34.930  33.635  1.00  0.00     0.029 A 
ATOM     60  C   UNL A   1      41.580  34.553  33.836  1.00  0.00     0.049 A 
ATOM     61  H   UNL A   1      42.192  32.629  32.973  1.00  0.00     0.167 HD
ATOM     62  C   UNL A   1      43.500  38.905  28.152  1.00  0.00     0.037 A 
ATOM     63  C   UNL A   1      42.466  35.075  34.777  1.00  0.00     0.037 A 
ATOM     64  C   UNL A   1      43.332  39.791  29.557  1.00  0.00     0.049 A 
ATOM     65  C   UNL A   1      43.079  36.678  34.879  1.00  0.00     0.074 A 
ATOM     66  C   UNL A   1      42.304  40.617  30.080  1.00  0.00     0.029 A 
ATOM     67  N   UNL A   1      44.243  39.934  30.641  1.00  0.00    -0.354 N 
ATOM     68  N   UNL A   1      43.275  37.547  33.890  1.00  0.00    -0.248 NA
ATOM     69  C   UNL A   1      43.577  37.336  36.101  1.00  0.00     0.031 C 
ATOM     70  C   UNL A   1      42.370  40.667  31.514  1.00  0.00     0.029 A 
ATOM     71  C   UNL A   1      43.541  40.052  31.931  1.00  0.00     0.049 A 
ATOM     72  H   UNL A   1      45.222  39.952  30.541  1.00  0.00     0.167 HD
ATOM     73  C   UNL A   1      43.800  38.813  34.239  1.00  0.00     0.074 A 
ATOM     74  C   UNL A   1      43.974  38.572  35.680  1.00  0.00     0.031 C 
ATOM     75  C   UNL A   1      44.151  39.889  33.348  1.00  0.00     0.037 A 
BRANCH  62  76
ATOM     76  C   UNL A   1      43.411  39.872  26.887  1.00  0.00     0.064 A 
ATOM     77  C   UNL A   1      44.577  40.508  26.368  1.00  0.00     0.173 A 
ATOM     78  C   UNL A   1      42.240  40.265  26.224  1.00  0.00     0.173 A 
ATOM     79  F   UNL A   1      45.810  40.046  26.613  1.00  0.00    -0.203 F 
ATOM     80  C   UNL A   1      44.548  41.600  25.496  1.00  0.00     0.198 A 
ATOM     81  C   UNL A   1      42.203  41.352  25.325  1.00  0.00     0.198 A 
ATOM     82  F   UNL A   1      41.109  39.559  26.343  1.00  0.00    -0.203 F 
ATOM     83  F   UNL A   1      45.694  42.190  25.126  1.00  0.00    -0.200 F 
ATOM     84  C   UNL A   1      43.351  42.048  24.999  1.00  0.00     0.200 A 
ATOM     85  F   UNL A   1      41.041  41.710  24.760  1.00  0.00    -0.200 F 
ATOM     86  F   UNL A   1      43.313  43.088  24.153  1.00  0.00    -0.200 F 
ENDBRANCH  62  76
BRANCH  63  87
ATOM     87  C   UNL A   1      42.762  33.887  35.698  1.00  0.00     0.064 A 
ATOM     88  C   UNL A   1      41.620  33.454  36.432  1.00  0.00     0.173 A 
ATOM     89  C   UNL A   1      43.538  32.853  35.146  1.00  0.00     0.173 A 
ATOM     90  F   UNL A   1      40.839  34.364  37.038  1.00  0.00    -0.203 F 
ATOM     91  C   UNL A   1      41.096  32.162  36.255  1.00  0.00     0.198 A 
ATOM     92  C   UNL A   1      43.021  31.563  34.977  1.00  0.00     0.198 A 
ATOM     93  F   UNL A   1      44.712  33.121  34.583  1.00  0.00    -0.203 F 
ATOM     94  F   UNL A   1      39.857  31.878  36.685  1.00  0.00    -0.200 F 
ATOM     95  C   UNL A   1      41.768  31.242  35.468  1.00  0.00     0.200 A 
ATOM     96  F   UNL A   1      43.665  30.691  34.188  1.00  0.00    -0.200 F 
ATOM     97  F   UNL A   1      41.164  30.109  35.083  1.00  0.00    -0.200 F 
ENDBRANCH  63  87
BRANCH  75  98
ATOM     98  C   UNL A   1      45.340  40.907  33.582  1.00  0.00     0.064 A 
ATOM     99  C   UNL A   1      46.700  40.563  33.617  1.00  0.00     0.173 A 
ATOM    100  C   UNL A   1      45.121  42.306  33.373  1.00  0.00     0.173 A 
ATOM    101  F   UNL A   1      47.113  39.314  33.835  1.00  0.00    -0.203 F 
ATOM    102  C   UNL A   1      47.720  41.481  33.300  1.00  0.00     0.198 A 
ATOM    103  C   UNL A   1      46.126  43.195  32.976  1.00  0.00     0.198 A 
ATOM    104  F   UNL A   1      43.910  42.869  33.487  1.00  0.00    -0.203 F 
ATOM    105  F   UNL A   1      48.993  41.061  33.269  1.00  0.00    -0.200 F 
ATOM    106  C   UNL A   1      47.430  42.774  32.920  1.00  0.00     0.200 A 
ATOM    107  F   UNL A   1      45.804  44.439  32.588  1.00  0.00    -0.200 F 
ATOM    108  F   UNL A   1      48.395  43.601  32.493  1.00  0.00    -0.200 F 
ENDBRANCH  75  98
ENDBRANCH  49  50
ENDBRANCH  42  44
ENDBRANCH  41  42
ENDBRANCH  40  41
ENDBRANCH  39  40
ENDBRANCH  38  39
ENDBRANCH  37  38
ENDBRANCH  36  37
ENDBRANCH  35  36
ENDBRANCH   1  35
TORSDOF 24
ENDMDL
MODEL 3
REMARK VINA RESULT:     -11.9      6.944     15.307
REMARK SMILES Cc1ccccc1/C=C1\SC(=O)N(CC(=O)Nc2ccccc2C(=O)OCCOCCOCCOCCOC(=O)c2ccc(-c3c4nc(c(-c5c(F)c(F)c(F)c(F)c5F)c5ccc([nH]5)c(-c5c(F)c(F)c(F)c(F)c5F)c5nc(c(-c6c(F)c(F)c(F)c(F)c6F)c6ccc3[nH]6)C=C5)C=C4)cc2)C1=O
REMARK SMILES IDX 31 1 30 2 29 3 28 4 27 5 26 6 24 7 25 8 23 9 18 10 19 11
REMARK SMILES IDX 20 12 22 13 21 14 17 15 15 16 16 17 14 19 13 20 8 21 9 22
REMARK SMILES IDX 10 23 104 24 11 25 105 26 12 27 7 28 1 29 2 30 3 31 4 32
REMARK SMILES IDX 6 33 5 34 32 35 33 36 34 37 35 38 36 39 37 40 38 41 39 42
REMARK SMILES IDX 40 43 41 44 42 45 103 46 43 47 102 48 44 49 45 50 46 51
REMARK SMILES IDX 96 52 47 53 101 54 95 55 97 56 48 57 100 58 94 59 93 60
REMARK SMILES IDX 49 62 81 63 61 64 80 65 62 66 65 67 79 68 98 69 63 70 64 71
REMARK SMILES IDX 78 73 99 74 66 75 50 76 51 77 59 78 52 79 53 80 57 81 60 82
REMARK SMILES IDX 54 83 55 84 58 85 56 86 82 87 83 88 91 89 84 90 85 91 89 92
REMARK SMILES IDX 92 93 86 94 87 95 90 96 88 97 67 98 68 99 76 100 69 101
REMARK SMILES IDX 70 102 74 103 77 104 71 105 72 106 75 107 73 108
REMARK H PARENT 17 18 97 61 65 72
REMARK Flexibility Score: inf
ROOT
ATOM      1  C   UNL A   1      43.818  38.284  28.446  1.00  0.00     0.188 C 
ENDROOT
BRANCH   1   2
ATOM      2  C   UNL A   1      42.826  37.074  27.799  1.00  0.00     0.188 C 
BRANCH   2   3
ATOM      3  O   UNL A   1      42.704  36.015  26.338  1.00  0.00    -0.376 OA
BRANCH   3   4
ATOM      4  C   UNL A   1      43.684  34.604  25.736  1.00  0.00     0.202 C 
BRANCH   4   5
ATOM      5  C   UNL A   1      44.110  32.904  26.613  1.00  0.00     0.261 C 
BRANCH   5   6
ATOM      6  O   UNL A   1      44.042  31.696  28.050  1.00  0.00    -0.460 OA
BRANCH   6   7
ATOM      7  C   UNL A   1      44.431  30.604  29.265  1.00  0.00     0.340 C 
ATOM      8  O   UNL A   1      44.218  29.384  29.137  1.00  0.00    -0.246 OA
BRANCH   7   9
ATOM      9  C   UNL A   1      45.027  30.673  30.868  1.00  0.00     0.083 A 
ATOM     10  C   UNL A   1      46.336  30.600  31.563  1.00  0.00     0.055 A 
ATOM     11  C   UNL A   1      46.413  30.874  32.957  1.00  0.00     0.027 A 
ATOM     12  C   UNL A   1      45.285  31.098  33.725  1.00  0.00     0.002 A 
ATOM     13  C   UNL A   1      43.930  30.717  31.757  1.00  0.00     0.018 A 
ATOM     14  C   UNL A   1      44.045  30.962  33.135  1.00  0.00     0.001 A 
BRANCH  10  15
ATOM     15  N   UNL A   1      47.645  30.177  31.055  1.00  0.00    -0.324 N 
ATOM     16  C   UNL A   1      47.898  29.833  29.686  1.00  0.00     0.244 C 
ATOM     17  O   UNL A   1      48.434  30.626  28.910  1.00  0.00    -0.273 OA
ATOM     18  H   UNL A   1      48.394  30.126  31.691  1.00  0.00     0.170 HD
BRANCH  16  19
ATOM     19  C   UNL A   1      47.540  28.407  29.198  1.00  0.00     0.230 C 
BRANCH  19  20
ATOM     20  N   UNL A   1      48.632  27.635  29.667  1.00  0.00    -0.259 N 
ATOM     21  C   UNL A   1      50.434  24.421  31.935  1.00  0.00     0.029 C 
ATOM     22  C   UNL A   1      49.650  25.407  30.876  1.00  0.00     0.083 C 
ATOM     23  S   UNL A   1      50.285  26.058  29.246  1.00  0.00    -0.022 SA
ATOM     24  C   UNL A   1      48.488  26.759  30.772  1.00  0.00     0.268 C 
ATOM     25  C   UNL A   1      49.482  27.370  28.690  1.00  0.00     0.294 C 
ATOM     26  O   UNL A   1      47.529  27.059  31.480  1.00  0.00    -0.268 OA
ATOM     27  O   UNL A   1      49.559  27.802  27.560  1.00  0.00    -0.261 OA
BRANCH  21  28
ATOM     28  C   UNL A   1      51.674  23.198  32.650  1.00  0.00    -0.021 A 
ATOM     29  C   UNL A   1      53.917  24.145  33.840  1.00  0.00     0.045 C 
ATOM     30  C   UNL A   1      53.135  23.193  32.914  1.00  0.00    -0.044 A 
ATOM     31  C   UNL A   1      53.984  22.038  32.794  1.00  0.00     0.004 A 
ATOM     32  C   UNL A   1      53.458  20.788  32.821  1.00  0.00     0.000 A 
ATOM     33  C   UNL A   1      51.273  21.917  33.083  1.00  0.00     0.008 A 
ATOM     34  C   UNL A   1      52.124  20.750  33.136  1.00  0.00     0.001 A 
ENDBRANCH  21  28
ENDBRANCH  19  20
ENDBRANCH  16  19
ENDBRANCH  10  15
ENDBRANCH   7   9
ENDBRANCH   6   7
ENDBRANCH   5   6
ENDBRANCH   4   5
ENDBRANCH   3   4
ENDBRANCH   2   3
ENDBRANCH   1   2
BRANCH   1  35
ATOM     35  O   UNL A   1      43.660  39.394  29.336  1.00  0.00    -0.377 OA
BRANCH  35  36
ATOM     36  C   UNL A   1      43.671  39.399  30.761  1.00  0.00     0.188 C 
BRANCH  36  37
ATOM     37  C   UNL A   1      43.860  38.083  31.437  1.00  0.00     0.188 C 
BRANCH  37  38
ATOM     38  O   UNL A   1      43.210  38.200  32.684  1.00  0.00    -0.376 OA
BRANCH  38  39
ATOM     39  C   UNL A   1      43.409  37.101  33.544  1.00  0.00     0.202 C 
BRANCH  39  40
ATOM     40  C   UNL A   1      43.790  35.915  32.678  1.00  0.00     0.261 C 
BRANCH  40  41
ATOM     41  O   UNL A   1      42.956  34.784  33.059  1.00  0.00    -0.460 OA
BRANCH  41  42
ATOM     42  C   UNL A   1      43.110  34.324  34.348  1.00  0.00     0.338 C 
ATOM     43  O   UNL A   1      44.160  34.343  34.970  1.00  0.00    -0.246 OA
BRANCH  42  44
ATOM     44  C   UNL A   1      41.931  33.491  34.764  1.00  0.00     0.060 A 
ATOM     45  C   UNL A   1      41.985  32.620  35.866  1.00  0.00     0.016 A 
ATOM     46  C   UNL A   1      40.976  33.225  33.841  1.00  0.00     0.016 A 
ATOM     47  C   UNL A   1      41.516  31.261  35.777  1.00  0.00     0.010 A 
ATOM     48  C   UNL A   1      40.500  31.917  33.824  1.00  0.00     0.010 A 
ATOM     49  C   UNL A   1      41.008  30.740  34.584  1.00  0.00    -0.014 A 
BRANCH  49  50
ATOM     50  C   UNL A   1      41.029  28.920  34.079  1.00  0.00     0.031 A 
ATOM     51  C   UNL A   1      42.603  27.683  34.529  1.00  0.00     0.074 A 
ATOM     52  C   UNL A   1      39.920  28.853  33.081  1.00  0.00     0.049 A 
ATOM     53  N   UNL A   1      43.722  27.329  33.733  1.00  0.00    -0.248 NA
ATOM     54  C   UNL A   1      43.433  27.264  35.869  1.00  0.00     0.031 C 
ATOM     55  C   UNL A   1      38.926  27.794  32.671  1.00  0.00     0.029 A 
ATOM     56  N   UNL A   1      39.792  29.641  31.815  1.00  0.00    -0.354 N 
ATOM     57  C   UNL A   1      44.776  26.378  34.189  1.00  0.00     0.074 A 
ATOM     58  C   UNL A   1      44.612  26.656  35.588  1.00  0.00     0.031 C 
ATOM     59  C   UNL A   1      38.754  27.734  31.331  1.00  0.00     0.029 A 
ATOM     60  C   UNL A   1      39.599  28.707  30.695  1.00  0.00     0.049 A 
ATOM     61  H   UNL A   1      39.829  30.623  31.745  1.00  0.00     0.167 HD
ATOM     62  C   UNL A   1      45.521  25.255  33.515  1.00  0.00     0.037 A 
ATOM     63  C   UNL A   1      40.010  28.722  29.363  1.00  0.00     0.037 A 
ATOM     64  C   UNL A   1      44.999  24.507  32.117  1.00  0.00     0.049 A 
ATOM     65  C   UNL A   1      41.014  27.586  28.552  1.00  0.00     0.074 A 
ATOM     66  C   UNL A   1      44.221  23.349  31.855  1.00  0.00     0.029 A 
ATOM     67  N   UNL A   1      45.222  24.881  30.763  1.00  0.00    -0.354 N 
ATOM     68  N   UNL A   1      41.975  26.824  29.067  1.00  0.00    -0.248 NA
ATOM     69  C   UNL A   1      41.026  27.327  27.101  1.00  0.00     0.031 C 
ATOM     70  C   UNL A   1      43.570  23.452  30.579  1.00  0.00     0.029 A 
ATOM     71  C   UNL A   1      44.063  24.563  29.911  1.00  0.00     0.049 A 
ATOM     72  H   UNL A   1      46.050  25.302  30.435  1.00  0.00     0.167 HD
ATOM     73  C   UNL A   1      42.664  25.966  28.179  1.00  0.00     0.074 A 
ATOM     74  C   UNL A   1      41.992  26.377  26.936  1.00  0.00     0.031 C 
ATOM     75  C   UNL A   1      43.773  25.099  28.485  1.00  0.00     0.037 A 
BRANCH  62  76
ATOM     76  C   UNL A   1      46.432  24.254  34.359  1.00  0.00     0.064 A 
ATOM     77  C   UNL A   1      47.766  24.606  34.721  1.00  0.00     0.173 A 
ATOM     78  C   UNL A   1      46.091  22.951  34.749  1.00  0.00     0.173 A 
ATOM     79  F   UNL A   1      48.184  25.877  34.751  1.00  0.00    -0.203 F 
ATOM     80  C   UNL A   1      48.724  23.687  35.158  1.00  0.00     0.198 A 
ATOM     81  C   UNL A   1      47.046  22.022  35.213  1.00  0.00     0.198 A 
ATOM     82  F   UNL A   1      44.814  22.553  34.788  1.00  0.00    -0.203 F 
ATOM     83  F   UNL A   1      49.980  24.093  35.394  1.00  0.00    -0.200 F 
ATOM     84  C   UNL A   1      48.371  22.378  35.371  1.00  0.00     0.200 A 
ATOM     85  F   UNL A   1      46.665  20.774  35.523  1.00  0.00    -0.200 F 
ATOM     86  F   UNL A   1      49.281  21.491  35.801  1.00  0.00    -0.200 F 
ENDBRANCH  62  76
BRANCH  63  87
ATOM     87  C   UNL A   1      39.356  29.985  28.794  1.00  0.00     0.064 A 
ATOM     88  C   UNL A   1      37.973  29.812  28.499  1.00  0.00     0.173 A 
ATOM     89  C   UNL A   1      39.677  31.193  29.438  1.00  0.00     0.173 A 
ATOM     90  F   UNL A   1      37.570  28.710  27.844  1.00  0.00    -0.203 F 
ATOM     91  C   UNL A   1      36.993  30.567  29.165  1.00  0.00     0.198 A 
ATOM     92  C   UNL A   1      38.701  31.952  30.094  1.00  0.00     0.198 A 
ATOM     93  F   UNL A   1      40.947  31.544  29.617  1.00  0.00    -0.203 F 
ATOM     94  F   UNL A   1      35.710  30.178  29.130  1.00  0.00    -0.200 F 
ATOM     95  C   UNL A   1      37.367  31.593  30.016  1.00  0.00     0.200 A 
ATOM     96  F   UNL A   1      39.076  32.924  30.940  1.00  0.00    -0.200 F 
ATOM     97  F   UNL A   1      36.471  32.148  30.846  1.00  0.00    -0.200 F 
ENDBRANCH  63  87
BRANCH  75  98
ATOM     98  C   UNL A   1      44.954  24.755  27.490  1.00  0.00     0.064 A 
ATOM     99  C   UNL A   1      45.283  23.465  27.045  1.00  0.00     0.173 A 
ATOM    100  C   UNL A   1      45.510  25.789  26.670  1.00  0.00     0.173 A 
ATOM    101  F   UNL A   1      44.890  22.367  27.693  1.00  0.00    -0.203 F 
ATOM    102  C   UNL A   1      45.939  23.232  25.821  1.00  0.00     0.198 A 
ATOM    103  C   UNL A   1      46.084  25.555  25.416  1.00  0.00     0.198 A 
ATOM    104  F   UNL A   1      45.470  27.082  27.018  1.00  0.00    -0.203 F 
ATOM    105  F   UNL A   1      46.143  21.970  25.417  1.00  0.00    -0.200 F 
ATOM    106  C   UNL A   1      46.281  24.271  24.981  1.00  0.00     0.200 A 
ATOM    107  F   UNL A   1      46.381  26.590  24.613  1.00  0.00    -0.200 F 
ATOM    108  F   UNL A   1      46.783  24.034  23.761  1.00  0.00    -0.200 F 
ENDBRANCH  75  98
ENDBRANCH  49  50
ENDBRANCH  42  44
ENDBRANCH  41  42
ENDBRANCH  40  41
ENDBRANCH  39  40
ENDBRANCH  38  39
ENDBRANCH  37  38
ENDBRANCH  36  37
ENDBRANCH  35  36
ENDBRANCH   1  35
TORSDOF 24
ENDMDL
