MODEL 1
REMARK VINA RESULT:     -11.1      0.000      0.000
REMARK SMILES C[C@H]1C[NH+](CC[C@@H]2CCC[C@]2([NH3+])C(=O)NCCCCCCNC(=O)c2ccc(-c3c4nc(c(-c5c(F)cccc5F)c5ccc([nH]5)c(-c5c(F)cccc5F)c5nc(c(-c6c(F)cccc6F)c6ccc3[nH]6)C=C5)C=C4)cc2)C[C@H](C)O1
REMARK SMILES IDX 18 1 17 2 16 3 15 4 13 5 14 6 11 8 7 9 8 10 9 11 10 12 6 13
REMARK SMILES IDX 5 14 4 15 1 16 2 17 3 18 82 19 80 20 79 21 81 23 12 24 19 28
REMARK SMILES IDX 20 29 21 30 22 31 23 32 24 34 25 35 26 36 78 37 27 38 77 39
REMARK SMILES IDX 28 40 29 41 30 42 71 43 31 44 76 45 70 46 72 47 32 48 75 49
REMARK SMILES IDX 69 50 68 51 33 53 59 54 42 55 58 56 43 57 46 58 57 59 73 60
REMARK SMILES IDX 44 61 45 62 56 64 74 65 47 66 34 67 35 68 40 69 36 70 37 71
REMARK SMILES IDX 39 72 41 73 38 74 60 75 61 76 66 77 62 78 63 79 65 80 67 81
REMARK SMILES IDX 64 82 48 83 49 84 54 85 50 86 51 87 53 88 55 89 52 90
REMARK H PARENT 15 7 4 22 12 25 12 26 12 27 22 33 72 52 46 63
REMARK Flexibility Score: inf
ROOT
ATOM      1  C   UNL A   1      36.729  22.059  25.713  1.00  0.00     0.002 C 
ENDROOT
BRANCH   1   2
ATOM      2  C   UNL A   1      36.309  23.419  25.164  1.00  0.00     0.021 C 
BRANCH   2   3
ATOM      3  C   UNL A   1      34.807  23.586  24.878  1.00  0.00     0.116 C 
BRANCH   3   4
ATOM      4  N   UNL A   1      34.524  23.748  23.455  1.00  0.00    -0.351 N 
ATOM      5  C   UNL A   1      33.581  23.172  22.639  1.00  0.00     0.281 C 
ATOM      6  O   UNL A   1      33.652  23.463  21.440  1.00  0.00    -0.268 OA
ATOM      7  H   UNL A   1      35.117  24.387  22.998  1.00  0.00     0.163 HD
BRANCH   5   8
ATOM      8  C   UNL A   1      32.454  22.210  23.181  1.00  0.00     0.177 C 
ATOM      9  C   UNL A   1      31.402  22.824  24.177  1.00  0.00     0.066 C 
ATOM     10  C   UNL A   1      31.660  22.199  25.553  1.00  0.00     0.011 C 
ATOM     11  C   UNL A   1      32.992  21.473  25.457  1.00  0.00     0.008 C 
ATOM     12  C   UNL A   1      33.084  21.049  24.001  1.00  0.00     0.079 C 
BRANCH   9  13
ATOM     13  C   UNL A   1      31.123  24.336  24.094  1.00  0.00     0.072 C 
BRANCH  13  14
ATOM     14  C   UNL A   1      31.394  25.386  25.192  1.00  0.00     0.262 C 
BRANCH  14  15
ATOM     15  N   UNL A   1      32.292  26.530  24.964  1.00  0.00    -0.331 N 
ATOM     16  C   UNL A   1      34.045  29.156  27.187  1.00  0.00     0.045 C 
ATOM     17  C   UNL A   1      33.751  28.384  25.898  1.00  0.00     0.170 C 
ATOM     18  C   UNL A   1      32.845  27.153  26.182  1.00  0.00     0.294 C 
ATOM     19  O   UNL A   1      33.156  29.328  24.994  1.00  0.00    -0.364 OA
ATOM     20  C   UNL A   1      32.616  28.730  23.812  1.00  0.00     0.170 C 
ATOM     21  C   UNL A   1      31.666  27.578  24.163  1.00  0.00     0.294 C 
ATOM     22  H   UNL A   1      33.070  26.105  24.459  1.00  0.00     0.348 HD
ATOM     23  C   UNL A   1      33.714  28.324  22.838  1.00  0.00     0.045 C 
ENDBRANCH  14  15
ENDBRANCH  13  14
ENDBRANCH   9  13
BRANCH   8  24
ATOM     24  N   UNL A   1      31.800  21.580  22.001  1.00  0.00    -0.345 N 
ATOM     25  H   UNL A   1      31.892  22.195  21.193  1.00  0.00     0.345 HD
ATOM     26  H   UNL A   1      30.812  21.428  22.201  1.00  0.00     0.345 HD
ATOM     27  H   UNL A   1      32.249  20.686  21.800  1.00  0.00     0.345 HD
ENDBRANCH   8  24
ENDBRANCH   5   8
ENDBRANCH   3   4
ENDBRANCH   2   3
ENDBRANCH   1   2
BRANCH   1  28
ATOM     28  C   UNL A   1      36.762  20.940  24.676  1.00  0.00     0.002 C 
BRANCH  28  29
ATOM     29  C   UNL A   1      37.770  19.824  24.963  1.00  0.00     0.021 C 
BRANCH  29  30
ATOM     30  C   UNL A   1      39.003  20.258  25.751  1.00  0.00     0.116 C 
BRANCH  30  31
ATOM     31  N   UNL A   1      39.981  19.188  25.862  1.00  0.00    -0.352 N 
ATOM     32  C   UNL A   1      41.340  19.278  26.035  1.00  0.00     0.251 C 
ATOM     33  H   UNL A   1      39.619  18.275  25.803  1.00  0.00     0.163 HD
ATOM     34  O   UNL A   1      42.055  18.297  25.880  1.00  0.00    -0.269 OA
BRANCH  32  35
ATOM     35  C   UNL A   1      41.939  20.581  26.395  1.00  0.00     0.039 A 
ATOM     36  C   UNL A   1      42.320  21.457  25.379  1.00  0.00     0.014 A 
ATOM     37  C   UNL A   1      42.119  20.931  27.737  1.00  0.00     0.014 A 
ATOM     38  C   UNL A   1      42.834  22.713  25.707  1.00  0.00     0.010 A 
ATOM     39  C   UNL A   1      42.565  22.209  28.062  1.00  0.00     0.010 A 
ATOM     40  C   UNL A   1      42.932  23.110  27.051  1.00  0.00    -0.014 A 
BRANCH  40  41
ATOM     41  C   UNL A   1      43.421  24.463  27.421  1.00  0.00     0.031 A 
ATOM     42  C   UNL A   1      42.445  25.524  27.850  1.00  0.00     0.074 A 
ATOM     43  C   UNL A   1      44.730  24.755  27.306  1.00  0.00     0.049 A 
ATOM     44  N   UNL A   1      42.665  26.783  28.135  1.00  0.00    -0.248 NA
ATOM     45  C   UNL A   1      41.032  25.125  27.947  1.00  0.00     0.031 C 
ATOM     46  C   UNL A   1      45.769  23.825  26.861  1.00  0.00     0.029 A 
ATOM     47  N   UNL A   1      45.410  25.924  27.543  1.00  0.00    -0.354 N 
ATOM     48  C   UNL A   1      41.420  27.326  28.428  1.00  0.00     0.074 A 
ATOM     49  C   UNL A   1      40.445  26.276  28.237  1.00  0.00     0.031 C 
ATOM     50  C   UNL A   1      46.956  24.454  26.872  1.00  0.00     0.029 A 
ATOM     51  C   UNL A   1      46.757  25.838  27.286  1.00  0.00     0.049 A 
ATOM     52  H   UNL A   1      44.974  26.745  27.865  1.00  0.00     0.167 HD
ATOM     53  C   UNL A   1      41.122  28.581  28.840  1.00  0.00     0.037 A 
ATOM     54  C   UNL A   1      47.722  26.775  27.364  1.00  0.00     0.037 A 
ATOM     55  C   UNL A   1      42.098  29.618  29.050  1.00  0.00     0.049 A 
ATOM     56  C   UNL A   1      47.362  28.165  27.813  1.00  0.00     0.074 A 
ATOM     57  C   UNL A   1      41.902  30.904  29.521  1.00  0.00     0.029 A 
ATOM     58  N   UNL A   1      43.454  29.486  28.797  1.00  0.00    -0.354 N 
ATOM     59  N   UNL A   1      46.190  28.647  28.151  1.00  0.00    -0.248 NA
ATOM     60  C   UNL A   1      48.458  29.140  27.897  1.00  0.00     0.031 C 
ATOM     61  C   UNL A   1      43.132  31.567  29.507  1.00  0.00     0.029 A 
ATOM     62  C   UNL A   1      44.105  30.677  29.081  1.00  0.00     0.049 A 
ATOM     63  H   UNL A   1      43.892  28.669  28.465  1.00  0.00     0.167 HD
ATOM     64  C   UNL A   1      46.413  29.968  28.519  1.00  0.00     0.074 A 
ATOM     65  C   UNL A   1      47.834  30.208  28.372  1.00  0.00     0.031 C 
ATOM     66  C   UNL A   1      45.522  30.898  28.942  1.00  0.00     0.037 A 
BRANCH  53  67
ATOM     67  C   UNL A   1      39.676  28.903  29.091  1.00  0.00     0.057 A 
ATOM     68  C   UNL A   1      39.098  28.771  30.361  1.00  0.00     0.134 A 
ATOM     69  C   UNL A   1      38.862  29.389  28.059  1.00  0.00     0.134 A 
ATOM     70  F   UNL A   1      39.818  28.302  31.391  1.00  0.00    -0.206 F 
ATOM     71  C   UNL A   1      37.757  29.084  30.589  1.00  0.00     0.040 A 
ATOM     72  C   UNL A   1      37.527  29.734  28.282  1.00  0.00     0.040 A 
ATOM     73  F   UNL A   1      39.352  29.546  26.821  1.00  0.00    -0.206 F 
ATOM     74  C   UNL A   1      36.970  29.575  29.549  1.00  0.00     0.006 A 
ENDBRANCH  53  67
BRANCH  54  75
ATOM     75  C   UNL A   1      49.125  26.428  27.026  1.00  0.00     0.057 A 
ATOM     76  C   UNL A   1      49.598  26.528  25.712  1.00  0.00     0.134 A 
ATOM     77  C   UNL A   1      50.024  25.979  28.001  1.00  0.00     0.134 A 
ATOM     78  F   UNL A   1      48.781  26.935  24.730  1.00  0.00    -0.206 F 
ATOM     79  C   UNL A   1      50.906  26.173  25.375  1.00  0.00     0.040 A 
ATOM     80  C   UNL A   1      51.342  25.647  27.684  1.00  0.00     0.040 A 
ATOM     81  F   UNL A   1      49.636  25.869  29.281  1.00  0.00    -0.206 F 
ATOM     82  C   UNL A   1      51.784  25.735  26.365  1.00  0.00     0.006 A 
ENDBRANCH  54  75
BRANCH  66  83
ATOM     83  C   UNL A   1      46.060  32.246  29.323  1.00  0.00     0.057 A 
ATOM     84  C   UNL A   1      46.517  32.525  30.616  1.00  0.00     0.134 A 
ATOM     85  C   UNL A   1      46.165  33.264  28.365  1.00  0.00     0.134 A 
ATOM     86  F   UNL A   1      46.434  31.599  31.582  1.00  0.00    -0.206 F 
ATOM     87  C   UNL A   1      47.040  33.776  30.950  1.00  0.00     0.040 A 
ATOM     88  C   UNL A   1      46.712  34.509  28.679  1.00  0.00     0.040 A 
ATOM     89  F   UNL A   1      45.754  33.059  27.105  1.00  0.00    -0.206 F 
ATOM     90  C   UNL A   1      47.146  34.770  29.977  1.00  0.00     0.006 A 
ENDBRANCH  66  83
ENDBRANCH  40  41
ENDBRANCH  32  35
ENDBRANCH  30  31
ENDBRANCH  29  30
ENDBRANCH  28  29
ENDBRANCH   1  28
TORSDOF 17
ENDMDL
MODEL 2
REMARK VINA RESULT:     -11.0      5.598     10.752
REMARK SMILES C[C@H]1C[NH+](CC[C@@H]2CCC[C@]2([NH3+])C(=O)NCCCCCCNC(=O)c2ccc(-c3c4nc(c(-c5c(F)cccc5F)c5ccc([nH]5)c(-c5c(F)cccc5F)c5nc(c(-c6c(F)cccc6F)c6ccc3[nH]6)C=C5)C=C4)cc2)C[C@H](C)O1
REMARK SMILES IDX 18 1 17 2 16 3 15 4 13 5 14 6 11 8 7 9 8 10 9 11 10 12 6 13
REMARK SMILES IDX 5 14 4 15 1 16 2 17 3 18 82 19 80 20 79 21 81 23 12 24 19 28
REMARK SMILES IDX 20 29 21 30 22 31 23 32 24 34 25 35 26 36 78 37 27 38 77 39
REMARK SMILES IDX 28 40 29 41 30 42 71 43 31 44 76 45 70 46 72 47 32 48 75 49
REMARK SMILES IDX 69 50 68 51 33 53 59 54 42 55 58 56 43 57 46 58 57 59 73 60
REMARK SMILES IDX 44 61 45 62 56 64 74 65 47 66 34 67 35 68 40 69 36 70 37 71
REMARK SMILES IDX 39 72 41 73 38 74 60 75 61 76 66 77 62 78 63 79 65 80 67 81
REMARK SMILES IDX 64 82 48 83 49 84 54 85 50 86 51 87 53 88 55 89 52 90
REMARK H PARENT 15 7 4 22 12 25 12 26 12 27 22 33 72 52 46 63
REMARK Flexibility Score: inf
ROOT
ATOM      1  C   UNL A   1      45.047  24.700  32.177  1.00  0.00     0.002 C 
ENDROOT
BRANCH   1   2
ATOM      2  C   UNL A   1      44.842  24.399  30.696  1.00  0.00     0.021 C 
BRANCH   2   3
ATOM      3  C   UNL A   1      45.456  25.416  29.718  1.00  0.00     0.116 C 
BRANCH   3   4
ATOM      4  N   UNL A   1      46.562  24.854  28.950  1.00  0.00    -0.351 N 
ATOM      5  C   UNL A   1      46.757  24.714  27.597  1.00  0.00     0.281 C 
ATOM      6  O   UNL A   1      47.783  24.113  27.258  1.00  0.00    -0.268 OA
ATOM      7  H   UNL A   1      47.302  24.513  29.502  1.00  0.00     0.163 HD
BRANCH   5   8
ATOM      8  C   UNL A   1      45.756  25.293  26.524  1.00  0.00     0.177 C 
ATOM      9  C   UNL A   1      44.519  24.400  26.138  1.00  0.00     0.066 C 
ATOM     10  C   UNL A   1      44.734  23.925  24.697  1.00  0.00     0.011 C 
ATOM     11  C   UNL A   1      46.172  24.265  24.338  1.00  0.00     0.008 C 
ATOM     12  C   UNL A   1      46.483  25.500  25.166  1.00  0.00     0.079 C 
BRANCH   9  13
ATOM     13  C   UNL A   1      44.002  23.391  27.180  1.00  0.00     0.072 C 
BRANCH  13  14
ATOM     14  C   UNL A   1      42.929  22.304  26.958  1.00  0.00     0.262 C 
BRANCH  14  15
ATOM     15  N   UNL A   1      43.288  20.925  26.590  1.00  0.00    -0.331 N 
ATOM     16  C   UNL A   1      45.106  19.234  23.632  1.00  0.00     0.045 C 
ATOM     17  C   UNL A   1      44.469  19.316  25.022  1.00  0.00     0.170 C 
ATOM     18  C   UNL A   1      44.153  20.791  25.401  1.00  0.00     0.294 C 
ATOM     19  O   UNL A   1      43.302  18.480  24.976  1.00  0.00    -0.364 OA
ATOM     20  C   UNL A   1      42.459  18.608  26.126  1.00  0.00     0.170 C 
ATOM     21  C   UNL A   1      42.115  20.078  26.395  1.00  0.00     0.294 C 
ATOM     22  H   UNL A   1      43.830  20.613  27.397  1.00  0.00     0.348 HD
ATOM     23  C   UNL A   1      43.053  17.900  27.337  1.00  0.00     0.045 C 
ENDBRANCH  14  15
ENDBRANCH  13  14
ENDBRANCH   9  13
BRANCH   8  24
ATOM     24  N   UNL A   1      45.343  26.647  26.986  1.00  0.00    -0.345 N 
ATOM     25  H   UNL A   1      46.075  27.321  26.763  1.00  0.00     0.345 HD
ATOM     26  H   UNL A   1      45.193  26.630  27.995  1.00  0.00     0.345 HD
ATOM     27  H   UNL A   1      44.478  26.917  26.518  1.00  0.00     0.345 HD
ENDBRANCH   8  24
ENDBRANCH   5   8
ENDBRANCH   3   4
ENDBRANCH   2   3
ENDBRANCH   1   2
BRANCH   1  28
ATOM     28  C   UNL A   1      44.602  23.583  33.117  1.00  0.00     0.002 C 
BRANCH  28  29
ATOM     29  C   UNL A   1      45.616  23.212  34.203  1.00  0.00     0.021 C 
BRANCH  29  30
ATOM     30  C   UNL A   1      46.852  24.106  34.261  1.00  0.00     0.116 C 
BRANCH  30  31
ATOM     31  N   UNL A   1      47.113  24.586  35.608  1.00  0.00    -0.352 N 
ATOM     32  C   UNL A   1      46.663  25.730  36.217  1.00  0.00     0.251 C 
ATOM     33  H   UNL A   1      47.692  24.010  36.159  1.00  0.00     0.163 HD
ATOM     34  O   UNL A   1      47.153  26.109  37.274  1.00  0.00    -0.269 OA
BRANCH  32  35
ATOM     35  C   UNL A   1      45.588  26.517  35.576  1.00  0.00     0.039 A 
ATOM     36  C   UNL A   1      45.930  27.618  34.790  1.00  0.00     0.014 A 
ATOM     37  C   UNL A   1      44.248  26.161  35.753  1.00  0.00     0.014 A 
ATOM     38  C   UNL A   1      44.926  28.334  34.134  1.00  0.00     0.010 A 
ATOM     39  C   UNL A   1      43.256  26.832  35.043  1.00  0.00     0.010 A 
ATOM     40  C   UNL A   1      43.585  27.928  34.230  1.00  0.00    -0.014 A 
BRANCH  40  41
ATOM     41  C   UNL A   1      42.510  28.639  33.493  1.00  0.00     0.031 A 
ATOM     42  C   UNL A   1      41.638  29.634  34.208  1.00  0.00     0.074 A 
ATOM     43  C   UNL A   1      42.277  28.342  32.201  1.00  0.00     0.049 A 
ATOM     44  N   UNL A   1      40.600  30.295  33.761  1.00  0.00    -0.248 NA
ATOM     45  C   UNL A   1      41.957  29.900  35.620  1.00  0.00     0.031 C 
ATOM     46  C   UNL A   1      43.026  27.366  31.408  1.00  0.00     0.029 A 
ATOM     47  N   UNL A   1      41.332  28.823  31.328  1.00  0.00    -0.354 N 
ATOM     48  C   UNL A   1      40.137  31.041  34.838  1.00  0.00     0.074 A 
ATOM     49  C   UNL A   1      40.972  30.712  35.972  1.00  0.00     0.031 C 
ATOM     50  C   UNL A   1      42.523  27.332  30.162  1.00  0.00     0.029 A 
ATOM     51  C   UNL A   1      41.394  28.252  30.080  1.00  0.00     0.049 A 
ATOM     52  H   UNL A   1      40.672  29.510  31.574  1.00  0.00     0.167 HD
ATOM     53  C   UNL A   1      39.120  31.935  34.872  1.00  0.00     0.037 A 
ATOM     54  C   UNL A   1      40.619  28.440  28.994  1.00  0.00     0.037 A 
ATOM     55  C   UNL A   1      38.304  32.276  33.735  1.00  0.00     0.049 A 
ATOM     56  C   UNL A   1      39.488  29.430  29.061  1.00  0.00     0.074 A 
ATOM     57  C   UNL A   1      37.288  33.211  33.654  1.00  0.00     0.029 A 
ATOM     58  N   UNL A   1      38.411  31.690  32.484  1.00  0.00    -0.354 N 
ATOM     59  N   UNL A   1      39.103  30.177  30.067  1.00  0.00    -0.248 NA
ATOM     60  C   UNL A   1      38.689  29.608  27.841  1.00  0.00     0.031 C 
ATOM     61  C   UNL A   1      36.746  33.157  32.367  1.00  0.00     0.029 A 
ATOM     62  C   UNL A   1      37.462  32.228  31.629  1.00  0.00     0.049 A 
ATOM     63  H   UNL A   1      39.063  30.995  32.238  1.00  0.00     0.167 HD
ATOM     64  C   UNL A   1      38.040  30.936  29.593  1.00  0.00     0.074 A 
ATOM     65  C   UNL A   1      37.849  30.565  28.206  1.00  0.00     0.031 C 
ATOM     66  C   UNL A   1      37.291  31.858  30.247  1.00  0.00     0.037 A 
BRANCH  53  67
ATOM     67  C   UNL A   1      38.831  32.609  36.183  1.00  0.00     0.057 A 
ATOM     68  C   UNL A   1      39.289  33.903  36.467  1.00  0.00     0.134 A 
ATOM     69  C   UNL A   1      38.053  31.972  37.158  1.00  0.00     0.134 A 
ATOM     70  F   UNL A   1      40.048  34.566  35.581  1.00  0.00    -0.206 F 
ATOM     71  C   UNL A   1      39.007  34.527  37.683  1.00  0.00     0.040 A 
ATOM     72  C   UNL A   1      37.739  32.597  38.366  1.00  0.00     0.040 A 
ATOM     73  F   UNL A   1      37.577  30.735  36.950  1.00  0.00    -0.206 F 
ATOM     74  C   UNL A   1      38.222  33.877  38.634  1.00  0.00     0.006 A 
ENDBRANCH  53  67
BRANCH  54  75
ATOM     75  C   UNL A   1      40.894  27.688  27.744  1.00  0.00     0.057 A 
ATOM     76  C   UNL A   1      40.338  26.422  27.524  1.00  0.00     0.134 A 
ATOM     77  C   UNL A   1      41.726  28.208  26.745  1.00  0.00     0.134 A 
ATOM     78  F   UNL A   1      39.548  25.863  28.452  1.00  0.00    -0.206 F 
ATOM     79  C   UNL A   1      40.616  25.691  26.368  1.00  0.00     0.040 A 
ATOM     80  C   UNL A   1      41.991  27.500  25.572  1.00  0.00     0.040 A 
ATOM     81  F   UNL A   1      42.284  29.419  26.891  1.00  0.00    -0.206 F 
ATOM     82  C   UNL A   1      41.441  26.233  25.385  1.00  0.00     0.006 A 
ENDBRANCH  54  75
BRANCH  66  83
ATOM     83  C   UNL A   1      36.227  32.566  29.460  1.00  0.00     0.057 A 
ATOM     84  C   UNL A   1      36.389  33.881  29.008  1.00  0.00     0.134 A 
ATOM     85  C   UNL A   1      35.044  31.901  29.109  1.00  0.00     0.134 A 
ATOM     86  F   UNL A   1      37.492  34.577  29.319  1.00  0.00    -0.206 F 
ATOM     87  C   UNL A   1      35.401  34.519  28.255  1.00  0.00     0.040 A 
ATOM     88  C   UNL A   1      34.063  32.519  28.332  1.00  0.00     0.040 A 
ATOM     89  F   UNL A   1      34.831  30.637  29.502  1.00  0.00    -0.206 F 
ATOM     90  C   UNL A   1      34.237  33.834  27.908  1.00  0.00     0.006 A 
ENDBRANCH  66  83
ENDBRANCH  40  41
ENDBRANCH  32  35
ENDBRANCH  30  31
ENDBRANCH  29  30
ENDBRANCH  28  29
ENDBRANCH   1  28
TORSDOF 17
ENDMDL
MODEL 3
REMARK VINA RESULT:     -10.9      4.624      9.992
REMARK SMILES C[C@H]1C[NH+](CC[C@@H]2CCC[C@]2([NH3+])C(=O)NCCCCCCNC(=O)c2ccc(-c3c4nc(c(-c5c(F)cccc5F)c5ccc([nH]5)c(-c5c(F)cccc5F)c5nc(c(-c6c(F)cccc6F)c6ccc3[nH]6)C=C5)C=C4)cc2)C[C@H](C)O1
REMARK SMILES IDX 18 1 17 2 16 3 15 4 13 5 14 6 11 8 7 9 8 10 9 11 10 12 6 13
REMARK SMILES IDX 5 14 4 15 1 16 2 17 3 18 82 19 80 20 79 21 81 23 12 24 19 28
REMARK SMILES IDX 20 29 21 30 22 31 23 32 24 34 25 35 26 36 78 37 27 38 77 39
REMARK SMILES IDX 28 40 29 41 30 42 71 43 31 44 76 45 70 46 72 47 32 48 75 49
REMARK SMILES IDX 69 50 68 51 33 53 59 54 42 55 58 56 43 57 46 58 57 59 73 60
REMARK SMILES IDX 44 61 45 62 56 64 74 65 47 66 34 67 35 68 40 69 36 70 37 71
REMARK SMILES IDX 39 72 41 73 38 74 60 75 61 76 66 77 62 78 63 79 65 80 67 81
REMARK SMILES IDX 64 82 48 83 49 84 54 85 50 86 51 87 53 88 55 89 52 90
REMARK H PARENT 15 7 4 22 12 25 12 26 12 27 22 33 72 52 46 63
REMARK Flexibility Score: inf
ROOT
ATOM      1  C   UNL A   1      37.553  33.013  29.798  1.00  0.00     0.002 C 
ENDROOT
BRANCH   1   2
ATOM      2  C   UNL A   1      38.172  34.098  30.675  1.00  0.00     0.021 C 
BRANCH   2   3
ATOM      3  C   UNL A   1      39.047  33.595  31.836  1.00  0.00     0.116 C 
BRANCH   3   4
ATOM      4  N   UNL A   1      39.203  34.592  32.891  1.00  0.00    -0.351 N 
ATOM      5  C   UNL A   1      38.815  34.597  34.208  1.00  0.00     0.281 C 
ATOM      6  O   UNL A   1      39.027  35.643  34.831  1.00  0.00    -0.268 OA
ATOM      7  H   UNL A   1      39.670  35.410  32.605  1.00  0.00     0.163 HD
BRANCH   5   8
ATOM      8  C   UNL A   1      38.156  33.346  34.910  1.00  0.00     0.177 C 
ATOM      9  C   UNL A   1      36.626  33.444  35.264  1.00  0.00     0.066 C 
ATOM     10  C   UNL A   1      36.517  33.514  36.792  1.00  0.00     0.011 C 
ATOM     11  C   UNL A   1      37.924  33.752  37.317  1.00  0.00     0.008 C 
ATOM     12  C   UNL A   1      38.824  33.089  36.290  1.00  0.00     0.079 C 
BRANCH   9  13
ATOM     13  C   UNL A   1      35.745  34.380  34.417  1.00  0.00     0.072 C 
BRANCH  13  14
ATOM     14  C   UNL A   1      35.363  34.196  32.934  1.00  0.00     0.262 C 
BRANCH  14  15
ATOM     15  N   UNL A   1      34.161  34.822  32.360  1.00  0.00    -0.331 N 
ATOM     16  C   UNL A   1      33.169  36.270  28.920  1.00  0.00     0.045 C 
ATOM     17  C   UNL A   1      32.939  35.776  30.350  1.00  0.00     0.170 C 
ATOM     18  C   UNL A   1      34.209  35.071  30.906  1.00  0.00     0.294 C 
ATOM     19  O   UNL A   1      32.550  36.928  31.114  1.00  0.00    -0.364 OA
ATOM     20  C   UNL A   1      32.504  36.693  32.525  1.00  0.00     0.170 C 
ATOM     21  C   UNL A   1      33.817  36.077  33.024  1.00  0.00     0.294 C 
ATOM     22  H   UNL A   1      33.442  34.117  32.525  1.00  0.00     0.348 HD
ATOM     23  C   UNL A   1      31.275  35.883  32.918  1.00  0.00     0.045 C 
ENDBRANCH  14  15
ENDBRANCH  13  14
ENDBRANCH   9  13
BRANCH   8  24
ATOM     24  N   UNL A   1      38.458  32.154  34.071  1.00  0.00    -0.345 N 
ATOM     25  H   UNL A   1      37.713  31.466  34.178  1.00  0.00     0.345 HD
ATOM     26  H   UNL A   1      39.344  31.744  34.369  1.00  0.00     0.345 HD
ATOM     27  H   UNL A   1      38.525  32.434  33.093  1.00  0.00     0.345 HD
ENDBRANCH   8  24
ENDBRANCH   5   8
ENDBRANCH   3   4
ENDBRANCH   2   3
ENDBRANCH   1   2
BRANCH   1  28
ATOM     28  C   UNL A   1      37.099  33.495  28.423  1.00  0.00     0.002 C 
BRANCH  28  29
ATOM     29  C   UNL A   1      35.628  33.222  28.097  1.00  0.00     0.021 C 
BRANCH  29  30
ATOM     30  C   UNL A   1      34.877  32.409  29.148  1.00  0.00     0.116 C 
BRANCH  30  31
ATOM     31  N   UNL A   1      34.212  31.254  28.568  1.00  0.00    -0.352 N 
ATOM     32  C   UNL A   1      34.765  30.100  28.072  1.00  0.00     0.251 C 
ATOM     33  H   UNL A   1      33.229  31.307  28.525  1.00  0.00     0.163 HD
ATOM     34  O   UNL A   1      34.093  29.320  27.410  1.00  0.00    -0.269 OA
BRANCH  32  35
ATOM     35  C   UNL A   1      36.192  29.813  28.329  1.00  0.00     0.039 A 
ATOM     36  C   UNL A   1      36.576  29.361  29.592  1.00  0.00     0.014 A 
ATOM     37  C   UNL A   1      37.144  29.989  27.320  1.00  0.00     0.014 A 
ATOM     38  C   UNL A   1      37.913  29.033  29.830  1.00  0.00     0.010 A 
ATOM     39  C   UNL A   1      38.461  29.595  27.538  1.00  0.00     0.010 A 
ATOM     40  C   UNL A   1      38.859  29.118  28.796  1.00  0.00    -0.014 A 
BRANCH  40  41
ATOM     41  C   UNL A   1      40.273  28.717  29.011  1.00  0.00     0.031 A 
ATOM     42  C   UNL A   1      41.252  29.695  29.600  1.00  0.00     0.074 A 
ATOM     43  C   UNL A   1      40.690  27.499  28.614  1.00  0.00     0.049 A 
ATOM     44  N   UNL A   1      42.540  29.562  29.791  1.00  0.00    -0.248 NA
ATOM     45  C   UNL A   1      40.717  31.004  30.005  1.00  0.00     0.031 C 
ATOM     46  C   UNL A   1      39.847  26.477  27.991  1.00  0.00     0.029 A 
ATOM     47  N   UNL A   1      41.933  26.918  28.665  1.00  0.00    -0.354 N 
ATOM     48  C   UNL A   1      42.969  30.773  30.322  1.00  0.00     0.074 A 
ATOM     49  C   UNL A   1      41.816  31.644  30.374  1.00  0.00     0.031 C 
ATOM     50  C   UNL A   1      40.593  25.390  27.733  1.00  0.00     0.029 A 
ATOM     51  C   UNL A   1      41.971  25.652  28.134  1.00  0.00     0.049 A 
ATOM     52  H   UNL A   1      42.722  27.368  29.045  1.00  0.00     0.167 HD
ATOM     53  C   UNL A   1      44.208  31.117  30.746  1.00  0.00     0.037 A 
ATOM     54  C   UNL A   1      43.003  24.802  27.977  1.00  0.00     0.037 A 
ATOM     55  C   UNL A   1      45.349  30.240  30.712  1.00  0.00     0.049 A 
ATOM     56  C   UNL A   1      44.372  25.214  28.446  1.00  0.00     0.074 A 
ATOM     57  C   UNL A   1      46.632  30.476  31.172  1.00  0.00     0.029 A 
ATOM     58  N   UNL A   1      45.342  28.958  30.185  1.00  0.00    -0.354 N 
ATOM     59  N   UNL A   1      44.751  26.337  29.007  1.00  0.00    -0.248 NA
ATOM     60  C   UNL A   1      45.457  24.238  28.266  1.00  0.00     0.031 C 
ATOM     61  C   UNL A   1      47.415  29.357  30.878  1.00  0.00     0.029 A 
ATOM     62  C   UNL A   1      46.606  28.399  30.287  1.00  0.00     0.049 A 
ATOM     63  H   UNL A   1      44.557  28.510  29.795  1.00  0.00     0.167 HD
ATOM     64  C   UNL A   1      46.106  26.191  29.276  1.00  0.00     0.074 A 
ATOM     65  C   UNL A   1      46.480  24.867  28.827  1.00  0.00     0.031 C 
ATOM     66  C   UNL A   1      46.962  27.074  29.846  1.00  0.00     0.037 A 
BRANCH  53  67
ATOM     67  C   UNL A   1      44.395  32.508  31.284  1.00  0.00     0.057 A 
ATOM     68  C   UNL A   1      44.697  33.591  30.448  1.00  0.00     0.134 A 
ATOM     69  C   UNL A   1      44.232  32.773  32.650  1.00  0.00     0.134 A 
ATOM     70  F   UNL A   1      44.876  33.405  29.132  1.00  0.00    -0.206 F 
ATOM     71  C   UNL A   1      44.858  34.882  30.955  1.00  0.00     0.040 A 
ATOM     72  C   UNL A   1      44.361  34.065  33.164  1.00  0.00     0.040 A 
ATOM     73  F   UNL A   1      43.936  31.784  33.507  1.00  0.00    -0.206 F 
ATOM     74  C   UNL A   1      44.681  35.123  32.316  1.00  0.00     0.006 A 
ENDBRANCH  53  67
BRANCH  54  75
ATOM     75  C   UNL A   1      42.783  23.468  27.363  1.00  0.00     0.057 A 
ATOM     76  C   UNL A   1      42.937  23.271  25.986  1.00  0.00     0.134 A 
ATOM     77  C   UNL A   1      42.403  22.362  28.132  1.00  0.00     0.134 A 
ATOM     78  F   UNL A   1      43.282  24.297  25.193  1.00  0.00    -0.206 F 
ATOM     79  C   UNL A   1      42.700  22.031  25.392  1.00  0.00     0.040 A 
ATOM     80  C   UNL A   1      42.189  21.109  27.557  1.00  0.00     0.040 A 
ATOM     81  F   UNL A   1      42.246  22.481  29.460  1.00  0.00    -0.206 F 
ATOM     82  C   UNL A   1      42.329  20.943  26.180  1.00  0.00     0.006 A 
ENDBRANCH  54  75
BRANCH  66  83
ATOM     83  C   UNL A   1      48.377  26.622  30.061  1.00  0.00     0.057 A 
ATOM     84  C   UNL A   1      48.765  25.915  31.205  1.00  0.00     0.134 A 
ATOM     85  C   UNL A   1      49.353  26.858  29.083  1.00  0.00     0.134 A 
ATOM     86  F   UNL A   1      47.882  25.666  32.184  1.00  0.00    -0.206 F 
ATOM     87  C   UNL A   1      50.079  25.478  31.380  1.00  0.00     0.040 A 
ATOM     88  C   UNL A   1      50.663  26.401  29.234  1.00  0.00     0.040 A 
ATOM     89  F   UNL A   1      49.045  27.522  27.960  1.00  0.00    -0.206 F 
ATOM     90  C   UNL A   1      51.031  25.714  30.389  1.00  0.00     0.006 A 
ENDBRANCH  66  83
ENDBRANCH  40  41
ENDBRANCH  32  35
ENDBRANCH  30  31
ENDBRANCH  29  30
ENDBRANCH  28  29
ENDBRANCH   1  28
TORSDOF 17
ENDMDL
