MODEL 1
REMARK VINA RESULT:     -10.9      0.000      0.000
REMARK SMILES C[C@@H](CC(=O)NCCCCCCNC(=O)c1ccc(-c2c3nc(c(-c4c(F)cccc4F)c4ccc([nH]4)c(-c4c(F)cccc4F)c4nc(c(-c5c(F)cccc5F)c5ccc2[nH]5)C=C4)C=C3)cc1)NC(=O)CCCN1C(=O)CN(C)C1=O
REMARK SMILES IDX 7 1 6 2 4 3 5 4 3 6 2 7 1 8 70 9 71 10 72 12 73 13 74 14
REMARK SMILES IDX 75 15 76 16 77 17 82 18 78 19 79 20 80 21 83 22 81 23 8 24
REMARK SMILES IDX 9 25 10 26 11 27 12 28 13 29 14 30 15 32 16 33 17 34 69 35
REMARK SMILES IDX 18 36 68 37 19 38 20 39 21 40 62 41 22 42 67 43 61 44 63 45
REMARK SMILES IDX 23 46 66 47 60 48 59 49 24 51 50 52 33 53 49 54 34 55 37 56
REMARK SMILES IDX 48 57 64 58 35 59 36 60 47 62 65 63 38 64 25 65 26 66 31 67
REMARK SMILES IDX 27 68 28 69 30 70 32 71 29 72 51 73 52 74 57 75 53 76 54 77
REMARK SMILES IDX 56 78 58 79 55 80 39 81 40 82 45 83 41 84 42 85 44 86 46 87
REMARK SMILES IDX 43 88
REMARK H PARENT 6 5 70 11 13 31 63 50 37 61
REMARK Flexibility Score: inf
ROOT
ATOM      1  C   UNL A   1      31.962  27.054  26.455  1.00  0.00     0.116 C 
ENDROOT
BRANCH   1   2
ATOM      2  N   UNL A   1      31.152  25.929  26.878  1.00  0.00    -0.356 N 
ATOM      3  C   UNL A   1      31.389  24.589  26.804  1.00  0.00     0.222 C 
ATOM      4  O   UNL A   1      30.464  23.820  27.065  1.00  0.00    -0.275 OA
ATOM      5  H   UNL A   1      30.289  26.173  27.285  1.00  0.00     0.163 HD
BRANCH   3   6
ATOM      6  C   UNL A   1      32.768  24.070  26.474  1.00  0.00     0.124 C 
BRANCH   6   7
ATOM      7  C   UNL A   1      33.203  22.755  27.121  1.00  0.00     0.088 C 
ATOM      8  C   UNL A   1      34.699  22.549  27.293  1.00  0.00     0.031 C 
BRANCH   7   9
ATOM      9  N   UNL A   1      32.677  21.548  26.527  1.00  0.00    -0.353 N 
ATOM     10  C   UNL A   1      32.761  21.230  25.200  1.00  0.00     0.220 C 
ATOM     11  H   UNL A   1      32.225  20.907  27.121  1.00  0.00     0.163 HD
ATOM     12  O   UNL A   1      31.816  20.614  24.699  1.00  0.00    -0.275 OA
BRANCH  10  13
ATOM     13  C   UNL A   1      34.022  21.516  24.381  1.00  0.00     0.102 C 
BRANCH  13  14
ATOM     14  C   UNL A   1      34.167  22.701  23.419  1.00  0.00     0.032 C 
BRANCH  14  15
ATOM     15  C   UNL A   1      33.120  23.149  22.382  1.00  0.00     0.131 C 
BRANCH  15  16
ATOM     16  N   UNL A   1      32.388  24.410  22.476  1.00  0.00    -0.263 N 
ATOM     17  C   UNL A   1      31.175  24.455  23.128  1.00  0.00     0.250 C 
ATOM     18  C   UNL A   1      32.823  25.689  22.287  1.00  0.00     0.326 C 
ATOM     19  O   UNL A   1      30.573  23.502  23.609  1.00  0.00    -0.272 OA
ATOM     20  C   UNL A   1      30.679  25.887  23.192  1.00  0.00     0.221 C 
ATOM     21  N   UNL A   1      31.847  26.565  22.712  1.00  0.00    -0.318 N 
ATOM     22  O   UNL A   1      33.909  26.072  21.887  1.00  0.00    -0.248 OA
ATOM     23  C   UNL A   1      31.964  28.003  22.672  1.00  0.00     0.149 C 
ENDBRANCH  15  16
ENDBRANCH  14  15
ENDBRANCH  13  14
ENDBRANCH  10  13
ENDBRANCH   7   9
ENDBRANCH   6   7
ENDBRANCH   3   6
ENDBRANCH   1   2
BRANCH   1  24
ATOM     24  C   UNL A   1      31.724  28.250  27.379  1.00  0.00     0.021 C 
BRANCH  24  25
ATOM     25  C   UNL A   1      32.375  29.545  26.902  1.00  0.00     0.002 C 
BRANCH  25  26
ATOM     26  C   UNL A   1      31.458  30.422  26.055  1.00  0.00     0.002 C 
BRANCH  26  27
ATOM     27  C   UNL A   1      31.351  31.869  26.537  1.00  0.00     0.021 C 
BRANCH  27  28
ATOM     28  C   UNL A   1      32.684  32.489  26.945  1.00  0.00     0.116 C 
BRANCH  28  29
ATOM     29  N   UNL A   1      32.502  33.825  27.491  1.00  0.00    -0.352 N 
ATOM     30  C   UNL A   1      33.143  34.397  28.560  1.00  0.00     0.251 C 
ATOM     31  H   UNL A   1      31.837  34.390  27.035  1.00  0.00     0.163 HD
ATOM     32  O   UNL A   1      32.714  35.416  29.088  1.00  0.00    -0.269 OA
BRANCH  30  33
ATOM     33  C   UNL A   1      34.366  33.750  29.067  1.00  0.00     0.039 A 
ATOM     34  C   UNL A   1      35.613  34.294  28.758  1.00  0.00     0.014 A 
ATOM     35  C   UNL A   1      34.256  32.625  29.889  1.00  0.00     0.014 A 
ATOM     36  C   UNL A   1      36.760  33.732  29.322  1.00  0.00     0.010 A 
ATOM     37  C   UNL A   1      35.388  32.120  30.511  1.00  0.00     0.010 A 
ATOM     38  C   UNL A   1      36.652  32.661  30.223  1.00  0.00    -0.014 A 
BRANCH  38  39
ATOM     39  C   UNL A   1      37.844  32.053  30.862  1.00  0.00     0.031 A 
ATOM     40  C   UNL A   1      38.595  30.972  30.137  1.00  0.00     0.074 A 
ATOM     41  C   UNL A   1      38.191  32.402  32.115  1.00  0.00     0.049 A 
ATOM     42  N   UNL A   1      39.566  30.209  30.564  1.00  0.00    -0.248 NA
ATOM     43  C   UNL A   1      38.171  30.690  28.754  1.00  0.00     0.031 C 
ATOM     44  C   UNL A   1      37.521  33.416  32.930  1.00  0.00     0.029 A 
ATOM     45  N   UNL A   1      39.186  31.924  32.930  1.00  0.00    -0.354 N 
ATOM     46  C   UNL A   1      39.854  29.345  29.514  1.00  0.00     0.074 A 
ATOM     47  C   UNL A   1      38.917  29.638  28.452  1.00  0.00     0.031 C 
ATOM     48  C   UNL A   1      38.132  33.493  34.124  1.00  0.00     0.029 A 
ATOM     49  C   UNL A   1      39.202  32.503  34.177  1.00  0.00     0.049 A 
ATOM     50  H   UNL A   1      39.827  31.231  32.649  1.00  0.00     0.167 HD
ATOM     51  C   UNL A   1      40.826  28.406  29.436  1.00  0.00     0.037 A 
ATOM     52  C   UNL A   1      39.980  32.246  35.246  1.00  0.00     0.037 A 
ATOM     53  C   UNL A   1      41.767  28.137  30.488  1.00  0.00     0.049 A 
ATOM     54  C   UNL A   1      41.034  31.176  35.145  1.00  0.00     0.074 A 
ATOM     55  C   UNL A   1      42.822  27.243  30.491  1.00  0.00     0.029 A 
ATOM     56  N   UNL A   1      41.763  28.760  31.728  1.00  0.00    -0.354 N 
ATOM     57  N   UNL A   1      41.333  30.403  34.129  1.00  0.00    -0.248 NA
ATOM     58  C   UNL A   1      41.860  30.941  36.338  1.00  0.00     0.031 C 
ATOM     59  C   UNL A   1      43.423  27.283  31.751  1.00  0.00     0.029 A 
ATOM     60  C   UNL A   1      42.784  28.250  32.512  1.00  0.00     0.049 A 
ATOM     61  H   UNL A   1      41.129  29.458  32.007  1.00  0.00     0.167 HD
ATOM     62  C   UNL A   1      42.406  29.623  34.543  1.00  0.00     0.074 A 
ATOM     63  C   UNL A   1      42.706  30.016  35.904  1.00  0.00     0.031 C 
ATOM     64  C   UNL A   1      43.084  28.673  33.857  1.00  0.00     0.037 A 
BRANCH  51  65
ATOM     65  C   UNL A   1      40.915  27.602  28.170  1.00  0.00     0.057 A 
ATOM     66  C   UNL A   1      41.708  28.008  27.088  1.00  0.00     0.134 A 
ATOM     67  C   UNL A   1      40.222  26.392  28.043  1.00  0.00     0.134 A 
ATOM     68  F   UNL A   1      42.389  29.163  27.138  1.00  0.00    -0.206 F 
ATOM     69  C   UNL A   1      41.785  27.254  25.915  1.00  0.00     0.040 A 
ATOM     70  C   UNL A   1      40.316  25.614  26.888  1.00  0.00     0.040 A 
ATOM     71  F   UNL A   1      39.449  25.941  29.042  1.00  0.00    -0.206 F 
ATOM     72  C   UNL A   1      41.093  26.049  25.817  1.00  0.00     0.006 A 
ENDBRANCH  51  65
BRANCH  52  73
ATOM     73  C   UNL A   1      39.802  33.020  36.501  1.00  0.00     0.057 A 
ATOM     74  C   UNL A   1      38.818  32.668  37.433  1.00  0.00     0.134 A 
ATOM     75  C   UNL A   1      40.599  34.132  36.797  1.00  0.00     0.134 A 
ATOM     76  F   UNL A   1      38.012  31.621  37.200  1.00  0.00    -0.206 F 
ATOM     77  C   UNL A   1      38.616  33.408  38.599  1.00  0.00     0.040 A 
ATOM     78  C   UNL A   1      40.427  34.865  37.973  1.00  0.00     0.040 A 
ATOM     79  F   UNL A   1      41.566  34.517  35.952  1.00  0.00    -0.206 F 
ATOM     80  C   UNL A   1      39.426  34.508  38.874  1.00  0.00     0.006 A 
ENDBRANCH  52  73
BRANCH  64  81
ATOM     81  C   UNL A   1      44.260  28.029  34.532  1.00  0.00     0.057 A 
ATOM     82  C   UNL A   1      44.141  26.840  35.262  1.00  0.00     0.134 A 
ATOM     83  C   UNL A   1      45.544  28.568  34.374  1.00  0.00     0.134 A 
ATOM     84  F   UNL A   1      42.939  26.280  35.460  1.00  0.00    -0.206 F 
ATOM     85  C   UNL A   1      45.258  26.216  35.819  1.00  0.00     0.040 A 
ATOM     86  C   UNL A   1      46.671  27.937  34.902  1.00  0.00     0.040 A 
ATOM     87  F   UNL A   1      45.728  29.699  33.677  1.00  0.00    -0.206 F 
ATOM     88  C   UNL A   1      46.529  26.758  35.629  1.00  0.00     0.006 A 
ENDBRANCH  64  81
ENDBRANCH  38  39
ENDBRANCH  30  33
ENDBRANCH  28  29
ENDBRANCH  27  28
ENDBRANCH  26  27
ENDBRANCH  25  26
ENDBRANCH  24  25
ENDBRANCH   1  24
TORSDOF 19
ENDMDL
MODEL 2
REMARK VINA RESULT:     -10.7      1.345      3.127
REMARK SMILES C[C@@H](CC(=O)NCCCCCCNC(=O)c1ccc(-c2c3nc(c(-c4c(F)cccc4F)c4ccc([nH]4)c(-c4c(F)cccc4F)c4nc(c(-c5c(F)cccc5F)c5ccc2[nH]5)C=C4)C=C3)cc1)NC(=O)CCCN1C(=O)CN(C)C1=O
REMARK SMILES IDX 7 1 6 2 4 3 5 4 3 6 2 7 1 8 70 9 71 10 72 12 73 13 74 14
REMARK SMILES IDX 75 15 76 16 77 17 82 18 78 19 79 20 80 21 83 22 81 23 8 24
REMARK SMILES IDX 9 25 10 26 11 27 12 28 13 29 14 30 15 32 16 33 17 34 69 35
REMARK SMILES IDX 18 36 68 37 19 38 20 39 21 40 62 41 22 42 67 43 61 44 63 45
REMARK SMILES IDX 23 46 66 47 60 48 59 49 24 51 50 52 33 53 49 54 34 55 37 56
REMARK SMILES IDX 48 57 64 58 35 59 36 60 47 62 65 63 38 64 25 65 26 66 31 67
REMARK SMILES IDX 27 68 28 69 30 70 32 71 29 72 51 73 52 74 57 75 53 76 54 77
REMARK SMILES IDX 56 78 58 79 55 80 39 81 40 82 45 83 41 84 42 85 44 86 46 87
REMARK SMILES IDX 43 88
REMARK H PARENT 6 5 70 11 13 31 63 50 37 61
REMARK Flexibility Score: inf
ROOT
ATOM      1  C   UNL A   1      33.526  27.530  26.178  1.00  0.00     0.116 C 
ENDROOT
BRANCH   1   2
ATOM      2  N   UNL A   1      33.477  27.497  24.729  1.00  0.00    -0.356 N 
ATOM      3  C   UNL A   1      32.416  27.380  23.881  1.00  0.00     0.222 C 
ATOM      4  O   UNL A   1      32.646  27.192  22.686  1.00  0.00    -0.275 OA
ATOM      5  H   UNL A   1      34.353  27.572  24.285  1.00  0.00     0.163 HD
BRANCH   3   6
ATOM      6  C   UNL A   1      31.004  27.542  24.390  1.00  0.00     0.124 C 
BRANCH   6   7
ATOM      7  C   UNL A   1      30.189  26.271  24.630  1.00  0.00     0.088 C 
ATOM      8  C   UNL A   1      28.720  26.328  24.242  1.00  0.00     0.031 C 
BRANCH   7   9
ATOM      9  N   UNL A   1      30.251  25.716  25.962  1.00  0.00    -0.353 N 
ATOM     10  C   UNL A   1      30.667  24.449  26.262  1.00  0.00     0.220 C 
ATOM     11  H   UNL A   1      29.973  26.292  26.710  1.00  0.00     0.163 HD
ATOM     12  O   UNL A   1      30.113  23.872  27.202  1.00  0.00    -0.275 OA
BRANCH  10  13
ATOM     13  C   UNL A   1      31.853  23.800  25.544  1.00  0.00     0.102 C 
BRANCH  13  14
ATOM     14  C   UNL A   1      31.746  22.533  24.688  1.00  0.00     0.032 C 
BRANCH  14  15
ATOM     15  C   UNL A   1      32.767  22.076  23.629  1.00  0.00     0.131 C 
BRANCH  15  16
ATOM     16  N   UNL A   1      34.213  22.196  23.806  1.00  0.00    -0.263 N 
ATOM     17  C   UNL A   1      34.868  23.327  23.368  1.00  0.00     0.250 C 
ATOM     18  C   UNL A   1      35.054  21.500  24.624  1.00  0.00     0.326 C 
ATOM     19  O   UNL A   1      34.370  24.265  22.759  1.00  0.00    -0.272 OA
ATOM     20  C   UNL A   1      36.329  23.262  23.772  1.00  0.00     0.221 C 
ATOM     21  N   UNL A   1      36.288  22.114  24.629  1.00  0.00    -0.318 N 
ATOM     22  O   UNL A   1      34.806  20.533  25.324  1.00  0.00    -0.248 OA
ATOM     23  C   UNL A   1      37.426  21.658  25.392  1.00  0.00     0.149 C 
ENDBRANCH  15  16
ENDBRANCH  14  15
ENDBRANCH  13  14
ENDBRANCH  10  13
ENDBRANCH   7   9
ENDBRANCH   6   7
ENDBRANCH   3   6
ENDBRANCH   1   2
BRANCH   1  24
ATOM     24  C   UNL A   1      33.747  28.964  26.663  1.00  0.00     0.021 C 
BRANCH  24  25
ATOM     25  C   UNL A   1      32.492  29.636  27.213  1.00  0.00     0.002 C 
BRANCH  25  26
ATOM     26  C   UNL A   1      31.782  30.536  26.207  1.00  0.00     0.002 C 
BRANCH  26  27
ATOM     27  C   UNL A   1      31.512  31.954  26.713  1.00  0.00     0.021 C 
BRANCH  27  28
ATOM     28  C   UNL A   1      32.732  32.640  27.319  1.00  0.00     0.116 C 
BRANCH  28  29
ATOM     29  N   UNL A   1      32.488  34.058  27.537  1.00  0.00    -0.352 N 
ATOM     30  C   UNL A   1      33.015  34.868  28.511  1.00  0.00     0.251 C 
ATOM     31  H   UNL A   1      31.869  34.490  26.906  1.00  0.00     0.163 HD
ATOM     32  O   UNL A   1      32.528  35.965  28.757  1.00  0.00    -0.269 OA
BRANCH  30  33
ATOM     33  C   UNL A   1      34.184  34.381  29.264  1.00  0.00     0.039 A 
ATOM     34  C   UNL A   1      33.996  33.697  30.465  1.00  0.00     0.014 A 
ATOM     35  C   UNL A   1      35.466  34.573  28.739  1.00  0.00     0.014 A 
ATOM     36  C   UNL A   1      35.102  33.155  31.121  1.00  0.00     0.010 A 
ATOM     37  C   UNL A   1      36.552  33.964  29.350  1.00  0.00     0.010 A 
ATOM     38  C   UNL A   1      36.382  33.261  30.553  1.00  0.00    -0.014 A 
BRANCH  38  39
ATOM     39  C   UNL A   1      37.578  32.678  31.207  1.00  0.00     0.031 A 
ATOM     40  C   UNL A   1      38.266  31.504  30.568  1.00  0.00     0.074 A 
ATOM     41  C   UNL A   1      37.985  33.137  32.405  1.00  0.00     0.049 A 
ATOM     42  N   UNL A   1      39.229  30.754  31.034  1.00  0.00    -0.248 NA
ATOM     43  C   UNL A   1      37.781  31.101  29.236  1.00  0.00     0.031 C 
ATOM     44  C   UNL A   1      37.380  34.250  33.137  1.00  0.00     0.029 A 
ATOM     45  N   UNL A   1      38.996  32.708  33.228  1.00  0.00    -0.354 N 
ATOM     46  C   UNL A   1      39.448  29.780  30.068  1.00  0.00     0.074 A 
ATOM     47  C   UNL A   1      38.481  29.999  29.016  1.00  0.00     0.031 C 
ATOM     48  C   UNL A   1      38.039  34.425  34.294  1.00  0.00     0.029 A 
ATOM     49  C   UNL A   1      39.079  33.407  34.409  1.00  0.00     0.049 A 
ATOM     50  H   UNL A   1      39.603  31.969  32.996  1.00  0.00     0.167 HD
ATOM     51  C   UNL A   1      40.387  28.805  30.050  1.00  0.00     0.037 A 
ATOM     52  C   UNL A   1      39.889  33.231  35.470  1.00  0.00     0.037 A 
ATOM     53  C   UNL A   1      41.359  28.609  31.090  1.00  0.00     0.049 A 
ATOM     54  C   UNL A   1      40.904  32.120  35.440  1.00  0.00     0.074 A 
ATOM     55  C   UNL A   1      42.385  27.683  31.145  1.00  0.00     0.029 A 
ATOM     56  N   UNL A   1      41.423  29.351  32.260  1.00  0.00    -0.354 N 
ATOM     57  N   UNL A   1      41.139  31.239  34.497  1.00  0.00    -0.248 NA
ATOM     58  C   UNL A   1      41.769  31.976  36.620  1.00  0.00     0.031 C 
ATOM     59  C   UNL A   1      43.036  27.827  32.373  1.00  0.00     0.029 A 
ATOM     60  C   UNL A   1      42.458  28.887  33.054  1.00  0.00     0.049 A 
ATOM     61  H   UNL A   1      40.823  30.096  32.490  1.00  0.00     0.167 HD
ATOM     62  C   UNL A   1      42.202  30.468  34.948  1.00  0.00     0.074 A 
ATOM     63  C   UNL A   1      42.567  30.983  36.252  1.00  0.00     0.031 C 
ATOM     64  C   UNL A   1      42.823  29.430  34.338  1.00  0.00     0.037 A 
BRANCH  51  65
ATOM     65  C   UNL A   1      40.401  27.877  28.869  1.00  0.00     0.057 A 
ATOM     66  C   UNL A   1      39.647  26.695  28.845  1.00  0.00     0.134 A 
ATOM     67  C   UNL A   1      41.156  28.182  27.730  1.00  0.00     0.134 A 
ATOM     68  F   UNL A   1      38.911  26.336  29.908  1.00  0.00    -0.206 F 
ATOM     69  C   UNL A   1      39.667  25.838  27.744  1.00  0.00     0.040 A 
ATOM     70  C   UNL A   1      41.159  27.349  26.610  1.00  0.00     0.040 A 
ATOM     71  F   UNL A   1      41.897  29.300  27.682  1.00  0.00    -0.206 F 
ATOM     72  C   UNL A   1      40.420  26.168  26.619  1.00  0.00     0.006 A 
ENDBRANCH  51  65
BRANCH  52  73
ATOM     73  C   UNL A   1      39.785  34.132  36.647  1.00  0.00     0.057 A 
ATOM     74  C   UNL A   1      40.478  35.347  36.688  1.00  0.00     0.134 A 
ATOM     75  C   UNL A   1      39.004  33.799  37.759  1.00  0.00     0.134 A 
ATOM     76  F   UNL A   1      41.257  35.715  35.659  1.00  0.00    -0.206 F 
ATOM     77  C   UNL A   1      40.419  36.186  37.802  1.00  0.00     0.040 A 
ATOM     78  C   UNL A   1      38.913  34.642  38.869  1.00  0.00     0.040 A 
ATOM     79  F   UNL A   1      38.306  32.654  37.780  1.00  0.00    -0.206 F 
ATOM     80  C   UNL A   1      39.630  35.836  38.895  1.00  0.00     0.006 A 
ENDBRANCH  52  73
BRANCH  64  81
ATOM     81  C   UNL A   1      44.003  28.816  35.032  1.00  0.00     0.057 A 
ATOM     82  C   UNL A   1      45.306  29.298  34.855  1.00  0.00     0.134 A 
ATOM     83  C   UNL A   1      43.816  27.780  35.957  1.00  0.00     0.134 A 
ATOM     84  F   UNL A   1      45.555  30.280  33.975  1.00  0.00    -0.206 F 
ATOM     85  C   UNL A   1      46.381  28.763  35.566  1.00  0.00     0.040 A 
ATOM     86  C   UNL A   1      44.878  27.258  36.695  1.00  0.00     0.040 A 
ATOM     87  F   UNL A   1      42.591  27.280  36.181  1.00  0.00    -0.206 F 
ATOM     88  C   UNL A   1      46.167  27.749  36.499  1.00  0.00     0.006 A 
ENDBRANCH  64  81
ENDBRANCH  38  39
ENDBRANCH  30  33
ENDBRANCH  28  29
ENDBRANCH  27  28
ENDBRANCH  26  27
ENDBRANCH  25  26
ENDBRANCH  24  25
ENDBRANCH   1  24
TORSDOF 19
ENDMDL
MODEL 3
REMARK VINA RESULT:     -10.6      4.260      9.071
REMARK SMILES C[C@@H](CC(=O)NCCCCCCNC(=O)c1ccc(-c2c3nc(c(-c4c(F)cccc4F)c4ccc([nH]4)c(-c4c(F)cccc4F)c4nc(c(-c5c(F)cccc5F)c5ccc2[nH]5)C=C4)C=C3)cc1)NC(=O)CCCN1C(=O)CN(C)C1=O
REMARK SMILES IDX 7 1 6 2 4 3 5 4 3 6 2 7 1 8 70 9 71 10 72 12 73 13 74 14
REMARK SMILES IDX 75 15 76 16 77 17 82 18 78 19 79 20 80 21 83 22 81 23 8 24
REMARK SMILES IDX 9 25 10 26 11 27 12 28 13 29 14 30 15 32 16 33 17 34 69 35
REMARK SMILES IDX 18 36 68 37 19 38 20 39 21 40 62 41 22 42 67 43 61 44 63 45
REMARK SMILES IDX 23 46 66 47 60 48 59 49 24 51 50 52 33 53 49 54 34 55 37 56
REMARK SMILES IDX 48 57 64 58 35 59 36 60 47 62 65 63 38 64 25 65 26 66 31 67
REMARK SMILES IDX 27 68 28 69 30 70 32 71 29 72 51 73 52 74 57 75 53 76 54 77
REMARK SMILES IDX 56 78 58 79 55 80 39 81 40 82 45 83 41 84 42 85 44 86 46 87
REMARK SMILES IDX 43 88
REMARK H PARENT 6 5 70 11 13 31 63 50 37 61
REMARK Flexibility Score: inf
ROOT
ATOM      1  C   UNL A   1      34.313  21.604  27.042  1.00  0.00     0.116 C 
ENDROOT
BRANCH   1   2
ATOM      2  N   UNL A   1      33.264  22.522  27.441  1.00  0.00    -0.356 N 
ATOM      3  C   UNL A   1      32.100  22.862  26.819  1.00  0.00     0.222 C 
ATOM      4  O   UNL A   1      31.455  23.808  27.271  1.00  0.00    -0.275 OA
ATOM      5  H   UNL A   1      33.417  22.973  28.303  1.00  0.00     0.163 HD
BRANCH   3   6
ATOM      6  C   UNL A   1      31.592  22.057  25.648  1.00  0.00     0.124 C 
BRANCH   6   7
ATOM      7  C   UNL A   1      31.932  22.557  24.244  1.00  0.00     0.088 C 
ATOM      8  C   UNL A   1      32.400  21.508  23.248  1.00  0.00     0.031 C 
BRANCH   7   9
ATOM      9  N   UNL A   1      32.866  23.655  24.168  1.00  0.00    -0.353 N 
ATOM     10  C   UNL A   1      33.003  24.492  23.095  1.00  0.00     0.220 C 
ATOM     11  H   UNL A   1      33.448  23.813  24.946  1.00  0.00     0.163 HD
ATOM     12  O   UNL A   1      34.135  24.911  22.838  1.00  0.00    -0.275 OA
BRANCH  10  13
ATOM     13  C   UNL A   1      31.792  24.993  22.305  1.00  0.00     0.102 C 
BRANCH  13  14
ATOM     14  C   UNL A   1      31.539  26.468  21.970  1.00  0.00     0.032 C 
BRANCH  14  15
ATOM     15  C   UNL A   1      30.864  27.496  22.898  1.00  0.00     0.131 C 
BRANCH  15  16
ATOM     16  N   UNL A   1      31.251  27.691  24.293  1.00  0.00    -0.263 N 
ATOM     17  C   UNL A   1      30.759  26.849  25.268  1.00  0.00     0.250 C 
ATOM     18  C   UNL A   1      32.289  28.401  24.822  1.00  0.00     0.326 C 
ATOM     19  O   UNL A   1      29.943  25.950  25.107  1.00  0.00    -0.272 OA
ATOM     20  C   UNL A   1      31.398  27.182  26.603  1.00  0.00     0.221 C 
ATOM     21  N   UNL A   1      32.400  28.107  26.164  1.00  0.00    -0.318 N 
ATOM     22  O   UNL A   1      33.079  29.134  24.250  1.00  0.00    -0.248 OA
ATOM     23  C   UNL A   1      33.396  28.669  27.045  1.00  0.00     0.149 C 
ENDBRANCH  15  16
ENDBRANCH  14  15
ENDBRANCH  13  14
ENDBRANCH  10  13
ENDBRANCH   7   9
ENDBRANCH   6   7
ENDBRANCH   3   6
ENDBRANCH   1   2
BRANCH   1  24
ATOM     24  C   UNL A   1      35.440  22.368  26.343  1.00  0.00     0.021 C 
BRANCH  24  25
ATOM     25  C   UNL A   1      35.876  21.755  25.015  1.00  0.00     0.002 C 
BRANCH  25  26
ATOM     26  C   UNL A   1      36.044  20.240  25.059  1.00  0.00     0.002 C 
BRANCH  26  27
ATOM     27  C   UNL A   1      37.441  19.750  24.675  1.00  0.00     0.021 C 
BRANCH  27  28
ATOM     28  C   UNL A   1      38.558  20.307  25.552  1.00  0.00     0.116 C 
BRANCH  28  29
ATOM     29  N   UNL A   1      39.634  19.342  25.715  1.00  0.00    -0.352 N 
ATOM     30  C   UNL A   1      40.944  19.582  26.044  1.00  0.00     0.251 C 
ATOM     31  H   UNL A   1      39.391  18.398  25.574  1.00  0.00     0.163 HD
ATOM     32  O   UNL A   1      41.806  18.726  25.884  1.00  0.00    -0.269 OA
BRANCH  30  33
ATOM     33  C   UNL A   1      41.293  20.904  26.592  1.00  0.00     0.039 A 
ATOM     34  C   UNL A   1      41.310  21.096  27.973  1.00  0.00     0.014 A 
ATOM     35  C   UNL A   1      41.648  21.936  25.718  1.00  0.00     0.014 A 
ATOM     36  C   UNL A   1      41.737  22.322  28.485  1.00  0.00     0.010 A 
ATOM     37  C   UNL A   1      42.148  23.124  26.231  1.00  0.00     0.010 A 
ATOM     38  C   UNL A   1      42.185  23.332  27.619  1.00  0.00    -0.014 A 
BRANCH  38  39
ATOM     39  C   UNL A   1      42.668  24.639  28.126  1.00  0.00     0.031 A 
ATOM     40  C   UNL A   1      41.675  25.732  28.406  1.00  0.00     0.074 A 
ATOM     41  C   UNL A   1      43.989  24.872  28.244  1.00  0.00     0.049 A 
ATOM     42  N   UNL A   1      41.886  26.985  28.711  1.00  0.00    -0.248 NA
ATOM     43  C   UNL A   1      40.250  25.371  28.294  1.00  0.00     0.031 C 
ATOM     44  C   UNL A   1      45.049  23.900  27.974  1.00  0.00     0.029 A 
ATOM     45  N   UNL A   1      44.665  26.010  28.605  1.00  0.00    -0.354 N 
ATOM     46  C   UNL A   1      40.628  27.565  28.806  1.00  0.00     0.074 A 
ATOM     47  C   UNL A   1      39.661  26.544  28.469  1.00  0.00     0.031 C 
ATOM     48  C   UNL A   1      46.241  24.479  28.190  1.00  0.00     0.029 A 
ATOM     49  C   UNL A   1      46.033  25.873  28.566  1.00  0.00     0.049 A 
ATOM     50  H   UNL A   1      44.214  26.845  28.866  1.00  0.00     0.167 HD
ATOM     51  C   UNL A   1      40.306  28.831  29.162  1.00  0.00     0.037 A 
ATOM     52  C   UNL A   1      47.004  26.779  28.788  1.00  0.00     0.037 A 
ATOM     53  C   UNL A   1      41.273  29.834  29.517  1.00  0.00     0.049 A 
ATOM     54  C   UNL A   1      46.622  28.189  29.153  1.00  0.00     0.074 A 
ATOM     55  C   UNL A   1      41.051  31.131  29.942  1.00  0.00     0.029 A 
ATOM     56  N   UNL A   1      42.648  29.650  29.486  1.00  0.00    -0.354 N 
ATOM     57  N   UNL A   1      45.428  28.712  29.292  1.00  0.00    -0.248 NA
ATOM     58  C   UNL A   1      47.722  29.135  29.392  1.00  0.00     0.031 C 
ATOM     59  C   UNL A   1      42.291  31.751  30.114  1.00  0.00     0.029 A 
ATOM     60  C   UNL A   1      43.286  30.820  29.860  1.00  0.00     0.049 A 
ATOM     61  H   UNL A   1      43.100  28.814  29.233  1.00  0.00     0.167 HD
ATOM     62  C   UNL A   1      45.631  30.031  29.677  1.00  0.00     0.074 A 
ATOM     63  C   UNL A   1      47.064  30.230  29.748  1.00  0.00     0.031 C 
ATOM     64  C   UNL A   1      44.714  30.991  29.951  1.00  0.00     0.037 A 
BRANCH  51  65
ATOM     65  C   UNL A   1      38.850  29.199  29.181  1.00  0.00     0.057 A 
ATOM     66  C   UNL A   1      38.177  29.626  28.028  1.00  0.00     0.134 A 
ATOM     67  C   UNL A   1      38.104  29.098  30.362  1.00  0.00     0.134 A 
ATOM     68  F   UNL A   1      38.835  29.756  26.865  1.00  0.00    -0.206 F 
ATOM     69  C   UNL A   1      36.824  29.967  28.055  1.00  0.00     0.040 A 
ATOM     70  C   UNL A   1      36.743  29.405  30.395  1.00  0.00     0.040 A 
ATOM     71  F   UNL A   1      38.683  28.691  31.502  1.00  0.00    -0.206 F 
ATOM     72  C   UNL A   1      36.101  29.849  29.241  1.00  0.00     0.006 A 
ENDBRANCH  51  65
BRANCH  52  73
ATOM     73  C   UNL A   1      48.432  26.382  28.684  1.00  0.00     0.057 A 
ATOM     74  C   UNL A   1      49.135  26.528  27.482  1.00  0.00     0.134 A 
ATOM     75  C   UNL A   1      49.125  25.840  29.773  1.00  0.00     0.134 A 
ATOM     76  F   UNL A   1      48.523  27.028  26.398  1.00  0.00    -0.206 F 
ATOM     77  C   UNL A   1      50.467  26.127  27.360  1.00  0.00     0.040 A 
ATOM     78  C   UNL A   1      50.464  25.459  29.672  1.00  0.00     0.040 A 
ATOM     79  F   UNL A   1      48.513  25.682  30.955  1.00  0.00    -0.206 F 
ATOM     80  C   UNL A   1      51.136  25.594  28.459  1.00  0.00     0.006 A 
ENDBRANCH  52  73
BRANCH  64  81
ATOM     81  C   UNL A   1      45.217  32.325  30.417  1.00  0.00     0.057 A 
ATOM     82  C   UNL A   1      45.502  32.587  31.762  1.00  0.00     0.134 A 
ATOM     83  C   UNL A   1      45.500  33.335  29.486  1.00  0.00     0.134 A 
ATOM     84  F   UNL A   1      45.243  31.667  32.704  1.00  0.00    -0.206 F 
ATOM     85  C   UNL A   1      46.041  33.809  32.166  1.00  0.00     0.040 A 
ATOM     86  C   UNL A   1      46.065  34.549  29.875  1.00  0.00     0.040 A 
ATOM     87  F   UNL A   1      45.260  33.144  28.180  1.00  0.00    -0.206 F 
ATOM     88  C   UNL A   1      46.336  34.790  31.220  1.00  0.00     0.006 A 
ENDBRANCH  64  81
ENDBRANCH  38  39
ENDBRANCH  30  33
ENDBRANCH  28  29
ENDBRANCH  27  28
ENDBRANCH  26  27
ENDBRANCH  25  26
ENDBRANCH  24  25
ENDBRANCH   1  24
TORSDOF 19
ENDMDL
