MODEL 1
REMARK VINA RESULT:     -12.5      0.000      0.000
REMARK SMILES O=C(NCCCCCCNC(=O)c1ccc(-c2c3nc(c(-c4c(F)cccc4F)c4ccc([nH]4)c(-c4c(F)cccc4F)c4nc(c(-c5c(F)cccc5F)c5ccc2[nH]5)C=C4)C=C3)cc1)c1ccc(NC(=O)[C@@H]2CC=CC[C@@H]2C(=O)Nc2ccc(Br)cc2)cc1
REMARK SMILES IDX 5 1 4 2 3 3 1 4 2 5 67 7 68 8 91 9 69 10 90 11 70 12 71 13
REMARK SMILES IDX 72 14 73 16 74 17 75 18 79 19 76 20 78 21 77 22 80 23 81 24
REMARK SMILES IDX 82 25 83 27 84 28 89 29 85 30 88 31 86 32 87 33 6 34 7 35
REMARK SMILES IDX 8 36 9 37 10 38 11 39 12 41 13 42 14 43 66 44 15 45 65 46
REMARK SMILES IDX 16 47 17 48 18 49 59 50 19 51 64 52 58 53 60 54 20 55 63 56
REMARK SMILES IDX 57 57 56 58 21 60 47 61 30 62 46 63 31 64 34 65 45 66 61 67
REMARK SMILES IDX 32 68 33 69 44 71 62 72 35 73 22 74 23 75 28 76 24 77 25 78
REMARK SMILES IDX 27 79 29 80 26 81 48 82 49 83 54 84 50 85 51 86 53 87 55 88
REMARK SMILES IDX 52 89 36 90 37 91 42 92 38 93 39 94 41 95 43 96 40 97
REMARK H PARENT 3 6 71 15 82 26 10 40 60 59 34 70
REMARK Flexibility Score: inf
ROOT
ATOM      1  C   UNL A   1      35.835  31.828  28.104  1.00  0.00     0.021 C 
ENDROOT
BRANCH   1   2
ATOM      2  C   UNL A   1      34.984  30.640  27.676  1.00  0.00     0.116 C 
BRANCH   2   3
ATOM      3  N   UNL A   1      33.555  30.925  27.671  1.00  0.00    -0.352 N 
ATOM      4  O   UNL A   1      31.414  30.731  26.945  1.00  0.00    -0.269 OA
ATOM      5  C   UNL A   1      32.563  30.303  26.944  1.00  0.00     0.251 C 
ATOM      6  H   UNL A   1      33.260  31.653  28.264  1.00  0.00     0.163 HD
BRANCH   5   7
ATOM      7  C   UNL A   1      32.904  29.108  26.143  1.00  0.00     0.039 A 
ATOM      8  C   UNL A   1      32.905  27.860  26.750  1.00  0.00     0.016 A 
ATOM      9  C   UNL A   1      33.279  29.223  24.807  1.00  0.00     0.016 A 
ATOM     10  C   UNL A   1      33.437  26.763  26.079  1.00  0.00     0.027 A 
ATOM     11  C   UNL A   1      33.715  28.085  24.109  1.00  0.00     0.027 A 
ATOM     12  C   UNL A   1      33.819  26.836  24.744  1.00  0.00     0.041 A 
BRANCH  12  13
ATOM     13  N   UNL A   1      34.287  25.757  23.965  1.00  0.00    -0.326 N 
ATOM     14  C   UNL A   1      34.442  24.407  24.141  1.00  0.00     0.228 C 
ATOM     15  H   UNL A   1      34.575  26.047  23.070  1.00  0.00     0.169 HD
ATOM     16  O   UNL A   1      34.913  23.781  23.188  1.00  0.00    -0.274 OA
BRANCH  14  17
ATOM     17  C   UNL A   1      34.127  23.715  25.457  1.00  0.00     0.095 C 
ATOM     18  C   UNL A   1      34.776  22.329  25.591  1.00  0.00     0.041 C 
ATOM     19  C   UNL A   1      32.624  23.673  25.801  1.00  0.00     0.095 C 
ATOM     20  C   UNL A   1      34.420  21.696  26.911  1.00  0.00    -0.030 C 
ATOM     21  C   UNL A   1      32.464  23.221  27.273  1.00  0.00     0.041 C 
ATOM     22  C   UNL A   1      33.402  22.118  27.676  1.00  0.00    -0.030 C 
BRANCH  19  23
ATOM     23  C   UNL A   1      31.714  22.843  24.891  1.00  0.00     0.228 C 
ATOM     24  O   UNL A   1      31.700  21.614  24.903  1.00  0.00    -0.274 OA
ATOM     25  N   UNL A   1      30.789  23.498  24.105  1.00  0.00    -0.326 N 
ATOM     26  H   UNL A   1      30.092  22.922  23.718  1.00  0.00     0.169 HD
BRANCH  25  27
ATOM     27  C   UNL A   1      30.685  24.860  23.771  1.00  0.00     0.041 A 
ATOM     28  C   UNL A   1      31.247  25.280  22.563  1.00  0.00     0.027 A 
ATOM     29  C   UNL A   1      30.070  25.805  24.599  1.00  0.00     0.027 A 
ATOM     30  C   UNL A   1      31.094  26.604  22.136  1.00  0.00     0.018 A 
ATOM     31  C   UNL A   1      29.925  27.131  24.181  1.00  0.00     0.018 A 
ATOM     32  C   UNL A   1      30.420  27.519  22.940  1.00  0.00     0.018 A 
ATOM     33  Br  UNL A   1      30.182  29.299  22.351  1.00  0.00    -0.051 Br
ENDBRANCH  25  27
ENDBRANCH  19  23
ENDBRANCH  14  17
ENDBRANCH  12  13
ENDBRANCH   5   7
ENDBRANCH   2   3
ENDBRANCH   1   2
BRANCH   1  34
ATOM     34  C   UNL A   1      35.175  33.195  27.923  1.00  0.00     0.002 C 
BRANCH  34  35
ATOM     35  C   UNL A   1      34.762  33.910  29.213  1.00  0.00     0.002 C 
BRANCH  35  36
ATOM     36  C   UNL A   1      33.385  34.581  29.199  1.00  0.00     0.021 C 
BRANCH  36  37
ATOM     37  C   UNL A   1      33.347  36.030  29.678  1.00  0.00     0.116 C 
BRANCH  37  38
ATOM     38  N   UNL A   1      32.460  36.230  30.810  1.00  0.00    -0.352 N 
ATOM     39  C   UNL A   1      32.578  35.788  32.105  1.00  0.00     0.251 C 
ATOM     40  H   UNL A   1      31.653  36.761  30.621  1.00  0.00     0.163 HD
ATOM     41  O   UNL A   1      31.657  35.961  32.897  1.00  0.00    -0.269 OA
BRANCH  39  42
ATOM     42  C   UNL A   1      33.799  35.076  32.544  1.00  0.00     0.039 A 
ATOM     43  C   UNL A   1      33.672  33.767  33.021  1.00  0.00     0.014 A 
ATOM     44  C   UNL A   1      35.053  35.690  32.510  1.00  0.00     0.014 A 
ATOM     45  C   UNL A   1      34.811  33.053  33.403  1.00  0.00     0.010 A 
ATOM     46  C   UNL A   1      36.194  34.956  32.834  1.00  0.00     0.010 A 
ATOM     47  C   UNL A   1      36.083  33.631  33.282  1.00  0.00    -0.014 A 
BRANCH  47  48
ATOM     48  C   UNL A   1      37.311  32.863  33.613  1.00  0.00     0.031 A 
ATOM     49  C   UNL A   1      38.070  33.151  34.878  1.00  0.00     0.074 A 
ATOM     50  C   UNL A   1      37.779  31.950  32.740  1.00  0.00     0.049 A 
ATOM     51  N   UNL A   1      39.198  32.639  35.300  1.00  0.00    -0.248 NA
ATOM     52  C   UNL A   1      37.497  34.167  35.777  1.00  0.00     0.031 C 
ATOM     53  C   UNL A   1      37.158  31.605  31.460  1.00  0.00     0.029 A 
ATOM     54  N   UNL A   1      38.894  31.151  32.794  1.00  0.00    -0.354 N 
ATOM     55  C   UNL A   1      39.482  33.284  36.496  1.00  0.00     0.074 A 
ATOM     56  C   UNL A   1      38.427  34.250  36.717  1.00  0.00     0.031 C 
ATOM     57  C   UNL A   1      37.890  30.652  30.859  1.00  0.00     0.029 A 
ATOM     58  C   UNL A   1      39.047  30.344  31.693  1.00  0.00     0.049 A 
ATOM     59  H   UNL A   1      39.525  31.157  33.550  1.00  0.00     0.167 HD
ATOM     60  C   UNL A   1      40.520  33.078  37.343  1.00  0.00     0.037 A 
ATOM     61  C   UNL A   1      40.014  29.458  31.389  1.00  0.00     0.037 A 
ATOM     62  C   UNL A   1      41.546  32.090  37.145  1.00  0.00     0.049 A 
ATOM     63  C   UNL A   1      41.150  29.245  32.350  1.00  0.00     0.074 A 
ATOM     64  C   UNL A   1      42.592  31.753  37.987  1.00  0.00     0.029 A 
ATOM     65  N   UNL A   1      41.656  31.279  36.026  1.00  0.00    -0.354 N 
ATOM     66  N   UNL A   1      41.368  29.813  33.510  1.00  0.00    -0.248 NA
ATOM     67  C   UNL A   1      42.174  28.265  31.958  1.00  0.00     0.031 C 
ATOM     68  C   UNL A   1      43.356  30.762  37.361  1.00  0.00     0.029 A 
ATOM     69  C   UNL A   1      42.764  30.457  36.147  1.00  0.00     0.049 A 
ATOM     70  H   UNL A   1      41.038  31.287  35.260  1.00  0.00     0.167 HD
ATOM     71  C   UNL A   1      42.534  29.240  34.001  1.00  0.00     0.074 A 
ATOM     72  C   UNL A   1      42.973  28.274  33.016  1.00  0.00     0.031 C 
ATOM     73  C   UNL A   1      43.182  29.492  35.164  1.00  0.00     0.037 A 
BRANCH  60  74
ATOM     74  C   UNL A   1      40.595  33.940  38.569  1.00  0.00     0.057 A 
ATOM     75  C   UNL A   1      39.935  33.595  39.755  1.00  0.00     0.134 A 
ATOM     76  C   UNL A   1      41.373  35.104  38.576  1.00  0.00     0.134 A 
ATOM     77  F   UNL A   1      39.165  32.498  39.810  1.00  0.00    -0.206 F 
ATOM     78  C   UNL A   1      40.029  34.389  40.899  1.00  0.00     0.040 A 
ATOM     79  C   UNL A   1      41.494  35.893  39.720  1.00  0.00     0.040 A 
ATOM     80  F   UNL A   1      42.035  35.487  37.473  1.00  0.00    -0.206 F 
ATOM     81  C   UNL A   1      40.816  35.539  40.885  1.00  0.00     0.006 A 
ENDBRANCH  60  74
BRANCH  61  82
ATOM     82  C   UNL A   1      39.943  28.682  30.126  1.00  0.00     0.057 A 
ATOM     83  C   UNL A   1      39.244  27.471  30.067  1.00  0.00     0.134 A 
ATOM     84  C   UNL A   1      40.579  29.119  28.959  1.00  0.00     0.134 A 
ATOM     85  F   UNL A   1      38.631  26.992  31.160  1.00  0.00    -0.206 F 
ATOM     86  C   UNL A   1      39.196  26.711  28.898  1.00  0.00     0.040 A 
ATOM     87  C   UNL A   1      40.523  28.379  27.777  1.00  0.00     0.040 A 
ATOM     88  F   UNL A   1      41.260  30.275  28.951  1.00  0.00    -0.206 F 
ATOM     89  C   UNL A   1      39.836  27.167  27.747  1.00  0.00     0.006 A 
ENDBRANCH  61  82
BRANCH  73  90
ATOM     90  C   UNL A   1      44.412  28.684  35.451  1.00  0.00     0.057 A 
ATOM     91  C   UNL A   1      44.350  27.461  36.129  1.00  0.00     0.134 A 
ATOM     92  C   UNL A   1      45.669  29.121  35.012  1.00  0.00     0.134 A 
ATOM     93  F   UNL A   1      43.177  26.997  36.588  1.00  0.00    -0.206 F 
ATOM     94  C   UNL A   1      45.498  26.708  36.377  1.00  0.00     0.040 A 
ATOM     95  C   UNL A   1      46.820  28.366  35.234  1.00  0.00     0.040 A 
ATOM     96  F   UNL A   1      45.793  30.282  34.351  1.00  0.00    -0.206 F 
ATOM     97  C   UNL A   1      46.738  27.157  35.924  1.00  0.00     0.006 A 
ENDBRANCH  73  90
ENDBRANCH  47  48
ENDBRANCH  39  42
ENDBRANCH  37  38
ENDBRANCH  36  37
ENDBRANCH  35  36
ENDBRANCH  34  35
ENDBRANCH   1  34
TORSDOF 17
ENDMDL
MODEL 2
REMARK VINA RESULT:     -12.2      6.411     11.764
REMARK SMILES O=C(NCCCCCCNC(=O)c1ccc(-c2c3nc(c(-c4c(F)cccc4F)c4ccc([nH]4)c(-c4c(F)cccc4F)c4nc(c(-c5c(F)cccc5F)c5ccc2[nH]5)C=C4)C=C3)cc1)c1ccc(NC(=O)[C@@H]2CC=CC[C@@H]2C(=O)Nc2ccc(Br)cc2)cc1
REMARK SMILES IDX 5 1 4 2 3 3 1 4 2 5 67 7 68 8 91 9 69 10 90 11 70 12 71 13
REMARK SMILES IDX 72 14 73 16 74 17 75 18 79 19 76 20 78 21 77 22 80 23 81 24
REMARK SMILES IDX 82 25 83 27 84 28 89 29 85 30 88 31 86 32 87 33 6 34 7 35
REMARK SMILES IDX 8 36 9 37 10 38 11 39 12 41 13 42 14 43 66 44 15 45 65 46
REMARK SMILES IDX 16 47 17 48 18 49 59 50 19 51 64 52 58 53 60 54 20 55 63 56
REMARK SMILES IDX 57 57 56 58 21 60 47 61 30 62 46 63 31 64 34 65 45 66 61 67
REMARK SMILES IDX 32 68 33 69 44 71 62 72 35 73 22 74 23 75 28 76 24 77 25 78
REMARK SMILES IDX 27 79 29 80 26 81 48 82 49 83 54 84 50 85 51 86 53 87 55 88
REMARK SMILES IDX 52 89 36 90 37 91 42 92 38 93 39 94 41 95 43 96 40 97
REMARK H PARENT 3 6 71 15 82 26 10 40 60 59 34 70
REMARK Flexibility Score: inf
ROOT
ATOM      1  C   UNL A   1      40.360  22.570  27.229  1.00  0.00     0.021 C 
ENDROOT
BRANCH   1   2
ATOM      2  C   UNL A   1      39.057  22.818  26.483  1.00  0.00     0.116 C 
BRANCH   2   3
ATOM      3  N   UNL A   1      38.732  21.769  25.524  1.00  0.00    -0.352 N 
ATOM      4  O   UNL A   1      37.355  20.462  24.281  1.00  0.00    -0.269 OA
ATOM      5  C   UNL A   1      37.503  21.455  24.986  1.00  0.00     0.251 C 
ATOM      6  H   UNL A   1      39.488  21.217  25.220  1.00  0.00     0.163 HD
BRANCH   5   7
ATOM      7  C   UNL A   1      36.348  22.330  25.280  1.00  0.00     0.039 A 
ATOM      8  C   UNL A   1      36.133  23.459  24.502  1.00  0.00     0.016 A 
ATOM      9  C   UNL A   1      35.507  22.069  26.359  1.00  0.00     0.016 A 
ATOM     10  C   UNL A   1      35.195  24.406  24.898  1.00  0.00     0.027 A 
ATOM     11  C   UNL A   1      34.493  22.985  26.685  1.00  0.00     0.027 A 
ATOM     12  C   UNL A   1      34.335  24.182  25.968  1.00  0.00     0.041 A 
BRANCH  12  13
ATOM     13  N   UNL A   1      33.302  25.048  26.384  1.00  0.00    -0.326 N 
ATOM     14  C   UNL A   1      32.730  26.201  25.912  1.00  0.00     0.228 C 
ATOM     15  H   UNL A   1      32.889  24.750  27.227  1.00  0.00     0.169 HD
ATOM     16  O   UNL A   1      31.821  26.680  26.595  1.00  0.00    -0.274 OA
BRANCH  14  17
ATOM     17  C   UNL A   1      33.225  26.903  24.659  1.00  0.00     0.095 C 
ATOM     18  C   UNL A   1      32.761  28.363  24.551  1.00  0.00     0.041 C 
ATOM     19  C   UNL A   1      32.957  26.124  23.355  1.00  0.00     0.095 C 
ATOM     20  C   UNL A   1      33.279  28.998  23.287  1.00  0.00    -0.030 C 
ATOM     21  C   UNL A   1      33.757  26.786  22.207  1.00  0.00     0.041 C 
ATOM     22  C   UNL A   1      33.752  28.289  22.251  1.00  0.00    -0.030 C 
BRANCH  19  23
ATOM     23  C   UNL A   1      31.497  25.929  22.937  1.00  0.00     0.228 C 
ATOM     24  O   UNL A   1      30.791  26.848  22.526  1.00  0.00    -0.274 OA
ATOM     25  N   UNL A   1      30.982  24.649  22.910  1.00  0.00    -0.326 N 
ATOM     26  H   UNL A   1      30.129  24.556  22.429  1.00  0.00     0.169 HD
BRANCH  25  27
ATOM     27  C   UNL A   1      31.485  23.457  23.461  1.00  0.00     0.041 A 
ATOM     28  C   UNL A   1      31.023  23.077  24.724  1.00  0.00     0.027 A 
ATOM     29  C   UNL A   1      32.434  22.659  22.816  1.00  0.00     0.027 A 
ATOM     30  C   UNL A   1      31.419  21.856  25.282  1.00  0.00     0.018 A 
ATOM     31  C   UNL A   1      32.840  21.443  23.375  1.00  0.00     0.018 A 
ATOM     32  C   UNL A   1      32.313  21.037  24.597  1.00  0.00     0.018 A 
ATOM     33  Br  UNL A   1      32.822  19.373  25.332  1.00  0.00    -0.051 Br
ENDBRANCH  25  27
ENDBRANCH  19  23
ENDBRANCH  14  17
ENDBRANCH  12  13
ENDBRANCH   5   7
ENDBRANCH   2   3
ENDBRANCH   1   2
BRANCH   1  34
ATOM     34  C   UNL A   1      41.434  21.834  26.430  1.00  0.00     0.002 C 
BRANCH  34  35
ATOM     35  C   UNL A   1      41.789  20.429  26.927  1.00  0.00     0.002 C 
BRANCH  35  36
ATOM     36  C   UNL A   1      42.146  19.404  25.847  1.00  0.00     0.021 C 
BRANCH  36  37
ATOM     37  C   UNL A   1      43.452  18.643  26.060  1.00  0.00     0.116 C 
BRANCH  37  38
ATOM     38  N   UNL A   1      44.234  18.507  24.845  1.00  0.00    -0.352 N 
ATOM     39  C   UNL A   1      44.879  19.468  24.105  1.00  0.00     0.251 C 
ATOM     40  H   UNL A   1      44.314  17.589  24.498  1.00  0.00     0.163 HD
ATOM     41  O   UNL A   1      45.394  19.172  23.032  1.00  0.00    -0.269 OA
BRANCH  39  42
ATOM     42  C   UNL A   1      44.930  20.869  24.581  1.00  0.00     0.039 A 
ATOM     43  C   UNL A   1      45.503  21.128  25.830  1.00  0.00     0.014 A 
ATOM     44  C   UNL A   1      44.405  21.917  23.821  1.00  0.00     0.014 A 
ATOM     45  C   UNL A   1      45.605  22.444  26.290  1.00  0.00     0.010 A 
ATOM     46  C   UNL A   1      44.561  23.233  24.253  1.00  0.00     0.010 A 
ATOM     47  C   UNL A   1      45.164  23.509  25.489  1.00  0.00    -0.014 A 
BRANCH  47  48
ATOM     48  C   UNL A   1      45.331  24.918  25.927  1.00  0.00     0.031 A 
ATOM     49  C   UNL A   1      46.682  25.576  25.872  1.00  0.00     0.074 A 
ATOM     50  C   UNL A   1      44.278  25.585  26.438  1.00  0.00     0.049 A 
ATOM     51  N   UNL A   1      47.038  26.768  26.279  1.00  0.00    -0.248 NA
ATOM     52  C   UNL A   1      47.783  24.779  25.307  1.00  0.00     0.031 C 
ATOM     53  C   UNL A   1      42.924  25.048  26.583  1.00  0.00     0.029 A 
ATOM     54  N   UNL A   1      44.185  26.860  26.940  1.00  0.00    -0.354 N 
ATOM     55  C   UNL A   1      48.404  26.855  26.041  1.00  0.00     0.074 A 
ATOM     56  C   UNL A   1      48.820  25.585  25.488  1.00  0.00     0.031 C 
ATOM     57  C   UNL A   1      42.132  25.992  27.118  1.00  0.00     0.029 A 
ATOM     58  C   UNL A   1      42.927  27.186  27.386  1.00  0.00     0.049 A 
ATOM     59  H   UNL A   1      44.948  27.481  26.977  1.00  0.00     0.167 HD
ATOM     60  C   UNL A   1      49.232  27.907  26.250  1.00  0.00     0.037 A 
ATOM     61  C   UNL A   1      42.469  28.318  27.950  1.00  0.00     0.037 A 
ATOM     62  C   UNL A   1      48.812  29.184  26.761  1.00  0.00     0.049 A 
ATOM     63  C   UNL A   1      43.409  29.471  28.165  1.00  0.00     0.074 A 
ATOM     64  C   UNL A   1      49.564  30.335  26.931  1.00  0.00     0.029 A 
ATOM     65  N   UNL A   1      47.526  29.481  27.185  1.00  0.00    -0.354 N 
ATOM     66  N   UNL A   1      44.683  29.563  27.871  1.00  0.00    -0.248 NA
ATOM     67  C   UNL A   1      42.846  30.678  28.787  1.00  0.00     0.031 C 
ATOM     68  C   UNL A   1      48.740  31.317  27.492  1.00  0.00     0.029 A 
ATOM     69  C   UNL A   1      47.468  30.790  27.635  1.00  0.00     0.049 A 
ATOM     70  H   UNL A   1      46.767  28.854  27.168  1.00  0.00     0.167 HD
ATOM     71  C   UNL A   1      45.067  30.845  28.244  1.00  0.00     0.074 A 
ATOM     72  C   UNL A   1      43.889  31.497  28.777  1.00  0.00     0.031 C 
ATOM     73  C   UNL A   1      46.286  31.429  28.152  1.00  0.00     0.037 A 
BRANCH  60  74
ATOM     74  C   UNL A   1      50.685  27.720  25.921  1.00  0.00     0.057 A 
ATOM     75  C   UNL A   1      51.621  27.352  26.895  1.00  0.00     0.134 A 
ATOM     76  C   UNL A   1      51.142  27.867  24.606  1.00  0.00     0.134 A 
ATOM     77  F   UNL A   1      51.249  27.207  28.176  1.00  0.00    -0.206 F 
ATOM     78  C   UNL A   1      52.965  27.157  26.577  1.00  0.00     0.040 A 
ATOM     79  C   UNL A   1      52.479  27.651  24.270  1.00  0.00     0.040 A 
ATOM     80  F   UNL A   1      50.294  28.212  23.624  1.00  0.00    -0.206 F 
ATOM     81  C   UNL A   1      53.396  27.300  25.259  1.00  0.00     0.006 A 
ENDBRANCH  60  74
BRANCH  61  82
ATOM     82  C   UNL A   1      41.040  28.433  28.335  1.00  0.00     0.057 A 
ATOM     83  C   UNL A   1      40.093  28.933  27.433  1.00  0.00     0.134 A 
ATOM     84  C   UNL A   1      40.590  28.064  29.607  1.00  0.00     0.134 A 
ATOM     85  F   UNL A   1      40.470  29.322  26.206  1.00  0.00    -0.206 F 
ATOM     86  C   UNL A   1      38.752  29.082  27.789  1.00  0.00     0.040 A 
ATOM     87  C   UNL A   1      39.248  28.188  29.971  1.00  0.00     0.040 A 
ATOM     88  F   UNL A   1      41.449  27.573  30.513  1.00  0.00    -0.206 F 
ATOM     89  C   UNL A   1      38.326  28.705  29.062  1.00  0.00     0.006 A 
ENDBRANCH  61  82
BRANCH  73  90
ATOM     90  C   UNL A   1      46.398  32.854  28.602  1.00  0.00     0.057 A 
ATOM     91  C   UNL A   1      46.765  33.188  29.911  1.00  0.00     0.134 A 
ATOM     92  C   UNL A   1      46.171  33.904  27.703  1.00  0.00     0.134 A 
ATOM     93  F   UNL A   1      46.980  32.226  30.822  1.00  0.00    -0.206 F 
ATOM     94  C   UNL A   1      46.883  34.518  30.317  1.00  0.00     0.040 A 
ATOM     95  C   UNL A   1      46.308  35.237  28.091  1.00  0.00     0.040 A 
ATOM     96  F   UNL A   1      45.823  33.650  26.432  1.00  0.00    -0.206 F 
ATOM     97  C   UNL A   1      46.660  35.547  29.403  1.00  0.00     0.006 A 
ENDBRANCH  73  90
ENDBRANCH  47  48
ENDBRANCH  39  42
ENDBRANCH  37  38
ENDBRANCH  36  37
ENDBRANCH  35  36
ENDBRANCH  34  35
ENDBRANCH   1  34
TORSDOF 17
ENDMDL
MODEL 3
REMARK VINA RESULT:     -11.7      4.470      6.863
REMARK SMILES O=C(NCCCCCCNC(=O)c1ccc(-c2c3nc(c(-c4c(F)cccc4F)c4ccc([nH]4)c(-c4c(F)cccc4F)c4nc(c(-c5c(F)cccc5F)c5ccc2[nH]5)C=C4)C=C3)cc1)c1ccc(NC(=O)[C@@H]2CC=CC[C@@H]2C(=O)Nc2ccc(Br)cc2)cc1
REMARK SMILES IDX 5 1 4 2 3 3 1 4 2 5 67 7 68 8 91 9 69 10 90 11 70 12 71 13
REMARK SMILES IDX 72 14 73 16 74 17 75 18 79 19 76 20 78 21 77 22 80 23 81 24
REMARK SMILES IDX 82 25 83 27 84 28 89 29 85 30 88 31 86 32 87 33 6 34 7 35
REMARK SMILES IDX 8 36 9 37 10 38 11 39 12 41 13 42 14 43 66 44 15 45 65 46
REMARK SMILES IDX 16 47 17 48 18 49 59 50 19 51 64 52 58 53 60 54 20 55 63 56
REMARK SMILES IDX 57 57 56 58 21 60 47 61 30 62 46 63 31 64 34 65 45 66 61 67
REMARK SMILES IDX 32 68 33 69 44 71 62 72 35 73 22 74 23 75 28 76 24 77 25 78
REMARK SMILES IDX 27 79 29 80 26 81 48 82 49 83 54 84 50 85 51 86 53 87 55 88
REMARK SMILES IDX 52 89 36 90 37 91 42 92 38 93 39 94 41 95 43 96 40 97
REMARK H PARENT 3 6 71 15 82 26 10 40 60 59 34 70
REMARK Flexibility Score: inf
ROOT
ATOM      1  C   UNL A   1      35.138  31.161  27.385  1.00  0.00     0.021 C 
ENDROOT
BRANCH   1   2
ATOM      2  C   UNL A   1      33.881  30.510  27.944  1.00  0.00     0.116 C 
BRANCH   2   3
ATOM      3  N   UNL A   1      32.658  30.961  27.291  1.00  0.00    -0.352 N 
ATOM      4  O   UNL A   1      31.089  31.008  25.652  1.00  0.00    -0.269 OA
ATOM      5  C   UNL A   1      32.053  30.447  26.164  1.00  0.00     0.251 C 
ATOM      6  H   UNL A   1      32.207  31.730  27.708  1.00  0.00     0.163 HD
BRANCH   5   7
ATOM      7  C   UNL A   1      32.588  29.206  25.567  1.00  0.00     0.039 A 
ATOM      8  C   UNL A   1      32.355  27.991  26.196  1.00  0.00     0.016 A 
ATOM      9  C   UNL A   1      33.370  29.245  24.414  1.00  0.00     0.016 A 
ATOM     10  C   UNL A   1      33.034  26.851  25.776  1.00  0.00     0.027 A 
ATOM     11  C   UNL A   1      33.965  28.064  23.941  1.00  0.00     0.027 A 
ATOM     12  C   UNL A   1      33.820  26.848  24.630  1.00  0.00     0.041 A 
BRANCH  12  13
ATOM     13  N   UNL A   1      34.473  25.721  24.088  1.00  0.00    -0.326 N 
ATOM     14  C   UNL A   1      34.624  24.405  24.437  1.00  0.00     0.228 C 
ATOM     15  H   UNL A   1      34.939  25.935  23.247  1.00  0.00     0.169 HD
ATOM     16  O   UNL A   1      35.305  23.711  23.677  1.00  0.00    -0.274 OA
BRANCH  14  17
ATOM     17  C   UNL A   1      34.054  23.832  25.724  1.00  0.00     0.095 C 
ATOM     18  C   UNL A   1      34.678  22.487  26.125  1.00  0.00     0.041 C 
ATOM     19  C   UNL A   1      32.513  23.776  25.758  1.00  0.00     0.095 C 
ATOM     20  C   UNL A   1      34.066  21.972  27.402  1.00  0.00    -0.030 C 
ATOM     21  C   UNL A   1      32.059  23.462  27.204  1.00  0.00     0.041 C 
ATOM     22  C   UNL A   1      32.907  22.433  27.898  1.00  0.00    -0.030 C 
BRANCH  19  23
ATOM     23  C   UNL A   1      31.819  22.834  24.771  1.00  0.00     0.228 C 
ATOM     24  O   UNL A   1      31.911  21.610  24.838  1.00  0.00    -0.274 OA
ATOM     25  N   UNL A   1      30.961  23.373  23.834  1.00  0.00    -0.326 N 
ATOM     26  H   UNL A   1      30.380  22.722  23.381  1.00  0.00     0.169 HD
BRANCH  25  27
ATOM     27  C   UNL A   1      30.787  24.707  23.424  1.00  0.00     0.041 A 
ATOM     28  C   UNL A   1      29.877  25.494  24.134  1.00  0.00     0.027 A 
ATOM     29  C   UNL A   1      31.461  25.265  22.334  1.00  0.00     0.027 A 
ATOM     30  C   UNL A   1      29.730  26.852  23.829  1.00  0.00     0.018 A 
ATOM     31  C   UNL A   1      31.310  26.618  22.019  1.00  0.00     0.018 A 
ATOM     32  C   UNL A   1      30.459  27.412  22.784  1.00  0.00     0.018 A 
ATOM     33  Br  UNL A   1      30.290  29.252  22.392  1.00  0.00    -0.051 Br
ENDBRANCH  25  27
ENDBRANCH  19  23
ENDBRANCH  14  17
ENDBRANCH  12  13
ENDBRANCH   5   7
ENDBRANCH   2   3
ENDBRANCH   1   2
BRANCH   1  34
ATOM     34  C   UNL A   1      35.536  32.478  28.050  1.00  0.00     0.002 C 
BRANCH  34  35
ATOM     35  C   UNL A   1      34.414  33.218  28.785  1.00  0.00     0.002 C 
BRANCH  35  36
ATOM     36  C   UNL A   1      34.643  33.478  30.276  1.00  0.00     0.021 C 
BRANCH  36  37
ATOM     37  C   UNL A   1      34.727  32.237  31.162  1.00  0.00     0.116 C 
BRANCH  37  38
ATOM     38  N   UNL A   1      35.181  32.531  32.509  1.00  0.00    -0.352 N 
ATOM     39  C   UNL A   1      36.385  32.254  33.109  1.00  0.00     0.251 C 
ATOM     40  H   UNL A   1      34.528  32.998  33.079  1.00  0.00     0.163 HD
ATOM     41  O   UNL A   1      36.539  32.479  34.305  1.00  0.00    -0.269 OA
BRANCH  39  42
ATOM     42  C   UNL A   1      37.490  31.657  32.326  1.00  0.00     0.039 A 
ATOM     43  C   UNL A   1      37.655  32.054  30.995  1.00  0.00     0.014 A 
ATOM     44  C   UNL A   1      38.346  30.703  32.883  1.00  0.00     0.014 A 
ATOM     45  C   UNL A   1      38.715  31.541  30.242  1.00  0.00     0.010 A 
ATOM     46  C   UNL A   1      39.437  30.238  32.150  1.00  0.00     0.010 A 
ATOM     47  C   UNL A   1      39.633  30.653  30.825  1.00  0.00    -0.014 A 
BRANCH  47  48
ATOM     48  C   UNL A   1      40.807  30.155  30.064  1.00  0.00     0.031 A 
ATOM     49  C   UNL A   1      41.958  31.072  29.757  1.00  0.00     0.074 A 
ATOM     50  C   UNL A   1      40.807  28.894  29.592  1.00  0.00     0.049 A 
ATOM     51  N   UNL A   1      43.032  30.841  29.045  1.00  0.00    -0.248 NA
ATOM     52  C   UNL A   1      41.881  32.437  30.303  1.00  0.00     0.031 C 
ATOM     53  C   UNL A   1      39.735  27.916  29.786  1.00  0.00     0.029 A 
ATOM     54  N   UNL A   1      41.738  28.220  28.841  1.00  0.00    -0.354 N 
ATOM     55  C   UNL A   1      43.744  32.033  29.037  1.00  0.00     0.074 A 
ATOM     56  C   UNL A   1      42.966  32.996  29.786  1.00  0.00     0.031 C 
ATOM     57  C   UNL A   1      40.077  26.763  29.187  1.00  0.00     0.029 A 
ATOM     58  C   UNL A   1      41.373  26.930  28.539  1.00  0.00     0.049 A 
ATOM     59  H   UNL A   1      42.586  28.623  28.546  1.00  0.00     0.167 HD
ATOM     60  C   UNL A   1      44.947  32.296  28.472  1.00  0.00     0.037 A 
ATOM     61  C   UNL A   1      42.011  25.990  27.817  1.00  0.00     0.037 A 
ATOM     62  C   UNL A   1      45.741  31.328  27.764  1.00  0.00     0.049 A 
ATOM     63  C   UNL A   1      43.347  26.307  27.206  1.00  0.00     0.074 A 
ATOM     64  C   UNL A   1      47.008  31.479  27.226  1.00  0.00     0.029 A 
ATOM     65  N   UNL A   1      45.345  30.027  27.494  1.00  0.00    -0.354 N 
ATOM     66  N   UNL A   1      44.040  27.418  27.266  1.00  0.00    -0.248 NA
ATOM     67  C   UNL A   1      43.991  25.238  26.429  1.00  0.00     0.031 C 
ATOM     68  C   UNL A   1      47.364  30.280  26.599  1.00  0.00     0.029 A 
ATOM     69  C   UNL A   1      46.334  29.371  26.780  1.00  0.00     0.049 A 
ATOM     70  H   UNL A   1      44.488  29.629  27.770  1.00  0.00     0.167 HD
ATOM     71  C   UNL A   1      45.212  27.173  26.563  1.00  0.00     0.074 A 
ATOM     72  C   UNL A   1      45.140  25.806  26.091  1.00  0.00     0.031 C 
ATOM     73  C   UNL A   1      46.254  28.007  26.328  1.00  0.00     0.037 A 
BRANCH  60  74
ATOM     74  C   UNL A   1      45.482  33.692  28.600  1.00  0.00     0.057 A 
ATOM     75  C   UNL A   1      45.197  34.681  27.651  1.00  0.00     0.134 A 
ATOM     76  C   UNL A   1      46.253  34.061  29.709  1.00  0.00     0.134 A 
ATOM     77  F   UNL A   1      44.473  34.389  26.560  1.00  0.00    -0.206 F 
ATOM     78  C   UNL A   1      45.679  35.984  27.789  1.00  0.00     0.040 A 
ATOM     79  C   UNL A   1      46.721  35.365  29.871  1.00  0.00     0.040 A 
ATOM     80  F   UNL A   1      46.557  33.161  30.657  1.00  0.00    -0.206 F 
ATOM     81  C   UNL A   1      46.438  36.330  28.906  1.00  0.00     0.006 A 
ENDBRANCH  60  74
BRANCH  61  82
ATOM     82  C   UNL A   1      41.409  24.644  27.649  1.00  0.00     0.057 A 
ATOM     83  C   UNL A   1      40.387  24.428  26.717  1.00  0.00     0.134 A 
ATOM     84  C   UNL A   1      41.824  23.552  28.419  1.00  0.00     0.134 A 
ATOM     85  F   UNL A   1      39.934  25.442  25.965  1.00  0.00    -0.206 F 
ATOM     86  C   UNL A   1      39.785  23.178  26.570  1.00  0.00     0.040 A 
ATOM     87  C   UNL A   1      41.245  22.291  28.268  1.00  0.00     0.040 A 
ATOM     88  F   UNL A   1      42.804  23.695  29.324  1.00  0.00    -0.206 F 
ATOM     89  C   UNL A   1      40.216  22.104  27.346  1.00  0.00     0.006 A 
ENDBRANCH  61  82
BRANCH  73  90
ATOM     90  C   UNL A   1      47.416  27.452  25.561  1.00  0.00     0.057 A 
ATOM     91  C   UNL A   1      47.507  27.572  24.169  1.00  0.00     0.134 A 
ATOM     92  C   UNL A   1      48.474  26.820  26.229  1.00  0.00     0.134 A 
ATOM     93  F   UNL A   1      46.518  28.153  23.472  1.00  0.00    -0.206 F 
ATOM     94  C   UNL A   1      48.600  27.067  23.465  1.00  0.00     0.040 A 
ATOM     95  C   UNL A   1      49.582  26.331  25.539  1.00  0.00     0.040 A 
ATOM     96  F   UNL A   1      48.449  26.679  27.563  1.00  0.00    -0.206 F 
ATOM     97  C   UNL A   1      49.646  26.449  24.151  1.00  0.00     0.006 A 
ENDBRANCH  73  90
ENDBRANCH  47  48
ENDBRANCH  39  42
ENDBRANCH  37  38
ENDBRANCH  36  37
ENDBRANCH  35  36
ENDBRANCH  34  35
ENDBRANCH   1  34
TORSDOF 17
ENDMDL
