MODEL 1
REMARK VINA RESULT:     -11.8      0.000      0.000
REMARK SMILES O=C(NCCCCCCNC(=O)c1ccccc1/N=C/c1coc2ccccc2c1=O)c1ccc(-c2c3nc(c(-c4c(F)cccc4F)c4ccc([nH]4)c(-c4c(F)cccc4F)c4nc(c(-c5c(F)cccc5F)c5ccc2[nH]5)C=C4)C=C3)cc1
REMARK SMILES IDX 6 1 5 2 4 3 3 4 1 5 2 6 32 8 33 9 85 10 34 11 84 12 35 13
REMARK SMILES IDX 36 14 37 15 78 16 38 17 83 18 77 19 79 20 39 21 82 22 76 23
REMARK SMILES IDX 75 24 40 26 66 27 49 28 65 29 50 30 53 31 64 32 80 33 51 34
REMARK SMILES IDX 52 35 63 37 81 38 54 39 41 40 42 41 47 42 43 43 44 44 46 45
REMARK SMILES IDX 48 46 45 47 67 48 68 49 73 50 69 51 70 52 72 53 74 54 71 55
REMARK SMILES IDX 55 56 56 57 61 58 57 59 58 60 60 61 62 62 59 63 7 64 8 65
REMARK SMILES IDX 9 66 10 67 11 68 12 70 13 71 14 72 18 73 15 74 17 75 16 76
REMARK SMILES IDX 19 77 20 78 21 79 22 80 30 81 23 82 29 83 31 84 24 85 28 86
REMARK SMILES IDX 25 87 27 88 26 89
REMARK H PARENT 3 7 79 25 53 36 10 69
REMARK Flexibility Score: inf
ROOT
ATOM      1  C   UNL A   1      37.554  21.320  24.914  1.00  0.00     0.002 C 
ENDROOT
BRANCH   1   2
ATOM      2  C   UNL A   1      38.239  19.953  24.896  1.00  0.00     0.021 C 
BRANCH   2   3
ATOM      3  C   UNL A   1      39.092  19.610  26.110  1.00  0.00     0.116 C 
BRANCH   3   4
ATOM      4  N   UNL A   1      40.369  19.009  25.764  1.00  0.00    -0.352 N 
ATOM      5  O   UNL A   1      42.582  18.869  25.405  1.00  0.00    -0.269 OA
ATOM      6  C   UNL A   1      41.641  19.516  25.861  1.00  0.00     0.251 C 
ATOM      7  H   UNL A   1      40.313  18.095  25.404  1.00  0.00     0.163 HD
BRANCH   6   8
ATOM      8  C   UNL A   1      41.905  20.838  26.483  1.00  0.00     0.039 A 
ATOM      9  C   UNL A   1      41.905  21.022  27.867  1.00  0.00     0.014 A 
ATOM     10  C   UNL A   1      42.225  21.915  25.645  1.00  0.00     0.014 A 
ATOM     11  C   UNL A   1      42.113  22.293  28.405  1.00  0.00     0.010 A 
ATOM     12  C   UNL A   1      42.498  23.176  26.187  1.00  0.00     0.010 A 
ATOM     13  C   UNL A   1      42.418  23.381  27.572  1.00  0.00    -0.014 A 
BRANCH  13  14
ATOM     14  C   UNL A   1      42.708  24.707  28.174  1.00  0.00     0.031 A 
ATOM     15  C   UNL A   1      44.110  25.110  28.531  1.00  0.00     0.074 A 
ATOM     16  C   UNL A   1      41.693  25.569  28.373  1.00  0.00     0.049 A 
ATOM     17  N   UNL A   1      44.539  26.249  29.016  1.00  0.00    -0.248 NA
ATOM     18  C   UNL A   1      45.167  24.109  28.322  1.00  0.00     0.031 C 
ATOM     19  C   UNL A   1      40.283  25.292  28.091  1.00  0.00     0.029 A 
ATOM     20  N   UNL A   1      41.693  26.860  28.835  1.00  0.00    -0.354 N 
ATOM     21  C   UNL A   1      45.907  26.095  29.193  1.00  0.00     0.074 A 
ATOM     22  C   UNL A   1      46.238  24.749  28.772  1.00  0.00     0.031 C 
ATOM     23  C   UNL A   1      39.563  26.397  28.335  1.00  0.00     0.029 A 
ATOM     24  C   UNL A   1      40.452  27.447  28.821  1.00  0.00     0.049 A 
ATOM     25  H   UNL A   1      42.505  27.321  29.148  1.00  0.00     0.167 HD
ATOM     26  C   UNL A   1      46.806  26.995  29.660  1.00  0.00     0.037 A 
ATOM     27  C   UNL A   1      40.072  28.692  29.154  1.00  0.00     0.037 A 
ATOM     28  C   UNL A   1      46.494  28.344  30.050  1.00  0.00     0.049 A 
ATOM     29  C   UNL A   1      41.090  29.676  29.645  1.00  0.00     0.074 A 
ATOM     30  C   UNL A   1      47.354  29.337  30.489  1.00  0.00     0.029 A 
ATOM     31  N   UNL A   1      45.221  28.890  30.046  1.00  0.00    -0.354 N 
ATOM     32  N   UNL A   1      42.383  29.521  29.783  1.00  0.00    -0.248 NA
ATOM     33  C   UNL A   1      40.594  31.003  30.035  1.00  0.00     0.031 C 
ATOM     34  C   UNL A   1      46.597  30.481  30.768  1.00  0.00     0.029 A 
ATOM     35  C   UNL A   1      45.270  30.202  30.487  1.00  0.00     0.049 A 
ATOM     36  H   UNL A   1      44.403  28.416  29.771  1.00  0.00     0.167 HD
ATOM     37  C   UNL A   1      42.857  30.726  30.280  1.00  0.00     0.074 A 
ATOM     38  C   UNL A   1      41.715  31.610  30.401  1.00  0.00     0.031 C 
ATOM     39  C   UNL A   1      44.124  31.065  30.612  1.00  0.00     0.037 A 
BRANCH  26  40
ATOM     40  C   UNL A   1      48.229  26.541  29.779  1.00  0.00     0.057 A 
ATOM     41  C   UNL A   1      48.689  25.866  30.916  1.00  0.00     0.134 A 
ATOM     42  C   UNL A   1      49.134  26.749  28.733  1.00  0.00     0.134 A 
ATOM     43  F   UNL A   1      47.870  25.647  31.954  1.00  0.00    -0.206 F 
ATOM     44  C   UNL A   1      50.008  25.420  31.010  1.00  0.00     0.040 A 
ATOM     45  C   UNL A   1      50.452  26.298  28.810  1.00  0.00     0.040 A 
ATOM     46  F   UNL A   1      48.749  27.388  27.617  1.00  0.00    -0.206 F 
ATOM     47  C   UNL A   1      50.892  25.633  29.953  1.00  0.00     0.006 A 
ENDBRANCH  26  40
BRANCH  27  48
ATOM     48  C   UNL A   1      38.652  29.083  29.007  1.00  0.00     0.057 A 
ATOM     49  C   UNL A   1      37.776  29.014  30.095  1.00  0.00     0.134 A 
ATOM     50  C   UNL A   1      38.151  29.562  27.793  1.00  0.00     0.134 A 
ATOM     51  F   UNL A   1      38.203  28.550  31.278  1.00  0.00    -0.206 F 
ATOM     52  C   UNL A   1      36.443  29.411  29.979  1.00  0.00     0.040 A 
ATOM     53  C   UNL A   1      36.824  29.974  27.667  1.00  0.00     0.040 A 
ATOM     54  F   UNL A   1      38.949  29.651  26.719  1.00  0.00    -0.206 F 
ATOM     55  C   UNL A   1      35.967  29.899  28.763  1.00  0.00     0.006 A 
ENDBRANCH  27  48
BRANCH  39  56
ATOM     56  C   UNL A   1      44.335  32.446  31.146  1.00  0.00     0.057 A 
ATOM     57  C   UNL A   1      44.582  33.525  30.288  1.00  0.00     0.134 A 
ATOM     58  C   UNL A   1      44.274  32.704  32.520  1.00  0.00     0.134 A 
ATOM     59  F   UNL A   1      44.666  33.333  28.964  1.00  0.00    -0.206 F 
ATOM     60  C   UNL A   1      44.774  34.815  30.782  1.00  0.00     0.040 A 
ATOM     61  C   UNL A   1      44.453  33.993  33.025  1.00  0.00     0.040 A 
ATOM     62  F   UNL A   1      44.042  31.710  33.390  1.00  0.00    -0.206 F 
ATOM     63  C   UNL A   1      44.707  35.052  32.153  1.00  0.00     0.006 A 
ENDBRANCH  39  56
ENDBRANCH  13  14
ENDBRANCH   6   8
ENDBRANCH   3   4
ENDBRANCH   2   3
ENDBRANCH   1   2
BRANCH   1  64
ATOM     64  C   UNL A   1      38.255  22.406  25.732  1.00  0.00     0.002 C 
BRANCH  64  65
ATOM     65  C   UNL A   1      37.418  23.643  26.086  1.00  0.00     0.021 C 
BRANCH  65  66
ATOM     66  C   UNL A   1      35.931  23.580  25.730  1.00  0.00     0.116 C 
BRANCH  66  67
ATOM     67  N   UNL A   1      35.082  23.348  26.883  1.00  0.00    -0.352 N 
ATOM     68  C   UNL A   1      33.988  22.533  26.997  1.00  0.00     0.253 C 
ATOM     69  H   UNL A   1      35.328  23.846  27.697  1.00  0.00     0.163 HD
ATOM     70  O   UNL A   1      33.425  22.401  28.080  1.00  0.00    -0.269 OA
BRANCH  68  71
ATOM     71  C   UNL A   1      33.445  21.826  25.828  1.00  0.00     0.065 A 
ATOM     72  C   UNL A   1      33.918  20.525  25.592  1.00  0.00     0.016 A 
ATOM     73  C   UNL A   1      32.544  22.418  24.939  1.00  0.00     0.076 A 
ATOM     74  C   UNL A   1      33.471  19.800  24.485  1.00  0.00     0.001 A 
ATOM     75  C   UNL A   1      32.118  21.677  23.826  1.00  0.00     0.029 A 
ATOM     76  C   UNL A   1      32.574  20.380  23.595  1.00  0.00     0.002 A 
BRANCH  73  77
ATOM     77  N   UNL A   1      31.870  23.620  25.129  1.00  0.00    -0.255 NA
ATOM     78  C   UNL A   1      31.070  24.161  24.270  1.00  0.00     0.127 C 
BRANCH  78  79
ATOM     79  C   UNL A   1      30.335  25.347  24.775  1.00  0.00     0.076 A 
ATOM     80  C   UNL A   1      30.413  25.393  26.119  1.00  0.00     0.209 A 
ATOM     81  C   UNL A   1      30.594  26.653  24.114  1.00  0.00     0.201 A 
ATOM     82  O   UNL A   1      30.867  26.506  26.822  1.00  0.00    -0.463 OA
ATOM     83  C   UNL A   1      31.692  27.395  24.745  1.00  0.00     0.065 A 
ATOM     84  O   UNL A   1      30.033  27.016  23.093  1.00  0.00    -0.288 OA
ATOM     85  C   UNL A   1      31.811  27.240  26.127  1.00  0.00     0.137 A 
ATOM     86  C   UNL A   1      32.682  28.019  23.989  1.00  0.00     0.016 A 
ATOM     87  C   UNL A   1      32.936  27.724  26.782  1.00  0.00     0.048 A 
ATOM     88  C   UNL A   1      33.829  28.468  24.642  1.00  0.00     0.001 A 
ATOM     89  C   UNL A   1      33.955  28.321  26.030  1.00  0.00     0.004 A 
ENDBRANCH  78  79
ENDBRANCH  73  77
ENDBRANCH  68  71
ENDBRANCH  66  67
ENDBRANCH  65  66
ENDBRANCH  64  65
ENDBRANCH   1  64
TORSDOF 15
ENDMDL
MODEL 2
REMARK VINA RESULT:     -11.7      0.751      1.609
REMARK SMILES O=C(NCCCCCCNC(=O)c1ccccc1/N=C/c1coc2ccccc2c1=O)c1ccc(-c2c3nc(c(-c4c(F)cccc4F)c4ccc([nH]4)c(-c4c(F)cccc4F)c4nc(c(-c5c(F)cccc5F)c5ccc2[nH]5)C=C4)C=C3)cc1
REMARK SMILES IDX 6 1 5 2 4 3 3 4 1 5 2 6 32 8 33 9 85 10 34 11 84 12 35 13
REMARK SMILES IDX 36 14 37 15 78 16 38 17 83 18 77 19 79 20 39 21 82 22 76 23
REMARK SMILES IDX 75 24 40 26 66 27 49 28 65 29 50 30 53 31 64 32 80 33 51 34
REMARK SMILES IDX 52 35 63 37 81 38 54 39 41 40 42 41 47 42 43 43 44 44 46 45
REMARK SMILES IDX 48 46 45 47 67 48 68 49 73 50 69 51 70 52 72 53 74 54 71 55
REMARK SMILES IDX 55 56 56 57 61 58 57 59 58 60 60 61 62 62 59 63 7 64 8 65
REMARK SMILES IDX 9 66 10 67 11 68 12 70 13 71 14 72 18 73 15 74 17 75 16 76
REMARK SMILES IDX 19 77 20 78 21 79 22 80 30 81 23 82 29 83 31 84 24 85 28 86
REMARK SMILES IDX 25 87 27 88 26 89
REMARK H PARENT 3 7 79 25 53 36 10 69
REMARK Flexibility Score: inf
ROOT
ATOM      1  C   UNL A   1      36.508  20.285  24.796  1.00  0.00     0.002 C 
ENDROOT
BRANCH   1   2
ATOM      2  C   UNL A   1      37.781  19.442  24.858  1.00  0.00     0.021 C 
BRANCH   2   3
ATOM      3  C   UNL A   1      38.852  19.907  25.836  1.00  0.00     0.116 C 
BRANCH   3   4
ATOM      4  N   UNL A   1      40.097  19.168  25.720  1.00  0.00    -0.352 N 
ATOM      5  O   UNL A   1      42.313  18.795  25.717  1.00  0.00    -0.269 OA
ATOM      6  C   UNL A   1      41.386  19.555  25.993  1.00  0.00     0.251 C 
ATOM      7  H   UNL A   1      40.002  18.244  25.394  1.00  0.00     0.163 HD
BRANCH   6   8
ATOM      8  C   UNL A   1      41.688  20.879  26.592  1.00  0.00     0.039 A 
ATOM      9  C   UNL A   1      41.640  21.100  27.970  1.00  0.00     0.014 A 
ATOM     10  C   UNL A   1      42.095  21.917  25.743  1.00  0.00     0.014 A 
ATOM     11  C   UNL A   1      41.887  22.374  28.484  1.00  0.00     0.010 A 
ATOM     12  C   UNL A   1      42.406  23.178  26.264  1.00  0.00     0.010 A 
ATOM     13  C   UNL A   1      42.279  23.423  27.638  1.00  0.00    -0.014 A 
BRANCH  13  14
ATOM     14  C   UNL A   1      42.608  24.749  28.219  1.00  0.00     0.031 A 
ATOM     15  C   UNL A   1      44.025  25.127  28.544  1.00  0.00     0.074 A 
ATOM     16  C   UNL A   1      41.616  25.635  28.427  1.00  0.00     0.049 A 
ATOM     17  N   UNL A   1      44.488  26.262  29.008  1.00  0.00    -0.248 NA
ATOM     18  C   UNL A   1      45.056  24.101  28.328  1.00  0.00     0.031 C 
ATOM     19  C   UNL A   1      40.195  25.384  28.175  1.00  0.00     0.029 A 
ATOM     20  N   UNL A   1      41.652  26.931  28.874  1.00  0.00    -0.354 N 
ATOM     21  C   UNL A   1      45.855  26.081  29.161  1.00  0.00     0.074 A 
ATOM     22  C   UNL A   1      46.149  24.723  28.750  1.00  0.00     0.031 C 
ATOM     23  C   UNL A   1      39.503  26.507  28.419  1.00  0.00     0.029 A 
ATOM     24  C   UNL A   1      40.423  27.544  28.876  1.00  0.00     0.049 A 
ATOM     25  H   UNL A   1      42.479  27.378  29.166  1.00  0.00     0.167 HD
ATOM     26  C   UNL A   1      46.782  26.966  29.600  1.00  0.00     0.037 A 
ATOM     27  C   UNL A   1      40.076  28.801  29.201  1.00  0.00     0.037 A 
ATOM     28  C   UNL A   1      46.505  28.326  29.980  1.00  0.00     0.049 A 
ATOM     29  C   UNL A   1      41.124  29.768  29.661  1.00  0.00     0.074 A 
ATOM     30  C   UNL A   1      47.394  29.306  30.391  1.00  0.00     0.029 A 
ATOM     31  N   UNL A   1      45.244  28.899  29.994  1.00  0.00    -0.354 N 
ATOM     32  N   UNL A   1      42.416  29.587  29.777  1.00  0.00    -0.248 NA
ATOM     33  C   UNL A   1      40.663  31.110  30.045  1.00  0.00     0.031 C 
ATOM     34  C   UNL A   1      46.666  30.469  30.670  1.00  0.00     0.029 A 
ATOM     35  C   UNL A   1      45.328  30.215  30.418  1.00  0.00     0.049 A 
ATOM     36  H   UNL A   1      44.411  28.439  29.740  1.00  0.00     0.167 HD
ATOM     37  C   UNL A   1      42.923  30.788  30.250  1.00  0.00     0.074 A 
ATOM     38  C   UNL A   1      41.803  31.697  30.382  1.00  0.00     0.031 C 
ATOM     39  C   UNL A   1      44.204  31.103  30.554  1.00  0.00     0.037 A 
BRANCH  26  40
ATOM     40  C   UNL A   1      48.196  26.484  29.698  1.00  0.00     0.057 A 
ATOM     41  C   UNL A   1      49.111  26.681  28.658  1.00  0.00     0.134 A 
ATOM     42  C   UNL A   1      48.654  25.852  30.859  1.00  0.00     0.134 A 
ATOM     43  F   UNL A   1      48.727  27.273  27.518  1.00  0.00    -0.206 F 
ATOM     44  C   UNL A   1      50.436  26.256  28.766  1.00  0.00     0.040 A 
ATOM     45  C   UNL A   1      49.980  25.432  30.984  1.00  0.00     0.040 A 
ATOM     46  F   UNL A   1      47.824  25.637  31.891  1.00  0.00    -0.206 F 
ATOM     47  C   UNL A   1      50.874  25.632  29.934  1.00  0.00     0.006 A 
ENDBRANCH  26  40
BRANCH  27  48
ATOM     48  C   UNL A   1      38.662  29.220  29.076  1.00  0.00     0.057 A 
ATOM     49  C   UNL A   1      38.143  29.627  27.843  1.00  0.00     0.134 A 
ATOM     50  C   UNL A   1      37.795  29.189  30.173  1.00  0.00     0.134 A 
ATOM     51  F   UNL A   1      38.935  29.686  26.764  1.00  0.00    -0.206 F 
ATOM     52  C   UNL A   1      36.803  29.992  27.704  1.00  0.00     0.040 A 
ATOM     53  C   UNL A   1      36.451  29.540  30.046  1.00  0.00     0.040 A 
ATOM     54  F   UNL A   1      38.240  28.803  31.378  1.00  0.00    -0.206 F 
ATOM     55  C   UNL A   1      35.952  29.943  28.807  1.00  0.00     0.006 A 
ENDBRANCH  27  48
BRANCH  39  56
ATOM     56  C   UNL A   1      44.454  32.486  31.067  1.00  0.00     0.057 A 
ATOM     57  C   UNL A   1      44.706  33.550  30.193  1.00  0.00     0.134 A 
ATOM     58  C   UNL A   1      44.427  32.761  32.440  1.00  0.00     0.134 A 
ATOM     59  F   UNL A   1      44.758  33.342  28.869  1.00  0.00    -0.206 F 
ATOM     60  C   UNL A   1      44.934  34.841  30.667  1.00  0.00     0.040 A 
ATOM     61  C   UNL A   1      44.642  34.051  32.925  1.00  0.00     0.040 A 
ATOM     62  F   UNL A   1      44.192  31.781  33.325  1.00  0.00    -0.206 F 
ATOM     63  C   UNL A   1      44.899  35.095  32.037  1.00  0.00     0.006 A 
ENDBRANCH  39  56
ENDBRANCH  13  14
ENDBRANCH   6   8
ENDBRANCH   3   4
ENDBRANCH   2   3
ENDBRANCH   1   2
BRANCH   1  64
ATOM     64  C   UNL A   1      36.714  21.788  24.593  1.00  0.00     0.002 C 
BRANCH  64  65
ATOM     65  C   UNL A   1      36.395  22.690  25.794  1.00  0.00     0.021 C 
BRANCH  65  66
ATOM     66  C   UNL A   1      35.305  23.742  25.580  1.00  0.00     0.116 C 
BRANCH  66  67
ATOM     67  N   UNL A   1      34.255  23.680  26.580  1.00  0.00    -0.352 N 
ATOM     68  C   UNL A   1      33.184  22.830  26.652  1.00  0.00     0.253 C 
ATOM     69  H   UNL A   1      34.322  24.341  27.307  1.00  0.00     0.163 HD
ATOM     70  O   UNL A   1      32.425  22.871  27.616  1.00  0.00    -0.269 OA
BRANCH  68  71
ATOM     71  C   UNL A   1      32.900  21.876  25.570  1.00  0.00     0.065 A 
ATOM     72  C   UNL A   1      33.055  20.512  25.865  1.00  0.00     0.016 A 
ATOM     73  C   UNL A   1      32.549  22.280  24.279  1.00  0.00     0.076 A 
ATOM     74  C   UNL A   1      32.832  19.546  24.881  1.00  0.00     0.001 A 
ATOM     75  C   UNL A   1      32.343  21.294  23.302  1.00  0.00     0.029 A 
ATOM     76  C   UNL A   1      32.482  19.938  23.593  1.00  0.00     0.002 A 
BRANCH  73  77
ATOM     77  N   UNL A   1      32.203  23.569  23.886  1.00  0.00    -0.255 NA
ATOM     78  C   UNL A   1      32.796  24.240  22.954  1.00  0.00     0.127 C 
BRANCH  78  79
ATOM     79  C   UNL A   1      32.130  25.518  22.597  1.00  0.00     0.076 A 
ATOM     80  C   UNL A   1      30.933  25.593  23.209  1.00  0.00     0.209 A 
ATOM     81  C   UNL A   1      32.933  26.765  22.691  1.00  0.00     0.201 A 
ATOM     82  O   UNL A   1      30.549  26.667  24.009  1.00  0.00    -0.463 OA
ATOM     83  C   UNL A   1      32.841  27.394  24.014  1.00  0.00     0.065 A 
ATOM     84  O   UNL A   1      33.674  27.160  21.805  1.00  0.00    -0.288 OA
ATOM     85  C   UNL A   1      31.611  27.268  24.660  1.00  0.00     0.137 A 
ATOM     86  C   UNL A   1      33.969  27.877  24.673  1.00  0.00     0.016 A 
ATOM     87  C   UNL A   1      31.489  27.638  25.993  1.00  0.00     0.048 A 
ATOM     88  C   UNL A   1      33.856  28.212  26.021  1.00  0.00     0.001 A 
ATOM     89  C   UNL A   1      32.623  28.091  26.678  1.00  0.00     0.004 A 
ENDBRANCH  78  79
ENDBRANCH  73  77
ENDBRANCH  68  71
ENDBRANCH  66  67
ENDBRANCH  65  66
ENDBRANCH  64  65
ENDBRANCH   1  64
TORSDOF 15
ENDMDL
MODEL 3
REMARK VINA RESULT:     -11.7      0.956      6.136
REMARK SMILES O=C(NCCCCCCNC(=O)c1ccccc1/N=C/c1coc2ccccc2c1=O)c1ccc(-c2c3nc(c(-c4c(F)cccc4F)c4ccc([nH]4)c(-c4c(F)cccc4F)c4nc(c(-c5c(F)cccc5F)c5ccc2[nH]5)C=C4)C=C3)cc1
REMARK SMILES IDX 6 1 5 2 4 3 3 4 1 5 2 6 32 8 33 9 85 10 34 11 84 12 35 13
REMARK SMILES IDX 36 14 37 15 78 16 38 17 83 18 77 19 79 20 39 21 82 22 76 23
REMARK SMILES IDX 75 24 40 26 66 27 49 28 65 29 50 30 53 31 64 32 80 33 51 34
REMARK SMILES IDX 52 35 63 37 81 38 54 39 41 40 42 41 47 42 43 43 44 44 46 45
REMARK SMILES IDX 48 46 45 47 67 48 68 49 73 50 69 51 70 52 72 53 74 54 71 55
REMARK SMILES IDX 55 56 56 57 61 58 57 59 58 60 60 61 62 62 59 63 7 64 8 65
REMARK SMILES IDX 9 66 10 67 11 68 12 70 13 71 14 72 18 73 15 74 17 75 16 76
REMARK SMILES IDX 19 77 20 78 21 79 22 80 30 81 23 82 29 83 31 84 24 85 28 86
REMARK SMILES IDX 25 87 27 88 26 89
REMARK H PARENT 3 7 79 25 53 36 10 69
REMARK Flexibility Score: inf
ROOT
ATOM      1  C   UNL A   1      36.240  20.264  24.935  1.00  0.00     0.002 C 
ENDROOT
BRANCH   1   2
ATOM      2  C   UNL A   1      37.568  19.509  24.881  1.00  0.00     0.021 C 
BRANCH   2   3
ATOM      3  C   UNL A   1      38.719  20.109  25.676  1.00  0.00     0.116 C 
BRANCH   3   4
ATOM      4  N   UNL A   1      39.892  19.254  25.726  1.00  0.00    -0.352 N 
ATOM      5  O   UNL A   1      42.057  18.687  25.932  1.00  0.00    -0.269 OA
ATOM      6  C   UNL A   1      41.189  19.549  26.065  1.00  0.00     0.251 C 
ATOM      7  H   UNL A   1      39.732  18.316  25.476  1.00  0.00     0.163 HD
BRANCH   6   8
ATOM      8  C   UNL A   1      41.574  20.892  26.568  1.00  0.00     0.039 A 
ATOM      9  C   UNL A   1      41.986  21.916  25.712  1.00  0.00     0.014 A 
ATOM     10  C   UNL A   1      41.457  21.149  27.940  1.00  0.00     0.014 A 
ATOM     11  C   UNL A   1      42.382  23.149  26.233  1.00  0.00     0.010 A 
ATOM     12  C   UNL A   1      41.793  22.405  28.457  1.00  0.00     0.010 A 
ATOM     13  C   UNL A   1      42.283  23.408  27.609  1.00  0.00    -0.014 A 
BRANCH  13  14
ATOM     14  C   UNL A   1      42.641  24.751  28.130  1.00  0.00     0.031 A 
ATOM     15  C   UNL A   1      41.593  25.801  28.362  1.00  0.00     0.074 A 
ATOM     16  C   UNL A   1      43.928  25.015  28.425  1.00  0.00     0.049 A 
ATOM     17  N   UNL A   1      41.731  27.006  28.859  1.00  0.00    -0.248 NA
ATOM     18  C   UNL A   1      40.212  25.462  27.985  1.00  0.00     0.031 C 
ATOM     19  C   UNL A   1      45.046  24.091  28.224  1.00  0.00     0.029 A 
ATOM     20  N   UNL A   1      44.510  26.127  28.978  1.00  0.00    -0.354 N 
ATOM     21  C   UNL A   1      40.466  27.576  28.833  1.00  0.00     0.074 A 
ATOM     22  C   UNL A   1      39.572  26.589  28.263  1.00  0.00     0.031 C 
ATOM     23  C   UNL A   1      46.169  24.653  28.697  1.00  0.00     0.029 A 
ATOM     24  C   UNL A   1      45.857  25.986  29.202  1.00  0.00     0.049 A 
ATOM     25  H   UNL A   1      44.010  26.948  29.192  1.00  0.00     0.167 HD
ATOM     26  C   UNL A   1      40.084  28.806  29.251  1.00  0.00     0.037 A 
ATOM     27  C   UNL A   1      46.742  26.830  29.760  1.00  0.00     0.037 A 
ATOM     28  C   UNL A   1      40.958  29.781  29.847  1.00  0.00     0.049 A 
ATOM     29  C   UNL A   1      46.289  28.177  30.235  1.00  0.00     0.074 A 
ATOM     30  C   UNL A   1      40.642  31.035  30.343  1.00  0.00     0.029 A 
ATOM     31  N   UNL A   1      42.320  29.609  30.032  1.00  0.00    -0.354 N 
ATOM     32  N   UNL A   1      45.084  28.691  30.225  1.00  0.00    -0.248 NA
ATOM     33  C   UNL A   1      47.320  29.065  30.789  1.00  0.00     0.031 C 
ATOM     34  C   UNL A   1      41.819  31.631  30.812  1.00  0.00     0.029 A 
ATOM     35  C   UNL A   1      42.862  30.739  30.623  1.00  0.00     0.049 A 
ATOM     36  H   UNL A   1      42.827  28.803  29.781  1.00  0.00     0.167 HD
ATOM     37  C   UNL A   1      45.210  29.961  30.766  1.00  0.00     0.074 A 
ATOM     38  C   UNL A   1      46.606  30.135  31.112  1.00  0.00     0.031 C 
ATOM     39  C   UNL A   1      44.254  30.901  30.951  1.00  0.00     0.037 A 
BRANCH  26  40
ATOM     40  C   UNL A   1      38.644  29.173  29.069  1.00  0.00     0.057 A 
ATOM     41  C   UNL A   1      37.737  29.130  30.134  1.00  0.00     0.134 A 
ATOM     42  C   UNL A   1      38.170  29.611  27.827  1.00  0.00     0.134 A 
ATOM     43  F   UNL A   1      38.130  28.710  31.345  1.00  0.00    -0.206 F 
ATOM     44  C   UNL A   1      36.401  29.501  29.966  1.00  0.00     0.040 A 
ATOM     45  C   UNL A   1      36.840  29.995  27.649  1.00  0.00     0.040 A 
ATOM     46  F   UNL A   1      38.994  29.676  26.769  1.00  0.00    -0.206 F 
ATOM     47  C   UNL A   1      35.952  29.939  28.721  1.00  0.00     0.006 A 
ENDBRANCH  26  40
BRANCH  27  48
ATOM     48  C   UNL A   1      48.151  26.407  29.918  1.00  0.00     0.057 A 
ATOM     49  C   UNL A   1      48.574  25.750  31.077  1.00  0.00     0.134 A 
ATOM     50  C   UNL A   1      49.092  26.618  28.905  1.00  0.00     0.134 A 
ATOM     51  F   UNL A   1      47.714  25.534  32.083  1.00  0.00    -0.206 F 
ATOM     52  C   UNL A   1      49.892  25.315  31.226  1.00  0.00     0.040 A 
ATOM     53  C   UNL A   1      50.409  26.178  29.035  1.00  0.00     0.040 A 
ATOM     54  F   UNL A   1      48.738  27.241  27.771  1.00  0.00    -0.206 F 
ATOM     55  C   UNL A   1      50.811  25.524  30.199  1.00  0.00     0.006 A 
ENDBRANCH  27  48
BRANCH  39  56
ATOM     56  C   UNL A   1      44.692  32.201  31.546  1.00  0.00     0.057 A 
ATOM     57  C   UNL A   1      44.707  32.396  32.932  1.00  0.00     0.134 A 
ATOM     58  C   UNL A   1      45.119  33.258  30.734  1.00  0.00     0.134 A 
ATOM     59  F   UNL A   1      44.295  31.423  33.759  1.00  0.00    -0.206 F 
ATOM     60  C   UNL A   1      45.120  33.605  33.492  1.00  0.00     0.040 A 
ATOM     61  C   UNL A   1      45.546  34.468  31.282  1.00  0.00     0.040 A 
ATOM     62  F   UNL A   1      45.126  33.130  29.399  1.00  0.00    -0.206 F 
ATOM     63  C   UNL A   1      45.544  34.644  32.666  1.00  0.00     0.006 A 
ENDBRANCH  39  56
ENDBRANCH  13  14
ENDBRANCH   6   8
ENDBRANCH   3   4
ENDBRANCH   2   3
ENDBRANCH   1   2
BRANCH   1  64
ATOM     64  C   UNL A   1      36.293  21.735  24.519  1.00  0.00     0.002 C 
BRANCH  64  65
ATOM     65  C   UNL A   1      36.053  22.768  25.629  1.00  0.00     0.021 C 
BRANCH  65  66
ATOM     66  C   UNL A   1      35.317  24.046  25.218  1.00  0.00     0.116 C 
BRANCH  66  67
ATOM     67  N   UNL A   1      34.116  24.281  25.998  1.00  0.00    -0.352 N 
ATOM     68  C   UNL A   1      32.909  23.638  25.936  1.00  0.00     0.253 C 
ATOM     69  H   UNL A   1      34.179  25.005  26.664  1.00  0.00     0.163 HD
ATOM     70  O   UNL A   1      32.015  23.923  26.728  1.00  0.00    -0.269 OA
BRANCH  68  71
ATOM     71  C   UNL A   1      32.645  22.621  24.908  1.00  0.00     0.065 A 
ATOM     72  C   UNL A   1      32.590  21.284  25.333  1.00  0.00     0.016 A 
ATOM     73  C   UNL A   1      32.510  22.934  23.553  1.00  0.00     0.076 A 
ATOM     74  C   UNL A   1      32.371  20.258  24.411  1.00  0.00     0.001 A 
ATOM     75  C   UNL A   1      32.305  21.887  22.641  1.00  0.00     0.029 A 
ATOM     76  C   UNL A   1      32.236  20.559  23.060  1.00  0.00     0.002 A 
BRANCH  73  77
ATOM     77  N   UNL A   1      32.379  24.209  23.012  1.00  0.00    -0.255 NA
ATOM     78  C   UNL A   1      31.285  24.898  23.003  1.00  0.00     0.127 C 
BRANCH  78  79
ATOM     79  C   UNL A   1      31.443  26.296  22.532  1.00  0.00     0.076 A 
ATOM     80  C   UNL A   1      30.398  27.037  22.950  1.00  0.00     0.209 A 
ATOM     81  C   UNL A   1      32.762  26.949  22.737  1.00  0.00     0.201 A 
ATOM     82  O   UNL A   1      30.539  28.222  23.668  1.00  0.00    -0.463 OA
ATOM     83  C   UNL A   1      32.849  27.652  24.022  1.00  0.00     0.065 A 
ATOM     84  O   UNL A   1      33.705  26.820  21.973  1.00  0.00    -0.288 OA
ATOM     85  C   UNL A   1      31.665  28.242  24.470  1.00  0.00     0.137 A 
ATOM     86  C   UNL A   1      33.968  27.538  24.844  1.00  0.00     0.016 A 
ATOM     87  C   UNL A   1      31.589  28.740  25.764  1.00  0.00     0.048 A 
ATOM     88  C   UNL A   1      33.878  28.004  26.154  1.00  0.00     0.001 A 
ATOM     89  C   UNL A   1      32.694  28.600  26.612  1.00  0.00     0.004 A 
ENDBRANCH  78  79
ENDBRANCH  73  77
ENDBRANCH  68  71
ENDBRANCH  66  67
ENDBRANCH  65  66
ENDBRANCH  64  65
ENDBRANCH   1  64
TORSDOF 15
ENDMDL
