MODEL 1
REMARK VINA RESULT:     -11.2      0.000      0.000
REMARK SMILES C[C@H](C(=O)NCCCCCCNC(=O)c1ccc(-c2c3nc(c(-c4c(F)cccc4F)c4ccc([nH]4)c(-c4c(F)cccc4F)c4nc(c(-c5c(F)cccc5F)c5ccc2[nH]5)C=C4)C=C3)cc1)c1ccc(C[C@@H]2CCC[C@H]2O)cc1
REMARK SMILES IDX 7 1 6 2 5 3 3 4 4 5 2 7 1 8 69 9 70 10 81 11 71 12 80 13
REMARK SMILES IDX 72 14 73 15 74 16 75 17 78 18 76 19 77 20 79 21 8 23 9 24
REMARK SMILES IDX 10 25 11 26 12 27 13 28 14 30 15 31 16 32 68 33 17 34 67 35
REMARK SMILES IDX 18 36 19 37 20 38 61 39 21 40 66 41 60 42 62 43 22 44 65 45
REMARK SMILES IDX 59 46 58 47 23 49 49 50 32 51 48 52 33 53 36 54 47 55 63 56
REMARK SMILES IDX 34 57 35 58 46 60 64 61 37 62 24 63 25 64 30 65 26 66 27 67
REMARK SMILES IDX 29 68 31 69 28 70 50 71 51 72 56 73 52 74 53 75 55 76 57 77
REMARK SMILES IDX 54 78 38 79 39 80 44 81 40 82 41 83 43 84 45 85 42 86
REMARK H PARENT 5 6 79 22 12 29 62 48 36 59
REMARK Flexibility Score: inf
ROOT
ATOM      1  C   UNL A   1      34.640  24.739  24.506  1.00  0.00     0.021 C 
ENDROOT
BRANCH   1   2
ATOM      2  C   UNL A   1      33.779  23.517  24.807  1.00  0.00     0.116 C 
BRANCH   2   3
ATOM      3  N   UNL A   1      33.487  23.371  26.221  1.00  0.00    -0.356 N 
ATOM      4  C   UNL A   1      32.281  23.200  26.850  1.00  0.00     0.227 C 
ATOM      5  O   UNL A   1      32.331  22.879  28.038  1.00  0.00    -0.274 OA
ATOM      6  H   UNL A   1      34.271  23.400  26.817  1.00  0.00     0.163 HD
BRANCH   4   7
ATOM      7  C   UNL A   1      30.991  23.384  26.040  1.00  0.00     0.105 C 
ATOM      8  C   UNL A   1      29.801  23.011  26.944  1.00  0.00     0.023 C 
BRANCH   7   9
ATOM      9  C   UNL A   1      30.737  24.737  25.366  1.00  0.00    -0.036 A 
ATOM     10  C   UNL A   1      30.768  25.899  26.160  1.00  0.00     0.005 A 
ATOM     11  C   UNL A   1      30.459  24.903  24.003  1.00  0.00     0.005 A 
ATOM     12  C   UNL A   1      30.606  27.170  25.608  1.00  0.00     0.004 A 
ATOM     13  C   UNL A   1      30.274  26.178  23.450  1.00  0.00     0.004 A 
ATOM     14  C   UNL A   1      30.342  27.325  24.247  1.00  0.00    -0.048 A 
BRANCH  14  15
ATOM     15  C   UNL A   1      30.110  28.689  23.653  1.00  0.00     0.041 C 
BRANCH  15  16
ATOM     16  C   UNL A   1      28.872  28.869  22.749  1.00  0.00     0.022 C 
ATOM     17  C   UNL A   1      29.018  29.955  21.675  1.00  0.00     0.007 C 
ATOM     18  C   UNL A   1      27.587  29.259  23.485  1.00  0.00     0.117 C 
ATOM     19  C   UNL A   1      28.276  31.192  22.183  1.00  0.00     0.003 C 
ATOM     20  C   UNL A   1      27.541  30.782  23.458  1.00  0.00     0.032 C 
BRANCH  18  21
ATOM     21  O   UNL A   1      26.458  28.745  22.774  1.00  0.00    -0.393 OA
ATOM     22  H   UNL A   1      25.695  29.328  22.912  1.00  0.00     0.210 HD
ENDBRANCH  18  21
ENDBRANCH  15  16
ENDBRANCH  14  15
ENDBRANCH   7   9
ENDBRANCH   4   7
ENDBRANCH   2   3
ENDBRANCH   1   2
BRANCH   1  23
ATOM     23  C   UNL A   1      34.101  26.070  25.044  1.00  0.00     0.002 C 
BRANCH  23  24
ATOM     24  C   UNL A   1      33.962  27.197  24.016  1.00  0.00     0.002 C 
BRANCH  24  25
ATOM     25  C   UNL A   1      33.792  28.603  24.595  1.00  0.00     0.021 C 
BRANCH  25  26
ATOM     26  C   UNL A   1      33.956  28.709  26.107  1.00  0.00     0.116 C 
BRANCH  26  27
ATOM     27  N   UNL A   1      33.798  30.067  26.598  1.00  0.00    -0.352 N 
ATOM     28  C   UNL A   1      34.559  30.760  27.502  1.00  0.00     0.251 C 
ATOM     29  H   UNL A   1      33.033  30.560  26.227  1.00  0.00     0.163 HD
ATOM     30  O   UNL A   1      34.185  31.867  27.895  1.00  0.00    -0.269 OA
BRANCH  28  31
ATOM     31  C   UNL A   1      35.809  30.179  28.034  1.00  0.00     0.039 A 
ATOM     32  C   UNL A   1      36.965  30.256  27.252  1.00  0.00     0.014 A 
ATOM     33  C   UNL A   1      35.850  29.544  29.279  1.00  0.00     0.014 A 
ATOM     34  C   UNL A   1      38.168  29.746  27.739  1.00  0.00     0.010 A 
ATOM     35  C   UNL A   1      37.067  29.099  29.795  1.00  0.00     0.010 A 
ATOM     36  C   UNL A   1      38.237  29.190  29.027  1.00  0.00    -0.014 A 
BRANCH  36  37
ATOM     37  C   UNL A   1      39.533  28.711  29.572  1.00  0.00     0.031 A 
ATOM     38  C   UNL A   1      40.163  29.386  30.757  1.00  0.00     0.074 A 
ATOM     39  C   UNL A   1      40.154  27.673  28.977  1.00  0.00     0.049 A 
ATOM     40  N   UNL A   1      41.282  29.096  31.374  1.00  0.00    -0.248 NA
ATOM     41  C   UNL A   1      39.459  30.553  31.312  1.00  0.00     0.031 C 
ATOM     42  C   UNL A   1      39.675  26.972  27.784  1.00  0.00     0.029 A 
ATOM     43  N   UNL A   1      41.321  27.026  29.296  1.00  0.00    -0.354 N 
ATOM     44  C   UNL A   1      41.409  30.036  32.389  1.00  0.00     0.074 A 
ATOM     45  C   UNL A   1      40.291  30.945  32.265  1.00  0.00     0.031 C 
ATOM     46  C   UNL A   1      40.526  25.976  27.487  1.00  0.00     0.029 A 
ATOM     47  C   UNL A   1      41.621  25.985  28.451  1.00  0.00     0.049 A 
ATOM     48  H   UNL A   1      41.888  27.282  30.059  1.00  0.00     0.167 HD
ATOM     49  C   UNL A   1      42.356  30.116  33.355  1.00  0.00     0.037 A 
ATOM     50  C   UNL A   1      42.662  25.132  28.454  1.00  0.00     0.037 A 
ATOM     51  C   UNL A   1      43.465  29.206  33.482  1.00  0.00     0.049 A 
ATOM     52  C   UNL A   1      43.696  25.239  29.541  1.00  0.00     0.074 A 
ATOM     53  C   UNL A   1      44.460  29.188  34.445  1.00  0.00     0.029 A 
ATOM     54  N   UNL A   1      43.724  28.152  32.620  1.00  0.00    -0.354 N 
ATOM     55  N   UNL A   1      43.768  26.095  30.532  1.00  0.00    -0.248 NA
ATOM     56  C   UNL A   1      44.785  24.253  29.519  1.00  0.00     0.031 C 
ATOM     57  C   UNL A   1      45.340  28.142  34.145  1.00  0.00     0.029 A 
ATOM     58  C   UNL A   1      44.868  27.482  33.022  1.00  0.00     0.049 A 
ATOM     59  H   UNL A   1      43.175  27.913  31.839  1.00  0.00     0.167 HD
ATOM     60  C   UNL A   1      44.894  25.739  31.261  1.00  0.00     0.074 A 
ATOM     61  C   UNL A   1      45.459  24.573  30.613  1.00  0.00     0.031 C 
ATOM     62  C   UNL A   1      45.418  26.325  32.365  1.00  0.00     0.037 A 
BRANCH  49  63
ATOM     63  C   UNL A   1      42.221  31.218  34.365  1.00  0.00     0.057 A 
ATOM     64  C   UNL A   1      41.448  31.058  35.524  1.00  0.00     0.134 A 
ATOM     65  C   UNL A   1      42.899  32.432  34.205  1.00  0.00     0.134 A 
ATOM     66  F   UNL A   1      40.763  29.924  35.733  1.00  0.00    -0.206 F 
ATOM     67  C   UNL A   1      41.340  32.073  36.476  1.00  0.00     0.040 A 
ATOM     68  C   UNL A   1      42.819  33.445  35.164  1.00  0.00     0.040 A 
ATOM     69  F   UNL A   1      43.659  32.650  33.122  1.00  0.00    -0.206 F 
ATOM     70  C   UNL A   1      42.034  33.268  36.300  1.00  0.00     0.006 A 
ENDBRANCH  49  63
BRANCH  50  71
ATOM     71  C   UNL A   1      42.772  24.086  27.406  1.00  0.00     0.057 A 
ATOM     72  C   UNL A   1      42.297  22.787  27.622  1.00  0.00     0.134 A 
ATOM     73  C   UNL A   1      43.371  24.356  26.170  1.00  0.00     0.134 A 
ATOM     74  F   UNL A   1      41.729  22.462  28.793  1.00  0.00    -0.206 F 
ATOM     75  C   UNL A   1      42.439  21.787  26.659  1.00  0.00     0.040 A 
ATOM     76  C   UNL A   1      43.494  23.373  25.187  1.00  0.00     0.040 A 
ATOM     77  F   UNL A   1      43.837  25.584  25.896  1.00  0.00    -0.206 F 
ATOM     78  C   UNL A   1      43.035  22.081  25.435  1.00  0.00     0.006 A 
ENDBRANCH  50  71
BRANCH  62  79
ATOM     79  C   UNL A   1      46.650  25.697  32.949  1.00  0.00     0.057 A 
ATOM     80  C   UNL A   1      47.935  26.065  32.530  1.00  0.00     0.134 A 
ATOM     81  C   UNL A   1      46.549  24.725  33.951  1.00  0.00     0.134 A 
ATOM     82  F   UNL A   1      48.100  26.981  31.564  1.00  0.00    -0.206 F 
ATOM     83  C   UNL A   1      49.076  25.464  33.065  1.00  0.00     0.040 A 
ATOM     84  C   UNL A   1      47.684  24.137  34.514  1.00  0.00     0.040 A 
ATOM     85  F   UNL A   1      45.349  24.335  34.405  1.00  0.00    -0.206 F 
ATOM     86  C   UNL A   1      48.951  24.500  34.064  1.00  0.00     0.006 A 
ENDBRANCH  62  79
ENDBRANCH  36  37
ENDBRANCH  28  31
ENDBRANCH  26  27
ENDBRANCH  25  26
ENDBRANCH  24  25
ENDBRANCH  23  24
ENDBRANCH   1  23
TORSDOF 17
ENDMDL
MODEL 2
REMARK VINA RESULT:     -11.2      3.890      8.717
REMARK SMILES C[C@H](C(=O)NCCCCCCNC(=O)c1ccc(-c2c3nc(c(-c4c(F)cccc4F)c4ccc([nH]4)c(-c4c(F)cccc4F)c4nc(c(-c5c(F)cccc5F)c5ccc2[nH]5)C=C4)C=C3)cc1)c1ccc(C[C@@H]2CCC[C@H]2O)cc1
REMARK SMILES IDX 7 1 6 2 5 3 3 4 4 5 2 7 1 8 69 9 70 10 81 11 71 12 80 13
REMARK SMILES IDX 72 14 73 15 74 16 75 17 78 18 76 19 77 20 79 21 8 23 9 24
REMARK SMILES IDX 10 25 11 26 12 27 13 28 14 30 15 31 16 32 68 33 17 34 67 35
REMARK SMILES IDX 18 36 19 37 20 38 61 39 21 40 66 41 60 42 62 43 22 44 65 45
REMARK SMILES IDX 59 46 58 47 23 49 49 50 32 51 48 52 33 53 36 54 47 55 63 56
REMARK SMILES IDX 34 57 35 58 46 60 64 61 37 62 24 63 25 64 30 65 26 66 27 67
REMARK SMILES IDX 29 68 31 69 28 70 50 71 51 72 56 73 52 74 53 75 55 76 57 77
REMARK SMILES IDX 54 78 38 79 39 80 44 81 40 82 41 83 43 84 45 85 42 86
REMARK H PARENT 5 6 79 22 12 29 62 48 36 59
REMARK Flexibility Score: inf
ROOT
ATOM      1  C   UNL A   1      36.610  23.245  24.980  1.00  0.00     0.021 C 
ENDROOT
BRANCH   1   2
ATOM      2  C   UNL A   1      35.466  24.251  24.924  1.00  0.00     0.116 C 
BRANCH   2   3
ATOM      3  N   UNL A   1      35.028  24.528  23.569  1.00  0.00    -0.356 N 
ATOM      4  C   UNL A   1      33.762  24.533  23.045  1.00  0.00     0.227 C 
ATOM      5  O   UNL A   1      33.642  25.018  21.920  1.00  0.00    -0.274 OA
ATOM      6  H   UNL A   1      35.747  24.745  22.931  1.00  0.00     0.163 HD
BRANCH   4   7
ATOM      7  C   UNL A   1      32.608  23.976  23.891  1.00  0.00     0.105 C 
ATOM      8  C   UNL A   1      31.287  24.286  23.163  1.00  0.00     0.023 C 
BRANCH   7   9
ATOM      9  C   UNL A   1      32.650  22.500  24.304  1.00  0.00    -0.036 A 
ATOM     10  C   UNL A   1      32.841  22.188  25.662  1.00  0.00     0.005 A 
ATOM     11  C   UNL A   1      32.526  21.425  23.414  1.00  0.00     0.005 A 
ATOM     12  C   UNL A   1      32.830  20.871  26.122  1.00  0.00     0.004 A 
ATOM     13  C   UNL A   1      32.537  20.100  23.870  1.00  0.00     0.004 A 
ATOM     14  C   UNL A   1      32.693  19.809  25.229  1.00  0.00    -0.048 A 
BRANCH  14  15
ATOM     15  C   UNL A   1      32.737  18.382  25.709  1.00  0.00     0.041 C 
BRANCH  15  16
ATOM     16  C   UNL A   1      32.863  17.276  24.640  1.00  0.00     0.022 C 
ATOM     17  C   UNL A   1      32.456  15.876  25.118  1.00  0.00     0.007 C 
ATOM     18  C   UNL A   1      34.276  17.073  24.085  1.00  0.00     0.117 C 
ATOM     19  C   UNL A   1      33.746  15.113  25.422  1.00  0.00     0.003 C 
ATOM     20  C   UNL A   1      34.906  15.987  24.949  1.00  0.00     0.032 C 
BRANCH  18  21
ATOM     21  O   UNL A   1      34.193  16.606  22.736  1.00  0.00    -0.393 OA
ATOM     22  H   UNL A   1      34.542  17.284  22.137  1.00  0.00     0.210 HD
ENDBRANCH  18  21
ENDBRANCH  15  16
ENDBRANCH  14  15
ENDBRANCH   7   9
ENDBRANCH   4   7
ENDBRANCH   2   3
ENDBRANCH   1   2
BRANCH   1  23
ATOM     23  C   UNL A   1      36.411  21.979  24.136  1.00  0.00     0.002 C 
BRANCH  23  24
ATOM     24  C   UNL A   1      36.330  20.664  24.916  1.00  0.00     0.002 C 
BRANCH  24  25
ATOM     25  C   UNL A   1      37.581  19.786  24.865  1.00  0.00     0.021 C 
BRANCH  25  26
ATOM     26  C   UNL A   1      38.779  20.314  25.647  1.00  0.00     0.116 C 
BRANCH  26  27
ATOM     27  N   UNL A   1      39.876  19.363  25.708  1.00  0.00    -0.352 N 
ATOM     28  C   UNL A   1      41.178  19.558  26.087  1.00  0.00     0.251 C 
ATOM     29  H   UNL A   1      39.651  18.445  25.437  1.00  0.00     0.163 HD
ATOM     30  O   UNL A   1      42.000  18.652  25.943  1.00  0.00    -0.269 OA
BRANCH  28  31
ATOM     31  C   UNL A   1      41.613  20.859  26.640  1.00  0.00     0.039 A 
ATOM     32  C   UNL A   1      42.105  21.825  25.758  1.00  0.00     0.014 A 
ATOM     33  C   UNL A   1      41.561  21.127  28.010  1.00  0.00     0.014 A 
ATOM     34  C   UNL A   1      42.493  23.073  26.243  1.00  0.00     0.010 A 
ATOM     35  C   UNL A   1      41.881  22.398  28.485  1.00  0.00     0.010 A 
ATOM     36  C   UNL A   1      42.356  23.382  27.606  1.00  0.00    -0.014 A 
BRANCH  36  37
ATOM     37  C   UNL A   1      42.704  24.735  28.110  1.00  0.00     0.031 A 
ATOM     38  C   UNL A   1      44.135  25.108  28.379  1.00  0.00     0.074 A 
ATOM     39  C   UNL A   1      41.719  25.625  28.344  1.00  0.00     0.049 A 
ATOM     40  N   UNL A   1      44.625  26.245  28.808  1.00  0.00    -0.248 NA
ATOM     41  C   UNL A   1      45.149  24.064  28.161  1.00  0.00     0.031 C 
ATOM     42  C   UNL A   1      40.288  25.364  28.180  1.00  0.00     0.029 A 
ATOM     43  N   UNL A   1      41.773  26.928  28.771  1.00  0.00    -0.354 N 
ATOM     44  C   UNL A   1      45.998  26.054  28.902  1.00  0.00     0.074 A 
ATOM     45  C   UNL A   1      46.257  24.675  28.551  1.00  0.00     0.031 C 
ATOM     46  C   UNL A   1      39.601  26.480  28.476  1.00  0.00     0.029 A 
ATOM     47  C   UNL A   1      40.539  27.523  28.875  1.00  0.00     0.049 A 
ATOM     48  H   UNL A   1      42.615  27.392  28.981  1.00  0.00     0.167 HD
ATOM     49  C   UNL A   1      46.958  26.955  29.223  1.00  0.00     0.037 A 
ATOM     50  C   UNL A   1      40.202  28.772  29.249  1.00  0.00     0.037 A 
ATOM     51  C   UNL A   1      46.700  28.329  29.564  1.00  0.00     0.049 A 
ATOM     52  C   UNL A   1      41.288  29.753  29.594  1.00  0.00     0.074 A 
ATOM     53  C   UNL A   1      47.609  29.326  29.875  1.00  0.00     0.029 A 
ATOM     54  N   UNL A   1      45.440  28.901  29.638  1.00  0.00    -0.354 N 
ATOM     55  N   UNL A   1      42.587  29.574  29.617  1.00  0.00    -0.248 NA
ATOM     56  C   UNL A   1      40.862  31.113  29.951  1.00  0.00     0.031 C 
ATOM     57  C   UNL A   1      46.896  30.493  30.171  1.00  0.00     0.029 A 
ATOM     58  C   UNL A   1      45.545  30.234  30.000  1.00  0.00     0.049 A 
ATOM     59  H   UNL A   1      44.595  28.430  29.459  1.00  0.00     0.167 HD
ATOM     60  C   UNL A   1      43.133  30.801  29.969  1.00  0.00     0.074 A 
ATOM     61  C   UNL A   1      42.025  31.722  30.124  1.00  0.00     0.031 C 
ATOM     62  C   UNL A   1      44.434  31.137  30.151  1.00  0.00     0.037 A 
BRANCH  49  63
ATOM     63  C   UNL A   1      48.383  26.482  29.198  1.00  0.00     0.057 A 
ATOM     64  C   UNL A   1      48.979  25.896  30.324  1.00  0.00     0.134 A 
ATOM     65  C   UNL A   1      49.154  26.571  28.033  1.00  0.00     0.134 A 
ATOM     66  F   UNL A   1      48.300  25.791  31.475  1.00  0.00    -0.206 F 
ATOM     67  C   UNL A   1      50.296  25.434  30.296  1.00  0.00     0.040 A 
ATOM     68  C   UNL A   1      50.464  26.089  27.986  1.00  0.00     0.040 A 
ATOM     69  F   UNL A   1      48.644  27.117  26.919  1.00  0.00    -0.206 F 
ATOM     70  C   UNL A   1      51.040  25.523  29.121  1.00  0.00     0.006 A 
ENDBRANCH  49  63
BRANCH  50  71
ATOM     71  C   UNL A   1      38.774  29.175  29.297  1.00  0.00     0.057 A 
ATOM     72  C   UNL A   1      38.028  29.072  30.477  1.00  0.00     0.134 A 
ATOM     73  C   UNL A   1      38.116  29.657  28.159  1.00  0.00     0.134 A 
ATOM     74  F   UNL A   1      38.598  28.600  31.596  1.00  0.00    -0.206 F 
ATOM     75  C   UNL A   1      36.673  29.405  30.518  1.00  0.00     0.040 A 
ATOM     76  C   UNL A   1      36.769  30.021  28.192  1.00  0.00     0.040 A 
ATOM     77  F   UNL A   1      38.777  29.791  27.000  1.00  0.00    -0.206 F 
ATOM     78  C   UNL A   1      36.042  29.885  29.373  1.00  0.00     0.006 A 
ENDBRANCH  50  71
BRANCH  62  79
ATOM     79  C   UNL A   1      44.723  32.562  30.518  1.00  0.00     0.057 A 
ATOM     80  C   UNL A   1      44.899  33.555  29.545  1.00  0.00     0.134 A 
ATOM     81  C   UNL A   1      44.813  32.950  31.861  1.00  0.00     0.134 A 
ATOM     82  F   UNL A   1      44.838  33.247  28.241  1.00  0.00    -0.206 F 
ATOM     83  C   UNL A   1      45.186  34.876  29.895  1.00  0.00     0.040 A 
ATOM     84  C   UNL A   1      45.071  34.273  32.223  1.00  0.00     0.040 A 
ATOM     85  F   UNL A   1      44.645  32.051  32.843  1.00  0.00    -0.206 F 
ATOM     86  C   UNL A   1      45.267  35.238  31.238  1.00  0.00     0.006 A 
ENDBRANCH  62  79
ENDBRANCH  36  37
ENDBRANCH  28  31
ENDBRANCH  26  27
ENDBRANCH  25  26
ENDBRANCH  24  25
ENDBRANCH  23  24
ENDBRANCH   1  23
TORSDOF 17
ENDMDL
MODEL 3
REMARK VINA RESULT:     -11.2      3.732      8.096
REMARK SMILES C[C@H](C(=O)NCCCCCCNC(=O)c1ccc(-c2c3nc(c(-c4c(F)cccc4F)c4ccc([nH]4)c(-c4c(F)cccc4F)c4nc(c(-c5c(F)cccc5F)c5ccc2[nH]5)C=C4)C=C3)cc1)c1ccc(C[C@@H]2CCC[C@H]2O)cc1
REMARK SMILES IDX 7 1 6 2 5 3 3 4 4 5 2 7 1 8 69 9 70 10 81 11 71 12 80 13
REMARK SMILES IDX 72 14 73 15 74 16 75 17 78 18 76 19 77 20 79 21 8 23 9 24
REMARK SMILES IDX 10 25 11 26 12 27 13 28 14 30 15 31 16 32 68 33 17 34 67 35
REMARK SMILES IDX 18 36 19 37 20 38 61 39 21 40 66 41 60 42 62 43 22 44 65 45
REMARK SMILES IDX 59 46 58 47 23 49 49 50 32 51 48 52 33 53 36 54 47 55 63 56
REMARK SMILES IDX 34 57 35 58 46 60 64 61 37 62 24 63 25 64 30 65 26 66 27 67
REMARK SMILES IDX 29 68 31 69 28 70 50 71 51 72 56 73 52 74 53 75 55 76 57 77
REMARK SMILES IDX 54 78 38 79 39 80 44 81 40 82 41 83 43 84 45 85 42 86
REMARK H PARENT 5 6 79 22 12 29 62 48 36 59
REMARK Flexibility Score: inf
ROOT
ATOM      1  C   UNL A   1      36.583  23.293  24.921  1.00  0.00     0.021 C 
ENDROOT
BRANCH   1   2
ATOM      2  C   UNL A   1      35.413  24.270  24.879  1.00  0.00     0.116 C 
BRANCH   2   3
ATOM      3  N   UNL A   1      34.969  24.556  23.527  1.00  0.00    -0.356 N 
ATOM      4  C   UNL A   1      33.700  24.571  23.011  1.00  0.00     0.227 C 
ATOM      5  O   UNL A   1      33.577  25.063  21.889  1.00  0.00    -0.274 OA
ATOM      6  H   UNL A   1      35.685  24.770  22.887  1.00  0.00     0.163 HD
BRANCH   4   7
ATOM      7  C   UNL A   1      32.547  24.019  23.861  1.00  0.00     0.105 C 
ATOM      8  C   UNL A   1      31.224  24.344  23.143  1.00  0.00     0.023 C 
BRANCH   7   9
ATOM      9  C   UNL A   1      32.579  22.541  24.264  1.00  0.00    -0.036 A 
ATOM     10  C   UNL A   1      32.736  22.219  25.625  1.00  0.00     0.005 A 
ATOM     11  C   UNL A   1      32.477  21.471  23.365  1.00  0.00     0.005 A 
ATOM     12  C   UNL A   1      32.715  20.899  26.076  1.00  0.00     0.004 A 
ATOM     13  C   UNL A   1      32.478  20.143  23.812  1.00  0.00     0.004 A 
ATOM     14  C   UNL A   1      32.600  19.843  25.173  1.00  0.00    -0.048 A 
BRANCH  14  15
ATOM     15  C   UNL A   1      32.633  18.413  25.644  1.00  0.00     0.041 C 
BRANCH  15  16
ATOM     16  C   UNL A   1      32.868  17.319  24.581  1.00  0.00     0.022 C 
ATOM     17  C   UNL A   1      32.750  15.883  25.106  1.00  0.00     0.007 C 
ATOM     18  C   UNL A   1      34.249  17.350  23.917  1.00  0.00     0.117 C 
ATOM     19  C   UNL A   1      34.173  15.362  25.314  1.00  0.00     0.003 C 
ATOM     20  C   UNL A   1      35.123  16.411  24.741  1.00  0.00     0.032 C 
BRANCH  18  21
ATOM     21  O   UNL A   1      34.146  16.843  22.584  1.00  0.00    -0.393 OA
ATOM     22  H   UNL A   1      34.281  15.882  22.592  1.00  0.00     0.210 HD
ENDBRANCH  18  21
ENDBRANCH  15  16
ENDBRANCH  14  15
ENDBRANCH   7   9
ENDBRANCH   4   7
ENDBRANCH   2   3
ENDBRANCH   1   2
BRANCH   1  23
ATOM     23  C   UNL A   1      36.384  21.997  24.125  1.00  0.00     0.002 C 
BRANCH  23  24
ATOM     24  C   UNL A   1      36.324  20.709  24.952  1.00  0.00     0.002 C 
BRANCH  24  25
ATOM     25  C   UNL A   1      37.568  19.821  24.883  1.00  0.00     0.021 C 
BRANCH  25  26
ATOM     26  C   UNL A   1      38.762  20.309  25.696  1.00  0.00     0.116 C 
BRANCH  26  27
ATOM     27  N   UNL A   1      39.852  19.348  25.729  1.00  0.00    -0.352 N 
ATOM     28  C   UNL A   1      41.164  19.531  26.077  1.00  0.00     0.251 C 
ATOM     29  H   UNL A   1      39.612  18.433  25.463  1.00  0.00     0.163 HD
ATOM     30  O   UNL A   1      41.975  18.618  25.912  1.00  0.00    -0.269 OA
BRANCH  28  31
ATOM     31  C   UNL A   1      41.624  20.827  26.619  1.00  0.00     0.039 A 
ATOM     32  C   UNL A   1      42.155  21.769  25.734  1.00  0.00     0.014 A 
ATOM     33  C   UNL A   1      41.556  21.115  27.986  1.00  0.00     0.014 A 
ATOM     34  C   UNL A   1      42.568  23.013  26.209  1.00  0.00     0.010 A 
ATOM     35  C   UNL A   1      41.902  22.384  28.450  1.00  0.00     0.010 A 
ATOM     36  C   UNL A   1      42.417  23.343  27.566  1.00  0.00    -0.014 A 
BRANCH  36  37
ATOM     37  C   UNL A   1      42.792  24.694  28.058  1.00  0.00     0.031 A 
ATOM     38  C   UNL A   1      41.747  25.756  28.252  1.00  0.00     0.074 A 
ATOM     39  C   UNL A   1      44.088  24.966  28.310  1.00  0.00     0.049 A 
ATOM     40  N   UNL A   1      41.890  26.985  28.685  1.00  0.00    -0.248 NA
ATOM     41  C   UNL A   1      40.364  25.405  27.894  1.00  0.00     0.031 C 
ATOM     42  C   UNL A   1      45.203  24.040  28.104  1.00  0.00     0.029 A 
ATOM     43  N   UNL A   1      44.686  26.102  28.796  1.00  0.00    -0.354 N 
ATOM     44  C   UNL A   1      40.620  27.546  28.658  1.00  0.00     0.074 A 
ATOM     45  C   UNL A   1      39.730  26.549  28.105  1.00  0.00     0.031 C 
ATOM     46  C   UNL A   1      46.345  24.634  28.485  1.00  0.00     0.029 A 
ATOM     47  C   UNL A   1      46.047  25.989  28.936  1.00  0.00     0.049 A 
ATOM     48  H   UNL A   1      44.186  26.919  29.022  1.00  0.00     0.167 HD
ATOM     49  C   UNL A   1      40.226  28.770  29.085  1.00  0.00     0.037 A 
ATOM     50  C   UNL A   1      46.955  26.878  29.382  1.00  0.00     0.037 A 
ATOM     51  C   UNL A   1      41.110  29.759  29.643  1.00  0.00     0.049 A 
ATOM     52  C   UNL A   1      46.489  28.228  29.854  1.00  0.00     0.074 A 
ATOM     53  C   UNL A   1      40.800  31.017  30.130  1.00  0.00     0.029 A 
ATOM     54  N   UNL A   1      42.480  29.600  29.789  1.00  0.00    -0.354 N 
ATOM     55  N   UNL A   1      45.274  28.720  29.882  1.00  0.00    -0.248 NA
ATOM     56  C   UNL A   1      47.519  29.140  30.371  1.00  0.00     0.031 C 
ATOM     57  C   UNL A   1      41.988  31.634  30.540  1.00  0.00     0.029 A 
ATOM     58  C   UNL A   1      43.031  30.741  30.350  1.00  0.00     0.049 A 
ATOM     59  H   UNL A   1      42.985  28.795  29.534  1.00  0.00     0.167 HD
ATOM     60  C   UNL A   1      45.391  29.987  30.436  1.00  0.00     0.074 A 
ATOM     61  C   UNL A   1      46.791  30.177  30.755  1.00  0.00     0.031 C 
ATOM     62  C   UNL A   1      44.426  30.914  30.659  1.00  0.00     0.037 A 
BRANCH  49  63
ATOM     63  C   UNL A   1      38.764  29.099  28.981  1.00  0.00     0.057 A 
ATOM     64  C   UNL A   1      37.919  29.037  30.098  1.00  0.00     0.134 A 
ATOM     65  C   UNL A   1      38.203  29.525  27.771  1.00  0.00     0.134 A 
ATOM     66  F   UNL A   1      38.390  28.626  31.285  1.00  0.00    -0.206 F 
ATOM     67  C   UNL A   1      36.566  29.366  30.009  1.00  0.00     0.040 A 
ATOM     68  C   UNL A   1      36.856  29.881  27.676  1.00  0.00     0.040 A 
ATOM     69  F   UNL A   1      38.957  29.612  26.665  1.00  0.00    -0.206 F 
ATOM     70  C   UNL A   1      36.033  29.797  28.796  1.00  0.00     0.006 A 
ENDBRANCH  49  63
BRANCH  50  71
ATOM     71  C   UNL A   1      48.395  26.517  29.424  1.00  0.00     0.057 A 
ATOM     72  C   UNL A   1      48.954  25.887  30.541  1.00  0.00     0.134 A 
ATOM     73  C   UNL A   1      49.248  26.809  28.353  1.00  0.00     0.134 A 
ATOM     74  F   UNL A   1      48.191  25.598  31.605  1.00  0.00    -0.206 F 
ATOM     75  C   UNL A   1      50.316  25.587  30.606  1.00  0.00     0.040 A 
ATOM     76  C   UNL A   1      50.606  26.489  28.393  1.00  0.00     0.040 A 
ATOM     77  F   UNL A   1      48.772  27.401  27.248  1.00  0.00    -0.206 F 
ATOM     78  C   UNL A   1      51.145  25.885  29.527  1.00  0.00     0.006 A 
ENDBRANCH  50  71
BRANCH  62  79
ATOM     79  C   UNL A   1      44.857  32.204  31.295  1.00  0.00     0.057 A 
ATOM     80  C   UNL A   1      45.248  33.310  30.531  1.00  0.00     0.134 A 
ATOM     81  C   UNL A   1      44.865  32.344  32.689  1.00  0.00     0.134 A 
ATOM     82  F   UNL A   1      45.274  33.236  29.191  1.00  0.00    -0.206 F 
ATOM     83  C   UNL A   1      45.664  34.500  31.130  1.00  0.00     0.040 A 
ATOM     84  C   UNL A   1      45.252  33.538  33.299  1.00  0.00     0.040 A 
ATOM     85  F   UNL A   1      44.492  31.326  33.479  1.00  0.00    -0.206 F 
ATOM     86  C   UNL A   1      45.661  34.618  32.519  1.00  0.00     0.006 A 
ENDBRANCH  62  79
ENDBRANCH  36  37
ENDBRANCH  28  31
ENDBRANCH  26  27
ENDBRANCH  25  26
ENDBRANCH  24  25
ENDBRANCH  23  24
ENDBRANCH   1  23
TORSDOF 17
ENDMDL
