MODEL 1
REMARK VINA RESULT:     -12.1      0.000      0.000
REMARK SMILES CC(=O)Nc1cccc(C(=O)N2CCCC[C@@H]2C(=O)NCCCCCCNC(=O)c2ccc(-c3c4nc(c(-c5c(F)cccc5F)c5ccc([nH]5)c(-c5c(F)cccc5F)c5nc(c(-c6c(F)cccc6F)c6ccc3[nH]6)C=C5)C=C4)cc2)c1
REMARK SMILES IDX 23 1 22 2 21 3 20 4 18 5 19 6 17 8 12 9 13 10 14 11 16 12
REMARK SMILES IDX 15 13 10 14 11 15 9 16 5 17 6 18 84 19 7 20 8 21 4 22 1 23
REMARK SMILES IDX 2 24 3 25 24 27 25 28 26 29 27 30 28 31 29 33 30 34 31 35
REMARK SMILES IDX 83 36 32 37 82 38 33 39 34 40 35 41 76 42 36 43 81 44 75 45
REMARK SMILES IDX 77 46 37 47 80 48 74 49 73 50 38 52 64 53 47 54 63 55 48 56
REMARK SMILES IDX 51 57 62 58 78 59 49 60 50 61 61 63 79 64 52 65 39 66 40 67
REMARK SMILES IDX 45 68 41 69 42 70 44 71 46 72 43 73 65 74 66 75 71 76 67 77
REMARK SMILES IDX 68 78 70 79 72 80 69 81 53 82 54 83 59 84 55 85 56 86 58 87
REMARK SMILES IDX 60 88 57 89
REMARK H PARENT 20 7 4 26 27 32 77 51 51 62
REMARK Flexibility Score: inf
ROOT
ATOM      1  C   UNL A   1      37.083  21.973  24.555  1.00  0.00     0.002 C 
ENDROOT
BRANCH   1   2
ATOM      2  C   UNL A   1      37.261  22.954  25.721  1.00  0.00     0.021 C 
BRANCH   2   3
ATOM      3  C   UNL A   1      36.186  24.036  25.780  1.00  0.00     0.116 C 
BRANCH   3   4
ATOM      4  N   UNL A   1      35.434  24.054  24.542  1.00  0.00    -0.354 N 
ATOM      5  C   UNL A   1      34.090  23.976  24.344  1.00  0.00     0.242 C 
ATOM      6  O   UNL A   1      33.688  23.735  23.203  1.00  0.00    -0.273 OA
ATOM      7  H   UNL A   1      35.974  24.132  23.722  1.00  0.00     0.163 HD
BRANCH   5   8
ATOM      8  C   UNL A   1      33.095  24.065  25.520  1.00  0.00     0.174 C 
ATOM      9  N   UNL A   1      32.609  22.771  26.077  1.00  0.00    -0.327 N 
ATOM     10  C   UNL A   1      31.472  22.867  26.989  1.00  0.00     0.120 C 
ATOM     11  C   UNL A   1      30.307  23.631  26.393  1.00  0.00     0.022 C 
ATOM     12  C   UNL A   1      31.930  24.962  25.026  1.00  0.00     0.035 C 
ATOM     13  C   UNL A   1      30.749  25.027  25.985  1.00  0.00     0.004 C 
BRANCH   9  14
ATOM     14  C   UNL A   1      33.304  21.552  26.145  1.00  0.00     0.254 C 
ATOM     15  O   UNL A   1      34.214  21.377  26.957  1.00  0.00    -0.269 OA
BRANCH  14  16
ATOM     16  C   UNL A   1      33.008  20.412  25.241  1.00  0.00     0.042 A 
ATOM     17  C   UNL A   1      32.656  18.037  24.879  1.00  0.00     0.041 A 
ATOM     18  C   UNL A   1      32.329  18.308  23.544  1.00  0.00     0.026 A 
ATOM     19  C   UNL A   1      32.976  19.099  25.720  1.00  0.00     0.040 A 
ATOM     20  C   UNL A   1      32.291  19.622  23.071  1.00  0.00     0.003 A 
ATOM     21  C   UNL A   1      32.631  20.674  23.919  1.00  0.00     0.014 A 
BRANCH  17  22
ATOM     22  N   UNL A   1      32.695  16.687  25.269  1.00  0.00    -0.326 N 
ATOM     23  C   UNL A   1      35.129  16.147  25.097  1.00  0.00     0.114 C 
ATOM     24  C   UNL A   1      33.689  15.752  25.270  1.00  0.00     0.221 C 
ATOM     25  O   UNL A   1      33.390  14.573  25.475  1.00  0.00    -0.275 OA
ATOM     26  H   UNL A   1      31.835  16.349  25.609  1.00  0.00     0.169 HD
ENDBRANCH  17  22
ENDBRANCH  14  16
ENDBRANCH   9  14
ENDBRANCH   5   8
ENDBRANCH   3   4
ENDBRANCH   2   3
ENDBRANCH   1   2
BRANCH   1  27
ATOM     27  C   UNL A   1      36.795  20.529  24.976  1.00  0.00     0.002 C 
BRANCH  27  28
ATOM     28  C   UNL A   1      38.005  19.594  24.917  1.00  0.00     0.021 C 
BRANCH  28  29
ATOM     29  C   UNL A   1      39.200  20.062  25.740  1.00  0.00     0.116 C 
BRANCH  29  30
ATOM     30  N   UNL A   1      40.211  19.024  25.864  1.00  0.00    -0.352 N 
ATOM     31  C   UNL A   1      41.553  19.155  26.107  1.00  0.00     0.251 C 
ATOM     32  H   UNL A   1      39.887  18.100  25.761  1.00  0.00     0.163 HD
ATOM     33  O   UNL A   1      42.304  18.190  25.982  1.00  0.00    -0.269 OA
BRANCH  31  34
ATOM     34  C   UNL A   1      42.098  20.468  26.504  1.00  0.00     0.039 A 
ATOM     35  C   UNL A   1      42.573  21.329  25.513  1.00  0.00     0.014 A 
ATOM     36  C   UNL A   1      42.135  20.847  27.848  1.00  0.00     0.014 A 
ATOM     37  C   UNL A   1      43.040  22.596  25.867  1.00  0.00     0.010 A 
ATOM     38  C   UNL A   1      42.533  22.135  28.192  1.00  0.00     0.010 A 
ATOM     39  C   UNL A   1      42.994  23.020  27.206  1.00  0.00    -0.014 A 
BRANCH  39  40
ATOM     40  C   UNL A   1      43.427  24.386  27.592  1.00  0.00     0.031 A 
ATOM     41  C   UNL A   1      42.406  25.426  27.960  1.00  0.00     0.074 A 
ATOM     42  C   UNL A   1      44.734  24.707  27.547  1.00  0.00     0.049 A 
ATOM     43  N   UNL A   1      42.582  26.687  28.260  1.00  0.00    -0.248 NA
ATOM     44  C   UNL A   1      40.996  25.000  27.965  1.00  0.00     0.031 C 
ATOM     45  C   UNL A   1      45.815  23.801  27.152  1.00  0.00     0.029 A 
ATOM     46  N   UNL A   1      45.375  25.889  27.821  1.00  0.00    -0.354 N 
ATOM     47  C   UNL A   1      41.311  27.208  28.471  1.00  0.00     0.074 A 
ATOM     48  C   UNL A   1      40.369  26.139  28.218  1.00  0.00     0.031 C 
ATOM     49  C   UNL A   1      46.986  24.455  27.226  1.00  0.00     0.029 A 
ATOM     50  C   UNL A   1      46.735  25.834  27.634  1.00  0.00     0.049 A 
ATOM     51  H   UNL A   1      44.905  26.700  28.122  1.00  0.00     0.167 HD
ATOM     52  C   UNL A   1      40.963  28.456  28.860  1.00  0.00     0.037 A 
ATOM     53  C   UNL A   1      47.674  26.791  27.767  1.00  0.00     0.037 A 
ATOM     54  C   UNL A   1      41.906  29.507  29.140  1.00  0.00     0.049 A 
ATOM     55  C   UNL A   1      47.260  28.167  28.207  1.00  0.00     0.074 A 
ATOM     56  C   UNL A   1      41.656  30.783  29.613  1.00  0.00     0.029 A 
ATOM     57  N   UNL A   1      43.278  29.404  28.969  1.00  0.00    -0.354 N 
ATOM     58  N   UNL A   1      46.061  28.622  28.482  1.00  0.00    -0.248 NA
ATOM     59  C   UNL A   1      48.330  29.163  28.364  1.00  0.00     0.031 C 
ATOM     60  C   UNL A   1      42.872  31.470  29.679  1.00  0.00     0.029 A 
ATOM     61  C   UNL A   1      43.885  30.604  29.301  1.00  0.00     0.049 A 
ATOM     62  H   UNL A   1      43.750  28.599  28.656  1.00  0.00     0.167 HD
ATOM     63  C   UNL A   1      46.237  29.945  28.872  1.00  0.00     0.074 A 
ATOM     64  C   UNL A   1      47.657  30.213  28.812  1.00  0.00     0.031 C 
ATOM     65  C   UNL A   1      45.303  30.854  29.244  1.00  0.00     0.037 A 
BRANCH  52  66
ATOM     66  C   UNL A   1      39.500  28.758  29.009  1.00  0.00     0.057 A 
ATOM     67  C   UNL A   1      38.832  28.606  30.232  1.00  0.00     0.134 A 
ATOM     68  C   UNL A   1      38.761  29.257  27.928  1.00  0.00     0.134 A 
ATOM     69  F   UNL A   1      39.478  28.122  31.304  1.00  0.00    -0.206 F 
ATOM     70  C   UNL A   1      37.479  28.917  30.368  1.00  0.00     0.040 A 
ATOM     71  C   UNL A   1      37.414  29.599  28.060  1.00  0.00     0.040 A 
ATOM     72  F   UNL A   1      39.339  29.434  26.732  1.00  0.00    -0.206 F 
ATOM     73  C   UNL A   1      36.767  29.424  29.282  1.00  0.00     0.006 A 
ENDBRANCH  52  66
BRANCH  53  74
ATOM     74  C   UNL A   1      49.099  26.479  27.489  1.00  0.00     0.057 A 
ATOM     75  C   UNL A   1      49.935  25.959  28.483  1.00  0.00     0.134 A 
ATOM     76  C   UNL A   1      49.664  26.710  26.228  1.00  0.00     0.134 A 
ATOM     77  F   UNL A   1      49.457  25.733  29.716  1.00  0.00    -0.206 F 
ATOM     78  C   UNL A   1      51.286  25.703  28.244  1.00  0.00     0.040 A 
ATOM     79  C   UNL A   1      51.007  26.432  25.967  1.00  0.00     0.040 A 
ATOM     80  F   UNL A   1      48.915  27.199  25.229  1.00  0.00    -0.206 F 
ATOM     81  C   UNL A   1      51.824  25.936  26.980  1.00  0.00     0.006 A 
ENDBRANCH  53  74
BRANCH  65  82
ATOM     82  C   UNL A   1      45.792  32.212  29.653  1.00  0.00     0.057 A 
ATOM     83  C   UNL A   1      45.889  33.271  28.741  1.00  0.00     0.134 A 
ATOM     84  C   UNL A   1      46.130  32.474  30.988  1.00  0.00     0.134 A 
ATOM     85  F   UNL A   1      45.591  33.082  27.446  1.00  0.00    -0.206 F 
ATOM     86  C   UNL A   1      46.327  34.535  29.137  1.00  0.00     0.040 A 
ATOM     87  C   UNL A   1      46.542  33.742  31.401  1.00  0.00     0.040 A 
ATOM     88  F   UNL A   1      46.050  31.507  31.914  1.00  0.00    -0.206 F 
ATOM     89  C   UNL A   1      46.647  34.775  30.473  1.00  0.00     0.006 A 
ENDBRANCH  65  82
ENDBRANCH  39  40
ENDBRANCH  31  34
ENDBRANCH  29  30
ENDBRANCH  28  29
ENDBRANCH  27  28
ENDBRANCH   1  27
TORSDOF 16
ENDMDL
MODEL 2
REMARK VINA RESULT:     -11.9      1.326      6.307
REMARK SMILES CC(=O)Nc1cccc(C(=O)N2CCCC[C@@H]2C(=O)NCCCCCCNC(=O)c2ccc(-c3c4nc(c(-c5c(F)cccc5F)c5ccc([nH]5)c(-c5c(F)cccc5F)c5nc(c(-c6c(F)cccc6F)c6ccc3[nH]6)C=C5)C=C4)cc2)c1
REMARK SMILES IDX 23 1 22 2 21 3 20 4 18 5 19 6 17 8 12 9 13 10 14 11 16 12
REMARK SMILES IDX 15 13 10 14 11 15 9 16 5 17 6 18 84 19 7 20 8 21 4 22 1 23
REMARK SMILES IDX 2 24 3 25 24 27 25 28 26 29 27 30 28 31 29 33 30 34 31 35
REMARK SMILES IDX 83 36 32 37 82 38 33 39 34 40 35 41 76 42 36 43 81 44 75 45
REMARK SMILES IDX 77 46 37 47 80 48 74 49 73 50 38 52 64 53 47 54 63 55 48 56
REMARK SMILES IDX 51 57 62 58 78 59 49 60 50 61 61 63 79 64 52 65 39 66 40 67
REMARK SMILES IDX 45 68 41 69 42 70 44 71 46 72 43 73 65 74 66 75 71 76 67 77
REMARK SMILES IDX 68 78 70 79 72 80 69 81 53 82 54 83 59 84 55 85 56 86 58 87
REMARK SMILES IDX 60 88 57 89
REMARK H PARENT 20 7 4 26 27 32 77 51 51 62
REMARK Flexibility Score: inf
ROOT
ATOM      1  C   UNL A   1      38.616  22.232  25.941  1.00  0.00     0.002 C 
ENDROOT
BRANCH   1   2
ATOM      2  C   UNL A   1      37.945  23.611  25.965  1.00  0.00     0.021 C 
BRANCH   2   3
ATOM      3  C   UNL A   1      36.427  23.552  26.107  1.00  0.00     0.116 C 
BRANCH   3   4
ATOM      4  N   UNL A   1      35.800  23.796  24.823  1.00  0.00    -0.354 N 
ATOM      5  C   UNL A   1      34.483  23.933  24.515  1.00  0.00     0.242 C 
ATOM      6  O   UNL A   1      34.158  23.862  23.327  1.00  0.00    -0.273 OA
ATOM      7  H   UNL A   1      36.419  23.872  24.061  1.00  0.00     0.163 HD
BRANCH   5   8
ATOM      8  C   UNL A   1      33.406  24.053  25.613  1.00  0.00     0.174 C 
ATOM      9  N   UNL A   1      32.764  22.782  26.055  1.00  0.00    -0.327 N 
ATOM     10  C   UNL A   1      31.568  22.936  26.880  1.00  0.00     0.120 C 
ATOM     11  C   UNL A   1      30.527  23.833  26.239  1.00  0.00     0.022 C 
ATOM     12  C   UNL A   1      32.368  25.077  25.083  1.00  0.00     0.035 C 
ATOM     13  C   UNL A   1      31.122  25.202  25.949  1.00  0.00     0.004 C 
BRANCH   9  14
ATOM     14  C   UNL A   1      33.341  21.502  26.105  1.00  0.00     0.254 C 
ATOM     15  O   UNL A   1      34.192  21.216  26.950  1.00  0.00    -0.269 OA
BRANCH  14  16
ATOM     16  C   UNL A   1      32.988  20.427  25.144  1.00  0.00     0.042 A 
ATOM     17  C   UNL A   1      32.473  18.103  24.667  1.00  0.00     0.041 A 
ATOM     18  C   UNL A   1      32.203  18.454  23.339  1.00  0.00     0.026 A 
ATOM     19  C   UNL A   1      32.847  19.101  25.563  1.00  0.00     0.040 A 
ATOM     20  C   UNL A   1      32.275  19.786  22.924  1.00  0.00     0.003 A 
ATOM     21  C   UNL A   1      32.668  20.773  23.826  1.00  0.00     0.014 A 
BRANCH  17  22
ATOM     22  N   UNL A   1      32.402  16.739  24.998  1.00  0.00    -0.326 N 
ATOM     23  C   UNL A   1      34.811  16.077  25.073  1.00  0.00     0.114 C 
ATOM     24  C   UNL A   1      33.343  15.753  25.067  1.00  0.00     0.221 C 
ATOM     25  O   UNL A   1      32.966  14.583  25.183  1.00  0.00    -0.275 OA
ATOM     26  H   UNL A   1      31.493  16.434  25.224  1.00  0.00     0.169 HD
ENDBRANCH  17  22
ENDBRANCH  14  16
ENDBRANCH   9  14
ENDBRANCH   5   8
ENDBRANCH   3   4
ENDBRANCH   2   3
ENDBRANCH   1   2
BRANCH   1  27
ATOM     27  C   UNL A   1      37.903  21.193  25.071  1.00  0.00     0.002 C 
BRANCH  27  28
ATOM     28  C   UNL A   1      38.573  19.818  25.042  1.00  0.00     0.021 C 
BRANCH  28  29
ATOM     29  C   UNL A   1      39.452  19.522  26.252  1.00  0.00     0.116 C 
BRANCH  29  30
ATOM     30  N   UNL A   1      40.742  18.974  25.865  1.00  0.00    -0.352 N 
ATOM     31  C   UNL A   1      41.957  19.602  25.790  1.00  0.00     0.251 C 
ATOM     32  H   UNL A   1      40.743  18.019  25.624  1.00  0.00     0.163 HD
ATOM     33  O   UNL A   1      42.912  19.047  25.252  1.00  0.00    -0.269 OA
BRANCH  31  34
ATOM     34  C   UNL A   1      42.111  20.961  26.345  1.00  0.00     0.039 A 
ATOM     35  C   UNL A   1      42.025  21.141  27.727  1.00  0.00     0.014 A 
ATOM     36  C   UNL A   1      42.343  22.053  25.503  1.00  0.00     0.014 A 
ATOM     37  C   UNL A   1      42.223  22.411  28.271  1.00  0.00     0.010 A 
ATOM     38  C   UNL A   1      42.612  23.303  26.051  1.00  0.00     0.010 A 
ATOM     39  C   UNL A   1      42.549  23.496  27.439  1.00  0.00    -0.014 A 
BRANCH  39  40
ATOM     40  C   UNL A   1      42.826  24.839  28.006  1.00  0.00     0.031 A 
ATOM     41  C   UNL A   1      44.216  25.199  28.450  1.00  0.00     0.074 A 
ATOM     42  C   UNL A   1      41.812  25.709  28.181  1.00  0.00     0.049 A 
ATOM     43  N   UNL A   1      44.641  26.293  29.028  1.00  0.00    -0.248 NA
ATOM     44  C   UNL A   1      45.263  24.185  28.244  1.00  0.00     0.031 C 
ATOM     45  C   UNL A   1      40.411  25.455  27.839  1.00  0.00     0.029 A 
ATOM     46  N   UNL A   1      41.802  26.977  28.702  1.00  0.00    -0.354 N 
ATOM     47  C   UNL A   1      45.995  26.093  29.269  1.00  0.00     0.074 A 
ATOM     48  C   UNL A   1      46.311  24.755  28.820  1.00  0.00     0.031 C 
ATOM     49  C   UNL A   1      39.680  26.539  28.146  1.00  0.00     0.029 A 
ATOM     50  C   UNL A   1      40.553  27.548  28.739  1.00  0.00     0.049 A 
ATOM     51  H   UNL A   1      42.613  27.436  29.021  1.00  0.00     0.167 HD
ATOM     52  C   UNL A   1      46.895  26.953  29.798  1.00  0.00     0.037 A 
ATOM     53  C   UNL A   1      40.154  28.746  29.208  1.00  0.00     0.037 A 
ATOM     54  C   UNL A   1      46.582  28.295  30.215  1.00  0.00     0.049 A 
ATOM     55  C   UNL A   1      41.177  29.686  29.783  1.00  0.00     0.074 A 
ATOM     56  C   UNL A   1      47.440  29.270  30.692  1.00  0.00     0.029 A 
ATOM     57  N   UNL A   1      45.310  28.849  30.208  1.00  0.00    -0.354 N 
ATOM     58  N   UNL A   1      42.468  29.513  29.930  1.00  0.00    -0.248 NA
ATOM     59  C   UNL A   1      40.688  30.990  30.252  1.00  0.00     0.031 C 
ATOM     60  C   UNL A   1      46.680  30.397  31.023  1.00  0.00     0.029 A 
ATOM     61  C   UNL A   1      45.357  30.143  30.699  1.00  0.00     0.049 A 
ATOM     62  H   UNL A   1      44.496  28.389  29.901  1.00  0.00     0.167 HD
ATOM     63  C   UNL A   1      42.950  30.696  30.478  1.00  0.00     0.074 A 
ATOM     64  C   UNL A   1      41.815  31.582  30.624  1.00  0.00     0.031 C 
ATOM     65  C   UNL A   1      44.219  31.016  30.830  1.00  0.00     0.037 A 
BRANCH  52  66
ATOM     66  C   UNL A   1      48.310  26.475  29.955  1.00  0.00     0.057 A 
ATOM     67  C   UNL A   1      49.287  26.719  28.981  1.00  0.00     0.134 A 
ATOM     68  C   UNL A   1      48.711  25.806  31.119  1.00  0.00     0.134 A 
ATOM     69  F   UNL A   1      48.967  27.344  27.838  1.00  0.00    -0.206 F 
ATOM     70  C   UNL A   1      50.606  26.295  29.149  1.00  0.00     0.040 A 
ATOM     71  C   UNL A   1      50.034  25.404  31.311  1.00  0.00     0.040 A 
ATOM     72  F   UNL A   1      47.828  25.547  32.094  1.00  0.00    -0.206 F 
ATOM     73  C   UNL A   1      50.985  25.643  30.321  1.00  0.00     0.006 A 
ENDBRANCH  52  66
BRANCH  53  74
ATOM     74  C   UNL A   1      38.721  29.130  29.144  1.00  0.00     0.057 A 
ATOM     75  C   UNL A   1      38.148  29.601  27.957  1.00  0.00     0.134 A 
ATOM     76  C   UNL A   1      37.894  29.054  30.272  1.00  0.00     0.134 A 
ATOM     77  F   UNL A   1      38.892  29.714  26.848  1.00  0.00    -0.206 F 
ATOM     78  C   UNL A   1      36.813  30.004  27.898  1.00  0.00     0.040 A 
ATOM     79  C   UNL A   1      36.550  29.428  30.220  1.00  0.00     0.040 A 
ATOM     80  F   UNL A   1      38.380  28.604  31.439  1.00  0.00    -0.206 F 
ATOM     81  C   UNL A   1      36.009  29.914  29.033  1.00  0.00     0.006 A 
ENDBRANCH  53  74
BRANCH  65  82
ATOM     82  C   UNL A   1      44.454  32.396  31.372  1.00  0.00     0.057 A 
ATOM     83  C   UNL A   1      44.416  32.670  32.745  1.00  0.00     0.134 A 
ATOM     84  C   UNL A   1      44.763  33.455  30.508  1.00  0.00     0.134 A 
ATOM     85  F   UNL A   1      44.113  31.702  33.623  1.00  0.00    -0.206 F 
ATOM     86  C   UNL A   1      44.654  33.954  33.238  1.00  0.00     0.040 A 
ATOM     87  C   UNL A   1      45.032  34.736  30.992  1.00  0.00     0.040 A 
ATOM     88  F   UNL A   1      44.825  33.259  29.183  1.00  0.00    -0.206 F 
ATOM     89  C   UNL A   1      44.971  34.990  32.360  1.00  0.00     0.006 A 
ENDBRANCH  65  82
ENDBRANCH  39  40
ENDBRANCH  31  34
ENDBRANCH  29  30
ENDBRANCH  28  29
ENDBRANCH  27  28
ENDBRANCH   1  27
TORSDOF 16
ENDMDL
MODEL 3
REMARK VINA RESULT:     -11.9      5.918     11.008
REMARK SMILES CC(=O)Nc1cccc(C(=O)N2CCCC[C@@H]2C(=O)NCCCCCCNC(=O)c2ccc(-c3c4nc(c(-c5c(F)cccc5F)c5ccc([nH]5)c(-c5c(F)cccc5F)c5nc(c(-c6c(F)cccc6F)c6ccc3[nH]6)C=C5)C=C4)cc2)c1
REMARK SMILES IDX 23 1 22 2 21 3 20 4 18 5 19 6 17 8 12 9 13 10 14 11 16 12
REMARK SMILES IDX 15 13 10 14 11 15 9 16 5 17 6 18 84 19 7 20 8 21 4 22 1 23
REMARK SMILES IDX 2 24 3 25 24 27 25 28 26 29 27 30 28 31 29 33 30 34 31 35
REMARK SMILES IDX 83 36 32 37 82 38 33 39 34 40 35 41 76 42 36 43 81 44 75 45
REMARK SMILES IDX 77 46 37 47 80 48 74 49 73 50 38 52 64 53 47 54 63 55 48 56
REMARK SMILES IDX 51 57 62 58 78 59 49 60 50 61 61 63 79 64 52 65 39 66 40 67
REMARK SMILES IDX 45 68 41 69 42 70 44 71 46 72 43 73 65 74 66 75 71 76 67 77
REMARK SMILES IDX 68 78 70 79 72 80 69 81 53 82 54 83 59 84 55 85 56 86 58 87
REMARK SMILES IDX 60 88 57 89
REMARK H PARENT 20 7 4 26 27 32 77 51 51 62
REMARK Flexibility Score: inf
ROOT
ATOM      1  C   UNL A   1      33.031  30.225  26.174  1.00  0.00     0.002 C 
ENDROOT
BRANCH   1   2
ATOM      2  C   UNL A   1      33.544  29.130  27.116  1.00  0.00     0.021 C 
BRANCH   2   3
ATOM      3  C   UNL A   1      33.800  27.795  26.422  1.00  0.00     0.116 C 
BRANCH   3   4
ATOM      4  N   UNL A   1      32.587  27.001  26.415  1.00  0.00    -0.354 N 
ATOM      5  C   UNL A   1      32.026  26.287  25.402  1.00  0.00     0.242 C 
ATOM      6  O   UNL A   1      30.858  25.913  25.538  1.00  0.00    -0.273 OA
ATOM      7  H   UNL A   1      32.096  26.976  27.268  1.00  0.00     0.163 HD
BRANCH   5   8
ATOM      8  C   UNL A   1      32.773  26.046  24.074  1.00  0.00     0.174 C 
ATOM      9  N   UNL A   1      32.409  26.939  22.937  1.00  0.00    -0.327 N 
ATOM     10  C   UNL A   1      32.911  26.527  21.629  1.00  0.00     0.120 C 
ATOM     11  C   UNL A   1      32.546  25.096  21.286  1.00  0.00     0.022 C 
ATOM     12  C   UNL A   1      32.562  24.548  23.730  1.00  0.00     0.035 C 
ATOM     13  C   UNL A   1      33.075  24.151  22.353  1.00  0.00     0.004 C 
BRANCH   9  14
ATOM     14  C   UNL A   1      31.985  28.277  22.999  1.00  0.00     0.254 C 
ATOM     15  O   UNL A   1      32.783  29.193  23.205  1.00  0.00    -0.269 OA
BRANCH  14  16
ATOM     16  C   UNL A   1      30.563  28.674  22.845  1.00  0.00     0.042 A 
ATOM     17  C   UNL A   1      28.869  30.165  21.950  1.00  0.00     0.041 A 
ATOM     18  C   UNL A   1      27.878  29.322  22.469  1.00  0.00     0.026 A 
ATOM     19  C   UNL A   1      30.206  29.820  22.130  1.00  0.00     0.040 A 
ATOM     20  C   UNL A   1      28.221  28.138  23.127  1.00  0.00     0.003 A 
ATOM     21  C   UNL A   1      29.563  27.813  23.315  1.00  0.00     0.014 A 
BRANCH  17  22
ATOM     22  N   UNL A   1      28.441  31.349  21.323  1.00  0.00    -0.326 N 
ATOM     23  C   UNL A   1      28.778  33.058  23.116  1.00  0.00     0.114 C 
ATOM     24  C   UNL A   1      28.241  32.618  21.782  1.00  0.00     0.221 C 
ATOM     25  O   UNL A   1      27.657  33.424  21.053  1.00  0.00    -0.275 OA
ATOM     26  H   UNL A   1      28.247  31.240  20.364  1.00  0.00     0.169 HD
ENDBRANCH  17  22
ENDBRANCH  14  16
ENDBRANCH   9  14
ENDBRANCH   5   8
ENDBRANCH   3   4
ENDBRANCH   2   3
ENDBRANCH   1   2
BRANCH   1  27
ATOM     27  C   UNL A   1      31.581  30.653  26.424  1.00  0.00     0.002 C 
BRANCH  27  28
ATOM     28  C   UNL A   1      31.404  32.132  26.770  1.00  0.00     0.021 C 
BRANCH  28  29
ATOM     29  C   UNL A   1      32.677  32.821  27.251  1.00  0.00     0.116 C 
BRANCH  29  30
ATOM     30  N   UNL A   1      32.436  34.205  27.626  1.00  0.00    -0.352 N 
ATOM     31  C   UNL A   1      33.013  34.939  28.628  1.00  0.00     0.251 C 
ATOM     32  H   UNL A   1      31.766  34.682  27.083  1.00  0.00     0.163 HD
ATOM     33  O   UNL A   1      32.552  36.035  28.940  1.00  0.00    -0.269 OA
BRANCH  31  34
ATOM     34  C   UNL A   1      34.183  34.399  29.346  1.00  0.00     0.039 A 
ATOM     35  C   UNL A   1      33.994  33.801  30.594  1.00  0.00     0.014 A 
ATOM     36  C   UNL A   1      35.462  34.478  28.787  1.00  0.00     0.014 A 
ATOM     37  C   UNL A   1      35.083  33.237  31.260  1.00  0.00     0.010 A 
ATOM     38  C   UNL A   1      36.532  33.851  29.417  1.00  0.00     0.010 A 
ATOM     39  C   UNL A   1      36.355  33.230  30.662  1.00  0.00    -0.014 A 
BRANCH  39  40
ATOM     40  C   UNL A   1      37.510  32.577  31.327  1.00  0.00     0.031 A 
ATOM     41  C   UNL A   1      38.210  31.425  30.664  1.00  0.00     0.074 A 
ATOM     42  C   UNL A   1      37.885  32.982  32.556  1.00  0.00     0.049 A 
ATOM     43  N   UNL A   1      39.191  30.685  31.114  1.00  0.00    -0.248 NA
ATOM     44  C   UNL A   1      37.726  31.031  29.331  1.00  0.00     0.031 C 
ATOM     45  C   UNL A   1      37.249  34.054  33.326  1.00  0.00     0.029 A 
ATOM     46  N   UNL A   1      38.883  32.529  33.381  1.00  0.00    -0.354 N 
ATOM     47  C   UNL A   1      39.429  29.732  30.131  1.00  0.00     0.074 A 
ATOM     48  C   UNL A   1      38.458  29.955  29.082  1.00  0.00     0.031 C 
ATOM     49  C   UNL A   1      37.883  34.186  34.502  1.00  0.00     0.029 A 
ATOM     50  C   UNL A   1      38.942  33.186  34.586  1.00  0.00     0.049 A 
ATOM     51  H   UNL A   1      39.499  31.801  33.133  1.00  0.00     0.167 HD
ATOM     52  C   UNL A   1      40.383  28.773  30.097  1.00  0.00     0.037 A 
ATOM     53  C   UNL A   1      39.753  32.995  35.645  1.00  0.00     0.037 A 
ATOM     54  C   UNL A   1      41.366  28.574  31.130  1.00  0.00     0.049 A 
ATOM     55  C   UNL A   1      40.808  31.926  35.578  1.00  0.00     0.074 A 
ATOM     56  C   UNL A   1      42.421  27.679  31.153  1.00  0.00     0.029 A 
ATOM     57  N   UNL A   1      41.413  29.280  32.323  1.00  0.00    -0.354 N 
ATOM     58  N   UNL A   1      41.073  31.087  34.607  1.00  0.00    -0.248 NA
ATOM     59  C   UNL A   1      41.683  31.784  36.750  1.00  0.00     0.031 C 
ATOM     60  C   UNL A   1      43.075  27.806  32.382  1.00  0.00     0.029 A 
ATOM     61  C   UNL A   1      42.463  28.820  33.101  1.00  0.00     0.049 A 
ATOM     62  H   UNL A   1      40.792  29.999  32.579  1.00  0.00     0.167 HD
ATOM     63  C   UNL A   1      42.162  30.338  35.038  1.00  0.00     0.074 A 
ATOM     64  C   UNL A   1      42.515  30.833  36.352  1.00  0.00     0.031 C 
ATOM     65  C   UNL A   1      42.808  29.330  34.403  1.00  0.00     0.037 A 
BRANCH  52  66
ATOM     66  C   UNL A   1      40.414  27.861  28.905  1.00  0.00     0.057 A 
ATOM     67  C   UNL A   1      39.651  26.688  28.848  1.00  0.00     0.134 A 
ATOM     68  C   UNL A   1      41.180  28.188  27.778  1.00  0.00     0.134 A 
ATOM     69  F   UNL A   1      38.904  26.311  29.897  1.00  0.00    -0.206 F 
ATOM     70  C   UNL A   1      39.665  25.862  27.723  1.00  0.00     0.040 A 
ATOM     71  C   UNL A   1      41.179  27.385  26.636  1.00  0.00     0.040 A 
ATOM     72  F   UNL A   1      41.929  29.301  27.762  1.00  0.00    -0.206 F 
ATOM     73  C   UNL A   1      40.424  26.214  26.609  1.00  0.00     0.006 A 
ENDBRANCH  52  66
BRANCH  53  74
ATOM     74  C   UNL A   1      39.605  33.842  36.857  1.00  0.00     0.057 A 
ATOM     75  C   UNL A   1      38.815  33.432  37.936  1.00  0.00     0.134 A 
ATOM     76  C   UNL A   1      40.236  35.088  36.957  1.00  0.00     0.134 A 
ATOM     77  F   UNL A   1      38.171  32.256  37.893  1.00  0.00    -0.206 F 
ATOM     78  C   UNL A   1      38.636  34.238  39.061  1.00  0.00     0.040 A 
ATOM     79  C   UNL A   1      40.088  35.893  38.088  1.00  0.00     0.040 A 
ATOM     80  F   UNL A   1      41.014  35.536  35.960  1.00  0.00    -0.206 F 
ATOM     81  C   UNL A   1      39.279  35.473  39.140  1.00  0.00     0.006 A 
ENDBRANCH  53  74
BRANCH  65  82
ATOM     82  C   UNL A   1      43.987  28.721  35.104  1.00  0.00     0.057 A 
ATOM     83  C   UNL A   1      45.276  29.259  34.990  1.00  0.00     0.134 A 
ATOM     84  C   UNL A   1      43.822  27.606  35.936  1.00  0.00     0.134 A 
ATOM     85  F   UNL A   1      45.503  30.318  34.199  1.00  0.00    -0.206 F 
ATOM     86  C   UNL A   1      46.362  28.695  35.661  1.00  0.00     0.040 A 
ATOM     87  C   UNL A   1      44.895  27.052  36.635  1.00  0.00     0.040 A 
ATOM     88  F   UNL A   1      42.613  27.048  36.097  1.00  0.00    -0.206 F 
ATOM     89  C   UNL A   1      46.171  27.593  36.493  1.00  0.00     0.006 A 
ENDBRANCH  65  82
ENDBRANCH  39  40
ENDBRANCH  31  34
ENDBRANCH  29  30
ENDBRANCH  28  29
ENDBRANCH  27  28
ENDBRANCH   1  27
TORSDOF 16
ENDMDL
