MODEL 1
REMARK VINA RESULT:     -12.0      0.000      0.000
REMARK SMILES O=C(NCCCCCCNC(=O)c1ccc(-c2c3nc(c(-c4c(F)cccc4F)c4ccc([nH]4)c(-c4c(F)cccc4F)c4nc(c(-c5c(F)cccc5F)c5ccc2[nH]5)C=C4)C=C3)cc1)C1=Cc2cc(Cl)cc(Cl)c2O[C@@H]1C(F)(F)F
REMARK SMILES IDX 7 1 6 2 5 3 4 4 3 5 1 6 2 7 67 9 68 10 78 11 69 12 77 13
REMARK SMILES IDX 70 14 76 15 71 16 74 17 72 18 73 19 75 20 79 21 80 22 81 23
REMARK SMILES IDX 82 24 8 25 9 26 10 27 11 28 12 30 13 31 14 32 66 33 15 34
REMARK SMILES IDX 65 35 16 36 17 37 18 38 59 39 19 40 64 41 58 42 60 43 20 44
REMARK SMILES IDX 63 45 57 46 56 47 21 49 47 50 30 51 46 52 31 53 34 54 45 55
REMARK SMILES IDX 61 56 32 57 33 58 44 60 62 61 35 62 22 63 23 64 28 65 24 66
REMARK SMILES IDX 25 67 27 68 29 69 26 70 48 71 49 72 54 73 50 74 51 75 53 76
REMARK SMILES IDX 55 77 52 78 36 79 37 80 42 81 38 82 39 83 41 84 43 85 40 86
REMARK H PARENT 3 8 10 29 60 48 34 59
REMARK Flexibility Score: inf
ROOT
ATOM      1  C   UNL A   1      35.771  20.696  25.215  1.00  0.00     0.002 C 
ENDROOT
BRANCH   1   2
ATOM      2  C   UNL A   1      34.409  20.088  24.859  1.00  0.00     0.002 C 
BRANCH   2   3
ATOM      3  C   UNL A   1      33.251  20.392  25.807  1.00  0.00     0.021 C 
BRANCH   3   4
ATOM      4  C   UNL A   1      32.334  21.543  25.412  1.00  0.00     0.116 C 
BRANCH   4   5
ATOM      5  N   UNL A   1      31.270  21.849  26.349  1.00  0.00    -0.352 N 
ATOM      6  O   UNL A   1      29.730  23.089  27.408  1.00  0.00    -0.270 OA
ATOM      7  C   UNL A   1      30.730  23.058  26.692  1.00  0.00     0.251 C 
ATOM      8  H   UNL A   1      30.880  21.070  26.806  1.00  0.00     0.163 HD
BRANCH   7   9
ATOM      9  C   UNL A   1      31.250  24.352  26.157  1.00  0.00     0.067 C 
ATOM     10  C   UNL A   1      32.467  24.832  26.471  1.00  0.00     0.025 C 
ATOM     11  C   UNL A   1      30.663  24.700  24.808  1.00  0.00     0.314 C 
ATOM     12  C   UNL A   1      33.407  24.691  25.325  1.00  0.00     0.020 A 
ATOM     13  O   UNL A   1      31.585  24.356  23.739  1.00  0.00    -0.474 OA
ATOM     14  C   UNL A   1      34.777  24.622  25.608  1.00  0.00     0.032 A 
ATOM     15  C   UNL A   1      32.926  24.343  24.050  1.00  0.00     0.146 A 
ATOM     16  C   UNL A   1      35.648  24.106  24.651  1.00  0.00     0.043 A 
ATOM     17  C   UNL A   1      33.822  23.849  23.095  1.00  0.00     0.085 A 
ATOM     18  Cl  UNL A   1      37.296  23.837  25.065  1.00  0.00    -0.084 Cl
ATOM     19  C   UNL A   1      35.177  23.710  23.402  1.00  0.00     0.045 A 
ATOM     20  Cl  UNL A   1      33.268  23.270  21.565  1.00  0.00    -0.080 Cl
BRANCH  11  21
ATOM     21  C   UNL A   1      30.216  26.169  24.716  1.00  0.00     0.429 C 
ATOM     22  F   UNL A   1      28.911  26.268  24.371  1.00  0.00    -0.167 F 
ATOM     23  F   UNL A   1      30.363  26.811  25.899  1.00  0.00    -0.167 F 
ATOM     24  F   UNL A   1      30.928  26.864  23.797  1.00  0.00    -0.167 F 
ENDBRANCH  11  21
ENDBRANCH   7   9
ENDBRANCH   4   5
ENDBRANCH   3   4
ENDBRANCH   2   3
ENDBRANCH   1   2
BRANCH   1  25
ATOM     25  C   UNL A   1      37.008  19.824  24.972  1.00  0.00     0.021 C 
BRANCH  25  26
ATOM     26  C   UNL A   1      38.353  20.428  25.369  1.00  0.00     0.116 C 
BRANCH  26  27
ATOM     27  N   UNL A   1      39.405  19.437  25.503  1.00  0.00    -0.352 N 
ATOM     28  C   UNL A   1      40.694  19.565  25.959  1.00  0.00     0.251 C 
ATOM     29  H   UNL A   1      39.153  18.526  25.223  1.00  0.00     0.163 HD
ATOM     30  O   UNL A   1      41.465  18.615  25.867  1.00  0.00    -0.269 OA
BRANCH  28  31
ATOM     31  C   UNL A   1      41.173  20.840  26.539  1.00  0.00     0.039 A 
ATOM     32  C   UNL A   1      41.743  21.788  25.682  1.00  0.00     0.014 A 
ATOM     33  C   UNL A   1      41.106  21.097  27.910  1.00  0.00     0.014 A 
ATOM     34  C   UNL A   1      42.195  23.009  26.192  1.00  0.00     0.010 A 
ATOM     35  C   UNL A   1      41.489  22.343  28.406  1.00  0.00     0.010 A 
ATOM     36  C   UNL A   1      42.044  23.309  27.554  1.00  0.00    -0.014 A 
BRANCH  36  37
ATOM     37  C   UNL A   1      42.465  24.626  28.100  1.00  0.00     0.031 A 
ATOM     38  C   UNL A   1      41.450  25.715  28.326  1.00  0.00     0.074 A 
ATOM     39  C   UNL A   1      43.768  24.860  28.349  1.00  0.00     0.049 A 
ATOM     40  N   UNL A   1      41.633  26.942  28.746  1.00  0.00    -0.248 NA
ATOM     41  C   UNL A   1      40.049  25.392  28.015  1.00  0.00     0.031 C 
ATOM     42  C   UNL A   1      44.855  23.902  28.135  1.00  0.00     0.029 A 
ATOM     43  N   UNL A   1      44.403  25.980  28.827  1.00  0.00    -0.354 N 
ATOM     44  C   UNL A   1      40.378  27.538  28.735  1.00  0.00     0.074 A 
ATOM     45  C   UNL A   1      39.449  26.555  28.219  1.00  0.00     0.031 C 
ATOM     46  C   UNL A   1      46.016  24.465  28.505  1.00  0.00     0.029 A 
ATOM     47  C   UNL A   1      45.765  25.834  28.943  1.00  0.00     0.049 A 
ATOM     48  H   UNL A   1      43.928  26.808  29.065  1.00  0.00     0.167 HD
ATOM     49  C   UNL A   1      40.027  28.783  29.137  1.00  0.00     0.037 A 
ATOM     50  C   UNL A   1      46.706  26.709  29.346  1.00  0.00     0.037 A 
ATOM     51  C   UNL A   1      40.948  29.750  29.674  1.00  0.00     0.049 A 
ATOM     52  C   UNL A   1      46.291  28.090  29.774  1.00  0.00     0.074 A 
ATOM     53  C   UNL A   1      40.678  31.014  30.171  1.00  0.00     0.029 A 
ATOM     54  N   UNL A   1      42.318  29.563  29.781  1.00  0.00    -0.354 N 
ATOM     55  N   UNL A   1      45.090  28.614  29.826  1.00  0.00    -0.248 NA
ATOM     56  C   UNL A   1      47.362  29.001  30.203  1.00  0.00     0.031 C 
ATOM     57  C   UNL A   1      41.891  31.611  30.529  1.00  0.00     0.029 A 
ATOM     58  C   UNL A   1      42.911  30.699  30.308  1.00  0.00     0.049 A 
ATOM     59  H   UNL A   1      42.799  28.743  29.520  1.00  0.00     0.167 HD
ATOM     60  C   UNL A   1      45.257  29.900  30.324  1.00  0.00     0.074 A 
ATOM     61  C   UNL A   1      46.674  30.072  30.570  1.00  0.00     0.031 C 
ATOM     62  C   UNL A   1      44.321  30.852  30.557  1.00  0.00     0.037 A 
BRANCH  49  63
ATOM     63  C   UNL A   1      38.582  29.174  29.009  1.00  0.00     0.057 A 
ATOM     64  C   UNL A   1      37.702  29.126  30.098  1.00  0.00     0.134 A 
ATOM     65  C   UNL A   1      38.075  29.647  27.792  1.00  0.00     0.134 A 
ATOM     66  F   UNL A   1      38.119  28.674  31.291  1.00  0.00    -0.206 F 
ATOM     67  C   UNL A   1      36.364  29.506  29.974  1.00  0.00     0.040 A 
ATOM     68  C   UNL A   1      36.747  30.058  27.663  1.00  0.00     0.040 A 
ATOM     69  F   UNL A   1      38.864  29.727  26.710  1.00  0.00    -0.206 F 
ATOM     70  C   UNL A   1      35.886  29.981  28.755  1.00  0.00     0.006 A 
ENDBRANCH  49  63
BRANCH  50  71
ATOM     71  C   UNL A   1      48.134  26.304  29.387  1.00  0.00     0.057 A 
ATOM     72  C   UNL A   1      48.962  26.465  28.269  1.00  0.00     0.134 A 
ATOM     73  C   UNL A   1      48.703  25.733  30.531  1.00  0.00     0.134 A 
ATOM     74  F   UNL A   1      48.472  26.989  27.135  1.00  0.00    -0.206 F 
ATOM     75  C   UNL A   1      50.295  26.049  28.278  1.00  0.00     0.040 A 
ATOM     76  C   UNL A   1      50.041  25.338  30.564  1.00  0.00     0.040 A 
ATOM     77  F   UNL A   1      47.967  25.559  31.639  1.00  0.00    -0.206 F 
ATOM     78  C   UNL A   1      50.839  25.488  29.432  1.00  0.00     0.006 A 
ENDBRANCH  50  71
BRANCH  62  79
ATOM     79  C   UNL A   1      44.793  32.151  31.144  1.00  0.00     0.057 A 
ATOM     80  C   UNL A   1      45.160  33.240  30.342  1.00  0.00     0.134 A 
ATOM     81  C   UNL A   1      44.845  32.326  32.534  1.00  0.00     0.134 A 
ATOM     82  F   UNL A   1      45.146  33.133  29.005  1.00  0.00    -0.206 F 
ATOM     83  C   UNL A   1      45.584  34.446  30.900  1.00  0.00     0.040 A 
ATOM     84  C   UNL A   1      45.239  33.537  33.103  1.00  0.00     0.040 A 
ATOM     85  F   UNL A   1      44.497  31.328  33.360  1.00  0.00    -0.206 F 
ATOM     86  C   UNL A   1      45.617  34.600  32.285  1.00  0.00     0.006 A 
ENDBRANCH  62  79
ENDBRANCH  36  37
ENDBRANCH  28  31
ENDBRANCH  26  27
ENDBRANCH  25  26
ENDBRANCH   1  25
TORSDOF 14
ENDMDL
MODEL 2
REMARK VINA RESULT:     -12.0      2.344      7.019
REMARK SMILES O=C(NCCCCCCNC(=O)c1ccc(-c2c3nc(c(-c4c(F)cccc4F)c4ccc([nH]4)c(-c4c(F)cccc4F)c4nc(c(-c5c(F)cccc5F)c5ccc2[nH]5)C=C4)C=C3)cc1)C1=Cc2cc(Cl)cc(Cl)c2O[C@@H]1C(F)(F)F
REMARK SMILES IDX 7 1 6 2 5 3 4 4 3 5 1 6 2 7 67 9 68 10 78 11 69 12 77 13
REMARK SMILES IDX 70 14 76 15 71 16 74 17 72 18 73 19 75 20 79 21 80 22 81 23
REMARK SMILES IDX 82 24 8 25 9 26 10 27 11 28 12 30 13 31 14 32 66 33 15 34
REMARK SMILES IDX 65 35 16 36 17 37 18 38 59 39 19 40 64 41 58 42 60 43 20 44
REMARK SMILES IDX 63 45 57 46 56 47 21 49 47 50 30 51 46 52 31 53 34 54 45 55
REMARK SMILES IDX 61 56 32 57 33 58 44 60 62 61 35 62 22 63 23 64 28 65 24 66
REMARK SMILES IDX 25 67 27 68 29 69 26 70 48 71 49 72 54 73 50 74 51 75 53 76
REMARK SMILES IDX 55 77 52 78 36 79 37 80 42 81 38 82 39 83 41 84 43 85 40 86
REMARK H PARENT 3 8 10 29 60 48 34 59
REMARK Flexibility Score: inf
ROOT
ATOM      1  C   UNL A   1      33.232  27.237  24.975  1.00  0.00     0.002 C 
ENDROOT
BRANCH   1   2
ATOM      2  C   UNL A   1      31.733  26.936  24.851  1.00  0.00     0.002 C 
BRANCH   2   3
ATOM      3  C   UNL A   1      31.022  26.455  26.115  1.00  0.00     0.021 C 
BRANCH   3   4
ATOM      4  C   UNL A   1      30.426  25.054  26.066  1.00  0.00     0.116 C 
BRANCH   4   5
ATOM      5  N   UNL A   1      31.102  24.057  26.874  1.00  0.00    -0.352 N 
ATOM      6  O   UNL A   1      32.722  22.630  27.486  1.00  0.00    -0.270 OA
ATOM      7  C   UNL A   1      32.226  23.326  26.601  1.00  0.00     0.251 C 
ATOM      8  H   UNL A   1      30.689  23.880  27.750  1.00  0.00     0.163 HD
BRANCH   7   9
ATOM      9  C   UNL A   1      32.938  23.407  25.290  1.00  0.00     0.067 C 
ATOM     10  C   UNL A   1      34.140  23.993  25.150  1.00  0.00     0.025 C 
ATOM     11  C   UNL A   1      32.580  22.266  24.365  1.00  0.00     0.314 C 
ATOM     12  C   UNL A   1      35.212  22.976  24.970  1.00  0.00     0.020 A 
ATOM     13  O   UNL A   1      33.604  21.235  24.396  1.00  0.00    -0.474 OA
ATOM     14  C   UNL A   1      36.516  23.328  25.340  1.00  0.00     0.032 A 
ATOM     15  C   UNL A   1      34.881  21.632  24.722  1.00  0.00     0.146 A 
ATOM     16  C   UNL A   1      37.458  22.326  25.564  1.00  0.00     0.043 A 
ATOM     17  C   UNL A   1      35.849  20.643  24.930  1.00  0.00     0.085 A 
ATOM     18  Cl  UNL A   1      38.998  22.740  26.207  1.00  0.00    -0.084 Cl
ATOM     19  C   UNL A   1      37.128  20.986  25.372  1.00  0.00     0.045 A 
ATOM     20  Cl  UNL A   1      35.459  18.967  24.783  1.00  0.00    -0.080 Cl
BRANCH  11  21
ATOM     21  C   UNL A   1      32.295  22.734  22.928  1.00  0.00     0.429 C 
ATOM     22  F   UNL A   1      31.402  21.925  22.312  1.00  0.00    -0.167 F 
ATOM     23  F   UNL A   1      31.778  23.985  22.903  1.00  0.00    -0.167 F 
ATOM     24  F   UNL A   1      33.413  22.751  22.163  1.00  0.00    -0.167 F 
ENDBRANCH  11  21
ENDBRANCH   7   9
ENDBRANCH   4   5
ENDBRANCH   3   4
ENDBRANCH   2   3
ENDBRANCH   1   2
BRANCH   1  25
ATOM     25  C   UNL A   1      33.624  28.588  25.583  1.00  0.00     0.021 C 
BRANCH  25  26
ATOM     26  C   UNL A   1      33.942  28.594  27.077  1.00  0.00     0.116 C 
BRANCH  26  27
ATOM     27  N   UNL A   1      33.847  29.913  27.674  1.00  0.00    -0.352 N 
ATOM     28  C   UNL A   1      34.767  30.629  28.400  1.00  0.00     0.251 C 
ATOM     29  H   UNL A   1      32.984  30.369  27.536  1.00  0.00     0.163 HD
ATOM     30  O   UNL A   1      34.432  31.684  28.928  1.00  0.00    -0.269 OA
BRANCH  28  31
ATOM     31  C   UNL A   1      36.151  30.132  28.575  1.00  0.00     0.039 A 
ATOM     32  C   UNL A   1      37.030  30.215  27.490  1.00  0.00     0.014 A 
ATOM     33  C   UNL A   1      36.580  29.554  29.772  1.00  0.00     0.014 A 
ATOM     34  C   UNL A   1      38.348  29.768  27.622  1.00  0.00     0.010 A 
ATOM     35  C   UNL A   1      37.914  29.177  29.926  1.00  0.00     0.010 A 
ATOM     36  C   UNL A   1      38.810  29.274  28.851  1.00  0.00    -0.014 A 
BRANCH  36  37
ATOM     37  C   UNL A   1      40.225  28.850  29.025  1.00  0.00     0.031 A 
ATOM     38  C   UNL A   1      41.235  29.797  29.615  1.00  0.00     0.074 A 
ATOM     39  C   UNL A   1      40.613  27.630  28.606  1.00  0.00     0.049 A 
ATOM     40  N   UNL A   1      42.521  29.627  29.799  1.00  0.00    -0.248 NA
ATOM     41  C   UNL A   1      40.741  31.119  30.033  1.00  0.00     0.031 C 
ATOM     42  C   UNL A   1      39.740  26.634  27.981  1.00  0.00     0.029 A 
ATOM     43  N   UNL A   1      41.843  27.021  28.634  1.00  0.00    -0.354 N 
ATOM     44  C   UNL A   1      42.989  30.820  30.335  1.00  0.00     0.074 A 
ATOM     45  C   UNL A   1      41.860  31.723  30.403  1.00  0.00     0.031 C 
ATOM     46  C   UNL A   1      40.456  25.531  27.709  1.00  0.00     0.029 A 
ATOM     47  C   UNL A   1      41.844  25.754  28.101  1.00  0.00     0.049 A 
ATOM     48  H   UNL A   1      42.648  27.451  29.001  1.00  0.00     0.167 HD
ATOM     49  C   UNL A   1      44.239  31.129  30.754  1.00  0.00     0.037 A 
ATOM     50  C   UNL A   1      42.851  24.875  27.938  1.00  0.00     0.037 A 
ATOM     51  C   UNL A   1      45.355  30.219  30.710  1.00  0.00     0.049 A 
ATOM     52  C   UNL A   1      44.234  25.248  28.399  1.00  0.00     0.074 A 
ATOM     53  C   UNL A   1      46.645  30.415  31.172  1.00  0.00     0.029 A 
ATOM     54  N   UNL A   1      45.313  28.943  30.170  1.00  0.00    -0.354 N 
ATOM     55  N   UNL A   1      44.644  26.353  28.972  1.00  0.00    -0.248 NA
ATOM     56  C   UNL A   1      45.292  24.249  28.193  1.00  0.00     0.031 C 
ATOM     57  C   UNL A   1      47.398  29.278  30.863  1.00  0.00     0.029 A 
ATOM     58  C   UNL A   1      46.563  28.351  30.260  1.00  0.00     0.049 A 
ATOM     59  H   UNL A   1      44.514  28.520  29.779  1.00  0.00     0.167 HD
ATOM     60  C   UNL A   1      45.998  26.171  29.225  1.00  0.00     0.074 A 
ATOM     61  C   UNL A   1      46.335  24.842  28.755  1.00  0.00     0.031 C 
ATOM     62  C   UNL A   1      46.882  27.025  29.796  1.00  0.00     0.037 A 
BRANCH  49  63
ATOM     63  C   UNL A   1      44.471  32.510  31.296  1.00  0.00     0.057 A 
ATOM     64  C   UNL A   1      44.853  33.576  30.471  1.00  0.00     0.134 A 
ATOM     65  C   UNL A   1      44.266  32.788  32.654  1.00  0.00     0.134 A 
ATOM     66  F   UNL A   1      45.075  33.378  29.162  1.00  0.00    -0.206 F 
ATOM     67  C   UNL A   1      45.051  34.861  30.980  1.00  0.00     0.040 A 
ATOM     68  C   UNL A   1      44.432  34.075  33.170  1.00  0.00     0.040 A 
ATOM     69  F   UNL A   1      43.892  31.817  33.500  1.00  0.00    -0.206 F 
ATOM     70  C   UNL A   1      44.832  35.114  32.333  1.00  0.00     0.006 A 
ENDBRANCH  49  63
BRANCH  50  71
ATOM     71  C   UNL A   1      42.592  23.546  27.329  1.00  0.00     0.057 A 
ATOM     72  C   UNL A   1      42.255  22.442  28.122  1.00  0.00     0.134 A 
ATOM     73  C   UNL A   1      42.692  23.339  25.948  1.00  0.00     0.134 A 
ATOM     74  F   UNL A   1      42.161  22.570  29.454  1.00  0.00    -0.206 F 
ATOM     75  C   UNL A   1      42.051  21.177  27.568  1.00  0.00     0.040 A 
ATOM     76  C   UNL A   1      42.464  22.086  25.377  1.00  0.00     0.040 A 
ATOM     77  F   UNL A   1      43.004  24.357  25.132  1.00  0.00    -0.206 F 
ATOM     78  C   UNL A   1      42.152  20.998  26.189  1.00  0.00     0.006 A 
ENDBRANCH  50  71
BRANCH  62  79
ATOM     79  C   UNL A   1      48.289  26.535  29.982  1.00  0.00     0.057 A 
ATOM     80  C   UNL A   1      48.694  25.858  31.139  1.00  0.00     0.134 A 
ATOM     81  C   UNL A   1      49.244  26.713  28.971  1.00  0.00     0.134 A 
ATOM     82  F   UNL A   1      47.833  25.667  32.150  1.00  0.00    -0.206 F 
ATOM     83  C   UNL A   1      50.001  25.396  31.294  1.00  0.00     0.040 A 
ATOM     84  C   UNL A   1      50.545  26.230  29.102  1.00  0.00     0.040 A 
ATOM     85  F   UNL A   1      48.920  27.344  27.832  1.00  0.00    -0.206 F 
ATOM     86  C   UNL A   1      50.929  25.575  30.270  1.00  0.00     0.006 A 
ENDBRANCH  62  79
ENDBRANCH  36  37
ENDBRANCH  28  31
ENDBRANCH  26  27
ENDBRANCH  25  26
ENDBRANCH   1  25
TORSDOF 14
ENDMDL
MODEL 3
REMARK VINA RESULT:     -11.9      2.867      7.379
REMARK SMILES O=C(NCCCCCCNC(=O)c1ccc(-c2c3nc(c(-c4c(F)cccc4F)c4ccc([nH]4)c(-c4c(F)cccc4F)c4nc(c(-c5c(F)cccc5F)c5ccc2[nH]5)C=C4)C=C3)cc1)C1=Cc2cc(Cl)cc(Cl)c2O[C@@H]1C(F)(F)F
REMARK SMILES IDX 7 1 6 2 5 3 4 4 3 5 1 6 2 7 67 9 68 10 78 11 69 12 77 13
REMARK SMILES IDX 70 14 76 15 71 16 74 17 72 18 73 19 75 20 79 21 80 22 81 23
REMARK SMILES IDX 82 24 8 25 9 26 10 27 11 28 12 30 13 31 14 32 66 33 15 34
REMARK SMILES IDX 65 35 16 36 17 37 18 38 59 39 19 40 64 41 58 42 60 43 20 44
REMARK SMILES IDX 63 45 57 46 56 47 21 49 47 50 30 51 46 52 31 53 34 54 45 55
REMARK SMILES IDX 61 56 32 57 33 58 44 60 62 61 35 62 22 63 23 64 28 65 24 66
REMARK SMILES IDX 25 67 27 68 29 69 26 70 48 71 49 72 54 73 50 74 51 75 53 76
REMARK SMILES IDX 55 77 52 78 36 79 37 80 42 81 38 82 39 83 41 84 43 85 40 86
REMARK H PARENT 3 8 10 29 60 48 34 59
REMARK Flexibility Score: inf
ROOT
ATOM      1  C   UNL A   1      34.421  22.933  27.253  1.00  0.00     0.002 C 
ENDROOT
BRANCH   1   2
ATOM      2  C   UNL A   1      32.918  22.640  27.154  1.00  0.00     0.002 C 
BRANCH   2   3
ATOM      3  C   UNL A   1      32.415  22.069  25.830  1.00  0.00     0.021 C 
BRANCH   3   4
ATOM      4  C   UNL A   1      30.973  22.388  25.459  1.00  0.00     0.116 C 
BRANCH   4   5
ATOM      5  N   UNL A   1      30.370  23.496  26.176  1.00  0.00    -0.352 N 
ATOM      6  O   UNL A   1      29.721  25.608  26.566  1.00  0.00    -0.270 OA
ATOM      7  C   UNL A   1      30.424  24.837  25.913  1.00  0.00     0.251 C 
ATOM      8  H   UNL A   1      29.844  23.244  26.968  1.00  0.00     0.163 HD
BRANCH   7   9
ATOM      9  C   UNL A   1      31.240  25.407  24.798  1.00  0.00     0.067 C 
ATOM     10  C   UNL A   1      30.699  25.808  23.634  1.00  0.00     0.025 C 
ATOM     11  C   UNL A   1      32.491  26.099  25.290  1.00  0.00     0.314 C 
ATOM     12  C   UNL A   1      30.667  27.294  23.545  1.00  0.00     0.020 A 
ATOM     13  O   UNL A   1      32.298  27.538  25.341  1.00  0.00    -0.474 OA
ATOM     14  C   UNL A   1      29.702  27.879  22.715  1.00  0.00     0.032 A 
ATOM     15  C   UNL A   1      31.372  28.077  24.477  1.00  0.00     0.146 A 
ATOM     16  C   UNL A   1      29.370  29.220  22.891  1.00  0.00     0.043 A 
ATOM     17  C   UNL A   1      31.039  29.428  24.622  1.00  0.00     0.085 A 
ATOM     18  Cl  UNL A   1      28.053  29.888  22.011  1.00  0.00    -0.084 Cl
ATOM     19  C   UNL A   1      30.025  29.994  23.846  1.00  0.00     0.045 A 
ATOM     20  Cl  UNL A   1      31.767  30.402  25.848  1.00  0.00    -0.080 Cl
BRANCH  11  21
ATOM     21  C   UNL A   1      33.737  25.726  24.469  1.00  0.00     0.429 C 
ATOM     22  F   UNL A   1      34.855  25.741  25.232  1.00  0.00    -0.167 F 
ATOM     23  F   UNL A   1      33.635  24.483  23.942  1.00  0.00    -0.167 F 
ATOM     24  F   UNL A   1      33.945  26.578  23.437  1.00  0.00    -0.167 F 
ENDBRANCH  11  21
ENDBRANCH   7   9
ENDBRANCH   4   5
ENDBRANCH   3   4
ENDBRANCH   2   3
ENDBRANCH   1   2
BRANCH   1  25
ATOM     25  C   UNL A   1      35.297  22.483  26.079  1.00  0.00     0.021 C 
BRANCH  25  26
ATOM     26  C   UNL A   1      36.630  23.207  25.910  1.00  0.00     0.116 C 
BRANCH  26  27
ATOM     27  N   UNL A   1      37.777  22.329  26.054  1.00  0.00    -0.352 N 
ATOM     28  C   UNL A   1      39.076  22.612  26.396  1.00  0.00     0.251 C 
ATOM     29  H   UNL A   1      37.594  21.376  25.879  1.00  0.00     0.163 HD
ATOM     30  O   UNL A   1      39.925  21.729  26.334  1.00  0.00    -0.269 OA
BRANCH  28  31
ATOM     31  C   UNL A   1      39.472  23.976  26.818  1.00  0.00     0.039 A 
ATOM     32  C   UNL A   1      39.275  24.344  28.153  1.00  0.00     0.014 A 
ATOM     33  C   UNL A   1      39.994  24.903  25.913  1.00  0.00     0.014 A 
ATOM     34  C   UNL A   1      39.649  25.618  28.590  1.00  0.00     0.010 A 
ATOM     35  C   UNL A   1      40.434  26.148  26.366  1.00  0.00     0.010 A 
ATOM     36  C   UNL A   1      40.260  26.521  27.707  1.00  0.00    -0.014 A 
BRANCH  36  37
ATOM     37  C   UNL A   1      40.717  27.857  28.170  1.00  0.00     0.031 A 
ATOM     38  C   UNL A   1      42.184  28.196  28.187  1.00  0.00     0.074 A 
ATOM     39  C   UNL A   1      39.817  28.751  28.623  1.00  0.00     0.049 A 
ATOM     40  N   UNL A   1      42.777  29.287  28.602  1.00  0.00    -0.248 NA
ATOM     41  C   UNL A   1      43.109  27.163  27.694  1.00  0.00     0.031 C 
ATOM     42  C   UNL A   1      38.370  28.530  28.697  1.00  0.00     0.029 A 
ATOM     43  N   UNL A   1      39.984  30.021  29.117  1.00  0.00    -0.354 N 
ATOM     44  C   UNL A   1      44.138  29.066  28.436  1.00  0.00     0.074 A 
ATOM     45  C   UNL A   1      44.288  27.719  27.928  1.00  0.00     0.031 C 
ATOM     46  C   UNL A   1      37.781  29.636  29.180  1.00  0.00     0.029 A 
ATOM     47  C   UNL A   1      38.807  30.627  29.489  1.00  0.00     0.049 A 
ATOM     48  H   UNL A   1      40.862  30.457  29.196  1.00  0.00     0.167 HD
ATOM     49  C   UNL A   1      45.169  29.914  28.665  1.00  0.00     0.037 A 
ATOM     50  C   UNL A   1      38.582  31.841  30.027  1.00  0.00     0.037 A 
ATOM     51  C   UNL A   1      45.016  31.263  29.145  1.00  0.00     0.049 A 
ATOM     52  C   UNL A   1      39.746  32.758  30.284  1.00  0.00     0.074 A 
ATOM     53  C   UNL A   1      45.993  32.223  29.345  1.00  0.00     0.029 A 
ATOM     54  N   UNL A   1      43.808  31.842  29.504  1.00  0.00    -0.354 N 
ATOM     55  N   UNL A   1      41.021  32.561  30.053  1.00  0.00    -0.248 NA
ATOM     56  C   UNL A   1      39.438  34.069  30.874  1.00  0.00     0.031 C 
ATOM     57  C   UNL A   1      45.384  33.364  29.875  1.00  0.00     0.029 A 
ATOM     58  C   UNL A   1      44.019  33.136  29.952  1.00  0.00     0.049 A 
ATOM     59  H   UNL A   1      42.930  31.399  29.449  1.00  0.00     0.167 HD
ATOM     60  C   UNL A   1      41.663  33.732  30.437  1.00  0.00     0.074 A 
ATOM     61  C   UNL A   1      40.634  34.639  30.903  1.00  0.00     0.031 C 
ATOM     62  C   UNL A   1      42.984  34.030  30.405  1.00  0.00     0.037 A 
BRANCH  49  63
ATOM     63  C   UNL A   1      46.559  29.409  28.400  1.00  0.00     0.057 A 
ATOM     64  C   UNL A   1      47.317  28.772  29.391  1.00  0.00     0.134 A 
ATOM     65  C   UNL A   1      47.129  29.521  27.126  1.00  0.00     0.134 A 
ATOM     66  F   UNL A   1      46.835  28.639  30.636  1.00  0.00    -0.206 F 
ATOM     67  C   UNL A   1      48.602  28.291  29.132  1.00  0.00     0.040 A 
ATOM     68  C   UNL A   1      48.401  29.017  26.846  1.00  0.00     0.040 A 
ATOM     69  F   UNL A   1      46.455  30.112  26.127  1.00  0.00    -0.206 F 
ATOM     70  C   UNL A   1      49.144  28.406  27.853  1.00  0.00     0.006 A 
ENDBRANCH  49  63
BRANCH  50  71
ATOM     71  C   UNL A   1      37.196  32.273  30.342  1.00  0.00     0.057 A 
ATOM     72  C   UNL A   1      36.609  31.970  31.577  1.00  0.00     0.134 A 
ATOM     73  C   UNL A   1      36.420  32.980  29.417  1.00  0.00     0.134 A 
ATOM     74  F   UNL A   1      37.294  31.278  32.499  1.00  0.00    -0.206 F 
ATOM     75  C   UNL A   1      35.293  32.332  31.870  1.00  0.00     0.040 A 
ATOM     76  C   UNL A   1      35.112  33.373  29.707  1.00  0.00     0.040 A 
ATOM     77  F   UNL A   1      36.926  33.309  28.219  1.00  0.00    -0.206 F 
ATOM     78  C   UNL A   1      34.542  33.041  30.934  1.00  0.00     0.006 A 
ENDBRANCH  50  71
BRANCH  62  79
ATOM     79  C   UNL A   1      43.390  35.406  30.849  1.00  0.00     0.057 A 
ATOM     80  C   UNL A   1      43.694  35.697  32.185  1.00  0.00     0.134 A 
ATOM     81  C   UNL A   1      43.515  36.446  29.917  1.00  0.00     0.134 A 
ATOM     82  F   UNL A   1      43.582  34.750  33.128  1.00  0.00    -0.206 F 
ATOM     83  C   UNL A   1      44.083  36.977  32.582  1.00  0.00     0.040 A 
ATOM     84  C   UNL A   1      43.932  37.721  30.297  1.00  0.00     0.040 A 
ATOM     85  F   UNL A   1      43.250  36.234  28.619  1.00  0.00    -0.206 F 
ATOM     86  C   UNL A   1      44.210  37.991  31.636  1.00  0.00     0.006 A 
ENDBRANCH  62  79
ENDBRANCH  36  37
ENDBRANCH  28  31
ENDBRANCH  26  27
ENDBRANCH  25  26
ENDBRANCH   1  25
TORSDOF 14
ENDMDL
