MODEL 1
REMARK VINA RESULT:     -11.1      0.000      0.000
REMARK SMILES CC(C)CC1(CNc2ccnc(C(=O)NCCCCCCNC(=O)c3ccc(-c4c5nc(c(-c6c(F)cccc6F)c6ccc([nH]6)c(-c6c(F)cccc6F)c6nc(c(-c7c(F)cccc7F)c7ccc4[nH]7)C=C6)C=C5)cc3)c2)CCCC1
REMARK SMILES IDX 17 1 16 2 15 3 13 4 14 5 12 7 8 8 9 9 79 10 10 11 11 12 7 13
REMARK SMILES IDX 6 15 5 16 80 17 83 18 81 19 82 20 4 21 2 22 1 23 3 24 18 25
REMARK SMILES IDX 19 26 20 27 21 28 22 29 23 30 24 32 25 33 26 34 78 35 27 36
REMARK SMILES IDX 77 37 28 38 29 39 30 40 71 41 31 42 76 43 70 44 72 45 32 46
REMARK SMILES IDX 75 47 69 48 68 49 33 51 59 52 42 53 58 54 43 55 46 56 57 57
REMARK SMILES IDX 73 58 44 59 45 60 56 62 74 63 47 64 34 65 35 66 40 67 36 68
REMARK SMILES IDX 37 69 39 70 41 71 38 72 60 73 61 74 66 75 62 76 63 77 65 78
REMARK SMILES IDX 67 79 64 80 48 81 49 82 54 83 50 84 51 85 53 86 55 87 52 88
REMARK H PARENT 15 6 7 14 22 31 72 50 46 61
REMARK Flexibility Score: inf
ROOT
ATOM      1  C   UNL A   1      36.499  23.239  24.968  1.00  0.00     0.021 C 
ENDROOT
BRANCH   1   2
ATOM      2  C   UNL A   1      35.128  22.981  25.590  1.00  0.00     0.116 C 
BRANCH   2   3
ATOM      3  N   UNL A   1      34.189  22.435  24.632  1.00  0.00    -0.351 N 
ATOM      4  C   UNL A   1      33.456  22.907  23.568  1.00  0.00     0.269 C 
ATOM      5  O   UNL A   1      32.773  22.048  22.999  1.00  0.00    -0.268 OA
ATOM      6  H   UNL A   1      34.035  21.475  24.781  1.00  0.00     0.163 HD
BRANCH   4   7
ATOM      7  C   UNL A   1      33.407  24.334  23.072  1.00  0.00     0.130 A 
ATOM      8  C   UNL A   1      33.456  26.741  23.318  1.00  0.00     0.038 A 
ATOM      9  C   UNL A   1      33.134  26.854  21.976  1.00  0.00     0.046 A 
ATOM     10  C   UNL A   1      33.601  25.458  23.853  1.00  0.00     0.060 A 
ATOM     11  C   UNL A   1      33.005  25.694  21.232  1.00  0.00     0.114 A 
ATOM     12  N   UNL A   1      33.125  24.453  21.747  1.00  0.00    -0.251 NA
BRANCH   8  13
ATOM     13  N   UNL A   1      33.567  27.813  24.182  1.00  0.00    -0.384 N 
ATOM     14  H   UNL A   1      34.162  27.723  24.962  1.00  0.00     0.160 HD
BRANCH  13  15
ATOM     15  C   UNL A   1      32.854  29.066  24.003  1.00  0.00     0.119 C 
BRANCH  15  16
ATOM     16  C   UNL A   1      31.441  29.039  24.690  1.00  0.00    -0.012 C 
ATOM     17  C   UNL A   1      31.179  30.406  25.348  1.00  0.00     0.009 C 
ATOM     18  C   UNL A   1      31.422  28.135  25.945  1.00  0.00     0.009 C 
ATOM     19  C   UNL A   1      32.044  30.410  26.603  1.00  0.00     0.001 C 
ATOM     20  C   UNL A   1      32.056  28.957  27.072  1.00  0.00     0.001 C 
BRANCH  16  21
ATOM     21  C   UNL A   1      30.371  28.599  23.639  1.00  0.00     0.012 C 
BRANCH  21  22
ATOM     22  C   UNL A   1      29.314  29.627  23.163  1.00  0.00    -0.017 C 
ATOM     23  C   UNL A   1      29.646  30.233  21.793  1.00  0.00     0.007 C 
ATOM     24  C   UNL A   1      27.942  28.944  23.040  1.00  0.00     0.007 C 
ENDBRANCH  21  22
ENDBRANCH  16  21
ENDBRANCH  15  16
ENDBRANCH  13  15
ENDBRANCH   8  13
ENDBRANCH   4   7
ENDBRANCH   2   3
ENDBRANCH   1   2
BRANCH   1  25
ATOM     25  C   UNL A   1      37.520  22.138  25.274  1.00  0.00     0.002 C 
BRANCH  25  26
ATOM     26  C   UNL A   1      37.198  20.765  24.664  1.00  0.00     0.002 C 
BRANCH  26  27
ATOM     27  C   UNL A   1      38.232  19.669  24.942  1.00  0.00     0.021 C 
BRANCH  27  28
ATOM     28  C   UNL A   1      39.341  20.085  25.902  1.00  0.00     0.116 C 
BRANCH  28  29
ATOM     29  N   UNL A   1      40.369  19.061  26.010  1.00  0.00    -0.352 N 
ATOM     30  C   UNL A   1      41.728  19.195  26.131  1.00  0.00     0.251 C 
ATOM     31  H   UNL A   1      40.039  18.133  25.993  1.00  0.00     0.163 HD
ATOM     32  O   UNL A   1      42.464  18.231  25.957  1.00  0.00    -0.269 OA
BRANCH  30  33
ATOM     33  C   UNL A   1      42.306  20.514  26.456  1.00  0.00     0.039 A 
ATOM     34  C   UNL A   1      42.870  21.278  25.431  1.00  0.00     0.014 A 
ATOM     35  C   UNL A   1      42.286  20.995  27.768  1.00  0.00     0.014 A 
ATOM     36  C   UNL A   1      43.339  22.563  25.709  1.00  0.00     0.010 A 
ATOM     37  C   UNL A   1      42.691  22.300  28.030  1.00  0.00     0.010 A 
ATOM     38  C   UNL A   1      43.207  23.100  27.000  1.00  0.00    -0.014 A 
BRANCH  38  39
ATOM     39  C   UNL A   1      43.545  24.518  27.282  1.00  0.00     0.031 A 
ATOM     40  C   UNL A   1      44.974  24.977  27.279  1.00  0.00     0.074 A 
ATOM     41  C   UNL A   1      42.560  25.368  27.629  1.00  0.00     0.049 A 
ATOM     42  N   UNL A   1      45.465  26.145  27.602  1.00  0.00    -0.248 NA
ATOM     43  C   UNL A   1      45.986  23.986  26.882  1.00  0.00     0.031 C 
ATOM     44  C   UNL A   1      41.136  25.029  27.703  1.00  0.00     0.029 A 
ATOM     45  N   UNL A   1      42.605  26.688  28.002  1.00  0.00    -0.354 N 
ATOM     46  C   UNL A   1      46.841  26.031  27.455  1.00  0.00     0.074 A 
ATOM     47  C   UNL A   1      47.111  24.665  27.059  1.00  0.00     0.031 C 
ATOM     48  C   UNL A   1      40.444  26.114  28.083  1.00  0.00     0.029 A 
ATOM     49  C   UNL A   1      41.376  27.210  28.327  1.00  0.00     0.049 A 
ATOM     50  H   UNL A   1      43.438  27.211  28.033  1.00  0.00     0.167 HD
ATOM     51  C   UNL A   1      47.789  26.985  27.617  1.00  0.00     0.037 A 
ATOM     52  C   UNL A   1      41.039  28.427  28.795  1.00  0.00     0.037 A 
ATOM     53  C   UNL A   1      47.511  28.344  28.004  1.00  0.00     0.049 A 
ATOM     54  C   UNL A   1      42.117  29.450  29.016  1.00  0.00     0.074 A 
ATOM     55  C   UNL A   1      48.396  29.400  28.134  1.00  0.00     0.029 A 
ATOM     56  N   UNL A   1      46.256  28.832  28.334  1.00  0.00    -0.354 N 
ATOM     57  N   UNL A   1      43.406  29.352  28.801  1.00  0.00    -0.248 NA
ATOM     58  C   UNL A   1      41.695  30.753  29.550  1.00  0.00     0.031 C 
ATOM     59  C   UNL A   1      47.686  30.510  28.603  1.00  0.00     0.029 A 
ATOM     60  C   UNL A   1      46.350  30.162  28.711  1.00  0.00     0.049 A 
ATOM     61  H   UNL A   1      45.421  28.310  28.306  1.00  0.00     0.167 HD
ATOM     62  C   UNL A   1      43.946  30.581  29.155  1.00  0.00     0.074 A 
ATOM     63  C   UNL A   1      42.842  31.416  29.579  1.00  0.00     0.031 C 
ATOM     64  C   UNL A   1      45.242  30.979  29.137  1.00  0.00     0.037 A 
BRANCH  51  65
ATOM     65  C   UNL A   1      49.219  26.590  27.384  1.00  0.00     0.057 A 
ATOM     66  C   UNL A   1      50.032  26.110  28.420  1.00  0.00     0.134 A 
ATOM     67  C   UNL A   1      49.777  26.645  26.101  1.00  0.00     0.134 A 
ATOM     68  F   UNL A   1      49.564  26.039  29.676  1.00  0.00    -0.206 F 
ATOM     69  C   UNL A   1      51.355  25.724  28.191  1.00  0.00     0.040 A 
ATOM     70  C   UNL A   1      51.088  26.234  25.855  1.00  0.00     0.040 A 
ATOM     71  F   UNL A   1      49.053  27.088  25.061  1.00  0.00    -0.206 F 
ATOM     72  C   UNL A   1      51.883  25.778  26.903  1.00  0.00     0.006 A 
ENDBRANCH  51  65
BRANCH  52  73
ATOM     73  C   UNL A   1      39.618  28.742  29.092  1.00  0.00     0.057 A 
ATOM     74  C   UNL A   1      39.081  28.520  30.365  1.00  0.00     0.134 A 
ATOM     75  C   UNL A   1      38.763  29.266  28.114  1.00  0.00     0.134 A 
ATOM     76  F   UNL A   1      39.844  28.003  31.338  1.00  0.00    -0.206 F 
ATOM     77  C   UNL A   1      37.741  28.787  30.650  1.00  0.00     0.040 A 
ATOM     78  C   UNL A   1      37.428  29.564  28.392  1.00  0.00     0.040 A 
ATOM     79  F   UNL A   1      39.217  29.509  26.876  1.00  0.00    -0.206 F 
ATOM     80  C   UNL A   1      36.912  29.317  29.663  1.00  0.00     0.006 A 
ENDBRANCH  52  73
BRANCH  64  81
ATOM     81  C   UNL A   1      45.536  32.383  29.579  1.00  0.00     0.057 A 
ATOM     82  C   UNL A   1      45.476  33.463  28.689  1.00  0.00     0.134 A 
ATOM     83  C   UNL A   1      45.834  32.665  30.918  1.00  0.00     0.134 A 
ATOM     84  F   UNL A   1      45.210  33.258  27.389  1.00  0.00    -0.206 F 
ATOM     85  C   UNL A   1      45.715  34.771  29.112  1.00  0.00     0.040 A 
ATOM     86  C   UNL A   1      46.049  33.972  31.359  1.00  0.00     0.040 A 
ATOM     87  F   UNL A   1      45.902  31.678  31.824  1.00  0.00    -0.206 F 
ATOM     88  C   UNL A   1      45.993  35.029  30.453  1.00  0.00     0.006 A 
ENDBRANCH  64  81
ENDBRANCH  38  39
ENDBRANCH  30  33
ENDBRANCH  28  29
ENDBRANCH  27  28
ENDBRANCH  26  27
ENDBRANCH  25  26
ENDBRANCH   1  25
TORSDOF 18
ENDMDL
MODEL 2
REMARK VINA RESULT:     -11.1      5.827     11.002
REMARK SMILES CC(C)CC1(CNc2ccnc(C(=O)NCCCCCCNC(=O)c3ccc(-c4c5nc(c(-c6c(F)cccc6F)c6ccc([nH]6)c(-c6c(F)cccc6F)c6nc(c(-c7c(F)cccc7F)c7ccc4[nH]7)C=C6)C=C5)cc3)c2)CCCC1
REMARK SMILES IDX 17 1 16 2 15 3 13 4 14 5 12 7 8 8 9 9 79 10 10 11 11 12 7 13
REMARK SMILES IDX 6 15 5 16 80 17 83 18 81 19 82 20 4 21 2 22 1 23 3 24 18 25
REMARK SMILES IDX 19 26 20 27 21 28 22 29 23 30 24 32 25 33 26 34 78 35 27 36
REMARK SMILES IDX 77 37 28 38 29 39 30 40 71 41 31 42 76 43 70 44 72 45 32 46
REMARK SMILES IDX 75 47 69 48 68 49 33 51 59 52 42 53 58 54 43 55 46 56 57 57
REMARK SMILES IDX 73 58 44 59 45 60 56 62 74 63 47 64 34 65 35 66 40 67 36 68
REMARK SMILES IDX 37 69 39 70 41 71 38 72 60 73 61 74 66 75 62 76 63 77 65 78
REMARK SMILES IDX 67 79 64 80 48 81 49 82 54 83 50 84 51 85 53 86 55 87 52 88
REMARK H PARENT 15 6 7 14 22 31 72 50 46 61
REMARK Flexibility Score: inf
ROOT
ATOM      1  C   UNL A   1      35.293  30.981  28.024  1.00  0.00     0.021 C 
ENDROOT
BRANCH   1   2
ATOM      2  C   UNL A   1      34.985  29.665  27.313  1.00  0.00     0.116 C 
BRANCH   2   3
ATOM      3  N   UNL A   1      34.070  29.845  26.205  1.00  0.00    -0.351 N 
ATOM      4  C   UNL A   1      33.118  29.091  25.558  1.00  0.00     0.269 C 
ATOM      5  O   UNL A   1      32.541  29.680  24.637  1.00  0.00    -0.268 OA
ATOM      6  H   UNL A   1      34.151  30.743  25.810  1.00  0.00     0.163 HD
BRANCH   4   7
ATOM      7  C   UNL A   1      32.751  27.657  25.860  1.00  0.00     0.130 A 
ATOM      8  C   UNL A   1      33.177  25.284  26.068  1.00  0.00     0.038 A 
ATOM      9  C   UNL A   1      31.826  25.093  26.308  1.00  0.00     0.046 A 
ATOM     10  C   UNL A   1      33.628  26.588  25.854  1.00  0.00     0.060 A 
ATOM     11  C   UNL A   1      31.005  26.206  26.356  1.00  0.00     0.114 A 
ATOM     12  N   UNL A   1      31.432  27.466  26.132  1.00  0.00    -0.251 NA
BRANCH   8  13
ATOM     13  N   UNL A   1      34.095  24.258  25.947  1.00  0.00    -0.384 N 
ATOM     14  H   UNL A   1      34.038  23.507  26.581  1.00  0.00     0.160 HD
BRANCH  13  15
ATOM     15  C   UNL A   1      35.138  24.230  24.937  1.00  0.00     0.119 C 
BRANCH  15  16
ATOM     16  C   UNL A   1      35.014  22.971  24.003  1.00  0.00    -0.012 C 
ATOM     17  C   UNL A   1      34.895  21.710  24.878  1.00  0.00     0.009 C 
ATOM     18  C   UNL A   1      36.338  22.659  23.268  1.00  0.00     0.009 C 
ATOM     19  C   UNL A   1      36.304  21.464  25.405  1.00  0.00     0.001 C 
ATOM     20  C   UNL A   1      37.227  21.932  24.282  1.00  0.00     0.001 C 
BRANCH  16  21
ATOM     21  C   UNL A   1      33.831  23.193  23.005  1.00  0.00     0.012 C 
BRANCH  21  22
ATOM     22  C   UNL A   1      32.450  22.566  23.321  1.00  0.00    -0.017 C 
ATOM     23  C   UNL A   1      31.294  23.566  23.180  1.00  0.00     0.007 C 
ATOM     24  C   UNL A   1      32.171  21.407  22.350  1.00  0.00     0.007 C 
ENDBRANCH  21  22
ENDBRANCH  16  21
ENDBRANCH  15  16
ENDBRANCH  13  15
ENDBRANCH   8  13
ENDBRANCH   4   7
ENDBRANCH   2   3
ENDBRANCH   1   2
BRANCH   1  25
ATOM     25  C   UNL A   1      34.043  31.821  28.310  1.00  0.00     0.002 C 
BRANCH  25  26
ATOM     26  C   UNL A   1      34.307  33.157  29.022  1.00  0.00     0.002 C 
BRANCH  26  27
ATOM     27  C   UNL A   1      33.325  34.283  28.682  1.00  0.00     0.021 C 
BRANCH  27  28
ATOM     28  C   UNL A   1      33.715  35.643  29.250  1.00  0.00     0.116 C 
BRANCH  28  29
ATOM     29  N   UNL A   1      32.800  36.069  30.298  1.00  0.00    -0.352 N 
ATOM     30  C   UNL A   1      32.768  35.724  31.625  1.00  0.00     0.251 C 
ATOM     31  H   UNL A   1      32.099  36.698  30.012  1.00  0.00     0.163 HD
ATOM     32  O   UNL A   1      31.784  35.978  32.308  1.00  0.00    -0.269 OA
BRANCH  30  33
ATOM     33  C   UNL A   1      33.924  35.029  32.226  1.00  0.00     0.039 A 
ATOM     34  C   UNL A   1      33.732  33.774  32.809  1.00  0.00     0.014 A 
ATOM     35  C   UNL A   1      35.193  35.615  32.211  1.00  0.00     0.014 A 
ATOM     36  C   UNL A   1      34.831  33.068  33.301  1.00  0.00     0.010 A 
ATOM     37  C   UNL A   1      36.295  34.883  32.641  1.00  0.00     0.010 A 
ATOM     38  C   UNL A   1      36.126  33.597  33.174  1.00  0.00    -0.014 A 
BRANCH  38  39
ATOM     39  C   UNL A   1      37.323  32.799  33.538  1.00  0.00     0.031 A 
ATOM     40  C   UNL A   1      38.093  33.105  34.790  1.00  0.00     0.074 A 
ATOM     41  C   UNL A   1      37.761  31.853  32.686  1.00  0.00     0.049 A 
ATOM     42  N   UNL A   1      39.216  32.586  35.215  1.00  0.00    -0.248 NA
ATOM     43  C   UNL A   1      37.540  34.148  35.668  1.00  0.00     0.031 C 
ATOM     44  C   UNL A   1      37.118  31.490  31.421  1.00  0.00     0.029 A 
ATOM     45  N   UNL A   1      38.862  31.035  32.744  1.00  0.00    -0.354 N 
ATOM     46  C   UNL A   1      39.509  33.241  36.403  1.00  0.00     0.074 A 
ATOM     47  C   UNL A   1      38.472  34.228  36.608  1.00  0.00     0.031 C 
ATOM     48  C   UNL A   1      37.826  30.514  30.831  1.00  0.00     0.029 A 
ATOM     49  C   UNL A   1      38.998  30.218  31.647  1.00  0.00     0.049 A 
ATOM     50  H   UNL A   1      39.493  31.034  33.499  1.00  0.00     0.167 HD
ATOM     51  C   UNL A   1      40.541  33.023  37.254  1.00  0.00     0.037 A 
ATOM     52  C   UNL A   1      39.971  29.345  31.323  1.00  0.00     0.037 A 
ATOM     53  C   UNL A   1      41.565  32.032  37.046  1.00  0.00     0.049 A 
ATOM     54  C   UNL A   1      41.131  29.161  32.260  1.00  0.00     0.074 A 
ATOM     55  C   UNL A   1      42.617  31.693  37.880  1.00  0.00     0.029 A 
ATOM     56  N   UNL A   1      41.674  31.231  35.919  1.00  0.00    -0.354 N 
ATOM     57  N   UNL A   1      41.357  29.733  33.417  1.00  0.00    -0.248 NA
ATOM     58  C   UNL A   1      42.175  28.213  31.843  1.00  0.00     0.031 C 
ATOM     59  C   UNL A   1      43.397  30.731  37.231  1.00  0.00     0.029 A 
ATOM     60  C   UNL A   1      42.800  30.430  36.017  1.00  0.00     0.049 A 
ATOM     61  H   UNL A   1      41.045  31.232  35.162  1.00  0.00     0.167 HD
ATOM     62  C   UNL A   1      42.556  29.204  33.875  1.00  0.00     0.074 A 
ATOM     63  C   UNL A   1      42.999  28.249  32.881  1.00  0.00     0.031 C 
ATOM     64  C   UNL A   1      43.232  29.488  35.015  1.00  0.00     0.037 A 
BRANCH  51  65
ATOM     65  C   UNL A   1      40.618  33.877  38.487  1.00  0.00     0.057 A 
ATOM     66  C   UNL A   1      41.381  35.052  38.525  1.00  0.00     0.134 A 
ATOM     67  C   UNL A   1      39.883  33.548  39.633  1.00  0.00     0.134 A 
ATOM     68  F   UNL A   1      42.115  35.423  37.465  1.00  0.00    -0.206 F 
ATOM     69  C   UNL A   1      41.430  35.854  39.668  1.00  0.00     0.040 A 
ATOM     70  C   UNL A   1      39.901  34.357  40.770  1.00  0.00     0.040 A 
ATOM     71  F   UNL A   1      39.126  32.441  39.662  1.00  0.00    -0.206 F 
ATOM     72  C   UNL A   1      40.681  35.511  40.792  1.00  0.00     0.006 A 
ENDBRANCH  51  65
BRANCH  52  73
ATOM     73  C   UNL A   1      39.893  28.584  30.049  1.00  0.00     0.057 A 
ATOM     74  C   UNL A   1      39.203  27.369  29.976  1.00  0.00     0.134 A 
ATOM     75  C   UNL A   1      40.508  29.048  28.880  1.00  0.00     0.134 A 
ATOM     76  F   UNL A   1      38.608  26.864  31.066  1.00  0.00    -0.206 F 
ATOM     77  C   UNL A   1      39.144  26.632  28.792  1.00  0.00     0.040 A 
ATOM     78  C   UNL A   1      40.434  28.335  27.682  1.00  0.00     0.040 A 
ATOM     79  F   UNL A   1      41.179  30.209  28.880  1.00  0.00    -0.206 F 
ATOM     80  C   UNL A   1      39.756  27.119  27.639  1.00  0.00     0.006 A 
ENDBRANCH  52  73
BRANCH  64  81
ATOM     81  C   UNL A   1      44.519  28.753  35.253  1.00  0.00     0.057 A 
ATOM     82  C   UNL A   1      44.547  27.508  35.896  1.00  0.00     0.134 A 
ATOM     83  C   UNL A   1      45.737  29.268  34.792  1.00  0.00     0.134 A 
ATOM     84  F   UNL A   1      43.417  26.966  36.376  1.00  0.00    -0.206 F 
ATOM     85  C   UNL A   1      45.741  26.811  36.084  1.00  0.00     0.040 A 
ATOM     86  C   UNL A   1      46.933  28.568  34.950  1.00  0.00     0.040 A 
ATOM     87  F   UNL A   1      45.780  30.452  34.162  1.00  0.00    -0.206 F 
ATOM     88  C   UNL A   1      46.938  27.336  35.601  1.00  0.00     0.006 A 
ENDBRANCH  64  81
ENDBRANCH  38  39
ENDBRANCH  30  33
ENDBRANCH  28  29
ENDBRANCH  27  28
ENDBRANCH  26  27
ENDBRANCH  25  26
ENDBRANCH   1  25
TORSDOF 18
ENDMDL
MODEL 3
REMARK VINA RESULT:     -11.1      2.804      8.116
REMARK SMILES CC(C)CC1(CNc2ccnc(C(=O)NCCCCCCNC(=O)c3ccc(-c4c5nc(c(-c6c(F)cccc6F)c6ccc([nH]6)c(-c6c(F)cccc6F)c6nc(c(-c7c(F)cccc7F)c7ccc4[nH]7)C=C6)C=C5)cc3)c2)CCCC1
REMARK SMILES IDX 17 1 16 2 15 3 13 4 14 5 12 7 8 8 9 9 79 10 10 11 11 12 7 13
REMARK SMILES IDX 6 15 5 16 80 17 83 18 81 19 82 20 4 21 2 22 1 23 3 24 18 25
REMARK SMILES IDX 19 26 20 27 21 28 22 29 23 30 24 32 25 33 26 34 78 35 27 36
REMARK SMILES IDX 77 37 28 38 29 39 30 40 71 41 31 42 76 43 70 44 72 45 32 46
REMARK SMILES IDX 75 47 69 48 68 49 33 51 59 52 42 53 58 54 43 55 46 56 57 57
REMARK SMILES IDX 73 58 44 59 45 60 56 62 74 63 47 64 34 65 35 66 40 67 36 68
REMARK SMILES IDX 37 69 39 70 41 71 38 72 60 73 61 74 66 75 62 76 63 77 65 78
REMARK SMILES IDX 67 79 64 80 48 81 49 82 54 83 50 84 51 85 53 86 55 87 52 88
REMARK H PARENT 15 6 7 14 22 31 72 50 46 61
REMARK Flexibility Score: inf
ROOT
ATOM      1  C   UNL A   1      32.683  28.742  23.221  1.00  0.00     0.021 C 
ENDROOT
BRANCH   1   2
ATOM      2  C   UNL A   1      33.920  27.993  22.728  1.00  0.00     0.116 C 
BRANCH   2   3
ATOM      3  N   UNL A   1      33.644  27.206  21.544  1.00  0.00    -0.351 N 
ATOM      4  C   UNL A   1      32.956  26.052  21.247  1.00  0.00     0.269 C 
ATOM      5  O   UNL A   1      32.968  25.746  20.048  1.00  0.00    -0.268 OA
ATOM      6  H   UNL A   1      34.057  27.599  20.742  1.00  0.00     0.163 HD
BRANCH   4   7
ATOM      7  C   UNL A   1      32.232  25.159  22.227  1.00  0.00     0.130 A 
ATOM      8  C   UNL A   1      31.821  23.091  23.415  1.00  0.00     0.038 A 
ATOM      9  C   UNL A   1      30.676  23.659  23.946  1.00  0.00     0.046 A 
ATOM     10  C   UNL A   1      32.602  23.868  22.555  1.00  0.00     0.060 A 
ATOM     11  C   UNL A   1      30.385  24.973  23.624  1.00  0.00     0.114 A 
ATOM     12  N   UNL A   1      31.125  25.722  22.781  1.00  0.00    -0.251 NA
BRANCH   8  13
ATOM     13  N   UNL A   1      32.201  21.778  23.616  1.00  0.00    -0.384 N 
ATOM     14  H   UNL A   1      32.418  21.230  22.827  1.00  0.00     0.160 HD
BRANCH  13  15
ATOM     15  C   UNL A   1      32.297  21.161  24.929  1.00  0.00     0.119 C 
BRANCH  15  16
ATOM     16  C   UNL A   1      33.779  20.782  25.289  1.00  0.00    -0.012 C 
ATOM     17  C   UNL A   1      34.008  21.038  26.790  1.00  0.00     0.009 C 
ATOM     18  C   UNL A   1      34.797  21.781  24.692  1.00  0.00     0.009 C 
ATOM     19  C   UNL A   1      34.124  22.553  26.916  1.00  0.00     0.001 C 
ATOM     20  C   UNL A   1      34.788  23.002  25.617  1.00  0.00     0.001 C 
BRANCH  16  21
ATOM     21  C   UNL A   1      34.057  19.316  24.821  1.00  0.00     0.012 C 
BRANCH  21  22
ATOM     22  C   UNL A   1      32.861  18.406  24.445  1.00  0.00    -0.017 C 
ATOM     23  C   UNL A   1      33.105  17.601  23.160  1.00  0.00     0.007 C 
ATOM     24  C   UNL A   1      32.601  17.394  25.573  1.00  0.00     0.007 C 
ENDBRANCH  21  22
ENDBRANCH  16  21
ENDBRANCH  15  16
ENDBRANCH  13  15
ENDBRANCH   8  13
ENDBRANCH   4   7
ENDBRANCH   2   3
ENDBRANCH   1   2
BRANCH   1  25
ATOM     25  C   UNL A   1      32.878  29.393  24.595  1.00  0.00     0.002 C 
BRANCH  25  26
ATOM     26  C   UNL A   1      31.798  29.055  25.634  1.00  0.00     0.002 C 
BRANCH  26  27
ATOM     27  C   UNL A   1      32.316  28.454  26.943  1.00  0.00     0.021 C 
BRANCH  27  28
ATOM     28  C   UNL A   1      33.745  28.857  27.293  1.00  0.00     0.116 C 
BRANCH  28  29
ATOM     29  N   UNL A   1      33.812  30.228  27.775  1.00  0.00    -0.352 N 
ATOM     30  C   UNL A   1      34.794  30.853  28.502  1.00  0.00     0.251 C 
ATOM     31  H   UNL A   1      33.037  30.791  27.546  1.00  0.00     0.163 HD
ATOM     32  O   UNL A   1      34.576  31.934  29.036  1.00  0.00    -0.269 OA
BRANCH  30  33
ATOM     33  C   UNL A   1      36.114  30.208  28.652  1.00  0.00     0.039 A 
ATOM     34  C   UNL A   1      37.012  30.248  27.583  1.00  0.00     0.014 A 
ATOM     35  C   UNL A   1      36.461  29.570  29.846  1.00  0.00     0.014 A 
ATOM     36  C   UNL A   1      38.295  29.720  27.743  1.00  0.00     0.010 A 
ATOM     37  C   UNL A   1      37.759  29.105  30.026  1.00  0.00     0.010 A 
ATOM     38  C   UNL A   1      38.692  29.190  28.981  1.00  0.00    -0.014 A 
BRANCH  38  39
ATOM     39  C   UNL A   1      40.096  28.775  29.226  1.00  0.00     0.031 A 
ATOM     40  C   UNL A   1      41.082  29.733  29.828  1.00  0.00     0.074 A 
ATOM     41  C   UNL A   1      40.497  27.555  28.821  1.00  0.00     0.049 A 
ATOM     42  N   UNL A   1      42.367  29.583  30.018  1.00  0.00    -0.248 NA
ATOM     43  C   UNL A   1      40.559  31.042  30.249  1.00  0.00     0.031 C 
ATOM     44  C   UNL A   1      39.639  26.548  28.190  1.00  0.00     0.029 A 
ATOM     45  N   UNL A   1      41.732  26.958  28.860  1.00  0.00    -0.354 N 
ATOM     46  C   UNL A   1      42.809  30.775  30.575  1.00  0.00     0.074 A 
ATOM     47  C   UNL A   1      41.664  31.657  30.647  1.00  0.00     0.031 C 
ATOM     48  C   UNL A   1      40.369  25.456  27.916  1.00  0.00     0.029 A 
ATOM     49  C   UNL A   1      41.754  25.702  28.303  1.00  0.00     0.049 A 
ATOM     50  H   UNL A   1      42.526  27.388  29.251  1.00  0.00     0.167 HD
ATOM     51  C   UNL A   1      44.054  31.097  31.003  1.00  0.00     0.037 A 
ATOM     52  C   UNL A   1      42.779  24.852  28.103  1.00  0.00     0.037 A 
ATOM     53  C   UNL A   1      45.186  30.210  30.934  1.00  0.00     0.049 A 
ATOM     54  C   UNL A   1      44.159  25.254  28.540  1.00  0.00     0.074 A 
ATOM     55  C   UNL A   1      46.474  30.420  31.398  1.00  0.00     0.029 A 
ATOM     56  N   UNL A   1      45.172  28.950  30.354  1.00  0.00    -0.354 N 
ATOM     57  N   UNL A   1      44.550  26.356  29.133  1.00  0.00    -0.248 NA
ATOM     58  C   UNL A   1      45.244  24.298  28.275  1.00  0.00     0.031 C 
ATOM     59  C   UNL A   1      47.252  29.314  31.044  1.00  0.00     0.029 A 
ATOM     60  C   UNL A   1      46.437  28.390  30.410  1.00  0.00     0.049 A 
ATOM     61  H   UNL A   1      44.379  28.518  29.961  1.00  0.00     0.167 HD
ATOM     62  C   UNL A   1      45.917  26.219  29.328  1.00  0.00     0.074 A 
ATOM     63  C   UNL A   1      46.286  24.919  28.810  1.00  0.00     0.031 C 
ATOM     64  C   UNL A   1      46.790  27.096  29.882  1.00  0.00     0.037 A 
BRANCH  51  65
ATOM     65  C   UNL A   1      44.259  32.469  31.578  1.00  0.00     0.057 A 
ATOM     66  C   UNL A   1      44.114  32.726  32.948  1.00  0.00     0.134 A 
ATOM     67  C   UNL A   1      44.654  33.535  30.761  1.00  0.00     0.134 A 
ATOM     68  F   UNL A   1      43.731  31.751  33.787  1.00  0.00    -0.206 F 
ATOM     69  C   UNL A   1      44.329  34.000  33.479  1.00  0.00     0.040 A 
ATOM     70  C   UNL A   1      44.899  34.806  31.284  1.00  0.00     0.040 A 
ATOM     71  F   UNL A   1      44.818  33.358  29.441  1.00  0.00    -0.206 F 
ATOM     72  C   UNL A   1      44.731  35.042  32.647  1.00  0.00     0.006 A 
ENDBRANCH  51  65
BRANCH  52  73
ATOM     73  C   UNL A   1      42.540  23.538  27.451  1.00  0.00     0.057 A 
ATOM     74  C   UNL A   1      42.195  22.411  28.205  1.00  0.00     0.134 A 
ATOM     75  C   UNL A   1      42.656  23.376  26.065  1.00  0.00     0.134 A 
ATOM     76  F   UNL A   1      42.087  22.498  29.538  1.00  0.00    -0.206 F 
ATOM     77  C   UNL A   1      41.993  21.165  27.608  1.00  0.00     0.040 A 
ATOM     78  C   UNL A   1      42.429  22.144  25.451  1.00  0.00     0.040 A 
ATOM     79  F   UNL A   1      42.976  24.419  25.284  1.00  0.00    -0.206 F 
ATOM     80  C   UNL A   1      42.104  21.031  26.225  1.00  0.00     0.006 A 
ENDBRANCH  52  73
BRANCH  64  81
ATOM     81  C   UNL A   1      48.229  26.674  29.965  1.00  0.00     0.057 A 
ATOM     82  C   UNL A   1      48.700  25.864  31.006  1.00  0.00     0.134 A 
ATOM     83  C   UNL A   1      49.142  27.040  28.968  1.00  0.00     0.134 A 
ATOM     84  F   UNL A   1      47.880  25.492  32.002  1.00  0.00    -0.206 F 
ATOM     85  C   UNL A   1      50.030  25.446  31.060  1.00  0.00     0.040 A 
ATOM     86  C   UNL A   1      50.467  26.605  28.996  1.00  0.00     0.040 A 
ATOM     87  F   UNL A   1      48.755  27.809  27.939  1.00  0.00    -0.206 F 
ATOM     88  C   UNL A   1      50.916  25.808  30.047  1.00  0.00     0.006 A 
ENDBRANCH  64  81
ENDBRANCH  38  39
ENDBRANCH  30  33
ENDBRANCH  28  29
ENDBRANCH  27  28
ENDBRANCH  26  27
ENDBRANCH  25  26
ENDBRANCH   1  25
TORSDOF 18
ENDMDL
