MODEL 1
REMARK VINA RESULT:     -13.0      0.000      0.000
REMARK SMILES CCc1ccc(-c2cc(Cl)cc3c2O[C@H](C(F)(F)F)C(C(=O)NCCCCCCNC(=O)c2ccc(-c4c5nc(c(-c6c(F)cccc6F)c6ccc([nH]6)c(-c6c(F)cccc6F)c6nc(c(-c7c(F)cccc7F)c7ccc4[nH]7)C=C6)C=C5)cc2)=C3)cc1
REMARK SMILES IDX 26 1 25 2 24 3 23 4 21 5 22 6 20 8 7 9 8 10 13 11 9 12 12 13
REMARK SMILES IDX 14 14 10 15 11 16 87 17 15 18 6 19 3 20 4 21 89 22 5 23
REMARK SMILES IDX 88 24 2 25 1 26 16 27 17 28 18 29 19 30 27 31 28 32 29 33
REMARK SMILES IDX 30 34 31 35 32 37 33 38 34 39 86 40 35 41 85 42 36 43 37 44
REMARK SMILES IDX 38 45 79 46 39 47 84 48 78 49 80 50 40 51 83 52 77 53 76 54
REMARK SMILES IDX 41 56 67 57 50 58 66 59 51 60 54 61 65 62 81 63 52 64 53 65
REMARK SMILES IDX 64 67 82 68 55 69 42 70 43 71 48 72 44 73 45 74 47 75 49 76
REMARK SMILES IDX 46 77 68 78 69 79 74 80 70 81 71 82 73 83 75 84 72 85 56 86
REMARK SMILES IDX 57 87 62 88 58 89 59 90 61 91 63 92 60 93
REMARK H PARENT 23 7 30 36 80 55 54 66
REMARK Flexibility Score: inf
ROOT
ATOM      1  C   UNL A   1      32.029  29.400  27.201  1.00  0.00     0.002 C 
ENDROOT
BRANCH   1   2
ATOM      2  C   UNL A   1      31.994  27.945  26.706  1.00  0.00     0.021 C 
BRANCH   2   3
ATOM      3  C   UNL A   1      32.623  27.720  25.322  1.00  0.00     0.116 C 
BRANCH   3   4
ATOM      4  N   UNL A   1      33.733  26.797  25.433  1.00  0.00    -0.352 N 
ATOM      5  C   UNL A   1      33.638  25.448  25.321  1.00  0.00     0.251 C 
ATOM      6  O   UNL A   1      34.125  24.724  26.180  1.00  0.00    -0.270 OA
ATOM      7  H   UNL A   1      34.625  27.177  25.603  1.00  0.00     0.163 HD
BRANCH   5   8
ATOM      8  C   UNL A   1      33.074  24.933  24.039  1.00  0.00     0.067 C 
ATOM      9  C   UNL A   1      33.929  20.995  24.540  1.00  0.00     0.026 A 
ATOM     10  C   UNL A   1      35.281  20.922  24.979  1.00  0.00     0.033 A 
ATOM     11  C   UNL A   1      33.512  22.233  24.020  1.00  0.00     0.135 A 
ATOM     12  C   UNL A   1      36.198  21.950  24.778  1.00  0.00     0.042 A 
ATOM     13  C   UNL A   1      34.490  23.217  23.713  1.00  0.00     0.019 A 
ATOM     14  O   UNL A   1      32.177  22.581  23.845  1.00  0.00    -0.475 OA
ATOM     15  Cl  UNL A   1      37.796  21.804  25.389  1.00  0.00    -0.084 Cl
ATOM     16  C   UNL A   1      35.826  23.078  24.077  1.00  0.00     0.032 A 
ATOM     17  C   UNL A   1      34.024  24.515  23.181  1.00  0.00     0.025 C 
ATOM     18  C   UNL A   1      31.878  24.006  24.187  1.00  0.00     0.314 C 
BRANCH   9  19
ATOM     19  C   UNL A   1      33.217  19.687  24.533  1.00  0.00    -0.015 A 
ATOM     20  C   UNL A   1      32.943  16.845  24.782  1.00  0.00    -0.048 A 
ATOM     21  C   UNL A   1      32.707  17.693  25.871  1.00  0.00     0.004 A 
ATOM     22  C   UNL A   1      33.175  17.443  23.538  1.00  0.00     0.004 A 
ATOM     23  C   UNL A   1      32.824  19.086  25.746  1.00  0.00     0.009 A 
ATOM     24  C   UNL A   1      33.308  18.842  23.414  1.00  0.00     0.009 A 
BRANCH  20  25
ATOM     25  C   UNL A   1      32.896  15.346  24.999  1.00  0.00     0.032 C 
ATOM     26  C   UNL A   1      32.159  14.845  26.239  1.00  0.00     0.009 C 
ENDBRANCH  20  25
ENDBRANCH   9  19
BRANCH  18  27
ATOM     27  C   UNL A   1      30.729  24.588  23.332  1.00  0.00     0.429 C 
ATOM     28  F   UNL A   1      29.905  23.638  22.841  1.00  0.00    -0.167 F 
ATOM     29  F   UNL A   1      29.978  25.462  24.044  1.00  0.00    -0.167 F 
ATOM     30  F   UNL A   1      31.189  25.288  22.257  1.00  0.00    -0.167 F 
ENDBRANCH  18  27
ENDBRANCH   5   8
ENDBRANCH   3   4
ENDBRANCH   2   3
ENDBRANCH   1   2
BRANCH   1  31
ATOM     31  C   UNL A   1      31.770  30.454  26.122  1.00  0.00     0.002 C 
BRANCH  31  32
ATOM     32  C   UNL A   1      31.510  31.860  26.661  1.00  0.00     0.021 C 
BRANCH  32  33
ATOM     33  C   UNL A   1      32.735  32.543  27.256  1.00  0.00     0.116 C 
BRANCH  33  34
ATOM     34  N   UNL A   1      32.491  33.941  27.578  1.00  0.00    -0.352 N 
ATOM     35  C   UNL A   1      33.089  34.721  28.534  1.00  0.00     0.251 C 
ATOM     36  H   UNL A   1      31.802  34.388  27.034  1.00  0.00     0.163 HD
ATOM     37  O   UNL A   1      32.649  35.839  28.790  1.00  0.00    -0.269 OA
BRANCH  35  38
ATOM     38  C   UNL A   1      34.251  34.197  29.277  1.00  0.00     0.039 A 
ATOM     39  C   UNL A   1      34.029  33.421  30.418  1.00  0.00     0.014 A 
ATOM     40  C   UNL A   1      35.554  34.451  28.838  1.00  0.00     0.014 A 
ATOM     41  C   UNL A   1      35.114  32.853  31.086  1.00  0.00     0.010 A 
ATOM     42  C   UNL A   1      36.626  33.818  29.456  1.00  0.00     0.010 A 
ATOM     43  C   UNL A   1      36.418  33.018  30.589  1.00  0.00    -0.014 A 
BRANCH  43  44
ATOM     44  C   UNL A   1      37.574  32.353  31.241  1.00  0.00     0.031 A 
ATOM     45  C   UNL A   1      38.270  31.207  30.567  1.00  0.00     0.074 A 
ATOM     46  C   UNL A   1      37.950  32.739  32.475  1.00  0.00     0.049 A 
ATOM     47  N   UNL A   1      39.265  30.473  30.998  1.00  0.00    -0.248 NA
ATOM     48  C   UNL A   1      37.760  30.810  29.246  1.00  0.00     0.031 C 
ATOM     49  C   UNL A   1      37.309  33.794  33.263  1.00  0.00     0.029 A 
ATOM     50  N   UNL A   1      38.952  32.275  33.291  1.00  0.00    -0.354 N 
ATOM     51  C   UNL A   1      39.487  29.521  30.013  1.00  0.00     0.074 A 
ATOM     52  C   UNL A   1      38.486  29.732  28.989  1.00  0.00     0.031 C 
ATOM     53  C   UNL A   1      37.944  33.909  34.439  1.00  0.00     0.029 A 
ATOM     54  C   UNL A   1      39.009  32.913  34.506  1.00  0.00     0.049 A 
ATOM     55  H   UNL A   1      39.569  31.554  33.030  1.00  0.00     0.167 HD
ATOM     56  C   UNL A   1      40.450  28.571  29.955  1.00  0.00     0.037 A 
ATOM     57  C   UNL A   1      39.821  32.712  35.561  1.00  0.00     0.037 A 
ATOM     58  C   UNL A   1      41.452  28.376  30.971  1.00  0.00     0.049 A 
ATOM     59  C   UNL A   1      40.890  31.661  35.475  1.00  0.00     0.074 A 
ATOM     60  C   UNL A   1      42.522  27.498  30.971  1.00  0.00     0.029 A 
ATOM     61  N   UNL A   1      41.497  29.060  32.178  1.00  0.00    -0.354 N 
ATOM     62  N   UNL A   1      41.153  30.828  34.495  1.00  0.00    -0.248 NA
ATOM     63  C   UNL A   1      41.783  31.525  36.633  1.00  0.00     0.031 C 
ATOM     64  C   UNL A   1      43.176  27.606  32.203  1.00  0.00     0.029 A 
ATOM     65  C   UNL A   1      42.554  28.597  32.947  1.00  0.00     0.049 A 
ATOM     66  H   UNL A   1      40.870  29.769  32.449  1.00  0.00     0.167 HD
ATOM     67  C   UNL A   1      42.250  30.085  34.909  1.00  0.00     0.074 A 
ATOM     68  C   UNL A   1      42.614  30.577  36.223  1.00  0.00     0.031 C 
ATOM     69  C   UNL A   1      42.898  29.086  34.260  1.00  0.00     0.037 A 
BRANCH  56  70
ATOM     70  C   UNL A   1      40.447  27.660  28.758  1.00  0.00     0.057 A 
ATOM     71  C   UNL A   1      41.214  27.928  27.615  1.00  0.00     0.134 A 
ATOM     72  C   UNL A   1      39.663  26.499  28.749  1.00  0.00     0.134 A 
ATOM     73  F   UNL A   1      41.980  29.028  27.551  1.00  0.00    -0.206 F 
ATOM     74  C   UNL A   1      41.164  27.102  26.490  1.00  0.00     0.040 A 
ATOM     75  C   UNL A   1      39.632  25.647  27.643  1.00  0.00     0.040 A 
ATOM     76  F   UNL A   1      38.913  26.174  29.811  1.00  0.00    -0.206 F 
ATOM     77  C   UNL A   1      40.375  25.955  26.505  1.00  0.00     0.006 A 
ENDBRANCH  56  70
BRANCH  57  78
ATOM     78  C   UNL A   1      39.654  33.545  36.777  1.00  0.00     0.057 A 
ATOM     79  C   UNL A   1      40.363  34.739  36.942  1.00  0.00     0.134 A 
ATOM     80  C   UNL A   1      38.747  33.187  37.783  1.00  0.00     0.134 A 
ATOM     81  F   UNL A   1      41.257  35.127  36.021  1.00  0.00    -0.206 F 
ATOM     82  C   UNL A   1      40.182  35.546  38.067  1.00  0.00     0.040 A 
ATOM     83  C   UNL A   1      38.538  33.997  38.900  1.00  0.00     0.040 A 
ATOM     84  F   UNL A   1      38.028  32.060  37.676  1.00  0.00    -0.206 F 
ATOM     85  C   UNL A   1      39.259  35.180  39.046  1.00  0.00     0.006 A 
ENDBRANCH  57  78
BRANCH  69  86
ATOM     86  C   UNL A   1      44.080  28.468  34.952  1.00  0.00     0.057 A 
ATOM     87  C   UNL A   1      43.957  27.321  35.746  1.00  0.00     0.134 A 
ATOM     88  C   UNL A   1      45.363  29.006  34.788  1.00  0.00     0.134 A 
ATOM     89  F   UNL A   1      42.756  26.762  35.954  1.00  0.00    -0.206 F 
ATOM     90  C   UNL A   1      45.065  26.745  36.371  1.00  0.00     0.040 A 
ATOM     91  C   UNL A   1      46.482  28.422  35.383  1.00  0.00     0.040 A 
ATOM     92  F   UNL A   1      45.553  30.099  34.033  1.00  0.00    -0.206 F 
ATOM     93  C   UNL A   1      46.333  27.292  36.184  1.00  0.00     0.006 A 
ENDBRANCH  69  86
ENDBRANCH  43  44
ENDBRANCH  35  38
ENDBRANCH  33  34
ENDBRANCH  32  33
ENDBRANCH  31  32
ENDBRANCH   1  31
TORSDOF 16
ENDMDL
MODEL 2
REMARK VINA RESULT:     -12.9      4.395      9.395
REMARK SMILES CCc1ccc(-c2cc(Cl)cc3c2O[C@H](C(F)(F)F)C(C(=O)NCCCCCCNC(=O)c2ccc(-c4c5nc(c(-c6c(F)cccc6F)c6ccc([nH]6)c(-c6c(F)cccc6F)c6nc(c(-c7c(F)cccc7F)c7ccc4[nH]7)C=C6)C=C5)cc2)=C3)cc1
REMARK SMILES IDX 26 1 25 2 24 3 23 4 21 5 22 6 20 8 7 9 8 10 13 11 9 12 12 13
REMARK SMILES IDX 14 14 10 15 11 16 87 17 15 18 6 19 3 20 4 21 89 22 5 23
REMARK SMILES IDX 88 24 2 25 1 26 16 27 17 28 18 29 19 30 27 31 28 32 29 33
REMARK SMILES IDX 30 34 31 35 32 37 33 38 34 39 86 40 35 41 85 42 36 43 37 44
REMARK SMILES IDX 38 45 79 46 39 47 84 48 78 49 80 50 40 51 83 52 77 53 76 54
REMARK SMILES IDX 41 56 67 57 50 58 66 59 51 60 54 61 65 62 81 63 52 64 53 65
REMARK SMILES IDX 64 67 82 68 55 69 42 70 43 71 48 72 44 73 45 74 47 75 49 76
REMARK SMILES IDX 46 77 68 78 69 79 74 80 70 81 71 82 73 83 75 84 72 85 56 86
REMARK SMILES IDX 57 87 62 88 58 89 59 90 61 91 63 92 60 93
REMARK H PARENT 23 7 30 36 80 55 54 66
REMARK Flexibility Score: inf
ROOT
ATOM      1  C   UNL A   1      35.721  18.509  24.957  1.00  0.00     0.002 C 
ENDROOT
BRANCH   1   2
ATOM      2  C   UNL A   1      34.427  18.357  24.141  1.00  0.00     0.021 C 
BRANCH   2   3
ATOM      3  C   UNL A   1      33.224  19.141  24.688  1.00  0.00     0.116 C 
BRANCH   3   4
ATOM      4  N   UNL A   1      32.935  20.263  23.821  1.00  0.00    -0.352 N 
ATOM      5  C   UNL A   1      32.588  21.505  24.245  1.00  0.00     0.251 C 
ATOM      6  O   UNL A   1      31.596  22.056  23.785  1.00  0.00    -0.270 OA
ATOM      7  H   UNL A   1      32.994  20.115  22.850  1.00  0.00     0.163 HD
BRANCH   5   8
ATOM      8  C   UNL A   1      33.563  22.190  25.143  1.00  0.00     0.067 C 
ATOM      9  C   UNL A   1      32.395  26.025  24.493  1.00  0.00     0.026 A 
ATOM     10  C   UNL A   1      32.263  26.180  23.085  1.00  0.00     0.033 A 
ATOM     11  C   UNL A   1      33.073  24.872  24.930  1.00  0.00     0.135 A 
ATOM     12  C   UNL A   1      32.890  25.337  22.170  1.00  0.00     0.042 A 
ATOM     13  C   UNL A   1      33.803  24.102  23.986  1.00  0.00     0.019 A 
ATOM     14  O   UNL A   1      33.019  24.400  26.237  1.00  0.00    -0.475 OA
ATOM     15  Cl  UNL A   1      32.634  25.561  20.486  1.00  0.00    -0.084 Cl
ATOM     16  C   UNL A   1      33.725  24.335  22.615  1.00  0.00     0.032 A 
ATOM     17  C   UNL A   1      34.495  22.888  24.467  1.00  0.00     0.025 C 
ATOM     18  C   UNL A   1      32.947  22.909  26.333  1.00  0.00     0.314 C 
BRANCH   9  19
ATOM     19  C   UNL A   1      31.949  27.206  25.283  1.00  0.00    -0.015 A 
ATOM     20  C   UNL A   1      32.184  29.786  26.508  1.00  0.00    -0.048 A 
ATOM     21  C   UNL A   1      31.650  29.641  25.222  1.00  0.00     0.004 A 
ATOM     22  C   UNL A   1      32.461  28.617  27.226  1.00  0.00     0.004 A 
ATOM     23  C   UNL A   1      31.518  28.377  24.627  1.00  0.00     0.009 A 
ATOM     24  C   UNL A   1      32.345  27.346  26.623  1.00  0.00     0.009 A 
BRANCH  20  25
ATOM     25  C   UNL A   1      32.391  31.182  27.061  1.00  0.00     0.032 C 
ATOM     26  C   UNL A   1      31.348  32.237  26.697  1.00  0.00     0.009 C 
ENDBRANCH  20  25
ENDBRANCH   9  19
BRANCH  18  27
ATOM     27  C   UNL A   1      33.633  22.367  27.609  1.00  0.00     0.429 C 
ATOM     28  F   UNL A   1      34.739  23.064  27.948  1.00  0.00    -0.167 F 
ATOM     29  F   UNL A   1      32.789  22.387  28.668  1.00  0.00    -0.167 F 
ATOM     30  F   UNL A   1      34.025  21.070  27.473  1.00  0.00    -0.167 F 
ENDBRANCH  18  27
ENDBRANCH   5   8
ENDBRANCH   3   4
ENDBRANCH   2   3
ENDBRANCH   1   2
BRANCH   1  31
ATOM     31  C   UNL A   1      36.277  19.932  25.022  1.00  0.00     0.002 C 
BRANCH  31  32
ATOM     32  C   UNL A   1      37.731  20.065  24.568  1.00  0.00     0.021 C 
BRANCH  32  33
ATOM     33  C   UNL A   1      38.721  20.332  25.695  1.00  0.00     0.116 C 
BRANCH  33  34
ATOM     34  N   UNL A   1      39.787  19.343  25.744  1.00  0.00    -0.352 N 
ATOM     35  C   UNL A   1      41.109  19.519  26.063  1.00  0.00     0.251 C 
ATOM     36  H   UNL A   1      39.523  18.422  25.517  1.00  0.00     0.163 HD
ATOM     37  O   UNL A   1      41.917  18.609  25.894  1.00  0.00    -0.269 OA
BRANCH  35  38
ATOM     38  C   UNL A   1      41.564  20.823  26.585  1.00  0.00     0.039 A 
ATOM     39  C   UNL A   1      41.997  21.798  25.682  1.00  0.00     0.014 A 
ATOM     40  C   UNL A   1      41.544  21.088  27.957  1.00  0.00     0.014 A 
ATOM     41  C   UNL A   1      42.354  23.061  26.155  1.00  0.00     0.010 A 
ATOM     42  C   UNL A   1      41.822  22.371  28.416  1.00  0.00     0.010 A 
ATOM     43  C   UNL A   1      42.236  23.368  27.520  1.00  0.00    -0.014 A 
BRANCH  43  44
ATOM     44  C   UNL A   1      42.535  24.731  28.026  1.00  0.00     0.031 A 
ATOM     45  C   UNL A   1      43.923  25.087  28.475  1.00  0.00     0.074 A 
ATOM     46  C   UNL A   1      41.536  25.626  28.148  1.00  0.00     0.049 A 
ATOM     47  N   UNL A   1      44.365  26.207  28.987  1.00  0.00    -0.248 NA
ATOM     48  C   UNL A   1      44.943  24.033  28.363  1.00  0.00     0.031 C 
ATOM     49  C   UNL A   1      40.133  25.378  27.811  1.00  0.00     0.029 A 
ATOM     50  N   UNL A   1      41.546  26.920  28.606  1.00  0.00    -0.354 N 
ATOM     51  C   UNL A   1      45.706  25.988  29.274  1.00  0.00     0.074 A 
ATOM     52  C   UNL A   1      45.989  24.611  28.935  1.00  0.00     0.031 C 
ATOM     53  C   UNL A   1      39.421  26.488  28.056  1.00  0.00     0.029 A 
ATOM     54  C   UNL A   1      40.307  27.512  28.603  1.00  0.00     0.049 A 
ATOM     55  H   UNL A   1      42.362  27.379  28.907  1.00  0.00     0.167 HD
ATOM     56  C   UNL A   1      46.622  26.860  29.757  1.00  0.00     0.037 A 
ATOM     57  C   UNL A   1      39.923  28.738  29.004  1.00  0.00     0.037 A 
ATOM     58  C   UNL A   1      46.335  28.235  30.079  1.00  0.00     0.049 A 
ATOM     59  C   UNL A   1      40.955  29.696  29.527  1.00  0.00     0.074 A 
ATOM     60  C   UNL A   1      47.209  29.224  30.495  1.00  0.00     0.029 A 
ATOM     61  N   UNL A   1      45.072  28.809  30.038  1.00  0.00    -0.354 N 
ATOM     62  N   UNL A   1      42.241  29.508  29.704  1.00  0.00    -0.248 NA
ATOM     63  C   UNL A   1      40.488  31.038  29.897  1.00  0.00     0.031 C 
ATOM     64  C   UNL A   1      46.466  30.378  30.765  1.00  0.00     0.029 A 
ATOM     65  C   UNL A   1      45.137  30.129  30.457  1.00  0.00     0.049 A 
ATOM     66  H   UNL A   1      44.251  28.347  29.753  1.00  0.00     0.167 HD
ATOM     67  C   UNL A   1      42.740  30.711  30.187  1.00  0.00     0.074 A 
ATOM     68  C   UNL A   1      41.619  31.627  30.259  1.00  0.00     0.031 C 
ATOM     69  C   UNL A   1      44.011  31.028  30.537  1.00  0.00     0.037 A 
BRANCH  56  70
ATOM     70  C   UNL A   1      48.015  26.341  29.981  1.00  0.00     0.057 A 
ATOM     71  C   UNL A   1      48.988  26.353  28.970  1.00  0.00     0.134 A 
ATOM     72  C   UNL A   1      48.389  25.817  31.225  1.00  0.00     0.134 A 
ATOM     73  F   UNL A   1      48.696  26.831  27.751  1.00  0.00    -0.206 F 
ATOM     74  C   UNL A   1      50.263  25.822  29.175  1.00  0.00     0.040 A 
ATOM     75  C   UNL A   1      49.671  25.315  31.452  1.00  0.00     0.040 A 
ATOM     76  F   UNL A   1      47.514  25.782  32.240  1.00  0.00    -0.206 F 
ATOM     77  C   UNL A   1      50.608  25.305  30.421  1.00  0.00     0.006 A 
ENDBRANCH  56  70
BRANCH  57  78
ATOM     78  C   UNL A   1      38.493  29.122  28.906  1.00  0.00     0.057 A 
ATOM     79  C   UNL A   1      37.640  29.035  30.011  1.00  0.00     0.134 A 
ATOM     80  C   UNL A   1      37.958  29.628  27.714  1.00  0.00     0.134 A 
ATOM     81  F   UNL A   1      38.092  28.545  31.175  1.00  0.00    -0.206 F 
ATOM     82  C   UNL A   1      36.304  29.430  29.935  1.00  0.00     0.040 A 
ATOM     83  C   UNL A   1      36.630  30.049  27.630  1.00  0.00     0.040 A 
ATOM     84  F   UNL A   1      38.728  29.747  26.623  1.00  0.00    -0.206 F 
ATOM     85  C   UNL A   1      35.798  29.949  28.743  1.00  0.00     0.006 A 
ENDBRANCH  57  78
BRANCH  69  86
ATOM     86  C   UNL A   1      44.264  32.429  31.014  1.00  0.00     0.057 A 
ATOM     87  C   UNL A   1      44.257  32.762  32.375  1.00  0.00     0.134 A 
ATOM     88  C   UNL A   1      44.559  33.451  30.102  1.00  0.00     0.134 A 
ATOM     89  F   UNL A   1      43.971  31.835  33.301  1.00  0.00    -0.206 F 
ATOM     90  C   UNL A   1      44.510  34.065  32.808  1.00  0.00     0.040 A 
ATOM     91  C   UNL A   1      44.843  34.750  30.524  1.00  0.00     0.040 A 
ATOM     92  F   UNL A   1      44.592  33.199  28.784  1.00  0.00    -0.206 F 
ATOM     93  C   UNL A   1      44.812  35.062  31.882  1.00  0.00     0.006 A 
ENDBRANCH  69  86
ENDBRANCH  43  44
ENDBRANCH  35  38
ENDBRANCH  33  34
ENDBRANCH  32  33
ENDBRANCH  31  32
ENDBRANCH   1  31
TORSDOF 16
ENDMDL
MODEL 3
REMARK VINA RESULT:     -12.8      5.612     11.010
REMARK SMILES CCc1ccc(-c2cc(Cl)cc3c2O[C@H](C(F)(F)F)C(C(=O)NCCCCCCNC(=O)c2ccc(-c4c5nc(c(-c6c(F)cccc6F)c6ccc([nH]6)c(-c6c(F)cccc6F)c6nc(c(-c7c(F)cccc7F)c7ccc4[nH]7)C=C6)C=C5)cc2)=C3)cc1
REMARK SMILES IDX 26 1 25 2 24 3 23 4 21 5 22 6 20 8 7 9 8 10 13 11 9 12 12 13
REMARK SMILES IDX 14 14 10 15 11 16 87 17 15 18 6 19 3 20 4 21 89 22 5 23
REMARK SMILES IDX 88 24 2 25 1 26 16 27 17 28 18 29 19 30 27 31 28 32 29 33
REMARK SMILES IDX 30 34 31 35 32 37 33 38 34 39 86 40 35 41 85 42 36 43 37 44
REMARK SMILES IDX 38 45 79 46 39 47 84 48 78 49 80 50 40 51 83 52 77 53 76 54
REMARK SMILES IDX 41 56 67 57 50 58 66 59 51 60 54 61 65 62 81 63 52 64 53 65
REMARK SMILES IDX 64 67 82 68 55 69 42 70 43 71 48 72 44 73 45 74 47 75 49 76
REMARK SMILES IDX 46 77 68 78 69 79 74 80 70 81 71 82 73 83 75 84 72 85 56 86
REMARK SMILES IDX 57 87 62 88 58 89 59 90 61 91 63 92 60 93
REMARK H PARENT 23 7 30 36 80 55 54 66
REMARK Flexibility Score: inf
ROOT
ATOM      1  C   UNL A   1      33.728  35.635  29.589  1.00  0.00     0.002 C 
ENDROOT
BRANCH   1   2
ATOM      2  C   UNL A   1      33.315  35.462  31.060  1.00  0.00     0.021 C 
BRANCH   2   3
ATOM      3  C   UNL A   1      34.315  36.027  32.080  1.00  0.00     0.116 C 
BRANCH   3   4
ATOM      4  N   UNL A   1      34.632  35.016  33.067  1.00  0.00    -0.352 N 
ATOM      5  C   UNL A   1      35.368  33.902  32.832  1.00  0.00     0.251 C 
ATOM      6  O   UNL A   1      34.943  32.803  33.163  1.00  0.00    -0.270 OA
ATOM      7  H   UNL A   1      34.285  35.147  33.979  1.00  0.00     0.163 HD
BRANCH   5   8
ATOM      8  C   UNL A   1      36.753  34.125  32.320  1.00  0.00     0.067 C 
ATOM      9  C   UNL A   1      38.678  31.325  34.545  1.00  0.00     0.026 A 
ATOM     10  C   UNL A   1      38.218  31.477  35.882  1.00  0.00     0.033 A 
ATOM     11  C   UNL A   1      38.374  32.375  33.660  1.00  0.00     0.135 A 
ATOM     12  C   UNL A   1      37.633  32.650  36.351  1.00  0.00     0.042 A 
ATOM     13  C   UNL A   1      37.891  33.603  34.188  1.00  0.00     0.019 A 
ATOM     14  O   UNL A   1      38.457  32.262  32.277  1.00  0.00    -0.475 OA
ATOM     15  Cl  UNL A   1      37.054  32.731  37.967  1.00  0.00    -0.084 Cl
ATOM     16  C   UNL A   1      37.531  33.749  35.525  1.00  0.00     0.032 A 
ATOM     17  C   UNL A   1      37.564  34.686  33.236  1.00  0.00     0.025 C 
ATOM     18  C   UNL A   1      37.350  32.958  31.550  1.00  0.00     0.314 C 
BRANCH   9  19
ATOM     19  C   UNL A   1      39.573  30.153  34.335  1.00  0.00    -0.015 A 
ATOM     20  C   UNL A   1      41.691  28.649  33.124  1.00  0.00    -0.048 A 
ATOM     21  C   UNL A   1      41.916  29.426  34.268  1.00  0.00     0.004 A 
ATOM     22  C   UNL A   1      40.369  28.520  32.684  1.00  0.00     0.004 A 
ATOM     23  C   UNL A   1      40.876  30.149  34.872  1.00  0.00     0.009 A 
ATOM     24  C   UNL A   1      39.325  29.259  33.280  1.00  0.00     0.009 A 
BRANCH  20  25
ATOM     25  C   UNL A   1      42.870  27.967  32.460  1.00  0.00     0.032 C 
ATOM     26  C   UNL A   1      44.083  27.663  33.337  1.00  0.00     0.009 C 
ENDBRANCH  20  25
ENDBRANCH   9  19
BRANCH  18  27
ATOM     27  C   UNL A   1      37.798  33.493  30.169  1.00  0.00     0.429 C 
ATOM     28  F   UNL A   1      37.828  32.535  29.218  1.00  0.00    -0.167 F 
ATOM     29  F   UNL A   1      36.981  34.483  29.736  1.00  0.00    -0.167 F 
ATOM     30  F   UNL A   1      39.047  34.035  30.206  1.00  0.00    -0.167 F 
ENDBRANCH  18  27
ENDBRANCH   5   8
ENDBRANCH   3   4
ENDBRANCH   2   3
ENDBRANCH   1   2
BRANCH   1  31
ATOM     31  C   UNL A   1      33.247  34.525  28.651  1.00  0.00     0.002 C 
BRANCH  31  32
ATOM     32  C   UNL A   1      34.361  33.637  28.100  1.00  0.00     0.021 C 
BRANCH  32  33
ATOM     33  C   UNL A   1      34.652  32.397  28.937  1.00  0.00     0.116 C 
BRANCH  33  34
ATOM     34  N   UNL A   1      34.033  31.199  28.391  1.00  0.00    -0.352 N 
ATOM     35  C   UNL A   1      34.626  30.028  27.996  1.00  0.00     0.251 C 
ATOM     36  H   UNL A   1      33.054  31.235  28.292  1.00  0.00     0.163 HD
ATOM     37  O   UNL A   1      33.978  29.172  27.398  1.00  0.00    -0.269 OA
BRANCH  35  38
ATOM     38  C   UNL A   1      36.061  29.812  28.268  1.00  0.00     0.039 A 
ATOM     39  C   UNL A   1      36.445  29.327  29.520  1.00  0.00     0.014 A 
ATOM     40  C   UNL A   1      37.020  30.067  27.283  1.00  0.00     0.014 A 
ATOM     41  C   UNL A   1      37.789  29.043  29.765  1.00  0.00     0.010 A 
ATOM     42  C   UNL A   1      38.345  29.707  27.501  1.00  0.00     0.010 A 
ATOM     43  C   UNL A   1      38.744  29.197  28.746  1.00  0.00    -0.014 A 
BRANCH  43  44
ATOM     44  C   UNL A   1      40.163  28.823  28.965  1.00  0.00     0.031 A 
ATOM     45  C   UNL A   1      41.131  29.818  29.536  1.00  0.00     0.074 A 
ATOM     46  C   UNL A   1      40.594  27.607  28.580  1.00  0.00     0.049 A 
ATOM     47  N   UNL A   1      42.415  29.691  29.756  1.00  0.00    -0.248 NA
ATOM     48  C   UNL A   1      40.592  31.144  29.875  1.00  0.00     0.031 C 
ATOM     49  C   UNL A   1      39.766  26.576  27.950  1.00  0.00     0.029 A 
ATOM     50  N   UNL A   1      41.841  27.037  28.648  1.00  0.00    -0.354 N 
ATOM     51  C   UNL A   1      42.839  30.921  30.241  1.00  0.00     0.074 A 
ATOM     52  C   UNL A   1      41.689  31.798  30.227  1.00  0.00     0.031 C 
ATOM     53  C   UNL A   1      40.522  25.496  27.705  1.00  0.00     0.029 A 
ATOM     54  C   UNL A   1      41.894  25.769  28.124  1.00  0.00     0.049 A 
ATOM     55  H   UNL A   1      42.622  27.494  29.034  1.00  0.00     0.167 HD
ATOM     56  C   UNL A   1      44.069  31.281  30.678  1.00  0.00     0.037 A 
ATOM     57  C   UNL A   1      42.932  24.922  27.986  1.00  0.00     0.037 A 
ATOM     58  C   UNL A   1      45.207  30.397  30.703  1.00  0.00     0.049 A 
ATOM     59  C   UNL A   1      44.287  25.334  28.486  1.00  0.00     0.074 A 
ATOM     60  C   UNL A   1      46.475  30.636  31.202  1.00  0.00     0.029 A 
ATOM     61  N   UNL A   1      45.216  29.108  30.189  1.00  0.00    -0.354 N 
ATOM     62  N   UNL A   1      44.655  26.469  29.033  1.00  0.00    -0.248 NA
ATOM     63  C   UNL A   1      45.368  24.349  28.361  1.00  0.00     0.031 C 
ATOM     64  C   UNL A   1      47.268  29.515  30.935  1.00  0.00     0.029 A 
ATOM     65  C   UNL A   1      46.479  28.552  30.325  1.00  0.00     0.049 A 
ATOM     66  H   UNL A   1      44.441  28.654  29.786  1.00  0.00     0.167 HD
ATOM     67  C   UNL A   1      46.003  26.328  29.334  1.00  0.00     0.074 A 
ATOM     68  C   UNL A   1      46.383  24.990  28.924  1.00  0.00     0.031 C 
ATOM     69  C   UNL A   1      46.849  27.224  29.900  1.00  0.00     0.037 A 
BRANCH  56  70
ATOM     70  C   UNL A   1      44.245  32.699  31.147  1.00  0.00     0.057 A 
ATOM     71  C   UNL A   1      44.609  33.734  30.274  1.00  0.00     0.134 A 
ATOM     72  C   UNL A   1      44.051  33.032  32.493  1.00  0.00     0.134 A 
ATOM     73  F   UNL A   1      44.822  33.484  28.973  1.00  0.00    -0.206 F 
ATOM     74  C   UNL A   1      44.819  35.037  30.731  1.00  0.00     0.040 A 
ATOM     75  C   UNL A   1      44.224  34.339  32.955  1.00  0.00     0.040 A 
ATOM     76  F   UNL A   1      43.692  32.096  33.383  1.00  0.00    -0.206 F 
ATOM     77  C   UNL A   1      44.621  35.343  32.075  1.00  0.00     0.006 A 
ENDBRANCH  56  70
BRANCH  57  78
ATOM     78  C   UNL A   1      42.711  23.596  27.359  1.00  0.00     0.057 A 
ATOM     79  C   UNL A   1      42.332  22.487  28.122  1.00  0.00     0.134 A 
ATOM     80  C   UNL A   1      42.831  23.418  25.975  1.00  0.00     0.134 A 
ATOM     81  F   UNL A   1      42.216  22.591  29.455  1.00  0.00    -0.206 F 
ATOM     82  C   UNL A   1      42.086  21.245  27.534  1.00  0.00     0.040 A 
ATOM     83  C   UNL A   1      42.564  22.189  25.371  1.00  0.00     0.040 A 
ATOM     84  F   UNL A   1      43.179  24.446  25.188  1.00  0.00    -0.206 F 
ATOM     85  C   UNL A   1      42.193  21.096  26.152  1.00  0.00     0.006 A 
ENDBRANCH  57  78
BRANCH  69  86
ATOM     86  C   UNL A   1      48.267  26.783  30.127  1.00  0.00     0.057 A 
ATOM     87  C   UNL A   1      49.290  27.079  29.216  1.00  0.00     0.134 A 
ATOM     88  C   UNL A   1      48.621  26.090  31.292  1.00  0.00     0.134 A 
ATOM     89  F   UNL A   1      49.018  27.729  28.076  1.00  0.00    -0.206 F 
ATOM     90  C   UNL A   1      50.608  26.678  29.446  1.00  0.00     0.040 A 
ATOM     91  C   UNL A   1      49.939  25.711  31.546  1.00  0.00     0.040 A 
ATOM     92  F   UNL A   1      47.692  25.783  32.211  1.00  0.00    -0.206 F 
ATOM     93  C   UNL A   1      50.937  25.999  30.617  1.00  0.00     0.006 A 
ENDBRANCH  69  86
ENDBRANCH  43  44
ENDBRANCH  35  38
ENDBRANCH  33  34
ENDBRANCH  32  33
ENDBRANCH  31  32
ENDBRANCH   1  31
TORSDOF 16
ENDMDL
