MODEL 1
REMARK VINA RESULT:     -10.6      0.000      0.000
REMARK SMILES CCc1ccc(O[C@H](CC)C(=O)NCCCCCCNC(=O)c2ccc(-c3c4nc(c(-c5c(F)cccc5F)c5ccc([nH]5)c(-c5c(F)cccc5F)c5nc(c(-c6c(F)cccc6F)c6ccc3[nH]6)C=C5)C=C4)cc2)c(Cl)c1
REMARK SMILES IDX 16 1 15 2 14 3 13 4 11 5 12 6 8 8 7 9 6 10 3 11 4 12 79 13
REMARK SMILES IDX 5 14 77 15 78 16 2 17 1 18 9 19 10 20 17 21 18 22 19 23
REMARK SMILES IDX 20 24 21 25 22 27 23 28 24 29 76 30 25 31 75 32 26 33 27 34
REMARK SMILES IDX 28 35 69 36 29 37 74 38 68 39 70 40 30 41 73 42 67 43 66 44
REMARK SMILES IDX 31 46 57 47 40 48 56 49 41 50 44 51 55 52 71 53 42 54 43 55
REMARK SMILES IDX 54 57 72 58 45 59 32 60 33 61 38 62 34 63 35 64 37 65 39 66
REMARK SMILES IDX 36 67 58 68 59 69 64 70 60 71 61 72 63 73 65 74 62 75 46 76
REMARK SMILES IDX 47 77 52 78 48 79 49 80 51 81 53 82 50 83
REMARK H PARENT 13 7 20 26 70 45 44 56
REMARK Flexibility Score: inf
ROOT
ATOM      1  C   UNL A   1      32.231  29.813  25.954  1.00  0.00     0.002 C 
ENDROOT
BRANCH   1   2
ATOM      2  C   UNL A   1      31.853  28.614  26.822  1.00  0.00     0.021 C 
BRANCH   2   3
ATOM      3  C   UNL A   1      32.150  27.261  26.193  1.00  0.00     0.116 C 
BRANCH   3   4
ATOM      4  N   UNL A   1      31.493  26.151  26.820  1.00  0.00    -0.353 N 
ATOM      5  C   UNL A   1      31.354  24.877  26.356  1.00  0.00     0.261 C 
ATOM      6  O   UNL A   1      30.910  24.051  27.164  1.00  0.00    -0.271 OA
ATOM      7  H   UNL A   1      31.089  26.333  27.700  1.00  0.00     0.163 HD
BRANCH   5   8
ATOM      8  C   UNL A   1      31.581  24.467  24.854  1.00  0.00     0.261 C 
BRANCH   8   9
ATOM      9  O   UNL A   1      30.710  24.744  23.756  1.00  0.00    -0.479 OA
BRANCH   9  10
ATOM     10  C   UNL A   1      30.187  25.970  23.472  1.00  0.00     0.139 A 
ATOM     11  C   UNL A   1      29.263  28.602  22.913  1.00  0.00    -0.047 A 
ATOM     12  C   UNL A   1      28.475  27.691  23.628  1.00  0.00     0.007 A 
ATOM     13  C   UNL A   1      30.486  28.148  22.405  1.00  0.00     0.028 A 
ATOM     14  C   UNL A   1      28.910  26.376  23.857  1.00  0.00     0.048 A 
ATOM     15  C   UNL A   1      30.939  26.847  22.676  1.00  0.00     0.083 A 
ATOM     16  Cl  UNL A   1      32.465  26.370  22.018  1.00  0.00    -0.080 Cl
BRANCH  11  17
ATOM     17  C   UNL A   1      28.789  30.034  22.790  1.00  0.00     0.032 C 
ATOM     18  C   UNL A   1      28.330  30.490  21.411  1.00  0.00     0.009 C 
ENDBRANCH  11  17
ENDBRANCH   9  10
ENDBRANCH   8   9
BRANCH   8  19
ATOM     19  C   UNL A   1      32.322  23.116  24.793  1.00  0.00     0.052 C 
ATOM     20  C   UNL A   1      32.512  22.634  23.360  1.00  0.00     0.008 C 
ENDBRANCH   8  19
ENDBRANCH   5   8
ENDBRANCH   3   4
ENDBRANCH   2   3
ENDBRANCH   1   2
BRANCH   1  21
ATOM     21  C   UNL A   1      31.070  30.747  25.586  1.00  0.00     0.002 C 
BRANCH  21  22
ATOM     22  C   UNL A   1      31.056  32.101  26.301  1.00  0.00     0.021 C 
BRANCH  22  23
ATOM     23  C   UNL A   1      32.391  32.516  26.910  1.00  0.00     0.116 C 
BRANCH  23  24
ATOM     24  N   UNL A   1      32.360  33.881  27.414  1.00  0.00    -0.352 N 
ATOM     25  C   UNL A   1      33.110  34.471  28.400  1.00  0.00     0.251 C 
ATOM     26  H   UNL A   1      31.699  34.470  26.983  1.00  0.00     0.163 HD
ATOM     27  O   UNL A   1      32.795  35.570  28.842  1.00  0.00    -0.269 OA
BRANCH  25  28
ATOM     28  C   UNL A   1      34.297  33.774  28.937  1.00  0.00     0.039 A 
ATOM     29  C   UNL A   1      35.569  34.240  28.595  1.00  0.00     0.014 A 
ATOM     30  C   UNL A   1      34.153  32.653  29.759  1.00  0.00     0.014 A 
ATOM     31  C   UNL A   1      36.698  33.620  29.132  1.00  0.00     0.010 A 
ATOM     32  C   UNL A   1      35.276  32.082  30.351  1.00  0.00     0.010 A 
ATOM     33  C   UNL A   1      36.559  32.559  30.042  1.00  0.00    -0.014 A 
BRANCH  33  34
ATOM     34  C   UNL A   1      37.740  31.936  30.689  1.00  0.00     0.031 A 
ATOM     35  C   UNL A   1      38.508  30.855  29.980  1.00  0.00     0.074 A 
ATOM     36  C   UNL A   1      38.076  32.292  31.943  1.00  0.00     0.049 A 
ATOM     37  N   UNL A   1      39.505  30.129  30.414  1.00  0.00    -0.248 NA
ATOM     38  C   UNL A   1      38.077  30.528  28.611  1.00  0.00     0.031 C 
ATOM     39  C   UNL A   1      37.386  33.301  32.751  1.00  0.00     0.029 A 
ATOM     40  N   UNL A   1      39.075  31.837  32.766  1.00  0.00    -0.354 N 
ATOM     41  C   UNL A   1      39.813  29.253  29.380  1.00  0.00     0.074 A 
ATOM     42  C   UNL A   1      38.861  29.499  28.320  1.00  0.00     0.031 C 
ATOM     43  C   UNL A   1      37.994  33.401  33.943  1.00  0.00     0.029 A 
ATOM     44  C   UNL A   1      39.086  32.435  34.003  1.00  0.00     0.049 A 
ATOM     45  H   UNL A   1      39.723  31.146  32.496  1.00  0.00     0.167 HD
ATOM     46  C   UNL A   1      40.812  28.340  29.314  1.00  0.00     0.037 A 
ATOM     47  C   UNL A   1      39.878  32.219  35.070  1.00  0.00     0.037 A 
ATOM     48  C   UNL A   1      41.768  28.111  30.365  1.00  0.00     0.049 A 
ATOM     49  C   UNL A   1      40.964  31.183  34.979  1.00  0.00     0.074 A 
ATOM     50  C   UNL A   1      42.850  27.249  30.374  1.00  0.00     0.029 A 
ATOM     51  N   UNL A   1      41.752  28.744  31.600  1.00  0.00    -0.354 N 
ATOM     52  N   UNL A   1      41.285  30.406  33.972  1.00  0.00    -0.248 NA
ATOM     53  C   UNL A   1      41.803  30.995  36.171  1.00  0.00     0.031 C 
ATOM     54  C   UNL A   1      43.457  27.322  31.631  1.00  0.00     0.029 A 
ATOM     55  C   UNL A   1      42.790  28.272  32.386  1.00  0.00     0.049 A 
ATOM     56  H   UNL A   1      41.100  29.430  31.875  1.00  0.00     0.167 HD
ATOM     57  C   UNL A   1      42.379  29.663  34.397  1.00  0.00     0.074 A 
ATOM     58  C   UNL A   1      42.674  30.090  35.749  1.00  0.00     0.031 C 
ATOM     59  C   UNL A   1      43.077  28.713  33.727  1.00  0.00     0.037 A 
BRANCH  46  60
ATOM     60  C   UNL A   1      40.920  27.519  28.061  1.00  0.00     0.057 A 
ATOM     61  C   UNL A   1      41.687  27.936  26.965  1.00  0.00     0.134 A 
ATOM     62  C   UNL A   1      40.277  26.279  27.961  1.00  0.00     0.134 A 
ATOM     63  F   UNL A   1      42.320  29.119  26.989  1.00  0.00    -0.206 F 
ATOM     64  C   UNL A   1      41.789  27.165  25.807  1.00  0.00     0.040 A 
ATOM     65  C   UNL A   1      40.396  25.483  26.820  1.00  0.00     0.040 A 
ATOM     66  F   UNL A   1      39.531  25.813  28.975  1.00  0.00    -0.206 F 
ATOM     67  C   UNL A   1      41.147  25.929  25.735  1.00  0.00     0.006 A 
ENDBRANCH  46  60
BRANCH  47  68
ATOM     68  C   UNL A   1      39.684  33.008  36.314  1.00  0.00     0.057 A 
ATOM     69  C   UNL A   1      38.790  32.586  37.305  1.00  0.00     0.134 A 
ATOM     70  C   UNL A   1      40.376  34.205  36.537  1.00  0.00     0.134 A 
ATOM     71  F   UNL A   1      38.086  31.457  37.142  1.00  0.00    -0.206 F 
ATOM     72  C   UNL A   1      38.573  33.336  38.462  1.00  0.00     0.040 A 
ATOM     73  C   UNL A   1      40.190  34.951  37.703  1.00  0.00     0.040 A 
ATOM     74  F   UNL A   1      41.255  34.660  35.632  1.00  0.00    -0.206 F 
ATOM     75  C   UNL A   1      39.278  34.521  38.665  1.00  0.00     0.006 A 
ENDBRANCH  47  68
BRANCH  59  76
ATOM     76  C   UNL A   1      44.255  28.099  34.428  1.00  0.00     0.057 A 
ATOM     77  C   UNL A   1      44.145  26.911  35.160  1.00  0.00     0.134 A 
ATOM     78  C   UNL A   1      45.524  28.683  34.327  1.00  0.00     0.134 A 
ATOM     79  F   UNL A   1      42.956  26.308  35.307  1.00  0.00    -0.206 F 
ATOM     80  C   UNL A   1      45.254  26.335  35.785  1.00  0.00     0.040 A 
ATOM     81  C   UNL A   1      46.645  28.101  34.921  1.00  0.00     0.040 A 
ATOM     82  F   UNL A   1      45.701  29.817  33.633  1.00  0.00    -0.206 F 
ATOM     83  C   UNL A   1      46.510  26.926  35.658  1.00  0.00     0.006 A 
ENDBRANCH  59  76
ENDBRANCH  33  34
ENDBRANCH  25  28
ENDBRANCH  23  24
ENDBRANCH  22  23
ENDBRANCH  21  22
ENDBRANCH   1  21
TORSDOF 17
ENDMDL
MODEL 2
REMARK VINA RESULT:     -10.5      5.340     10.352
REMARK SMILES CCc1ccc(O[C@H](CC)C(=O)NCCCCCCNC(=O)c2ccc(-c3c4nc(c(-c5c(F)cccc5F)c5ccc([nH]5)c(-c5c(F)cccc5F)c5nc(c(-c6c(F)cccc6F)c6ccc3[nH]6)C=C5)C=C4)cc2)c(Cl)c1
REMARK SMILES IDX 16 1 15 2 14 3 13 4 11 5 12 6 8 8 7 9 6 10 3 11 4 12 79 13
REMARK SMILES IDX 5 14 77 15 78 16 2 17 1 18 9 19 10 20 17 21 18 22 19 23
REMARK SMILES IDX 20 24 21 25 22 27 23 28 24 29 76 30 25 31 75 32 26 33 27 34
REMARK SMILES IDX 28 35 69 36 29 37 74 38 68 39 70 40 30 41 73 42 67 43 66 44
REMARK SMILES IDX 31 46 57 47 40 48 56 49 41 50 44 51 55 52 71 53 42 54 43 55
REMARK SMILES IDX 54 57 72 58 45 59 32 60 33 61 38 62 34 63 35 64 37 65 39 66
REMARK SMILES IDX 36 67 58 68 59 69 64 70 60 71 61 72 63 73 65 74 62 75 46 76
REMARK SMILES IDX 47 77 52 78 48 79 49 80 51 81 53 82 50 83
REMARK H PARENT 13 7 20 26 70 45 44 56
REMARK Flexibility Score: inf
ROOT
ATOM      1  C   UNL A   1      36.869  21.925  24.062  1.00  0.00     0.002 C 
ENDROOT
BRANCH   1   2
ATOM      2  C   UNL A   1      36.946  23.262  24.797  1.00  0.00     0.021 C 
BRANCH   2   3
ATOM      3  C   UNL A   1      35.730  23.581  25.653  1.00  0.00     0.116 C 
BRANCH   3   4
ATOM      4  N   UNL A   1      35.102  24.837  25.358  1.00  0.00    -0.353 N 
ATOM      5  C   UNL A   1      33.873  25.062  24.813  1.00  0.00     0.261 C 
ATOM      6  O   UNL A   1      33.479  26.236  24.831  1.00  0.00    -0.271 OA
ATOM      7  H   UNL A   1      35.627  25.640  25.578  1.00  0.00     0.163 HD
BRANCH   5   8
ATOM      8  C   UNL A   1      33.041  23.963  24.056  1.00  0.00     0.261 C 
BRANCH   8   9
ATOM      9  O   UNL A   1      32.206  22.967  24.651  1.00  0.00    -0.479 OA
BRANCH   9  10
ATOM     10  C   UNL A   1      32.450  21.627  24.611  1.00  0.00     0.139 A 
ATOM     11  C   UNL A   1      33.117  18.861  24.617  1.00  0.00    -0.047 A 
ATOM     12  C   UNL A   1      32.532  19.466  23.497  1.00  0.00     0.007 A 
ATOM     13  C   UNL A   1      33.281  19.642  25.768  1.00  0.00     0.028 A 
ATOM     14  C   UNL A   1      32.155  20.818  23.513  1.00  0.00     0.048 A 
ATOM     15  C   UNL A   1      32.946  21.006  25.765  1.00  0.00     0.083 A 
ATOM     16  Cl  UNL A   1      33.190  21.898  27.226  1.00  0.00    -0.080 Cl
BRANCH  11  17
ATOM     17  C   UNL A   1      33.599  17.431  24.503  1.00  0.00     0.032 C 
ATOM     18  C   UNL A   1      34.017  16.954  23.119  1.00  0.00     0.009 C 
ENDBRANCH  11  17
ENDBRANCH   9  10
ENDBRANCH   8   9
BRANCH   8  19
ATOM     19  C   UNL A   1      33.797  23.526  22.785  1.00  0.00     0.052 C 
ATOM     20  C   UNL A   1      33.157  24.085  21.520  1.00  0.00     0.008 C 
ENDBRANCH   8  19
ENDBRANCH   5   8
ENDBRANCH   3   4
ENDBRANCH   2   3
ENDBRANCH   1   2
BRANCH   1  21
ATOM     21  C   UNL A   1      36.648  20.697  24.956  1.00  0.00     0.002 C 
BRANCH  21  22
ATOM     22  C   UNL A   1      37.805  19.695  25.006  1.00  0.00     0.021 C 
BRANCH  22  23
ATOM     23  C   UNL A   1      39.043  20.186  25.750  1.00  0.00     0.116 C 
BRANCH  23  24
ATOM     24  N   UNL A   1      40.052  19.145  25.876  1.00  0.00    -0.352 N 
ATOM     25  C   UNL A   1      41.408  19.252  26.055  1.00  0.00     0.251 C 
ATOM     26  H   UNL A   1      39.709  18.224  25.824  1.00  0.00     0.163 HD
ATOM     27  O   UNL A   1      42.129  18.270  25.919  1.00  0.00    -0.269 OA
BRANCH  25  28
ATOM     28  C   UNL A   1      42.002  20.559  26.403  1.00  0.00     0.039 A 
ATOM     29  C   UNL A   1      42.362  21.435  25.375  1.00  0.00     0.014 A 
ATOM     30  C   UNL A   1      42.217  20.911  27.738  1.00  0.00     0.014 A 
ATOM     31  C   UNL A   1      42.881  22.692  25.691  1.00  0.00     0.010 A 
ATOM     32  C   UNL A   1      42.666  22.190  28.052  1.00  0.00     0.010 A 
ATOM     33  C   UNL A   1      43.004  23.092  27.031  1.00  0.00    -0.014 A 
BRANCH  33  34
ATOM     34  C   UNL A   1      43.475  24.453  27.391  1.00  0.00     0.031 A 
ATOM     35  C   UNL A   1      42.493  25.498  27.841  1.00  0.00     0.074 A 
ATOM     36  C   UNL A   1      44.776  24.767  27.241  1.00  0.00     0.049 A 
ATOM     37  N   UNL A   1      42.696  26.763  28.108  1.00  0.00    -0.248 NA
ATOM     38  C   UNL A   1      41.092  25.072  27.980  1.00  0.00     0.031 C 
ATOM     39  C   UNL A   1      45.820  23.850  26.777  1.00  0.00     0.029 A 
ATOM     40  N   UNL A   1      45.442  25.947  27.452  1.00  0.00    -0.354 N 
ATOM     41  C   UNL A   1      41.450  27.284  28.434  1.00  0.00     0.074 A 
ATOM     42  C   UNL A   1      40.490  26.215  28.277  1.00  0.00     0.031 C 
ATOM     43  C   UNL A   1      46.996  24.498  26.756  1.00  0.00     0.029 A 
ATOM     44  C   UNL A   1      46.784  25.884  27.162  1.00  0.00     0.049 A 
ATOM     45  H   UNL A   1      45.000  26.764  27.780  1.00  0.00     0.167 HD
ATOM     46  C   UNL A   1      41.140  28.536  28.848  1.00  0.00     0.037 A 
ATOM     47  C   UNL A   1      47.733  26.837  27.205  1.00  0.00     0.037 A 
ATOM     48  C   UNL A   1      42.103  29.592  29.020  1.00  0.00     0.049 A 
ATOM     49  C   UNL A   1      47.357  28.226  27.645  1.00  0.00     0.074 A 
ATOM     50  C   UNL A   1      41.897  30.879  29.487  1.00  0.00     0.029 A 
ATOM     51  N   UNL A   1      43.454  29.485  28.726  1.00  0.00    -0.354 N 
ATOM     52  N   UNL A   1      46.187  28.689  28.012  1.00  0.00    -0.248 NA
ATOM     53  C   UNL A   1      48.435  29.224  27.680  1.00  0.00     0.031 C 
ATOM     54  C   UNL A   1      43.113  31.565  29.425  1.00  0.00     0.029 A 
ATOM     55  C   UNL A   1      44.089  30.691  28.976  1.00  0.00     0.049 A 
ATOM     56  H   UNL A   1      43.897  28.672  28.390  1.00  0.00     0.167 HD
ATOM     57  C   UNL A   1      46.394  30.020  28.352  1.00  0.00     0.074 A 
ATOM     58  C   UNL A   1      47.803  30.287  28.158  1.00  0.00     0.031 C 
ATOM     59  C   UNL A   1      45.496  30.939  28.786  1.00  0.00     0.037 A 
BRANCH  46  60
ATOM     60  C   UNL A   1      39.697  28.832  29.141  1.00  0.00     0.057 A 
ATOM     61  C   UNL A   1      38.823  29.311  28.157  1.00  0.00     0.134 A 
ATOM     62  C   UNL A   1      39.165  28.601  30.416  1.00  0.00     0.134 A 
ATOM     63  F   UNL A   1      39.269  29.564  26.917  1.00  0.00    -0.206 F 
ATOM     64  C   UNL A   1      37.481  29.575  28.434  1.00  0.00     0.040 A 
ATOM     65  C   UNL A   1      37.817  28.833  30.699  1.00  0.00     0.040 A 
ATOM     66  F   UNL A   1      39.942  28.136  31.407  1.00  0.00    -0.206 F 
ATOM     67  C   UNL A   1      36.972  29.329  29.709  1.00  0.00     0.006 A 
ENDBRANCH  46  60
BRANCH  47  68
ATOM     68  C   UNL A   1      49.134  26.511  26.835  1.00  0.00     0.057 A 
ATOM     69  C   UNL A   1      49.603  26.713  25.532  1.00  0.00     0.134 A 
ATOM     70  C   UNL A   1      50.034  25.981  27.769  1.00  0.00     0.134 A 
ATOM     71  F   UNL A   1      48.785  27.202  24.590  1.00  0.00    -0.206 F 
ATOM     72  C   UNL A   1      50.907  26.379  25.163  1.00  0.00     0.040 A 
ATOM     73  C   UNL A   1      51.349  25.668  27.421  1.00  0.00     0.040 A 
ATOM     74  F   UNL A   1      49.651  25.773  29.037  1.00  0.00    -0.206 F 
ATOM     75  C   UNL A   1      51.785  25.859  26.111  1.00  0.00     0.006 A 
ENDBRANCH  47  68
BRANCH  59  76
ATOM     76  C   UNL A   1      46.016  32.306  29.123  1.00  0.00     0.057 A 
ATOM     77  C   UNL A   1      46.530  32.613  30.389  1.00  0.00     0.134 A 
ATOM     78  C   UNL A   1      46.045  33.315  28.151  1.00  0.00     0.134 A 
ATOM     79  F   UNL A   1      46.520  31.697  31.369  1.00  0.00    -0.206 F 
ATOM     80  C   UNL A   1      47.037  33.881  30.682  1.00  0.00     0.040 A 
ATOM     81  C   UNL A   1      46.576  34.576  28.423  1.00  0.00     0.040 A 
ATOM     82  F   UNL A   1      45.576  33.085  26.916  1.00  0.00    -0.206 F 
ATOM     83  C   UNL A   1      47.069  34.864  29.695  1.00  0.00     0.006 A 
ENDBRANCH  59  76
ENDBRANCH  33  34
ENDBRANCH  25  28
ENDBRANCH  23  24
ENDBRANCH  22  23
ENDBRANCH  21  22
ENDBRANCH   1  21
TORSDOF 17
ENDMDL
MODEL 3
REMARK VINA RESULT:     -10.5      5.057      9.879
REMARK SMILES CCc1ccc(O[C@H](CC)C(=O)NCCCCCCNC(=O)c2ccc(-c3c4nc(c(-c5c(F)cccc5F)c5ccc([nH]5)c(-c5c(F)cccc5F)c5nc(c(-c6c(F)cccc6F)c6ccc3[nH]6)C=C5)C=C4)cc2)c(Cl)c1
REMARK SMILES IDX 16 1 15 2 14 3 13 4 11 5 12 6 8 8 7 9 6 10 3 11 4 12 79 13
REMARK SMILES IDX 5 14 77 15 78 16 2 17 1 18 9 19 10 20 17 21 18 22 19 23
REMARK SMILES IDX 20 24 21 25 22 27 23 28 24 29 76 30 25 31 75 32 26 33 27 34
REMARK SMILES IDX 28 35 69 36 29 37 74 38 68 39 70 40 30 41 73 42 67 43 66 44
REMARK SMILES IDX 31 46 57 47 40 48 56 49 41 50 44 51 55 52 71 53 42 54 43 55
REMARK SMILES IDX 54 57 72 58 45 59 32 60 33 61 38 62 34 63 35 64 37 65 39 66
REMARK SMILES IDX 36 67 58 68 59 69 64 70 60 71 61 72 63 73 65 74 62 75 46 76
REMARK SMILES IDX 47 77 52 78 48 79 49 80 51 81 53 82 50 83
REMARK H PARENT 13 7 20 26 70 45 44 56
REMARK Flexibility Score: inf
ROOT
ATOM      1  C   UNL A   1      36.554  21.634  25.336  1.00  0.00     0.002 C 
ENDROOT
BRANCH   1   2
ATOM      2  C   UNL A   1      36.554  22.729  24.271  1.00  0.00     0.021 C 
BRANCH   2   3
ATOM      3  C   UNL A   1      35.268  22.825  23.465  1.00  0.00     0.116 C 
BRANCH   3   4
ATOM      4  N   UNL A   1      34.434  23.943  23.798  1.00  0.00    -0.353 N 
ATOM      5  C   UNL A   1      33.451  24.015  24.740  1.00  0.00     0.261 C 
ATOM      6  O   UNL A   1      33.000  25.146  24.968  1.00  0.00    -0.271 OA
ATOM      7  H   UNL A   1      34.591  24.764  23.279  1.00  0.00     0.163 HD
BRANCH   5   8
ATOM      8  C   UNL A   1      32.788  22.753  25.406  1.00  0.00     0.261 C 
BRANCH   8   9
ATOM      9  O   UNL A   1      32.018  21.748  24.745  1.00  0.00    -0.479 OA
BRANCH   9  10
ATOM     10  C   UNL A   1      32.404  20.449  24.597  1.00  0.00     0.139 A 
ATOM     11  C   UNL A   1      33.063  17.713  24.177  1.00  0.00    -0.047 A 
ATOM     12  C   UNL A   1      33.201  18.310  25.436  1.00  0.00     0.007 A 
ATOM     13  C   UNL A   1      32.674  18.530  23.108  1.00  0.00     0.028 A 
ATOM     14  C   UNL A   1      32.926  19.672  25.631  1.00  0.00     0.048 A 
ATOM     15  C   UNL A   1      32.354  19.882  23.315  1.00  0.00     0.083 A 
ATOM     16  Cl  UNL A   1      31.874  20.817  21.943  1.00  0.00    -0.080 Cl
BRANCH  11  17
ATOM     17  C   UNL A   1      33.271  16.219  24.051  1.00  0.00     0.032 C 
ATOM     18  C   UNL A   1      32.817  15.361  25.224  1.00  0.00     0.009 C 
ENDBRANCH  11  17
ENDBRANCH   9  10
ENDBRANCH   8   9
BRANCH   8  19
ATOM     19  C   UNL A   1      32.340  23.101  26.840  1.00  0.00     0.052 C 
ATOM     20  C   UNL A   1      33.282  22.523  27.889  1.00  0.00     0.008 C 
ENDBRANCH   8  19
ENDBRANCH   5   8
ENDBRANCH   3   4
ENDBRANCH   2   3
ENDBRANCH   1   2
BRANCH   1  21
ATOM     21  C   UNL A   1      36.475  20.199  24.801  1.00  0.00     0.002 C 
BRANCH  21  22
ATOM     22  C   UNL A   1      37.764  19.378  24.907  1.00  0.00     0.021 C 
BRANCH  22  23
ATOM     23  C   UNL A   1      38.862  20.020  25.749  1.00  0.00     0.116 C 
BRANCH  23  24
ATOM     24  N   UNL A   1      40.056  19.192  25.809  1.00  0.00    -0.352 N 
ATOM     25  C   UNL A   1      41.359  19.545  26.062  1.00  0.00     0.251 C 
ATOM     26  H   UNL A   1      39.908  18.233  25.642  1.00  0.00     0.163 HD
ATOM     27  O   UNL A   1      42.266  18.747  25.856  1.00  0.00    -0.269 OA
BRANCH  25  28
ATOM     28  C   UNL A   1      41.667  20.894  26.577  1.00  0.00     0.039 A 
ATOM     29  C   UNL A   1      41.685  21.104  27.959  1.00  0.00     0.014 A 
ATOM     30  C   UNL A   1      41.920  21.951  25.699  1.00  0.00     0.014 A 
ATOM     31  C   UNL A   1      42.020  22.363  28.460  1.00  0.00     0.010 A 
ATOM     32  C   UNL A   1      42.325  23.184  26.201  1.00  0.00     0.010 A 
ATOM     33  C   UNL A   1      42.377  23.403  27.586  1.00  0.00    -0.014 A 
BRANCH  33  34
ATOM     34  C   UNL A   1      42.816  24.725  28.096  1.00  0.00     0.031 A 
ATOM     35  C   UNL A   1      41.802  25.795  28.393  1.00  0.00     0.074 A 
ATOM     36  C   UNL A   1      44.131  24.987  28.221  1.00  0.00     0.049 A 
ATOM     37  N   UNL A   1      41.994  27.037  28.755  1.00  0.00    -0.248 NA
ATOM     38  C   UNL A   1      40.387  25.427  28.233  1.00  0.00     0.031 C 
ATOM     39  C   UNL A   1      45.214  24.044  27.928  1.00  0.00     0.029 A 
ATOM     40  N   UNL A   1      44.784  26.127  28.616  1.00  0.00    -0.354 N 
ATOM     41  C   UNL A   1      40.727  27.601  28.854  1.00  0.00     0.074 A 
ATOM     42  C   UNL A   1      39.780  26.583  28.460  1.00  0.00     0.031 C 
ATOM     43  C   UNL A   1      46.392  24.638  28.171  1.00  0.00     0.029 A 
ATOM     44  C   UNL A   1      46.154  26.015  28.593  1.00  0.00     0.049 A 
ATOM     45  H   UNL A   1      44.316  26.949  28.889  1.00  0.00     0.167 HD
ATOM     46  C   UNL A   1      40.386  28.848  29.258  1.00  0.00     0.037 A 
ATOM     47  C   UNL A   1      47.109  26.923  28.868  1.00  0.00     0.037 A 
ATOM     48  C   UNL A   1      41.333  29.852  29.667  1.00  0.00     0.049 A 
ATOM     49  C   UNL A   1      46.703  28.308  29.291  1.00  0.00     0.074 A 
ATOM     50  C   UNL A   1      41.084  31.127  30.145  1.00  0.00     0.029 A 
ATOM     51  N   UNL A   1      42.711  29.697  29.640  1.00  0.00    -0.354 N 
ATOM     52  N   UNL A   1      45.500  28.808  29.442  1.00  0.00    -0.248 NA
ATOM     53  C   UNL A   1      47.787  29.255  29.586  1.00  0.00     0.031 C 
ATOM     54  C   UNL A   1      42.313  31.760  30.357  1.00  0.00     0.029 A 
ATOM     55  C   UNL A   1      43.326  30.862  30.068  1.00  0.00     0.049 A 
ATOM     56  H   UNL A   1      43.182  28.878  29.360  1.00  0.00     0.167 HD
ATOM     57  C   UNL A   1      45.683  30.114  29.880  1.00  0.00     0.074 A 
ATOM     58  C   UNL A   1      47.112  30.325  29.980  1.00  0.00     0.031 C 
ATOM     59  C   UNL A   1      44.750  31.054  30.172  1.00  0.00     0.037 A 
BRANCH  46  60
ATOM     60  C   UNL A   1      38.925  29.196  29.275  1.00  0.00     0.057 A 
ATOM     61  C   UNL A   1      38.164  29.145  30.450  1.00  0.00     0.134 A 
ATOM     62  C   UNL A   1      38.278  29.622  28.108  1.00  0.00     0.134 A 
ATOM     63  F   UNL A   1      38.718  28.735  31.602  1.00  0.00    -0.206 F 
ATOM     64  C   UNL A   1      36.809  29.477  30.460  1.00  0.00     0.040 A 
ATOM     65  C   UNL A   1      36.930  29.988  28.111  1.00  0.00     0.040 A 
ATOM     66  F   UNL A   1      38.947  29.702  26.947  1.00  0.00    -0.206 F 
ATOM     67  C   UNL A   1      36.189  29.908  29.288  1.00  0.00     0.006 A 
ENDBRANCH  46  60
BRANCH  47  68
ATOM     68  C   UNL A   1      48.543  26.549  28.767  1.00  0.00     0.057 A 
ATOM     69  C   UNL A   1      49.245  26.698  27.565  1.00  0.00     0.134 A 
ATOM     70  C   UNL A   1      49.243  26.025  29.861  1.00  0.00     0.134 A 
ATOM     71  F   UNL A   1      48.625  27.179  26.478  1.00  0.00    -0.206 F 
ATOM     72  C   UNL A   1      50.583  26.320  27.447  1.00  0.00     0.040 A 
ATOM     73  C   UNL A   1      50.589  25.668  29.765  1.00  0.00     0.040 A 
ATOM     74  F   UNL A   1      48.631  25.867  31.044  1.00  0.00    -0.206 F 
ATOM     75  C   UNL A   1      51.259  25.806  28.551  1.00  0.00     0.006 A 
ENDBRANCH  47  68
BRANCH  59  76
ATOM     76  C   UNL A   1      45.242  32.382  30.670  1.00  0.00     0.057 A 
ATOM     77  C   UNL A   1      45.504  32.615  32.025  1.00  0.00     0.134 A 
ATOM     78  C   UNL A   1      45.500  33.426  29.772  1.00  0.00     0.134 A 
ATOM     79  F   UNL A   1      45.266  31.662  32.939  1.00  0.00    -0.206 F 
ATOM     80  C   UNL A   1      45.988  33.847  32.473  1.00  0.00     0.040 A 
ATOM     81  C   UNL A   1      46.012  34.651  30.203  1.00  0.00     0.040 A 
ATOM     82  F   UNL A   1      45.280  33.267  28.459  1.00  0.00    -0.206 F 
ATOM     83  C   UNL A   1      46.251  34.865  31.559  1.00  0.00     0.006 A 
ENDBRANCH  59  76
ENDBRANCH  33  34
ENDBRANCH  25  28
ENDBRANCH  23  24
ENDBRANCH  22  23
ENDBRANCH  21  22
ENDBRANCH   1  21
TORSDOF 17
ENDMDL
