MODEL 1
REMARK VINA RESULT:     -12.1      0.000      0.000
REMARK SMILES O=C(NCCCCCCNC(=O)c1cc(/C=C/c2cc(O)cc(O)c2)ccc1O)c1ccc(-c2c3nc(c(-c4c(F)cccc4F)c4ccc([nH]4)c(-c4c(F)cccc4F)c4nc(c(-c5c(F)cccc5F)c5ccc2[nH]5)C=C4)C=C3)cc1
REMARK SMILES IDX 7 1 6 2 5 3 4 4 3 5 1 6 2 7 30 9 31 10 83 11 32 12 82 13
REMARK SMILES IDX 33 14 34 15 35 16 76 17 36 18 81 19 75 20 77 21 37 22 80 23
REMARK SMILES IDX 74 24 73 25 38 27 64 28 47 29 63 30 48 31 51 32 62 33 78 34
REMARK SMILES IDX 49 35 50 36 61 38 79 39 52 40 39 41 40 42 45 43 41 44 42 45
REMARK SMILES IDX 44 46 46 47 43 48 65 49 66 50 71 51 67 52 68 53 70 54 72 55
REMARK SMILES IDX 69 56 53 57 54 58 59 59 55 60 56 61 58 62 60 63 57 64 8 65
REMARK SMILES IDX 9 66 10 67 11 68 12 70 13 71 14 72 28 73 15 74 27 75 26 76
REMARK SMILES IDX 29 77 16 79 17 80 18 81 19 82 25 83 20 84 23 85 22 86 21 87
REMARK SMILES IDX 24 89
REMARK H PARENT 3 8 77 26 51 37 10 69 29 78 21 88 24 90
REMARK Flexibility Score: inf
ROOT
ATOM      1  C   UNL A   1      35.227  20.430  24.641  1.00  0.00     0.002 C 
ENDROOT
BRANCH   1   2
ATOM      2  C   UNL A   1      36.437  19.559  24.992  1.00  0.00     0.002 C 
BRANCH   2   3
ATOM      3  C   UNL A   1      37.802  20.135  24.617  1.00  0.00     0.021 C 
BRANCH   3   4
ATOM      4  C   UNL A   1      38.776  20.321  25.773  1.00  0.00     0.116 C 
BRANCH   4   5
ATOM      5  N   UNL A   1      39.857  19.349  25.769  1.00  0.00    -0.352 N 
ATOM      6  O   UNL A   1      41.982  18.604  25.921  1.00  0.00    -0.269 OA
ATOM      7  C   UNL A   1      41.179  19.515  26.104  1.00  0.00     0.251 C 
ATOM      8  H   UNL A   1      39.606  18.440  25.486  1.00  0.00     0.163 HD
BRANCH   7   9
ATOM      9  C   UNL A   1      41.646  20.808  26.654  1.00  0.00     0.039 A 
ATOM     10  C   UNL A   1      41.586  21.069  28.025  1.00  0.00     0.014 A 
ATOM     11  C   UNL A   1      42.148  21.774  25.778  1.00  0.00     0.014 A 
ATOM     12  C   UNL A   1      41.881  22.344  28.497  1.00  0.00     0.010 A 
ATOM     13  C   UNL A   1      42.521  23.029  26.266  1.00  0.00     0.010 A 
ATOM     14  C   UNL A   1      42.352  23.339  27.625  1.00  0.00    -0.014 A 
BRANCH  14  15
ATOM     15  C   UNL A   1      42.680  24.685  28.159  1.00  0.00     0.031 A 
ATOM     16  C   UNL A   1      44.102  25.079  28.453  1.00  0.00     0.074 A 
ATOM     17  C   UNL A   1      41.683  25.571  28.348  1.00  0.00     0.049 A 
ATOM     18  N   UNL A   1      44.567  26.225  28.883  1.00  0.00    -0.248 NA
ATOM     19  C   UNL A   1      45.134  24.053  28.247  1.00  0.00     0.031 C 
ATOM     20  C   UNL A   1      40.263  25.305  28.111  1.00  0.00     0.029 A 
ATOM     21  N   UNL A   1      41.713  26.879  28.762  1.00  0.00    -0.354 N 
ATOM     22  C   UNL A   1      45.939  26.052  29.023  1.00  0.00     0.074 A 
ATOM     23  C   UNL A   1      46.228  24.683  28.653  1.00  0.00     0.031 C 
ATOM     24  C   UNL A   1      39.563  26.429  28.330  1.00  0.00     0.029 A 
ATOM     25  C   UNL A   1      40.477  27.476  28.774  1.00  0.00     0.049 A 
ATOM     26  H   UNL A   1      42.540  27.344  29.024  1.00  0.00     0.167 HD
ATOM     27  C   UNL A   1      46.870  26.953  29.417  1.00  0.00     0.037 A 
ATOM     28  C   UNL A   1      40.115  28.728  29.108  1.00  0.00     0.037 A 
ATOM     29  C   UNL A   1      46.584  28.322  29.762  1.00  0.00     0.049 A 
ATOM     30  C   UNL A   1      41.167  29.704  29.545  1.00  0.00     0.074 A 
ATOM     31  C   UNL A   1      47.468  29.323  30.128  1.00  0.00     0.029 A 
ATOM     32  N   UNL A   1      45.315  28.883  29.787  1.00  0.00    -0.354 N 
ATOM     33  N   UNL A   1      42.464  29.537  29.633  1.00  0.00    -0.248 NA
ATOM     34  C   UNL A   1      40.704  31.043  29.932  1.00  0.00     0.031 C 
ATOM     35  C   UNL A   1      46.730  30.478  30.412  1.00  0.00     0.029 A 
ATOM     36  C   UNL A   1      45.391  30.209  30.181  1.00  0.00     0.049 A 
ATOM     37  H   UNL A   1      44.484  28.408  29.559  1.00  0.00     0.167 HD
ATOM     38  C   UNL A   1      42.976  30.755  30.061  1.00  0.00     0.074 A 
ATOM     39  C   UNL A   1      41.848  31.654  30.203  1.00  0.00     0.031 C 
ATOM     40  C   UNL A   1      44.263  31.096  30.311  1.00  0.00     0.037 A 
BRANCH  27  41
ATOM     41  C   UNL A   1      48.293  26.480  29.519  1.00  0.00     0.057 A 
ATOM     42  C   UNL A   1      49.208  26.647  28.472  1.00  0.00     0.134 A 
ATOM     43  C   UNL A   1      48.758  25.876  30.694  1.00  0.00     0.134 A 
ATOM     44  F   UNL A   1      48.824  27.206  27.314  1.00  0.00    -0.206 F 
ATOM     45  C   UNL A   1      50.530  26.208  28.581  1.00  0.00     0.040 A 
ATOM     46  C   UNL A   1      50.084  25.455  30.824  1.00  0.00     0.040 A 
ATOM     47  F   UNL A   1      47.936  25.692  31.738  1.00  0.00    -0.206 F 
ATOM     48  C   UNL A   1      50.971  25.615  29.762  1.00  0.00     0.006 A 
ENDBRANCH  27  41
BRANCH  28  49
ATOM     49  C   UNL A   1      38.691  29.131  29.017  1.00  0.00     0.057 A 
ATOM     50  C   UNL A   1      37.847  29.043  30.129  1.00  0.00     0.134 A 
ATOM     51  C   UNL A   1      38.147  29.629  27.828  1.00  0.00     0.134 A 
ATOM     52  F   UNL A   1      38.308  28.558  31.291  1.00  0.00    -0.206 F 
ATOM     53  C   UNL A   1      36.506  29.428  30.059  1.00  0.00     0.040 A 
ATOM     54  C   UNL A   1      36.816  30.041  27.751  1.00  0.00     0.040 A 
ATOM     55  F   UNL A   1      38.909  29.745  26.731  1.00  0.00    -0.206 F 
ATOM     56  C   UNL A   1      35.991  29.935  28.869  1.00  0.00     0.006 A 
ENDBRANCH  28  49
BRANCH  40  57
ATOM     57  C   UNL A   1      44.522  32.513  30.726  1.00  0.00     0.057 A 
ATOM     58  C   UNL A   1      44.566  32.893  32.073  1.00  0.00     0.134 A 
ATOM     59  C   UNL A   1      44.746  33.505  29.764  1.00  0.00     0.134 A 
ATOM     60  F   UNL A   1      44.345  31.992  33.042  1.00  0.00    -0.206 F 
ATOM     61  C   UNL A   1      44.801  34.217  32.448  1.00  0.00     0.040 A 
ATOM     62  C   UNL A   1      45.005  34.827  30.127  1.00  0.00     0.040 A 
ATOM     63  F   UNL A   1      44.722  33.204  28.456  1.00  0.00    -0.206 F 
ATOM     64  C   UNL A   1      45.025  35.187  31.473  1.00  0.00     0.006 A 
ENDBRANCH  40  57
ENDBRANCH  14  15
ENDBRANCH   7   9
ENDBRANCH   4   5
ENDBRANCH   3   4
ENDBRANCH   2   3
ENDBRANCH   1   2
BRANCH   1  65
ATOM     65  C   UNL A   1      33.854  19.844  24.986  1.00  0.00     0.021 C 
BRANCH  65  66
ATOM     66  C   UNL A   1      32.723  20.860  25.133  1.00  0.00     0.116 C 
BRANCH  66  67
ATOM     67  N   UNL A   1      32.483  21.221  26.515  1.00  0.00    -0.352 N 
ATOM     68  C   UNL A   1      32.709  22.424  27.135  1.00  0.00     0.255 C 
ATOM     69  H   UNL A   1      32.109  20.510  27.084  1.00  0.00     0.163 HD
ATOM     70  O   UNL A   1      32.507  22.545  28.341  1.00  0.00    -0.269 OA
BRANCH  68  71
ATOM     71  C   UNL A   1      33.284  23.555  26.379  1.00  0.00     0.082 A 
ATOM     72  C   UNL A   1      32.377  24.469  25.823  1.00  0.00     0.025 A 
ATOM     73  C   UNL A   1      34.656  23.710  26.171  1.00  0.00     0.128 A 
ATOM     74  C   UNL A   1      32.831  25.572  25.090  1.00  0.00    -0.025 A 
ATOM     75  C   UNL A   1      35.124  24.806  25.453  1.00  0.00     0.047 A 
ATOM     76  C   UNL A   1      34.217  25.732  24.923  1.00  0.00     0.012 A 
BRANCH  73  77
ATOM     77  O   UNL A   1      35.544  22.798  26.668  1.00  0.00    -0.507 OA
ATOM     78  H   UNL A   1      36.210  22.443  26.113  1.00  0.00     0.293 HD
ENDBRANCH  73  77
BRANCH  74  79
ATOM     79  C   UNL A   1      31.931  26.565  24.474  1.00  0.00     0.009 C 
ATOM     80  C   UNL A   1      30.701  26.323  23.989  1.00  0.00     0.009 C 
BRANCH  80  81
ATOM     81  C   UNL A   1      29.867  27.353  23.356  1.00  0.00    -0.018 A 
ATOM     82  C   UNL A   1      28.482  27.411  23.568  1.00  0.00     0.054 A 
ATOM     83  C   UNL A   1      30.483  28.346  22.579  1.00  0.00     0.054 A 
ATOM     84  C   UNL A   1      27.732  28.433  22.991  1.00  0.00     0.119 A 
ATOM     85  C   UNL A   1      29.713  29.358  22.010  1.00  0.00     0.119 A 
ATOM     86  C   UNL A   1      28.338  29.407  22.208  1.00  0.00     0.092 A 
BRANCH  84  87
ATOM     87  O   UNL A   1      26.384  28.518  23.182  1.00  0.00    -0.508 OA
ATOM     88  H   UNL A   1      25.987  28.085  23.911  1.00  0.00     0.293 HD
ENDBRANCH  84  87
BRANCH  85  89
ATOM     89  O   UNL A   1      30.280  30.336  21.245  1.00  0.00    -0.508 OA
ATOM     90  H   UNL A   1      29.781  31.091  21.004  1.00  0.00     0.293 HD
ENDBRANCH  85  89
ENDBRANCH  80  81
ENDBRANCH  74  79
ENDBRANCH  68  71
ENDBRANCH  66  67
ENDBRANCH  65  66
ENDBRANCH   1  65
TORSDOF 18
ENDMDL
MODEL 2
REMARK VINA RESULT:     -12.1      4.288      9.003
REMARK SMILES O=C(NCCCCCCNC(=O)c1cc(/C=C/c2cc(O)cc(O)c2)ccc1O)c1ccc(-c2c3nc(c(-c4c(F)cccc4F)c4ccc([nH]4)c(-c4c(F)cccc4F)c4nc(c(-c5c(F)cccc5F)c5ccc2[nH]5)C=C4)C=C3)cc1
REMARK SMILES IDX 7 1 6 2 5 3 4 4 3 5 1 6 2 7 30 9 31 10 83 11 32 12 82 13
REMARK SMILES IDX 33 14 34 15 35 16 76 17 36 18 81 19 75 20 77 21 37 22 80 23
REMARK SMILES IDX 74 24 73 25 38 27 64 28 47 29 63 30 48 31 51 32 62 33 78 34
REMARK SMILES IDX 49 35 50 36 61 38 79 39 52 40 39 41 40 42 45 43 41 44 42 45
REMARK SMILES IDX 44 46 46 47 43 48 65 49 66 50 71 51 67 52 68 53 70 54 72 55
REMARK SMILES IDX 69 56 53 57 54 58 59 59 55 60 56 61 58 62 60 63 57 64 8 65
REMARK SMILES IDX 9 66 10 67 11 68 12 70 13 71 14 72 28 73 15 74 27 75 26 76
REMARK SMILES IDX 29 77 16 79 17 80 18 81 19 82 25 83 20 84 23 85 22 86 21 87
REMARK SMILES IDX 24 89
REMARK H PARENT 3 8 77 26 51 37 10 69 29 78 21 88 24 90
REMARK Flexibility Score: inf
ROOT
ATOM      1  C   UNL A   1      31.795  29.370  27.088  1.00  0.00     0.002 C 
ENDROOT
BRANCH   1   2
ATOM      2  C   UNL A   1      31.593  30.429  26.000  1.00  0.00     0.002 C 
BRANCH   2   3
ATOM      3  C   UNL A   1      31.367  31.857  26.497  1.00  0.00     0.021 C 
BRANCH   3   4
ATOM      4  C   UNL A   1      32.561  32.510  27.182  1.00  0.00     0.116 C 
BRANCH   4   5
ATOM      5  N   UNL A   1      32.314  33.892  27.560  1.00  0.00    -0.352 N 
ATOM      6  O   UNL A   1      32.568  35.801  28.737  1.00  0.00    -0.269 OA
ATOM      7  C   UNL A   1      32.996  34.687  28.449  1.00  0.00     0.251 C 
ATOM      8  H   UNL A   1      31.548  34.321  27.114  1.00  0.00     0.163 HD
BRANCH   7   9
ATOM      9  C   UNL A   1      34.233  34.187  29.090  1.00  0.00     0.039 A 
ATOM     10  C   UNL A   1      35.489  34.470  28.548  1.00  0.00     0.014 A 
ATOM     11  C   UNL A   1      34.129  33.417  30.252  1.00  0.00     0.014 A 
ATOM     12  C   UNL A   1      36.621  33.859  29.077  1.00  0.00     0.010 A 
ATOM     13  C   UNL A   1      35.278  32.870  30.830  1.00  0.00     0.010 A 
ATOM     14  C   UNL A   1      36.530  33.052  30.222  1.00  0.00    -0.014 A 
BRANCH  14  15
ATOM     15  C   UNL A   1      37.758  32.430  30.778  1.00  0.00     0.031 A 
ATOM     16  C   UNL A   1      38.367  32.923  32.062  1.00  0.00     0.074 A 
ATOM     17  C   UNL A   1      38.309  31.384  30.131  1.00  0.00     0.049 A 
ATOM     18  N   UNL A   1      39.412  32.467  32.708  1.00  0.00    -0.248 NA
ATOM     19  C   UNL A   1      37.729  34.083  32.701  1.00  0.00     0.031 C 
ATOM     20  C   UNL A   1      37.819  30.820  28.872  1.00  0.00     0.029 A 
ATOM     21  N   UNL A   1      39.385  30.597  30.452  1.00  0.00    -0.354 N 
ATOM     22  C   UNL A   1      39.571  33.297  33.812  1.00  0.00     0.074 A 
ATOM     23  C   UNL A   1      38.528  34.298  33.736  1.00  0.00     0.031 C 
ATOM     24  C   UNL A   1      38.558  29.746  28.555  1.00  0.00     0.029 A 
ATOM     25  C   UNL A   1      39.604  29.578  29.558  1.00  0.00     0.049 A 
ATOM     26  H   UNL A   1      39.947  30.747  31.247  1.00  0.00     0.167 HD
ATOM     27  C   UNL A   1      40.496  33.226  34.798  1.00  0.00     0.037 A 
ATOM     28  C   UNL A   1      40.544  28.616  29.542  1.00  0.00     0.037 A 
ATOM     29  C   UNL A   1      41.518  32.215  34.885  1.00  0.00     0.049 A 
ATOM     30  C   UNL A   1      41.559  28.564  30.645  1.00  0.00     0.074 A 
ATOM     31  C   UNL A   1      42.471  32.032  35.873  1.00  0.00     0.029 A 
ATOM     32  N   UNL A   1      41.723  31.215  33.945  1.00  0.00    -0.354 N 
ATOM     33  N   UNL A   1      41.670  29.330  31.702  1.00  0.00    -0.248 NA
ATOM     34  C   UNL A   1      42.580  27.512  30.552  1.00  0.00     0.031 C 
ATOM     35  C   UNL A   1      43.277  30.947  35.510  1.00  0.00     0.029 A 
ATOM     36  C   UNL A   1      42.799  30.426  34.320  1.00  0.00     0.049 A 
ATOM     37  H   UNL A   1      41.184  31.086  33.132  1.00  0.00     0.167 HD
ATOM     38  C   UNL A   1      42.758  28.840  32.414  1.00  0.00     0.074 A 
ATOM     39  C   UNL A   1      43.263  27.703  31.671  1.00  0.00     0.031 C 
ATOM     40  C   UNL A   1      43.287  29.292  33.576  1.00  0.00     0.037 A 
BRANCH  27  41
ATOM     41  C   UNL A   1      40.459  34.288  35.860  1.00  0.00     0.057 A 
ATOM     42  C   UNL A   1      41.181  35.483  35.741  1.00  0.00     0.134 A 
ATOM     43  C   UNL A   1      39.664  34.125  37.002  1.00  0.00     0.134 A 
ATOM     44  F   UNL A   1      41.971  35.698  34.679  1.00  0.00    -0.206 F 
ATOM     45  C   UNL A   1      41.132  36.466  36.732  1.00  0.00     0.040 A 
ATOM     46  C   UNL A   1      39.590  35.111  37.988  1.00  0.00     0.040 A 
ATOM     47  F   UNL A   1      38.942  33.008  37.174  1.00  0.00    -0.206 F 
ATOM     48  C   UNL A   1      40.331  36.283  37.857  1.00  0.00     0.006 A 
ENDBRANCH  27  41
BRANCH  28  49
ATOM     49  C   UNL A   1      40.548  27.611  28.452  1.00  0.00     0.057 A 
ATOM     50  C   UNL A   1      39.771  26.451  28.541  1.00  0.00     0.134 A 
ATOM     51  C   UNL A   1      41.309  27.794  27.293  1.00  0.00     0.134 A 
ATOM     52  F   UNL A   1      39.033  26.214  29.636  1.00  0.00    -0.206 F 
ATOM     53  C   UNL A   1      39.759  25.501  27.518  1.00  0.00     0.040 A 
ATOM     54  C   UNL A   1      41.288  26.865  26.252  1.00  0.00     0.040 A 
ATOM     55  F   UNL A   1      42.068  28.890  27.146  1.00  0.00    -0.206 F 
ATOM     56  C   UNL A   1      40.514  25.712  26.367  1.00  0.00     0.006 A 
ENDBRANCH  28  49
BRANCH  40  57
ATOM     57  C   UNL A   1      44.450  28.529  34.135  1.00  0.00     0.057 A 
ATOM     58  C   UNL A   1      45.774  28.896  33.867  1.00  0.00     0.134 A 
ATOM     59  C   UNL A   1      44.240  27.421  34.966  1.00  0.00     0.134 A 
ATOM     60  F   UNL A   1      46.043  29.938  33.066  1.00  0.00    -0.206 F 
ATOM     61  C   UNL A   1      46.849  28.174  34.387  1.00  0.00     0.040 A 
ATOM     62  C   UNL A   1      45.306  26.706  35.510  1.00  0.00     0.040 A 
ATOM     63  F   UNL A   1      42.994  27.021  35.266  1.00  0.00    -0.206 F 
ATOM     64  C   UNL A   1      46.616  27.077  35.214  1.00  0.00     0.006 A 
ENDBRANCH  40  57
ENDBRANCH  14  15
ENDBRANCH   7   9
ENDBRANCH   4   5
ENDBRANCH   3   4
ENDBRANCH   2   3
ENDBRANCH   1   2
BRANCH   1  65
ATOM     65  C   UNL A   1      33.209  28.791  27.208  1.00  0.00     0.021 C 
BRANCH  65  66
ATOM     66  C   UNL A   1      33.442  27.467  26.484  1.00  0.00     0.116 C 
BRANCH  66  67
ATOM     67  N   UNL A   1      32.535  26.429  26.931  1.00  0.00    -0.352 N 
ATOM     68  C   UNL A   1      31.681  25.661  26.181  1.00  0.00     0.255 C 
ATOM     69  H   UNL A   1      32.532  26.252  27.899  1.00  0.00     0.163 HD
ATOM     70  O   UNL A   1      30.926  24.860  26.730  1.00  0.00    -0.269 OA
BRANCH  68  71
ATOM     71  C   UNL A   1      31.594  25.854  24.720  1.00  0.00     0.082 A 
ATOM     72  C   UNL A   1      31.082  27.081  24.273  1.00  0.00     0.025 A 
ATOM     73  C   UNL A   1      31.953  24.866  23.801  1.00  0.00     0.128 A 
ATOM     74  C   UNL A   1      30.962  27.352  22.905  1.00  0.00    -0.025 A 
ATOM     75  C   UNL A   1      31.850  25.123  22.437  1.00  0.00     0.047 A 
ATOM     76  C   UNL A   1      31.364  26.360  21.996  1.00  0.00     0.012 A 
BRANCH  73  77
ATOM     77  O   UNL A   1      32.408  23.650  24.226  1.00  0.00    -0.507 OA
ATOM     78  H   UNL A   1      32.337  22.901  23.667  1.00  0.00     0.293 HD
ENDBRANCH  73  77
BRANCH  74  79
ATOM     79  C   UNL A   1      30.425  28.618  22.371  1.00  0.00     0.009 C 
ATOM     80  C   UNL A   1      29.547  29.427  22.989  1.00  0.00     0.009 C 
BRANCH  80  81
ATOM     81  C   UNL A   1      29.025  30.660  22.385  1.00  0.00    -0.018 A 
ATOM     82  C   UNL A   1      28.380  30.652  21.139  1.00  0.00     0.054 A 
ATOM     83  C   UNL A   1      29.108  31.860  23.106  1.00  0.00     0.054 A 
ATOM     84  C   UNL A   1      27.853  31.834  20.622  1.00  0.00     0.119 A 
ATOM     85  C   UNL A   1      28.575  33.030  22.569  1.00  0.00     0.119 A 
ATOM     86  C   UNL A   1      27.950  33.026  21.328  1.00  0.00     0.092 A 
BRANCH  84  87
ATOM     87  O   UNL A   1      27.218  31.858  19.415  1.00  0.00    -0.508 OA
ATOM     88  H   UNL A   1      27.207  31.092  18.878  1.00  0.00     0.293 HD
ENDBRANCH  84  87
BRANCH  85  89
ATOM     89  O   UNL A   1      28.643  34.215  23.243  1.00  0.00    -0.508 OA
ATOM     90  H   UNL A   1      27.858  34.678  23.458  1.00  0.00     0.293 HD
ENDBRANCH  85  89
ENDBRANCH  80  81
ENDBRANCH  74  79
ENDBRANCH  68  71
ENDBRANCH  66  67
ENDBRANCH  65  66
ENDBRANCH   1  65
TORSDOF 18
ENDMDL
MODEL 3
REMARK VINA RESULT:     -12.0      0.523      6.177
REMARK SMILES O=C(NCCCCCCNC(=O)c1cc(/C=C/c2cc(O)cc(O)c2)ccc1O)c1ccc(-c2c3nc(c(-c4c(F)cccc4F)c4ccc([nH]4)c(-c4c(F)cccc4F)c4nc(c(-c5c(F)cccc5F)c5ccc2[nH]5)C=C4)C=C3)cc1
REMARK SMILES IDX 7 1 6 2 5 3 4 4 3 5 1 6 2 7 30 9 31 10 83 11 32 12 82 13
REMARK SMILES IDX 33 14 34 15 35 16 76 17 36 18 81 19 75 20 77 21 37 22 80 23
REMARK SMILES IDX 74 24 73 25 38 27 64 28 47 29 63 30 48 31 51 32 62 33 78 34
REMARK SMILES IDX 49 35 50 36 61 38 79 39 52 40 39 41 40 42 45 43 41 44 42 45
REMARK SMILES IDX 44 46 46 47 43 48 65 49 66 50 71 51 67 52 68 53 70 54 72 55
REMARK SMILES IDX 69 56 53 57 54 58 59 59 55 60 56 61 58 62 60 63 57 64 8 65
REMARK SMILES IDX 9 66 10 67 11 68 12 70 13 71 14 72 28 73 15 74 27 75 26 76
REMARK SMILES IDX 29 77 16 79 17 80 18 81 19 82 25 83 20 84 23 85 22 86 21 87
REMARK SMILES IDX 24 89
REMARK H PARENT 3 8 77 26 51 37 10 69 29 78 21 88 24 90
REMARK Flexibility Score: inf
ROOT
ATOM      1  C   UNL A   1      35.181  20.779  24.648  1.00  0.00     0.002 C 
ENDROOT
BRANCH   1   2
ATOM      2  C   UNL A   1      36.312  19.805  24.992  1.00  0.00     0.002 C 
BRANCH   2   3
ATOM      3  C   UNL A   1      37.717  20.248  24.586  1.00  0.00     0.021 C 
BRANCH   3   4
ATOM      4  C   UNL A   1      38.702  20.437  25.732  1.00  0.00     0.116 C 
BRANCH   4   5
ATOM      5  N   UNL A   1      39.762  19.442  25.742  1.00  0.00    -0.352 N 
ATOM      6  O   UNL A   1      41.871  18.654  25.901  1.00  0.00    -0.269 OA
ATOM      7  C   UNL A   1      41.088  19.585  26.069  1.00  0.00     0.251 C 
ATOM      8  H   UNL A   1      39.490  18.534  25.477  1.00  0.00     0.163 HD
BRANCH   7   9
ATOM      9  C   UNL A   1      41.586  20.877  26.593  1.00  0.00     0.039 A 
ATOM     10  C   UNL A   1      41.566  21.153  27.962  1.00  0.00     0.014 A 
ATOM     11  C   UNL A   1      42.076  21.828  25.694  1.00  0.00     0.014 A 
ATOM     12  C   UNL A   1      41.889  22.429  28.413  1.00  0.00     0.010 A 
ATOM     13  C   UNL A   1      42.478  23.084  26.158  1.00  0.00     0.010 A 
ATOM     14  C   UNL A   1      42.348  23.409  27.518  1.00  0.00    -0.014 A 
BRANCH  14  15
ATOM     15  C   UNL A   1      42.707  24.756  28.029  1.00  0.00     0.031 A 
ATOM     16  C   UNL A   1      41.651  25.798  28.282  1.00  0.00     0.074 A 
ATOM     17  C   UNL A   1      43.998  25.028  28.299  1.00  0.00     0.049 A 
ATOM     18  N   UNL A   1      41.787  27.007  28.767  1.00  0.00    -0.248 NA
ATOM     19  C   UNL A   1      40.267  25.441  27.942  1.00  0.00     0.031 C 
ATOM     20  C   UNL A   1      45.116  24.106  28.086  1.00  0.00     0.029 A 
ATOM     21  N   UNL A   1      44.587  26.147  28.831  1.00  0.00    -0.354 N 
ATOM     22  C   UNL A   1      40.513  27.564  28.765  1.00  0.00     0.074 A 
ATOM     23  C   UNL A   1      39.622  26.567  28.211  1.00  0.00     0.031 C 
ATOM     24  C   UNL A   1      46.246  24.675  28.531  1.00  0.00     0.029 A 
ATOM     25  C   UNL A   1      45.942  26.018  29.012  1.00  0.00     0.049 A 
ATOM     26  H   UNL A   1      44.087  26.963  29.061  1.00  0.00     0.167 HD
ATOM     27  C   UNL A   1      40.124  28.789  29.191  1.00  0.00     0.037 A 
ATOM     28  C   UNL A   1      46.844  26.886  29.506  1.00  0.00     0.037 A 
ATOM     29  C   UNL A   1      41.009  29.771  29.764  1.00  0.00     0.049 A 
ATOM     30  C   UNL A   1      46.385  28.238  29.966  1.00  0.00     0.074 A 
ATOM     31  C   UNL A   1      40.698  31.023  30.268  1.00  0.00     0.029 A 
ATOM     32  N   UNL A   1      42.379  29.613  29.906  1.00  0.00    -0.354 N 
ATOM     33  N   UNL A   1      45.173  28.733  29.996  1.00  0.00    -0.248 NA
ATOM     34  C   UNL A   1      47.423  29.152  30.461  1.00  0.00     0.031 C 
ATOM     35  C   UNL A   1      41.887  31.637  30.679  1.00  0.00     0.029 A 
ATOM     36  C   UNL A   1      42.931  30.752  30.472  1.00  0.00     0.049 A 
ATOM     37  H   UNL A   1      42.885  28.811  29.643  1.00  0.00     0.167 HD
ATOM     38  C   UNL A   1      45.296  30.007  30.534  1.00  0.00     0.074 A 
ATOM     39  C   UNL A   1      46.701  30.202  30.827  1.00  0.00     0.031 C 
ATOM     40  C   UNL A   1      44.331  30.930  30.765  1.00  0.00     0.037 A 
BRANCH  27  41
ATOM     41  C   UNL A   1      38.674  29.149  29.034  1.00  0.00     0.057 A 
ATOM     42  C   UNL A   1      37.767  29.064  30.098  1.00  0.00     0.134 A 
ATOM     43  C   UNL A   1      38.187  29.616  27.806  1.00  0.00     0.134 A 
ATOM     44  F   UNL A   1      38.165  28.613  31.297  1.00  0.00    -0.206 F 
ATOM     45  C   UNL A   1      36.423  29.408  29.940  1.00  0.00     0.040 A 
ATOM     46  C   UNL A   1      36.849  29.985  27.643  1.00  0.00     0.040 A 
ATOM     47  F   UNL A   1      39.003  29.729  26.747  1.00  0.00    -0.206 F 
ATOM     48  C   UNL A   1      35.963  29.875  28.711  1.00  0.00     0.006 A 
ENDBRANCH  27  41
BRANCH  28  49
ATOM     49  C   UNL A   1      48.268  26.486  29.610  1.00  0.00     0.057 A 
ATOM     50  C   UNL A   1      49.176  26.792  28.590  1.00  0.00     0.134 A 
ATOM     51  C   UNL A   1      48.757  25.811  30.733  1.00  0.00     0.134 A 
ATOM     52  F   UNL A   1      48.762  27.424  27.482  1.00  0.00    -0.206 F 
ATOM     53  C   UNL A   1      50.522  26.430  28.680  1.00  0.00     0.040 A 
ATOM     54  C   UNL A   1      50.104  25.465  30.847  1.00  0.00     0.040 A 
ATOM     55  F   UNL A   1      47.936  25.499  31.746  1.00  0.00    -0.206 F 
ATOM     56  C   UNL A   1      50.989  25.771  29.815  1.00  0.00     0.006 A 
ENDBRANCH  28  49
BRANCH  40  57
ATOM     57  C   UNL A   1      44.760  32.218  31.401  1.00  0.00     0.057 A 
ATOM     58  C   UNL A   1      44.787  32.384  32.791  1.00  0.00     0.134 A 
ATOM     59  C   UNL A   1      45.167  33.299  30.611  1.00  0.00     0.134 A 
ATOM     60  F   UNL A   1      44.394  31.390  33.603  1.00  0.00    -0.206 F 
ATOM     61  C   UNL A   1      45.181  33.590  33.373  1.00  0.00     0.040 A 
ATOM     62  C   UNL A   1      45.586  34.502  31.181  1.00  0.00     0.040 A 
ATOM     63  F   UNL A   1      45.170  33.203  29.272  1.00  0.00    -0.206 F 
ATOM     64  C   UNL A   1      45.586  34.652  32.567  1.00  0.00     0.006 A 
ENDBRANCH  40  57
ENDBRANCH  14  15
ENDBRANCH   7   9
ENDBRANCH   4   5
ENDBRANCH   3   4
ENDBRANCH   2   3
ENDBRANCH   1   2
BRANCH   1  65
ATOM     65  C   UNL A   1      33.765  20.193  24.652  1.00  0.00     0.021 C 
BRANCH  65  66
ATOM     66  C   UNL A   1      32.641  21.190  24.928  1.00  0.00     0.116 C 
BRANCH  66  67
ATOM     67  N   UNL A   1      32.455  21.431  26.344  1.00  0.00    -0.352 N 
ATOM     68  C   UNL A   1      32.554  22.616  27.029  1.00  0.00     0.255 C 
ATOM     69  H   UNL A   1      32.226  20.642  26.886  1.00  0.00     0.163 HD
ATOM     70  O   UNL A   1      32.425  22.636  28.251  1.00  0.00    -0.269 OA
BRANCH  68  71
ATOM     71  C   UNL A   1      32.907  23.860  26.317  1.00  0.00     0.082 A 
ATOM     72  C   UNL A   1      31.843  24.668  25.889  1.00  0.00     0.025 A 
ATOM     73  C   UNL A   1      34.225  24.222  26.029  1.00  0.00     0.128 A 
ATOM     74  C   UNL A   1      32.083  25.866  25.206  1.00  0.00    -0.025 A 
ATOM     75  C   UNL A   1      34.481  25.415  25.359  1.00  0.00     0.047 A 
ATOM     76  C   UNL A   1      33.416  26.232  24.958  1.00  0.00     0.012 A 
BRANCH  73  77
ATOM     77  O   UNL A   1      35.265  23.418  26.399  1.00  0.00    -0.507 OA
ATOM     78  H   UNL A   1      36.026  23.791  26.801  1.00  0.00     0.293 HD
ENDBRANCH  73  77
BRANCH  74  79
ATOM     79  C   UNL A   1      31.010  26.756  24.723  1.00  0.00     0.009 C 
ATOM     80  C   UNL A   1      30.963  27.358  23.523  1.00  0.00     0.009 C 
BRANCH  80  81
ATOM     81  C   UNL A   1      29.879  28.262  23.116  1.00  0.00    -0.018 A 
ATOM     82  C   UNL A   1      28.531  27.902  23.256  1.00  0.00     0.054 A 
ATOM     83  C   UNL A   1      30.201  29.544  22.647  1.00  0.00     0.054 A 
ATOM     84  C   UNL A   1      27.530  28.806  22.907  1.00  0.00     0.119 A 
ATOM     85  C   UNL A   1      29.183  30.432  22.302  1.00  0.00     0.119 A 
ATOM     86  C   UNL A   1      27.847  30.070  22.425  1.00  0.00     0.092 A 
BRANCH  84  87
ATOM     87  O   UNL A   1      26.210  28.486  23.034  1.00  0.00    -0.508 OA
ATOM     88  H   UNL A   1      25.614  29.103  23.410  1.00  0.00     0.293 HD
ENDBRANCH  84  87
BRANCH  85  89
ATOM     89  O   UNL A   1      29.462  31.684  21.838  1.00  0.00    -0.508 OA
ATOM     90  H   UNL A   1      29.812  32.332  22.417  1.00  0.00     0.293 HD
ENDBRANCH  85  89
ENDBRANCH  80  81
ENDBRANCH  74  79
ENDBRANCH  68  71
ENDBRANCH  66  67
ENDBRANCH  65  66
ENDBRANCH   1  65
TORSDOF 18
ENDMDL
