MODEL 1
REMARK VINA RESULT:     -11.8      0.000      0.000
REMARK SMILES COc1cccc(N2/C(=[NH+]/C(=O)CCC(=O)NCCCCCCNC(=O)c3ccc(-c4c5nc(c(-c6c(F)cccc6F)c6ccc([nH]6)c(-c6c(F)cccc6F)c6nc(c(-c7c(F)cccc7F)c7ccc4[nH]7)C=C6)C=C5)cc3)S[C@@H]3CS(=O)(=O)C[C@H]32)c1
REMARK SMILES IDX 19 1 18 2 17 3 15 4 16 5 14 7 13 8 11 9 8 10 9 11 88 12
REMARK SMILES IDX 10 13 81 14 82 15 87 16 83 18 84 19 12 20 85 21 86 22 7 23
REMARK SMILES IDX 3 24 4 25 89 26 5 27 6 28 2 29 1 30 20 31 21 32 22 33 23 34
REMARK SMILES IDX 24 35 25 36 26 38 27 39 28 40 80 41 29 42 79 43 30 44 31 45
REMARK SMILES IDX 32 46 73 47 33 48 78 49 72 50 74 51 34 52 77 53 71 54 70 55
REMARK SMILES IDX 35 57 61 58 44 59 60 60 45 61 48 62 59 63 75 64 46 65 47 66
REMARK SMILES IDX 58 68 76 69 49 70 36 71 37 72 42 73 38 74 39 75 41 76 43 77
REMARK SMILES IDX 40 78 62 79 63 80 68 81 64 82 65 83 67 84 69 85 66 86 50 87
REMARK SMILES IDX 51 88 56 89 52 90 53 91 55 92 57 93 54 94
REMARK H PARENT 17 6 10 17 24 37 74 56 48 67
REMARK Flexibility Score: inf
ROOT
ATOM      1  C   UNL A   1      42.318  19.232  26.978  1.00  0.00     0.021 C 
ENDROOT
BRANCH   1   2
ATOM      2  C   UNL A   1      41.131  20.052  27.541  1.00  0.00     0.116 C 
BRANCH   2   3
ATOM      3  N   UNL A   1      41.042  21.436  27.080  1.00  0.00    -0.356 N 
ATOM      4  C   UNL A   1      40.020  22.212  26.628  1.00  0.00     0.220 C 
ATOM      5  O   UNL A   1      40.264  23.398  26.392  1.00  0.00    -0.275 OA
ATOM      6  H   UNL A   1      41.906  21.908  27.103  1.00  0.00     0.163 HD
BRANCH   4   7
ATOM      7  C   UNL A   1      38.632  21.665  26.388  1.00  0.00     0.112 C 
BRANCH   7   8
ATOM      8  C   UNL A   1      38.188  22.004  24.968  1.00  0.00     0.138 C 
BRANCH   8   9
ATOM      9  C   UNL A   1      36.925  22.797  25.111  1.00  0.00     0.308 C 
ATOM     10  N   UNL A   1      33.380  22.289  24.451  1.00  0.00    -0.216 N 
ATOM     11  C   UNL A   1      34.698  22.764  24.520  1.00  0.00     0.319 C 
ATOM     12  C   UNL A   1      32.489  23.310  25.023  1.00  0.00     0.212 C 
ATOM     13  N   UNL A   1      35.779  22.112  24.780  1.00  0.00    -0.204 N 
ATOM     14  S   UNL A   1      34.674  24.545  24.266  1.00  0.00    -0.029 SA
ATOM     15  C   UNL A   1      32.899  24.611  24.320  1.00  0.00     0.120 C 
ATOM     16  C   UNL A   1      30.983  23.328  24.955  1.00  0.00     0.188 C 
ATOM     17  H   UNL A   1      35.784  21.128  24.742  1.00  0.00     0.316 HD
ATOM     18  C   UNL A   1      32.307  25.708  25.148  1.00  0.00     0.156 C 
ATOM     19  S   UNL A   1      30.668  25.087  25.376  1.00  0.00     0.155 S 
ATOM     20  O   UNL A   1      36.979  23.871  25.712  1.00  0.00    -0.247 OA
ATOM     21  O   UNL A   1      29.798  25.661  24.378  1.00  0.00    -0.229 OA
ATOM     22  O   UNL A   1      30.440  25.240  26.793  1.00  0.00    -0.229 OA
BRANCH  10  23
ATOM     23  C   UNL A   1      32.975  20.950  24.312  1.00  0.00     0.132 A 
ATOM     24  C   UNL A   1      32.671  18.652  25.136  1.00  0.00     0.123 A 
ATOM     25  C   UNL A   1      32.276  18.240  23.866  1.00  0.00     0.047 A 
ATOM     26  C   UNL A   1      33.051  19.989  25.344  1.00  0.00     0.098 A 
ATOM     27  C   UNL A   1      32.223  19.155  22.823  1.00  0.00     0.008 A 
ATOM     28  C   UNL A   1      32.557  20.493  23.050  1.00  0.00     0.052 A 
BRANCH  24  29
ATOM     29  O   UNL A   1      32.751  17.641  26.054  1.00  0.00    -0.497 OA
ATOM     30  C   UNL A   1      33.368  16.433  25.629  1.00  0.00     0.278 C 
ENDBRANCH  24  29
ENDBRANCH  10  23
ENDBRANCH   8   9
ENDBRANCH   7   8
ENDBRANCH   4   7
ENDBRANCH   2   3
ENDBRANCH   1   2
BRANCH   1  31
ATOM     31  C   UNL A   1      42.865  19.633  25.591  1.00  0.00     0.002 C 
BRANCH  31  32
ATOM     32  C   UNL A   1      44.344  20.037  25.366  1.00  0.00     0.002 C 
BRANCH  32  33
ATOM     33  C   UNL A   1      44.731  21.278  24.529  1.00  0.00     0.021 C 
BRANCH  33  34
ATOM     34  C   UNL A   1      44.526  22.698  25.118  1.00  0.00     0.116 C 
BRANCH  34  35
ATOM     35  N   UNL A   1      45.268  23.818  24.535  1.00  0.00    -0.352 N 
ATOM     36  C   UNL A   1      45.355  25.148  24.956  1.00  0.00     0.251 C 
ATOM     37  H   UNL A   1      45.783  23.602  23.724  1.00  0.00     0.163 HD
ATOM     38  O   UNL A   1      46.308  25.828  24.579  1.00  0.00    -0.269 OA
BRANCH  36  39
ATOM     39  C   UNL A   1      44.364  25.783  25.874  1.00  0.00     0.039 A 
ATOM     40  C   UNL A   1      43.521  25.038  26.687  1.00  0.00     0.014 A 
ATOM     41  C   UNL A   1      44.169  27.160  25.854  1.00  0.00     0.014 A 
ATOM     42  C   UNL A   1      42.664  25.691  27.605  1.00  0.00     0.010 A 
ATOM     43  C   UNL A   1      43.488  27.800  26.913  1.00  0.00     0.010 A 
ATOM     44  C   UNL A   1      42.753  27.081  27.861  1.00  0.00    -0.014 A 
BRANCH  44  45
ATOM     45  C   UNL A   1      42.172  27.684  29.138  1.00  0.00     0.031 A 
ATOM     46  C   UNL A   1      42.764  27.498  30.538  1.00  0.00     0.074 A 
ATOM     47  C   UNL A   1      40.997  28.366  29.071  1.00  0.00     0.049 A 
ATOM     48  N   UNL A   1      42.367  28.025  31.682  1.00  0.00    -0.248 NA
ATOM     49  C   UNL A   1      43.895  26.572  30.704  1.00  0.00     0.031 C 
ATOM     50  C   UNL A   1      40.151  28.484  27.880  1.00  0.00     0.029 A 
ATOM     51  N   UNL A   1      40.304  29.102  30.014  1.00  0.00    -0.354 N 
ATOM     52  C   UNL A   1      43.169  27.467  32.680  1.00  0.00     0.074 A 
ATOM     53  C   UNL A   1      44.027  26.510  32.023  1.00  0.00     0.031 C 
ATOM     54  C   UNL A   1      39.138  29.327  28.120  1.00  0.00     0.029 A 
ATOM     55  C   UNL A   1      39.199  29.760  29.509  1.00  0.00     0.049 A 
ATOM     56  H   UNL A   1      40.573  29.154  30.959  1.00  0.00     0.167 HD
ATOM     57  C   UNL A   1      43.230  27.744  34.010  1.00  0.00     0.037 A 
ATOM     58  C   UNL A   1      38.323  30.619  30.072  1.00  0.00     0.037 A 
ATOM     59  C   UNL A   1      42.434  28.744  34.679  1.00  0.00     0.049 A 
ATOM     60  C   UNL A   1      38.484  31.005  31.517  1.00  0.00     0.074 A 
ATOM     61  C   UNL A   1      42.535  29.194  35.987  1.00  0.00     0.029 A 
ATOM     62  N   UNL A   1      41.389  29.442  34.100  1.00  0.00    -0.354 N 
ATOM     63  N   UNL A   1      39.372  30.593  32.385  1.00  0.00    -0.248 NA
ATOM     64  C   UNL A   1      37.526  31.982  32.058  1.00  0.00     0.031 C 
ATOM     65  C   UNL A   1      41.517  30.124  36.214  1.00  0.00     0.029 A 
ATOM     66  C   UNL A   1      40.821  30.299  35.031  1.00  0.00     0.049 A 
ATOM     67  H   UNL A   1      41.093  29.346  33.166  1.00  0.00     0.167 HD
ATOM     68  C   UNL A   1      39.096  31.278  33.562  1.00  0.00     0.074 A 
ATOM     69  C   UNL A   1      37.977  32.151  33.292  1.00  0.00     0.031 C 
ATOM     70  C   UNL A   1      39.717  31.182  34.762  1.00  0.00     0.037 A 
BRANCH  57  71
ATOM     71  C   UNL A   1      44.231  26.994  34.858  1.00  0.00     0.057 A 
ATOM     72  C   UNL A   1      45.517  27.495  35.100  1.00  0.00     0.134 A 
ATOM     73  C   UNL A   1      43.872  25.811  35.523  1.00  0.00     0.134 A 
ATOM     74  F   UNL A   1      45.927  28.628  34.510  1.00  0.00    -0.206 F 
ATOM     75  C   UNL A   1      46.418  26.835  35.940  1.00  0.00     0.040 A 
ATOM     76  C   UNL A   1      44.753  25.159  36.390  1.00  0.00     0.040 A 
ATOM     77  F   UNL A   1      42.648  25.284  35.367  1.00  0.00    -0.206 F 
ATOM     78  C   UNL A   1      46.034  25.666  36.594  1.00  0.00     0.006 A 
ENDBRANCH  57  71
BRANCH  58  79
ATOM     79  C   UNL A   1      37.219  31.213  29.262  1.00  0.00     0.057 A 
ATOM     80  C   UNL A   1      37.296  32.528  28.781  1.00  0.00     0.134 A 
ATOM     81  C   UNL A   1      36.047  30.500  28.983  1.00  0.00     0.134 A 
ATOM     82  F   UNL A   1      38.382  33.276  29.029  1.00  0.00    -0.206 F 
ATOM     83  C   UNL A   1      36.239  33.121  28.087  1.00  0.00     0.040 A 
ATOM     84  C   UNL A   1      34.997  31.069  28.257  1.00  0.00     0.040 A 
ATOM     85  F   UNL A   1      35.908  29.233  29.400  1.00  0.00    -0.206 F 
ATOM     86  C   UNL A   1      35.085  32.388  27.820  1.00  0.00     0.006 A 
ENDBRANCH  58  79
BRANCH  70  87
ATOM     87  C   UNL A   1      39.232  32.071  35.871  1.00  0.00     0.057 A 
ATOM     88  C   UNL A   1      39.709  33.377  36.039  1.00  0.00     0.134 A 
ATOM     89  C   UNL A   1      38.243  31.625  36.757  1.00  0.00     0.134 A 
ATOM     90  F   UNL A   1      40.665  33.861  35.233  1.00  0.00    -0.206 F 
ATOM     91  C   UNL A   1      39.237  34.199  37.064  1.00  0.00     0.040 A 
ATOM     92  C   UNL A   1      37.741  32.449  37.767  1.00  0.00     0.040 A 
ATOM     93  F   UNL A   1      37.735  30.388  36.648  1.00  0.00    -0.206 F 
ATOM     94  C   UNL A   1      38.244  33.738  37.925  1.00  0.00     0.006 A 
ENDBRANCH  70  87
ENDBRANCH  44  45
ENDBRANCH  36  39
ENDBRANCH  34  35
ENDBRANCH  33  34
ENDBRANCH  32  33
ENDBRANCH  31  32
ENDBRANCH   1  31
TORSDOF 17
ENDMDL
MODEL 2
REMARK VINA RESULT:     -11.7      2.551      7.876
REMARK SMILES COc1cccc(N2/C(=[NH+]/C(=O)CCC(=O)NCCCCCCNC(=O)c3ccc(-c4c5nc(c(-c6c(F)cccc6F)c6ccc([nH]6)c(-c6c(F)cccc6F)c6nc(c(-c7c(F)cccc7F)c7ccc4[nH]7)C=C6)C=C5)cc3)S[C@@H]3CS(=O)(=O)C[C@H]32)c1
REMARK SMILES IDX 19 1 18 2 17 3 15 4 16 5 14 7 13 8 11 9 8 10 9 11 88 12
REMARK SMILES IDX 10 13 81 14 82 15 87 16 83 18 84 19 12 20 85 21 86 22 7 23
REMARK SMILES IDX 3 24 4 25 89 26 5 27 6 28 2 29 1 30 20 31 21 32 22 33 23 34
REMARK SMILES IDX 24 35 25 36 26 38 27 39 28 40 80 41 29 42 79 43 30 44 31 45
REMARK SMILES IDX 32 46 73 47 33 48 78 49 72 50 74 51 34 52 77 53 71 54 70 55
REMARK SMILES IDX 35 57 61 58 44 59 60 60 45 61 48 62 59 63 75 64 46 65 47 66
REMARK SMILES IDX 58 68 76 69 49 70 36 71 37 72 42 73 38 74 39 75 41 76 43 77
REMARK SMILES IDX 40 78 62 79 63 80 68 81 64 82 65 83 67 84 69 85 66 86 50 87
REMARK SMILES IDX 51 88 56 89 52 90 53 91 55 92 57 93 54 94
REMARK H PARENT 17 6 10 17 24 37 74 56 48 67
REMARK Flexibility Score: inf
ROOT
ATOM      1  C   UNL A   1      35.990  23.697  23.990  1.00  0.00     0.021 C 
ENDROOT
BRANCH   1   2
ATOM      2  C   UNL A   1      34.987  24.213  25.052  1.00  0.00     0.116 C 
BRANCH   2   3
ATOM      3  N   UNL A   1      34.606  23.251  26.084  1.00  0.00    -0.356 N 
ATOM      4  C   UNL A   1      33.414  22.867  26.615  1.00  0.00     0.220 C 
ATOM      5  O   UNL A   1      33.426  21.944  27.435  1.00  0.00    -0.275 OA
ATOM      6  H   UNL A   1      35.377  22.781  26.478  1.00  0.00     0.163 HD
BRANCH   4   7
ATOM      7  C   UNL A   1      32.111  23.541  26.256  1.00  0.00     0.112 C 
BRANCH   7   8
ATOM      8  C   UNL A   1      31.649  23.060  24.883  1.00  0.00     0.138 C 
BRANCH   8   9
ATOM      9  C   UNL A   1      30.930  24.218  24.262  1.00  0.00     0.308 C 
ATOM     10  N   UNL A   1      30.722  27.813  24.801  1.00  0.00    -0.216 N 
ATOM     11  C   UNL A   1      30.465  26.448  24.610  1.00  0.00     0.319 C 
ATOM     12  C   UNL A   1      30.056  28.565  23.726  1.00  0.00     0.212 C 
ATOM     13  N   UNL A   1      31.250  25.444  24.798  1.00  0.00    -0.204 N 
ATOM     14  S   UNL A   1      28.805  26.271  23.936  1.00  0.00    -0.029 SA
ATOM     15  C   UNL A   1      28.620  28.025  23.714  1.00  0.00     0.120 C 
ATOM     16  C   UNL A   1      29.875  30.061  23.654  1.00  0.00     0.188 C 
ATOM     17  H   UNL A   1      32.076  25.554  25.323  1.00  0.00     0.316 HD
ATOM     18  C   UNL A   1      28.046  28.465  22.405  1.00  0.00     0.156 C 
ATOM     19  S   UNL A   1      28.551  30.158  22.388  1.00  0.00     0.155 S 
ATOM     20  O   UNL A   1      30.317  24.025  23.211  1.00  0.00    -0.247 OA
ATOM     21  O   UNL A   1      27.477  30.981  22.891  1.00  0.00    -0.229 OA
ATOM     22  O   UNL A   1      29.115  30.332  21.070  1.00  0.00    -0.229 OA
BRANCH  10  23
ATOM     23  C   UNL A   1      31.765  28.375  25.557  1.00  0.00     0.132 A 
ATOM     24  C   UNL A   1      32.862  30.227  26.748  1.00  0.00     0.123 A 
ATOM     25  C   UNL A   1      33.998  29.445  26.938  1.00  0.00     0.047 A 
ATOM     26  C   UNL A   1      31.771  29.705  26.032  1.00  0.00     0.098 A 
ATOM     27  C   UNL A   1      34.035  28.143  26.453  1.00  0.00     0.008 A 
ATOM     28  C   UNL A   1      32.927  27.616  25.783  1.00  0.00     0.052 A 
BRANCH  24  29
ATOM     29  O   UNL A   1      32.982  31.510  27.209  1.00  0.00    -0.497 OA
ATOM     30  C   UNL A   1      31.861  32.365  27.031  1.00  0.00     0.278 C 
ENDBRANCH  24  29
ENDBRANCH  10  23
ENDBRANCH   8   9
ENDBRANCH   7   8
ENDBRANCH   4   7
ENDBRANCH   2   3
ENDBRANCH   1   2
BRANCH   1  31
ATOM     31  C   UNL A   1      36.423  22.218  24.081  1.00  0.00     0.002 C 
BRANCH  31  32
ATOM     32  C   UNL A   1      37.683  21.767  24.862  1.00  0.00     0.002 C 
BRANCH  32  33
ATOM     33  C   UNL A   1      38.232  22.578  26.058  1.00  0.00     0.021 C 
BRANCH  33  34
ATOM     34  C   UNL A   1      39.649  22.272  26.610  1.00  0.00     0.116 C 
BRANCH  34  35
ATOM     35  N   UNL A   1      40.812  22.830  25.917  1.00  0.00    -0.352 N 
ATOM     36  C   UNL A   1      41.527  24.003  26.175  1.00  0.00     0.251 C 
ATOM     37  H   UNL A   1      41.139  22.300  25.155  1.00  0.00     0.163 HD
ATOM     38  O   UNL A   1      42.676  24.103  25.747  1.00  0.00    -0.269 OA
BRANCH  36  39
ATOM     39  C   UNL A   1      40.981  25.137  26.977  1.00  0.00     0.039 A 
ATOM     40  C   UNL A   1      40.164  24.938  28.082  1.00  0.00     0.014 A 
ATOM     41  C   UNL A   1      41.178  26.450  26.564  1.00  0.00     0.014 A 
ATOM     42  C   UNL A   1      39.748  26.044  28.861  1.00  0.00     0.010 A 
ATOM     43  C   UNL A   1      40.953  27.521  27.457  1.00  0.00     0.010 A 
ATOM     44  C   UNL A   1      40.274  27.344  28.667  1.00  0.00    -0.014 A 
BRANCH  44  45
ATOM     45  C   UNL A   1      40.182  28.402  29.764  1.00  0.00     0.031 A 
ATOM     46  C   UNL A   1      39.134  29.519  29.814  1.00  0.00     0.074 A 
ATOM     47  C   UNL A   1      41.137  28.435  30.732  1.00  0.00     0.049 A 
ATOM     48  N   UNL A   1      38.943  30.434  30.745  1.00  0.00    -0.248 NA
ATOM     49  C   UNL A   1      38.226  29.679  28.669  1.00  0.00     0.031 C 
ATOM     50  C   UNL A   1      42.344  27.604  30.762  1.00  0.00     0.029 A 
ATOM     51  N   UNL A   1      41.253  29.184  31.888  1.00  0.00    -0.354 N 
ATOM     52  C   UNL A   1      37.935  31.280  30.277  1.00  0.00     0.074 A 
ATOM     53  C   UNL A   1      37.601  30.815  28.952  1.00  0.00     0.031 C 
ATOM     54  C   UNL A   1      43.003  27.794  31.912  1.00  0.00     0.029 A 
ATOM     55  C   UNL A   1      42.322  28.822  32.686  1.00  0.00     0.049 A 
ATOM     56  H   UNL A   1      40.630  29.908  32.124  1.00  0.00     0.167 HD
ATOM     57  C   UNL A   1      37.306  32.316  30.893  1.00  0.00     0.037 A 
ATOM     58  C   UNL A   1      42.727  29.247  33.901  1.00  0.00     0.037 A 
ATOM     59  C   UNL A   1      37.571  32.755  32.241  1.00  0.00     0.049 A 
ATOM     60  C   UNL A   1      41.942  30.312  34.617  1.00  0.00     0.074 A 
ATOM     61  C   UNL A   1      36.882  33.695  32.993  1.00  0.00     0.029 A 
ATOM     62  N   UNL A   1      38.608  32.296  33.034  1.00  0.00    -0.354 N 
ATOM     63  N   UNL A   1      40.880  30.962  34.215  1.00  0.00    -0.248 NA
ATOM     64  C   UNL A   1      42.408  30.698  35.959  1.00  0.00     0.031 C 
ATOM     65  C   UNL A   1      37.534  33.842  34.221  1.00  0.00     0.029 A 
ATOM     66  C   UNL A   1      38.592  32.951  34.256  1.00  0.00     0.049 A 
ATOM     67  H   UNL A   1      39.259  31.606  32.770  1.00  0.00     0.167 HD
ATOM     68  C   UNL A   1      40.536  31.810  35.261  1.00  0.00     0.074 A 
ATOM     69  C   UNL A   1      41.485  31.575  36.325  1.00  0.00     0.031 C 
ATOM     70  C   UNL A   1      39.525  32.708  35.325  1.00  0.00     0.037 A 
BRANCH  57  71
ATOM     71  C   UNL A   1      36.214  33.044  30.143  1.00  0.00     0.057 A 
ATOM     72  C   UNL A   1      34.864  32.915  30.496  1.00  0.00     0.134 A 
ATOM     73  C   UNL A   1      36.523  33.962  29.127  1.00  0.00     0.134 A 
ATOM     74  F   UNL A   1      34.493  32.068  31.467  1.00  0.00    -0.206 F 
ATOM     75  C   UNL A   1      33.861  33.641  29.847  1.00  0.00     0.040 A 
ATOM     76  C   UNL A   1      35.532  34.717  28.493  1.00  0.00     0.040 A 
ATOM     77  F   UNL A   1      37.796  34.164  28.753  1.00  0.00    -0.206 F 
ATOM     78  C   UNL A   1      34.195  34.552  28.847  1.00  0.00     0.006 A 
ENDBRANCH  57  71
BRANCH  58  79
ATOM     79  C   UNL A   1      43.926  28.644  34.553  1.00  0.00     0.057 A 
ATOM     80  C   UNL A   1      43.813  27.527  35.393  1.00  0.00     0.134 A 
ATOM     81  C   UNL A   1      45.205  29.188  34.384  1.00  0.00     0.134 A 
ATOM     82  F   UNL A   1      42.614  26.967  35.615  1.00  0.00    -0.206 F 
ATOM     83  C   UNL A   1      44.916  26.999  36.068  1.00  0.00     0.040 A 
ATOM     84  C   UNL A   1      46.323  28.646  35.025  1.00  0.00     0.040 A 
ATOM     85  F   UNL A   1      45.391  30.248  33.585  1.00  0.00    -0.206 F 
ATOM     86  C   UNL A   1      46.178  27.557  35.881  1.00  0.00     0.006 A 
ENDBRANCH  58  79
BRANCH  70  87
ATOM     87  C   UNL A   1      39.358  33.481  36.602  1.00  0.00     0.057 A 
ATOM     88  C   UNL A   1      38.597  32.994  37.671  1.00  0.00     0.134 A 
ATOM     89  C   UNL A   1      40.004  34.712  36.776  1.00  0.00     0.134 A 
ATOM     90  F   UNL A   1      37.942  31.828  37.566  1.00  0.00    -0.206 F 
ATOM     91  C   UNL A   1      38.465  33.714  38.860  1.00  0.00     0.040 A 
ATOM     92  C   UNL A   1      39.904  35.427  37.971  1.00  0.00     0.040 A 
ATOM     93  F   UNL A   1      40.757  35.233  35.795  1.00  0.00    -0.206 F 
ATOM     94  C   UNL A   1      39.126  34.930  39.015  1.00  0.00     0.006 A 
ENDBRANCH  70  87
ENDBRANCH  44  45
ENDBRANCH  36  39
ENDBRANCH  34  35
ENDBRANCH  33  34
ENDBRANCH  32  33
ENDBRANCH  31  32
ENDBRANCH   1  31
TORSDOF 17
ENDMDL
MODEL 3
REMARK VINA RESULT:     -11.4      4.650      9.171
REMARK SMILES COc1cccc(N2/C(=[NH+]/C(=O)CCC(=O)NCCCCCCNC(=O)c3ccc(-c4c5nc(c(-c6c(F)cccc6F)c6ccc([nH]6)c(-c6c(F)cccc6F)c6nc(c(-c7c(F)cccc7F)c7ccc4[nH]7)C=C6)C=C5)cc3)S[C@@H]3CS(=O)(=O)C[C@H]32)c1
REMARK SMILES IDX 19 1 18 2 17 3 15 4 16 5 14 7 13 8 11 9 8 10 9 11 88 12
REMARK SMILES IDX 10 13 81 14 82 15 87 16 83 18 84 19 12 20 85 21 86 22 7 23
REMARK SMILES IDX 3 24 4 25 89 26 5 27 6 28 2 29 1 30 20 31 21 32 22 33 23 34
REMARK SMILES IDX 24 35 25 36 26 38 27 39 28 40 80 41 29 42 79 43 30 44 31 45
REMARK SMILES IDX 32 46 73 47 33 48 78 49 72 50 74 51 34 52 77 53 71 54 70 55
REMARK SMILES IDX 35 57 61 58 44 59 60 60 45 61 48 62 59 63 75 64 46 65 47 66
REMARK SMILES IDX 58 68 76 69 49 70 36 71 37 72 42 73 38 74 39 75 41 76 43 77
REMARK SMILES IDX 40 78 62 79 63 80 68 81 64 82 65 83 67 84 69 85 66 86 50 87
REMARK SMILES IDX 51 88 56 89 52 90 53 91 55 92 57 93 54 94
REMARK H PARENT 17 6 10 17 24 37 74 56 48 67
REMARK Flexibility Score: inf
ROOT
ATOM      1  C   UNL A   1      39.402  27.400  29.051  1.00  0.00     0.021 C 
ENDROOT
BRANCH   1   2
ATOM      2  C   UNL A   1      39.364  27.822  30.541  1.00  0.00     0.116 C 
BRANCH   2   3
ATOM      3  N   UNL A   1      39.784  29.193  30.823  1.00  0.00    -0.356 N 
ATOM      4  C   UNL A   1      39.461  30.095  31.789  1.00  0.00     0.220 C 
ATOM      5  O   UNL A   1      40.072  31.168  31.796  1.00  0.00    -0.275 OA
ATOM      6  H   UNL A   1      40.441  29.537  30.175  1.00  0.00     0.163 HD
BRANCH   4   7
ATOM      7  C   UNL A   1      38.381  29.834  32.814  1.00  0.00     0.112 C 
BRANCH   7   8
ATOM      8  C   UNL A   1      38.574  30.765  34.007  1.00  0.00     0.138 C 
BRANCH   8   9
ATOM      9  C   UNL A   1      37.529  31.829  33.870  1.00  0.00     0.308 C 
ATOM     10  N   UNL A   1      35.643  33.367  31.161  1.00  0.00    -0.216 N 
ATOM     11  C   UNL A   1      36.443  33.096  32.281  1.00  0.00     0.319 C 
ATOM     12  C   UNL A   1      34.517  34.212  31.589  1.00  0.00     0.212 C 
ATOM     13  N   UNL A   1      37.057  32.007  32.589  1.00  0.00    -0.204 N 
ATOM     14  S   UNL A   1      36.428  34.542  33.352  1.00  0.00    -0.029 SA
ATOM     15  C   UNL A   1      35.173  35.347  32.386  1.00  0.00     0.120 C 
ATOM     16  C   UNL A   1      33.538  34.926  30.691  1.00  0.00     0.188 C 
ATOM     17  H   UNL A   1      37.189  31.304  31.912  1.00  0.00     0.316 HD
ATOM     18  C   UNL A   1      34.057  35.982  33.155  1.00  0.00     0.156 C 
ATOM     19  S   UNL A   1      32.840  36.134  31.884  1.00  0.00     0.155 S 
ATOM     20  O   UNL A   1      37.020  32.279  34.898  1.00  0.00    -0.247 OA
ATOM     21  O   UNL A   1      32.911  37.457  31.311  1.00  0.00    -0.229 OA
ATOM     22  O   UNL A   1      31.640  35.612  32.497  1.00  0.00    -0.229 OA
BRANCH  10  23
ATOM     23  C   UNL A   1      35.604  32.639  29.959  1.00  0.00     0.132 A 
ATOM     24  C   UNL A   1      34.435  31.567  28.080  1.00  0.00     0.123 A 
ATOM     25  C   UNL A   1      35.636  31.027  27.628  1.00  0.00     0.047 A 
ATOM     26  C   UNL A   1      34.418  32.337  29.256  1.00  0.00     0.098 A 
ATOM     27  C   UNL A   1      36.815  31.280  28.318  1.00  0.00     0.008 A 
ATOM     28  C   UNL A   1      36.796  32.085  29.460  1.00  0.00     0.052 A 
BRANCH  24  29
ATOM     29  O   UNL A   1      33.340  31.183  27.354  1.00  0.00    -0.497 OA
ATOM     30  C   UNL A   1      33.384  29.894  26.757  1.00  0.00     0.278 C 
ENDBRANCH  24  29
ENDBRANCH  10  23
ENDBRANCH   8   9
ENDBRANCH   7   8
ENDBRANCH   4   7
ENDBRANCH   2   3
ENDBRANCH   1   2
BRANCH   1  31
ATOM     31  C   UNL A   1      39.641  25.906  28.743  1.00  0.00     0.002 C 
BRANCH  31  32
ATOM     32  C   UNL A   1      39.302  25.277  27.368  1.00  0.00     0.002 C 
BRANCH  32  33
ATOM     33  C   UNL A   1      39.638  23.803  27.042  1.00  0.00     0.021 C 
BRANCH  33  34
ATOM     34  C   UNL A   1      41.116  23.333  27.040  1.00  0.00     0.116 C 
BRANCH  34  35
ATOM     35  N   UNL A   1      41.907  23.497  25.818  1.00  0.00    -0.352 N 
ATOM     36  C   UNL A   1      42.923  24.411  25.528  1.00  0.00     0.251 C 
ATOM     37  H   UNL A   1      41.691  22.868  25.092  1.00  0.00     0.163 HD
ATOM     38  O   UNL A   1      43.714  24.152  24.624  1.00  0.00    -0.269 OA
BRANCH  36  39
ATOM     39  C   UNL A   1      43.121  25.682  26.285  1.00  0.00     0.039 A 
ATOM     40  C   UNL A   1      42.212  26.729  26.230  1.00  0.00     0.014 A 
ATOM     41  C   UNL A   1      44.301  25.906  26.985  1.00  0.00     0.014 A 
ATOM     42  C   UNL A   1      42.403  27.876  27.038  1.00  0.00     0.010 A 
ATOM     43  C   UNL A   1      44.376  26.936  27.948  1.00  0.00     0.010 A 
ATOM     44  C   UNL A   1      43.398  27.931  28.044  1.00  0.00    -0.014 A 
BRANCH  44  45
ATOM     45  C   UNL A   1      43.307  28.942  29.185  1.00  0.00     0.031 A 
ATOM     46  C   UNL A   1      43.351  30.463  29.009  1.00  0.00     0.074 A 
ATOM     47  C   UNL A   1      43.273  28.489  30.468  1.00  0.00     0.049 A 
ATOM     48  N   UNL A   1      43.223  31.406  29.924  1.00  0.00    -0.248 NA
ATOM     49  C   UNL A   1      43.630  31.006  27.672  1.00  0.00     0.031 C 
ATOM     50  C   UNL A   1      43.435  27.091  30.879  1.00  0.00     0.029 A 
ATOM     51  N   UNL A   1      43.081  29.142  31.671  1.00  0.00    -0.354 N 
ATOM     52  C   UNL A   1      43.440  32.625  29.277  1.00  0.00     0.074 A 
ATOM     53  C   UNL A   1      43.778  32.303  27.911  1.00  0.00     0.031 C 
ATOM     54  C   UNL A   1      43.220  26.973  32.195  1.00  0.00     0.029 A 
ATOM     55  C   UNL A   1      42.982  28.295  32.758  1.00  0.00     0.049 A 
ATOM     56  H   UNL A   1      43.020  30.121  31.747  1.00  0.00     0.167 HD
ATOM     57  C   UNL A   1      43.330  33.897  29.746  1.00  0.00     0.037 A 
ATOM     58  C   UNL A   1      42.725  28.525  34.063  1.00  0.00     0.037 A 
ATOM     59  C   UNL A   1      42.925  34.247  31.085  1.00  0.00     0.049 A 
ATOM     60  C   UNL A   1      42.487  29.933  34.537  1.00  0.00     0.074 A 
ATOM     61  C   UNL A   1      42.644  35.503  31.600  1.00  0.00     0.029 A 
ATOM     62  N   UNL A   1      42.754  33.346  32.122  1.00  0.00    -0.354 N 
ATOM     63  N   UNL A   1      42.521  31.049  33.854  1.00  0.00    -0.248 NA
ATOM     64  C   UNL A   1      42.165  30.114  35.962  1.00  0.00     0.031 C 
ATOM     65  C   UNL A   1      42.354  35.368  32.961  1.00  0.00     0.029 A 
ATOM     66  C   UNL A   1      42.395  34.022  33.278  1.00  0.00     0.049 A 
ATOM     67  H   UNL A   1      42.868  32.372  32.048  1.00  0.00     0.167 HD
ATOM     68  C   UNL A   1      42.200  32.055  34.756  1.00  0.00     0.074 A 
ATOM     69  C   UNL A   1      41.948  31.418  36.029  1.00  0.00     0.031 C 
ATOM     70  C   UNL A   1      42.128  33.391  34.544  1.00  0.00     0.037 A 
BRANCH  57  71
ATOM     71  C   UNL A   1      43.601  35.040  28.796  1.00  0.00     0.057 A 
ATOM     72  C   UNL A   1      44.904  35.464  28.502  1.00  0.00     0.134 A 
ATOM     73  C   UNL A   1      42.556  35.656  28.090  1.00  0.00     0.134 A 
ATOM     74  F   UNL A   1      45.955  34.912  29.127  1.00  0.00    -0.206 F 
ATOM     75  C   UNL A   1      45.157  36.475  27.571  1.00  0.00     0.040 A 
ATOM     76  C   UNL A   1      42.799  36.646  27.133  1.00  0.00     0.040 A 
ATOM     77  F   UNL A   1      41.283  35.285  28.293  1.00  0.00    -0.206 F 
ATOM     78  C   UNL A   1      44.102  37.064  26.877  1.00  0.00     0.006 A 
ENDBRANCH  57  71
BRANCH  58  79
ATOM     79  C   UNL A   1      42.644  27.392  35.031  1.00  0.00     0.057 A 
ATOM     80  C   UNL A   1      43.707  27.098  35.897  1.00  0.00     0.134 A 
ATOM     81  C   UNL A   1      41.525  26.554  35.088  1.00  0.00     0.134 A 
ATOM     82  F   UNL A   1      44.819  27.849  35.881  1.00  0.00    -0.206 F 
ATOM     83  C   UNL A   1      43.675  25.996  36.754  1.00  0.00     0.040 A 
ATOM     84  C   UNL A   1      41.464  25.469  35.968  1.00  0.00     0.040 A 
ATOM     85  F   UNL A   1      40.465  26.782  34.299  1.00  0.00    -0.206 F 
ATOM     86  C   UNL A   1      42.547  25.179  36.794  1.00  0.00     0.006 A 
ENDBRANCH  58  79
BRANCH  70  87
ATOM     87  C   UNL A   1      41.723  34.260  35.700  1.00  0.00     0.057 A 
ATOM     88  C   UNL A   1      42.657  34.769  36.610  1.00  0.00     0.134 A 
ATOM     89  C   UNL A   1      40.382  34.624  35.877  1.00  0.00     0.134 A 
ATOM     90  F   UNL A   1      43.955  34.449  36.505  1.00  0.00    -0.206 F 
ATOM     91  C   UNL A   1      42.268  35.591  37.670  1.00  0.00     0.040 A 
ATOM     92  C   UNL A   1      39.986  35.469  36.915  1.00  0.00     0.040 A 
ATOM     93  F   UNL A   1      39.436  34.179  35.036  1.00  0.00    -0.206 F 
ATOM     94  C   UNL A   1      40.931  35.950  37.819  1.00  0.00     0.006 A 
ENDBRANCH  70  87
ENDBRANCH  44  45
ENDBRANCH  36  39
ENDBRANCH  34  35
ENDBRANCH  33  34
ENDBRANCH  32  33
ENDBRANCH  31  32
ENDBRANCH   1  31
TORSDOF 17
ENDMDL
