MODEL 1
REMARK VINA RESULT:     -12.0      0.000      0.000
REMARK SMILES O=C(NCCCCCCNC(=O)[C@@H]1[C@H](C(=O)Nc2cccc(Cl)c2F)[C@@H]2C=C[C@H]1C2)c1ccc(-c2c3nc(c(-c4c(F)cccc4F)c4ccc([nH]4)c(-c4c(F)cccc4F)c4nc(c(-c5c(F)cccc5F)c5ccc2[nH]5)C=C4)C=C3)cc1
REMARK SMILES IDX 6 1 5 2 4 3 3 4 1 5 2 6 31 8 32 9 84 10 33 11 83 12 34 13
REMARK SMILES IDX 35 14 36 15 77 16 37 17 82 18 76 19 78 20 38 21 81 22 75 23
REMARK SMILES IDX 74 24 39 26 65 27 48 28 64 29 49 30 52 31 63 32 79 33 50 34
REMARK SMILES IDX 51 35 62 37 80 38 53 39 40 40 41 41 46 42 42 43 43 44 45 45
REMARK SMILES IDX 47 46 44 47 66 48 67 49 72 50 68 51 69 52 71 53 73 54 70 55
REMARK SMILES IDX 54 56 55 57 60 58 56 59 57 60 59 61 61 62 58 63 7 64 8 65
REMARK SMILES IDX 9 66 10 67 11 68 12 70 13 71 14 72 29 73 26 74 28 75 30 76
REMARK SMILES IDX 27 77 15 78 16 79 17 80 18 82 19 83 24 84 20 85 22 86 25 87
REMARK SMILES IDX 21 88 23 89
REMARK H PARENT 3 7 78 25 52 36 10 69 17 81
REMARK Flexibility Score: inf
ROOT
ATOM      1  C   UNL A   1      36.614  20.706  24.973  1.00  0.00     0.002 C 
ENDROOT
BRANCH   1   2
ATOM      2  C   UNL A   1      37.847  19.797  24.949  1.00  0.00     0.021 C 
BRANCH   2   3
ATOM      3  C   UNL A   1      39.047  20.294  25.751  1.00  0.00     0.116 C 
BRANCH   3   4
ATOM      4  N   UNL A   1      40.104  19.301  25.831  1.00  0.00    -0.352 N 
ATOM      5  O   UNL A   1      42.219  18.526  25.881  1.00  0.00    -0.269 OA
ATOM      6  C   UNL A   1      41.444  19.466  26.065  1.00  0.00     0.251 C 
ATOM      7  H   UNL A   1      39.815  18.369  25.697  1.00  0.00     0.163 HD
BRANCH   6   8
ATOM      8  C   UNL A   1      41.975  20.759  26.546  1.00  0.00     0.039 A 
ATOM      9  C   UNL A   1      42.407  21.735  25.643  1.00  0.00     0.014 A 
ATOM     10  C   UNL A   1      41.950  21.037  27.916  1.00  0.00     0.014 A 
ATOM     11  C   UNL A   1      42.884  22.957  26.113  1.00  0.00     0.010 A 
ATOM     12  C   UNL A   1      42.370  22.286  28.384  1.00  0.00     0.010 A 
ATOM     13  C   UNL A   1      42.838  23.255  27.484  1.00  0.00    -0.014 A 
BRANCH  13  14
ATOM     14  C   UNL A   1      43.144  24.634  27.942  1.00  0.00     0.031 A 
ATOM     15  C   UNL A   1      42.057  25.637  28.196  1.00  0.00     0.074 A 
ATOM     16  C   UNL A   1      44.438  24.976  28.106  1.00  0.00     0.049 A 
ATOM     17  N   UNL A   1      42.166  26.885  28.577  1.00  0.00    -0.248 NA
ATOM     18  C   UNL A   1      40.671  25.190  27.992  1.00  0.00     0.031 C 
ATOM     19  C   UNL A   1      45.578  24.090  27.857  1.00  0.00     0.029 A 
ATOM     20  N   UNL A   1      45.015  26.151  28.514  1.00  0.00    -0.354 N 
ATOM     21  C   UNL A   1      40.871  27.379  28.644  1.00  0.00     0.074 A 
ATOM     22  C   UNL A   1      39.988  26.299  28.252  1.00  0.00     0.031 C 
ATOM     23  C   UNL A   1      46.715  24.745  28.135  1.00  0.00     0.029 A 
ATOM     24  C   UNL A   1      46.389  26.110  28.528  1.00  0.00     0.049 A 
ATOM     25  H   UNL A   1      44.496  26.946  28.773  1.00  0.00     0.167 HD
ATOM     26  C   UNL A   1      40.461  28.618  29.006  1.00  0.00     0.037 A 
ATOM     27  C   UNL A   1      47.289  27.073  28.796  1.00  0.00     0.037 A 
ATOM     28  C   UNL A   1      41.347  29.679  29.414  1.00  0.00     0.049 A 
ATOM     29  C   UNL A   1      46.801  28.442  29.168  1.00  0.00     0.074 A 
ATOM     30  C   UNL A   1      41.019  30.942  29.878  1.00  0.00     0.029 A 
ATOM     31  N   UNL A   1      42.731  29.609  29.395  1.00  0.00    -0.354 N 
ATOM     32  N   UNL A   1      45.570  28.870  29.301  1.00  0.00    -0.248 NA
ATOM     33  C   UNL A   1      47.825  29.465  29.418  1.00  0.00     0.031 C 
ATOM     34  C   UNL A   1      42.206  31.652  30.091  1.00  0.00     0.029 A 
ATOM     35  C   UNL A   1      43.272  30.818  29.800  1.00  0.00     0.049 A 
ATOM     36  H   UNL A   1      43.252  28.816  29.132  1.00  0.00     0.167 HD
ATOM     37  C   UNL A   1      45.670  30.209  29.652  1.00  0.00     0.074 A 
ATOM     38  C   UNL A   1      47.083  30.514  29.741  1.00  0.00     0.031 C 
ATOM     39  C   UNL A   1      44.680  31.107  29.871  1.00  0.00     0.037 A 
BRANCH  26  40
ATOM     40  C   UNL A   1      38.992  28.918  28.971  1.00  0.00     0.057 A 
ATOM     41  C   UNL A   1      38.184  28.781  30.105  1.00  0.00     0.134 A 
ATOM     42  C   UNL A   1      38.401  29.442  27.813  1.00  0.00     0.134 A 
ATOM     43  F   UNL A   1      38.688  28.282  31.244  1.00  0.00    -0.206 F 
ATOM     44  C   UNL A   1      36.838  29.155  30.090  1.00  0.00     0.040 A 
ATOM     45  C   UNL A   1      37.062  29.835  27.791  1.00  0.00     0.040 A 
ATOM     46  F   UNL A   1      39.123  29.604  26.695  1.00  0.00    -0.206 F 
ATOM     47  C   UNL A   1      36.276  29.693  28.932  1.00  0.00     0.006 A 
ENDBRANCH  26  40
BRANCH  27  48
ATOM     48  C   UNL A   1      48.740  26.784  28.686  1.00  0.00     0.057 A 
ATOM     49  C   UNL A   1      49.411  26.886  27.463  1.00  0.00     0.134 A 
ATOM     50  C   UNL A   1      49.487  26.388  29.803  1.00  0.00     0.134 A 
ATOM     51  F   UNL A   1      48.745  27.241  26.355  1.00  0.00    -0.206 F 
ATOM     52  C   UNL A   1      50.770  26.587  27.350  1.00  0.00     0.040 A 
ATOM     53  C   UNL A   1      50.852  26.114  29.709  1.00  0.00     0.040 A 
ATOM     54  F   UNL A   1      48.902  26.277  31.004  1.00  0.00    -0.206 F 
ATOM     55  C   UNL A   1      51.495  26.205  28.478  1.00  0.00     0.006 A 
ENDBRANCH  27  48
BRANCH  39  56
ATOM     56  C   UNL A   1      45.099  32.502  30.225  1.00  0.00     0.057 A 
ATOM     57  C   UNL A   1      45.343  32.876  31.552  1.00  0.00     0.134 A 
ATOM     58  C   UNL A   1      45.282  33.470  29.231  1.00  0.00     0.134 A 
ATOM     59  F   UNL A   1      45.168  31.998  32.550  1.00  0.00    -0.206 F 
ATOM     60  C   UNL A   1      45.736  34.174  31.880  1.00  0.00     0.040 A 
ATOM     61  C   UNL A   1      45.696  34.765  29.545  1.00  0.00     0.040 A 
ATOM     62  F   UNL A   1      45.068  33.172  27.941  1.00  0.00    -0.206 F 
ATOM     63  C   UNL A   1      45.920  35.120  30.874  1.00  0.00     0.006 A 
ENDBRANCH  39  56
ENDBRANCH  13  14
ENDBRANCH   6   8
ENDBRANCH   3   4
ENDBRANCH   2   3
ENDBRANCH   1   2
BRANCH   1  64
ATOM     64  C   UNL A   1      36.697  21.986  24.135  1.00  0.00     0.002 C 
BRANCH  64  65
ATOM     65  C   UNL A   1      36.992  23.274  24.910  1.00  0.00     0.021 C 
BRANCH  65  66
ATOM     66  C   UNL A   1      35.776  24.062  25.410  1.00  0.00     0.116 C 
BRANCH  66  67
ATOM     67  N   UNL A   1      34.943  24.493  24.300  1.00  0.00    -0.356 N 
ATOM     68  C   UNL A   1      34.041  25.498  24.140  1.00  0.00     0.224 C 
ATOM     69  H   UNL A   1      35.055  23.941  23.493  1.00  0.00     0.163 HD
ATOM     70  O   UNL A   1      33.538  25.592  23.013  1.00  0.00    -0.275 OA
BRANCH  68  71
ATOM     71  C   UNL A   1      33.772  26.579  25.180  1.00  0.00     0.098 C 
ATOM     72  C   UNL A   1      32.630  26.676  26.216  1.00  0.00     0.099 C 
ATOM     73  C   UNL A   1      33.826  28.056  24.644  1.00  0.00     0.025 C 
ATOM     74  C   UNL A   1      32.364  28.209  26.331  1.00  0.00     0.025 C 
ATOM     75  C   UNL A   1      32.501  28.552  24.087  1.00  0.00    -0.027 C 
ATOM     76  C   UNL A   1      33.739  28.805  25.984  1.00  0.00     0.017 C 
ATOM     77  C   UNL A   1      31.634  28.663  25.103  1.00  0.00    -0.027 C 
BRANCH  72  78
ATOM     78  C   UNL A   1      31.356  25.853  26.328  1.00  0.00     0.228 C 
ATOM     79  O   UNL A   1      30.387  26.432  26.865  1.00  0.00    -0.274 OA
ATOM     80  N   UNL A   1      31.006  24.645  25.840  1.00  0.00    -0.323 N 
ATOM     81  H   UNL A   1      30.025  24.573  25.826  1.00  0.00     0.170 HD
BRANCH  80  82
ATOM     82  C   UNL A   1      31.566  23.451  25.344  1.00  0.00     0.078 A 
ATOM     83  C   UNL A   1      32.403  22.763  26.238  1.00  0.00     0.029 A 
ATOM     84  C   UNL A   1      31.474  22.940  24.055  1.00  0.00     0.165 A 
ATOM     85  C   UNL A   1      33.074  21.591  25.864  1.00  0.00     0.004 A 
ATOM     86  C   UNL A   1      32.126  21.764  23.672  1.00  0.00     0.078 A 
ATOM     87  F   UNL A   1      30.831  23.618  23.117  1.00  0.00    -0.203 F 
ATOM     88  C   UNL A   1      32.926  21.082  24.579  1.00  0.00     0.024 A 
ATOM     89  Cl  UNL A   1      31.976  21.163  22.064  1.00  0.00    -0.081 Cl
ENDBRANCH  80  82
ENDBRANCH  72  78
ENDBRANCH  68  71
ENDBRANCH  66  67
ENDBRANCH  65  66
ENDBRANCH  64  65
ENDBRANCH   1  64
TORSDOF 15
ENDMDL
MODEL 2
REMARK VINA RESULT:     -12.0      4.803      9.710
REMARK SMILES O=C(NCCCCCCNC(=O)[C@@H]1[C@H](C(=O)Nc2cccc(Cl)c2F)[C@@H]2C=C[C@H]1C2)c1ccc(-c2c3nc(c(-c4c(F)cccc4F)c4ccc([nH]4)c(-c4c(F)cccc4F)c4nc(c(-c5c(F)cccc5F)c5ccc2[nH]5)C=C4)C=C3)cc1
REMARK SMILES IDX 6 1 5 2 4 3 3 4 1 5 2 6 31 8 32 9 84 10 33 11 83 12 34 13
REMARK SMILES IDX 35 14 36 15 77 16 37 17 82 18 76 19 78 20 38 21 81 22 75 23
REMARK SMILES IDX 74 24 39 26 65 27 48 28 64 29 49 30 52 31 63 32 79 33 50 34
REMARK SMILES IDX 51 35 62 37 80 38 53 39 40 40 41 41 46 42 42 43 43 44 45 45
REMARK SMILES IDX 47 46 44 47 66 48 67 49 72 50 68 51 69 52 71 53 73 54 70 55
REMARK SMILES IDX 54 56 55 57 60 58 56 59 57 60 59 61 61 62 58 63 7 64 8 65
REMARK SMILES IDX 9 66 10 67 11 68 12 70 13 71 14 72 29 73 26 74 28 75 30 76
REMARK SMILES IDX 27 77 15 78 16 79 17 80 18 82 19 83 24 84 20 85 22 86 25 87
REMARK SMILES IDX 21 88 23 89
REMARK H PARENT 3 7 78 25 52 36 10 69 17 81
REMARK Flexibility Score: inf
ROOT
ATOM      1  C   UNL A   1      31.676  30.659  26.322  1.00  0.00     0.002 C 
ENDROOT
BRANCH   1   2
ATOM      2  C   UNL A   1      31.477  32.098  26.810  1.00  0.00     0.021 C 
BRANCH   2   3
ATOM      3  C   UNL A   1      32.743  32.825  27.255  1.00  0.00     0.116 C 
BRANCH   3   4
ATOM      4  N   UNL A   1      32.486  34.209  27.612  1.00  0.00    -0.352 N 
ATOM      5  O   UNL A   1      32.518  36.056  28.902  1.00  0.00    -0.269 OA
ATOM      6  C   UNL A   1      33.020  34.966  28.622  1.00  0.00     0.251 C 
ATOM      7  H   UNL A   1      31.831  34.674  27.043  1.00  0.00     0.163 HD
BRANCH   6   8
ATOM      8  C   UNL A   1      34.198  34.494  29.380  1.00  0.00     0.039 A 
ATOM      9  C   UNL A   1      34.048  33.879  30.626  1.00  0.00     0.014 A 
ATOM     10  C   UNL A   1      35.465  34.582  28.792  1.00  0.00     0.014 A 
ATOM     11  C   UNL A   1      35.169  33.420  31.316  1.00  0.00     0.010 A 
ATOM     12  C   UNL A   1      36.581  34.067  29.457  1.00  0.00     0.010 A 
ATOM     13  C   UNL A   1      36.440  33.480  30.724  1.00  0.00    -0.014 A 
BRANCH  13  14
ATOM     14  C   UNL A   1      37.583  32.793  31.376  1.00  0.00     0.031 A 
ATOM     15  C   UNL A   1      38.227  31.584  30.764  1.00  0.00     0.074 A 
ATOM     16  C   UNL A   1      38.021  33.274  32.557  1.00  0.00     0.049 A 
ATOM     17  N   UNL A   1      39.218  30.863  31.223  1.00  0.00    -0.248 NA
ATOM     18  C   UNL A   1      37.691  31.119  29.476  1.00  0.00     0.031 C 
ATOM     19  C   UNL A   1      37.448  34.425  33.260  1.00  0.00     0.029 A 
ATOM     20  N   UNL A   1      39.039  32.860  33.377  1.00  0.00    -0.354 N 
ATOM     21  C   UNL A   1      39.417  29.850  30.295  1.00  0.00     0.074 A 
ATOM     22  C   UNL A   1      38.433  30.042  29.248  1.00  0.00     0.031 C 
ATOM     23  C   UNL A   1      38.133  34.636  34.393  1.00  0.00     0.029 A 
ATOM     24  C   UNL A   1      39.157  33.607  34.525  1.00  0.00     0.049 A 
ATOM     25  H   UNL A   1      39.631  32.102  33.163  1.00  0.00     0.167 HD
ATOM     26  C   UNL A   1      40.338  28.859  30.316  1.00  0.00     0.037 A 
ATOM     27  C   UNL A   1      39.974  33.461  35.582  1.00  0.00     0.037 A 
ATOM     28  C   UNL A   1      41.325  28.689  31.353  1.00  0.00     0.049 A 
ATOM     29  C   UNL A   1      40.967  32.335  35.586  1.00  0.00     0.074 A 
ATOM     30  C   UNL A   1      42.354  27.764  31.418  1.00  0.00     0.029 A 
ATOM     31  N   UNL A   1      41.399  29.450  32.509  1.00  0.00    -0.354 N 
ATOM     32  N   UNL A   1      41.191  31.433  34.663  1.00  0.00    -0.248 NA
ATOM     33  C   UNL A   1      41.812  32.201  36.780  1.00  0.00     0.031 C 
ATOM     34  C   UNL A   1      43.018  27.934  32.638  1.00  0.00     0.029 A 
ATOM     35  C   UNL A   1      42.430  28.990  33.312  1.00  0.00     0.049 A 
ATOM     36  H   UNL A   1      40.807  30.206  32.727  1.00  0.00     0.167 HD
ATOM     37  C   UNL A   1      42.204  30.626  35.161  1.00  0.00     0.074 A 
ATOM     38  C   UNL A   1      42.571  31.164  36.454  1.00  0.00     0.031 C 
ATOM     39  C   UNL A   1      42.772  29.531  34.602  1.00  0.00     0.037 A 
BRANCH  26  40
ATOM     40  C   UNL A   1      40.332  27.860  29.197  1.00  0.00     0.057 A 
ATOM     41  C   UNL A   1      39.517  26.723  29.228  1.00  0.00     0.134 A 
ATOM     42  C   UNL A   1      41.077  28.092  28.034  1.00  0.00     0.134 A 
ATOM     43  F   UNL A   1      38.781  26.441  30.314  1.00  0.00    -0.206 F 
ATOM     44  C   UNL A   1      39.444  25.849  28.140  1.00  0.00     0.040 A 
ATOM     45  C   UNL A   1      41.000  27.236  26.934  1.00  0.00     0.040 A 
ATOM     46  F   UNL A   1      41.872  29.168  27.939  1.00  0.00    -0.206 F 
ATOM     47  C   UNL A   1      40.180  26.110  26.985  1.00  0.00     0.006 A 
ENDBRANCH  26  40
BRANCH  27  48
ATOM     48  C   UNL A   1      39.862  34.382  36.740  1.00  0.00     0.057 A 
ATOM     49  C   UNL A   1      39.082  34.058  37.854  1.00  0.00     0.134 A 
ATOM     50  C   UNL A   1      40.527  35.615  36.752  1.00  0.00     0.134 A 
ATOM     51  F   UNL A   1      38.406  32.901  37.892  1.00  0.00    -0.206 F 
ATOM     52  C   UNL A   1      38.951  34.935  38.933  1.00  0.00     0.040 A 
ATOM     53  C   UNL A   1      40.428  36.489  37.835  1.00  0.00     0.040 A 
ATOM     54  F   UNL A   1      41.294  35.980  35.716  1.00  0.00    -0.206 F 
ATOM     55  C   UNL A   1      39.630  36.153  38.926  1.00  0.00     0.006 A 
ENDBRANCH  27  48
BRANCH  39  56
ATOM     56  C   UNL A   1      43.847  28.849  35.392  1.00  0.00     0.057 A 
ATOM     57  C   UNL A   1      45.199  29.167  35.215  1.00  0.00     0.134 A 
ATOM     58  C   UNL A   1      43.526  27.883  36.354  1.00  0.00     0.134 A 
ATOM     59  F   UNL A   1      45.570  30.071  34.297  1.00  0.00    -0.206 F 
ATOM     60  C   UNL A   1      46.198  28.532  35.954  1.00  0.00     0.040 A 
ATOM     61  C   UNL A   1      44.515  27.258  37.115  1.00  0.00     0.040 A 
ATOM     62  F   UNL A   1      42.249  27.537  36.574  1.00  0.00    -0.206 F 
ATOM     63  C   UNL A   1      45.856  27.580  36.912  1.00  0.00     0.006 A 
ENDBRANCH  39  56
ENDBRANCH  13  14
ENDBRANCH   6   8
ENDBRANCH   3   4
ENDBRANCH   2   3
ENDBRANCH   1   2
BRANCH   1  64
ATOM     64  C   UNL A   1      32.666  29.803  27.119  1.00  0.00     0.002 C 
BRANCH  64  65
ATOM     65  C   UNL A   1      33.790  29.152  26.309  1.00  0.00     0.021 C 
BRANCH  65  66
ATOM     66  C   UNL A   1      33.830  27.620  26.306  1.00  0.00     0.116 C 
BRANCH  66  67
ATOM     67  N   UNL A   1      32.494  27.064  26.440  1.00  0.00    -0.356 N 
ATOM     68  C   UNL A   1      31.989  25.805  26.358  1.00  0.00     0.224 C 
ATOM     69  H   UNL A   1      31.808  27.745  26.630  1.00  0.00     0.163 HD
ATOM     70  O   UNL A   1      30.775  25.698  26.572  1.00  0.00    -0.275 OA
BRANCH  68  71
ATOM     71  C   UNL A   1      32.842  24.551  26.206  1.00  0.00     0.098 C 
ATOM     72  C   UNL A   1      33.691  24.086  25.002  1.00  0.00     0.099 C 
ATOM     73  C   UNL A   1      32.142  23.207  26.626  1.00  0.00     0.025 C 
ATOM     74  C   UNL A   1      33.579  22.531  25.050  1.00  0.00     0.025 C 
ATOM     75  C   UNL A   1      31.351  22.555  25.502  1.00  0.00    -0.027 C 
ATOM     76  C   UNL A   1      33.355  22.266  26.548  1.00  0.00     0.017 C 
ATOM     77  C   UNL A   1      32.217  22.132  24.570  1.00  0.00    -0.027 C 
BRANCH  72  78
ATOM     78  C   UNL A   1      33.725  24.625  23.580  1.00  0.00     0.228 C 
ATOM     79  O   UNL A   1      34.650  24.188  22.861  1.00  0.00    -0.274 OA
ATOM     80  N   UNL A   1      32.870  25.395  22.877  1.00  0.00    -0.323 N 
ATOM     81  H   UNL A   1      33.041  25.275  21.916  1.00  0.00     0.170 HD
BRANCH  80  82
ATOM     82  C   UNL A   1      31.816  26.314  23.049  1.00  0.00     0.078 A 
ATOM     83  C   UNL A   1      32.190  27.669  23.035  1.00  0.00     0.029 A 
ATOM     84  C   UNL A   1      30.485  26.038  23.337  1.00  0.00     0.165 A 
ATOM     85  C   UNL A   1      31.259  28.693  23.250  1.00  0.00     0.004 A 
ATOM     86  C   UNL A   1      29.541  27.050  23.540  1.00  0.00     0.078 A 
ATOM     87  F   UNL A   1      30.092  24.788  23.522  1.00  0.00    -0.203 F 
ATOM     88  C   UNL A   1      29.925  28.383  23.492  1.00  0.00     0.024 A 
ATOM     89  Cl  UNL A   1      27.898  26.659  23.886  1.00  0.00    -0.081 Cl
ENDBRANCH  80  82
ENDBRANCH  72  78
ENDBRANCH  68  71
ENDBRANCH  66  67
ENDBRANCH  65  66
ENDBRANCH  64  65
ENDBRANCH   1  64
TORSDOF 15
ENDMDL
MODEL 3
REMARK VINA RESULT:     -11.7      4.392      9.278
REMARK SMILES O=C(NCCCCCCNC(=O)[C@@H]1[C@H](C(=O)Nc2cccc(Cl)c2F)[C@@H]2C=C[C@H]1C2)c1ccc(-c2c3nc(c(-c4c(F)cccc4F)c4ccc([nH]4)c(-c4c(F)cccc4F)c4nc(c(-c5c(F)cccc5F)c5ccc2[nH]5)C=C4)C=C3)cc1
REMARK SMILES IDX 6 1 5 2 4 3 3 4 1 5 2 6 31 8 32 9 84 10 33 11 83 12 34 13
REMARK SMILES IDX 35 14 36 15 77 16 37 17 82 18 76 19 78 20 38 21 81 22 75 23
REMARK SMILES IDX 74 24 39 26 65 27 48 28 64 29 49 30 52 31 63 32 79 33 50 34
REMARK SMILES IDX 51 35 62 37 80 38 53 39 40 40 41 41 46 42 42 43 43 44 45 45
REMARK SMILES IDX 47 46 44 47 66 48 67 49 72 50 68 51 69 52 71 53 73 54 70 55
REMARK SMILES IDX 54 56 55 57 60 58 56 59 57 60 59 61 61 62 58 63 7 64 8 65
REMARK SMILES IDX 9 66 10 67 11 68 12 70 13 71 14 72 29 73 26 74 28 75 30 76
REMARK SMILES IDX 27 77 15 78 16 79 17 80 18 82 19 83 24 84 20 85 22 86 25 87
REMARK SMILES IDX 21 88 23 89
REMARK H PARENT 3 7 78 25 52 36 10 69 17 81
REMARK Flexibility Score: inf
ROOT
ATOM      1  C   UNL A   1      31.527  30.797  25.995  1.00  0.00     0.002 C 
ENDROOT
BRANCH   1   2
ATOM      2  C   UNL A   1      31.339  32.212  26.553  1.00  0.00     0.021 C 
BRANCH   2   3
ATOM      3  C   UNL A   1      32.542  32.794  27.291  1.00  0.00     0.116 C 
BRANCH   3   4
ATOM      4  N   UNL A   1      32.346  34.188  27.648  1.00  0.00    -0.352 N 
ATOM      5  O   UNL A   1      32.533  36.052  28.900  1.00  0.00    -0.269 OA
ATOM      6  C   UNL A   1      32.986  34.948  28.592  1.00  0.00     0.251 C 
ATOM      7  H   UNL A   1      31.649  34.658  27.135  1.00  0.00     0.163 HD
BRANCH   6   8
ATOM      8  C   UNL A   1      34.220  34.463  29.245  1.00  0.00     0.039 A 
ATOM      9  C   UNL A   1      34.171  33.833  30.491  1.00  0.00     0.014 A 
ATOM     10  C   UNL A   1      35.434  34.554  28.555  1.00  0.00     0.014 A 
ATOM     11  C   UNL A   1      35.342  33.363  31.082  1.00  0.00     0.010 A 
ATOM     12  C   UNL A   1      36.600  34.027  29.120  1.00  0.00     0.010 A 
ATOM     13  C   UNL A   1      36.561  33.425  30.387  1.00  0.00    -0.014 A 
BRANCH  13  14
ATOM     14  C   UNL A   1      37.750  32.727  30.934  1.00  0.00     0.031 A 
ATOM     15  C   UNL A   1      38.302  31.490  30.289  1.00  0.00     0.074 A 
ATOM     16  C   UNL A   1      38.319  33.223  32.052  1.00  0.00     0.049 A 
ATOM     17  N   UNL A   1      39.320  30.756  30.662  1.00  0.00    -0.248 NA
ATOM     18  C   UNL A   1      37.626  31.008  29.076  1.00  0.00     0.031 C 
ATOM     19  C   UNL A   1      37.846  34.403  32.781  1.00  0.00     0.029 A 
ATOM     20  N   UNL A   1      39.407  32.804  32.772  1.00  0.00    -0.354 N 
ATOM     21  C   UNL A   1      39.400  29.718  29.743  1.00  0.00     0.074 A 
ATOM     22  C   UNL A   1      38.318  29.909  28.799  1.00  0.00     0.031 C 
ATOM     23  C   UNL A   1      38.649  34.624  33.832  1.00  0.00     0.029 A 
ATOM     24  C   UNL A   1      39.659  33.573  33.883  1.00  0.00     0.049 A 
ATOM     25  H   UNL A   1      39.957  32.029  32.517  1.00  0.00     0.167 HD
ATOM     26  C   UNL A   1      40.298  28.706  29.694  1.00  0.00     0.037 A 
ATOM     27  C   UNL A   1      40.578  33.432  34.854  1.00  0.00     0.037 A 
ATOM     28  C   UNL A   1      41.384  28.537  30.627  1.00  0.00     0.049 A 
ATOM     29  C   UNL A   1      41.542  32.284  34.783  1.00  0.00     0.074 A 
ATOM     30  C   UNL A   1      42.394  27.590  30.609  1.00  0.00     0.029 A 
ATOM     31  N   UNL A   1      41.593  29.321  31.750  1.00  0.00    -0.354 N 
ATOM     32  N   UNL A   1      41.651  31.356  33.864  1.00  0.00    -0.248 NA
ATOM     33  C   UNL A   1      42.504  32.157  35.886  1.00  0.00     0.031 C 
ATOM     34  C   UNL A   1      43.184  27.771  31.749  1.00  0.00     0.029 A 
ATOM     35  C   UNL A   1      42.691  28.856  32.454  1.00  0.00     0.049 A 
ATOM     36  H   UNL A   1      41.042  30.096  32.009  1.00  0.00     0.167 HD
ATOM     37  C   UNL A   1      42.693  30.537  34.276  1.00  0.00     0.074 A 
ATOM     38  C   UNL A   1      43.203  31.096  35.510  1.00  0.00     0.031 C 
ATOM     39  C   UNL A   1      43.177  29.417  33.687  1.00  0.00     0.037 A 
BRANCH  26  40
ATOM     40  C   UNL A   1      40.155  27.682  28.607  1.00  0.00     0.057 A 
ATOM     41  C   UNL A   1      40.784  27.832  27.365  1.00  0.00     0.134 A 
ATOM     42  C   UNL A   1      39.459  26.489  28.842  1.00  0.00     0.134 A 
ATOM     43  F   UNL A   1      41.462  28.952  27.076  1.00  0.00    -0.206 F 
ATOM     44  C   UNL A   1      40.726  26.829  26.394  1.00  0.00     0.040 A 
ATOM     45  C   UNL A   1      39.408  25.474  27.885  1.00  0.00     0.040 A 
ATOM     46  F   UNL A   1      38.841  26.282  30.013  1.00  0.00    -0.206 F 
ATOM     47  C   UNL A   1      40.043  25.642  26.657  1.00  0.00     0.006 A 
ENDBRANCH  26  40
BRANCH  27  48
ATOM     48  C   UNL A   1      40.606  34.382  35.994  1.00  0.00     0.057 A 
ATOM     49  C   UNL A   1      39.910  34.118  37.178  1.00  0.00     0.134 A 
ATOM     50  C   UNL A   1      41.323  35.583  35.919  1.00  0.00     0.134 A 
ATOM     51  F   UNL A   1      39.189  32.994  37.301  1.00  0.00    -0.206 F 
ATOM     52  C   UNL A   1      39.911  35.022  38.242  1.00  0.00     0.040 A 
ATOM     53  C   UNL A   1      41.355  36.483  36.985  1.00  0.00     0.040 A 
ATOM     54  F   UNL A   1      42.015  35.891  34.813  1.00  0.00    -0.206 F 
ATOM     55  C   UNL A   1      40.640  36.206  38.147  1.00  0.00     0.006 A 
ENDBRANCH  27  48
BRANCH  39  56
ATOM     56  C   UNL A   1      44.313  28.727  34.380  1.00  0.00     0.057 A 
ATOM     57  C   UNL A   1      44.091  27.679  35.281  1.00  0.00     0.134 A 
ATOM     58  C   UNL A   1      45.639  29.099  34.126  1.00  0.00     0.134 A 
ATOM     59  F   UNL A   1      42.842  27.290  35.577  1.00  0.00    -0.206 F 
ATOM     60  C   UNL A   1      45.150  27.035  35.923  1.00  0.00     0.040 A 
ATOM     61  C   UNL A   1      46.707  28.447  34.745  1.00  0.00     0.040 A 
ATOM     62  F   UNL A   1      45.917  30.093  33.270  1.00  0.00    -0.206 F 
ATOM     63  C   UNL A   1      46.462  27.416  35.649  1.00  0.00     0.006 A 
ENDBRANCH  39  56
ENDBRANCH  13  14
ENDBRANCH   6   8
ENDBRANCH   3   4
ENDBRANCH   2   3
ENDBRANCH   1   2
BRANCH   1  64
ATOM     64  C   UNL A   1      32.196  29.782  26.929  1.00  0.00     0.002 C 
BRANCH  64  65
ATOM     65  C   UNL A   1      31.609  28.369  26.909  1.00  0.00     0.021 C 
BRANCH  65  66
ATOM     66  C   UNL A   1      32.614  27.212  26.967  1.00  0.00     0.116 C 
BRANCH  66  67
ATOM     67  N   UNL A   1      33.338  27.088  25.713  1.00  0.00    -0.356 N 
ATOM     68  C   UNL A   1      33.200  26.280  24.628  1.00  0.00     0.224 C 
ATOM     69  H   UNL A   1      34.086  27.722  25.632  1.00  0.00     0.163 HD
ATOM     70  O   UNL A   1      33.994  26.488  23.701  1.00  0.00    -0.275 OA
BRANCH  68  71
ATOM     71  C   UNL A   1      32.049  25.301  24.431  1.00  0.00     0.098 C 
ATOM     72  C   UNL A   1      31.541  24.187  25.374  1.00  0.00     0.099 C 
ATOM     73  C   UNL A   1      32.024  24.564  23.043  1.00  0.00     0.025 C 
ATOM     74  C   UNL A   1      31.051  23.073  24.399  1.00  0.00     0.025 C 
ATOM     75  C   UNL A   1      32.845  23.284  23.017  1.00  0.00    -0.027 C 
ATOM     76  C   UNL A   1      30.650  23.883  23.154  1.00  0.00     0.017 C 
ATOM     77  C   UNL A   1      32.247  22.386  23.813  1.00  0.00    -0.027 C 
BRANCH  72  78
ATOM     78  C   UNL A   1      32.183  23.621  26.632  1.00  0.00     0.228 C 
ATOM     79  O   UNL A   1      31.458  23.621  27.651  1.00  0.00    -0.274 OA
ATOM     80  N   UNL A   1      33.351  22.985  26.851  1.00  0.00    -0.323 N 
ATOM     81  H   UNL A   1      33.293  22.481  27.694  1.00  0.00     0.170 HD
BRANCH  80  82
ATOM     82  C   UNL A   1      34.628  22.797  26.286  1.00  0.00     0.078 A 
ATOM     83  C   UNL A   1      35.340  23.975  26.002  1.00  0.00     0.029 A 
ATOM     84  C   UNL A   1      35.212  21.602  25.882  1.00  0.00     0.165 A 
ATOM     85  C   UNL A   1      36.599  23.945  25.387  1.00  0.00     0.004 A 
ATOM     86  C   UNL A   1      36.474  21.557  25.280  1.00  0.00     0.078 A 
ATOM     87  F   UNL A   1      34.535  20.469  25.974  1.00  0.00    -0.203 F 
ATOM     88  C   UNL A   1      37.174  22.730  25.035  1.00  0.00     0.024 A 
ATOM     89  Cl  UNL A   1      37.162  20.050  24.804  1.00  0.00    -0.081 Cl
ENDBRANCH  80  82
ENDBRANCH  72  78
ENDBRANCH  68  71
ENDBRANCH  66  67
ENDBRANCH  65  66
ENDBRANCH  64  65
ENDBRANCH   1  64
TORSDOF 15
ENDMDL
