MODEL 1
REMARK VINA RESULT:     -13.2      0.000      0.000
REMARK SMILES O=C(Cn1c(-c2nc(-c3ccc(C(F)(F)F)cc3)no2)cc2ccccc21)NCCCCCCNC(=O)c1ccc(-c2c3nc(c(-c4c(F)cccc4F)c4ccc([nH]4)c(-c4c(F)cccc4F)c4nc(c(-c5c(F)cccc5F)c5ccc2[nH]5)C=C4)C=C3)cc1
REMARK SMILES IDX 30 1 29 2 28 3 1 4 2 5 3 7 4 8 5 9 27 10 21 11 22 12 26 13
REMARK SMILES IDX 23 14 25 15 24 16 6 17 7 18 20 19 8 20 19 21 9 22 10 23
REMARK SMILES IDX 18 24 11 25 17 26 12 27 13 28 14 29 15 30 16 31 31 32 32 33
REMARK SMILES IDX 33 34 34 35 35 36 36 37 37 39 38 40 39 41 91 42 40 43 90 44
REMARK SMILES IDX 41 45 42 46 43 47 84 48 44 49 89 50 83 51 85 52 45 53 88 54
REMARK SMILES IDX 82 55 81 56 46 58 72 59 55 60 71 61 56 62 59 63 70 64 86 65
REMARK SMILES IDX 57 66 58 67 69 69 87 70 60 71 47 72 48 73 53 74 49 75 50 76
REMARK SMILES IDX 52 77 54 78 51 79 73 80 74 81 79 82 75 83 76 84 78 85 80 86
REMARK SMILES IDX 77 87 61 88 62 89 67 90 63 91 64 92 66 93 68 94 65 95
REMARK H PARENT 28 6 35 38 85 57 59 68
REMARK Flexibility Score: inf
ROOT
ATOM      1  C   UNL A   1      39.526  21.732  26.012  1.00  0.00     0.021 C 
ENDROOT
BRANCH   1   2
ATOM      2  C   UNL A   1      38.463  22.823  26.045  1.00  0.00     0.116 C 
BRANCH   2   3
ATOM      3  N   UNL A   1      37.160  22.331  26.442  1.00  0.00    -0.355 N 
ATOM      4  O   UNL A   1      36.417  21.947  24.303  1.00  0.00    -0.273 OA
ATOM      5  C   UNL A   1      36.259  21.845  25.508  1.00  0.00     0.239 C 
ATOM      6  H   UNL A   1      36.909  22.342  27.394  1.00  0.00     0.163 HD
BRANCH   5   7
ATOM      7  C   UNL A   1      35.004  21.250  26.099  1.00  0.00     0.222 C 
BRANCH   7   8
ATOM      8  N   UNL A   1      33.916  20.875  25.191  1.00  0.00    -0.327 N 
ATOM      9  C   UNL A   1      32.860  21.613  24.694  1.00  0.00     0.109 A 
ATOM     10  C   UNL A   1      33.893  19.597  24.614  1.00  0.00     0.049 A 
ATOM     11  C   UNL A   1      32.141  20.789  23.845  1.00  0.00     0.042 A 
ATOM     12  C   UNL A   1      32.791  19.541  23.760  1.00  0.00     0.000 A 
ATOM     13  C   UNL A   1      34.759  18.495  24.752  1.00  0.00     0.027 A 
ATOM     14  C   UNL A   1      32.549  18.376  23.006  1.00  0.00     0.010 A 
ATOM     15  C   UNL A   1      34.502  17.348  23.990  1.00  0.00     0.002 A 
ATOM     16  C   UNL A   1      33.415  17.288  23.126  1.00  0.00     0.001 A 
BRANCH   9  17
ATOM     17  C   UNL A   1      32.599  23.016  24.816  1.00  0.00     0.274 A 
ATOM     18  N   UNL A   1      31.835  23.777  24.057  1.00  0.00    -0.185 NA
ATOM     19  O   UNL A   1      33.251  23.734  25.782  1.00  0.00    -0.332 OA
ATOM     20  C   UNL A   1      32.034  25.041  24.594  1.00  0.00     0.202 A 
ATOM     21  N   UNL A   1      32.876  25.049  25.640  1.00  0.00    -0.057 NA
BRANCH  20  22
ATOM     22  C   UNL A   1      31.386  26.275  24.144  1.00  0.00     0.023 A 
ATOM     23  C   UNL A   1      29.992  26.279  23.940  1.00  0.00     0.013 A 
ATOM     24  C   UNL A   1      32.093  27.458  23.897  1.00  0.00     0.013 A 
ATOM     25  C   UNL A   1      29.321  27.420  23.501  1.00  0.00     0.014 A 
ATOM     26  C   UNL A   1      31.416  28.612  23.458  1.00  0.00     0.014 A 
ATOM     27  C   UNL A   1      30.025  28.603  23.255  1.00  0.00     0.056 A 
BRANCH  27  28
ATOM     28  C   UNL A   1      29.269  29.817  22.769  1.00  0.00     0.416 C 
ATOM     29  F   UNL A   1      29.827  30.358  21.649  1.00  0.00    -0.166 F 
ATOM     30  F   UNL A   1      27.979  29.528  22.435  1.00  0.00    -0.166 F 
ATOM     31  F   UNL A   1      29.201  30.827  23.678  1.00  0.00    -0.166 F 
ENDBRANCH  27  28
ENDBRANCH  20  22
ENDBRANCH   9  17
ENDBRANCH   7   8
ENDBRANCH   5   7
ENDBRANCH   2   3
ENDBRANCH   1   2
BRANCH   1  32
ATOM     32  C   UNL A   1      40.403  21.644  27.265  1.00  0.00     0.002 C 
BRANCH  32  33
ATOM     33  C   UNL A   1      41.236  20.365  27.417  1.00  0.00     0.002 C 
BRANCH  33  34
ATOM     34  C   UNL A   1      41.514  19.577  26.129  1.00  0.00     0.021 C 
BRANCH  34  35
ATOM     35  C   UNL A   1      42.842  18.820  26.105  1.00  0.00     0.116 C 
BRANCH  35  36
ATOM     36  N   UNL A   1      43.812  19.375  25.184  1.00  0.00    -0.352 N 
ATOM     37  C   UNL A   1      44.366  20.601  24.966  1.00  0.00     0.251 C 
ATOM     38  H   UNL A   1      44.156  18.697  24.558  1.00  0.00     0.163 HD
ATOM     39  O   UNL A   1      45.291  20.632  24.148  1.00  0.00    -0.269 OA
BRANCH  37  40
ATOM     40  C   UNL A   1      43.913  21.881  25.572  1.00  0.00     0.039 A 
ATOM     41  C   UNL A   1      43.028  22.794  24.999  1.00  0.00     0.014 A 
ATOM     42  C   UNL A   1      44.504  22.204  26.810  1.00  0.00     0.014 A 
ATOM     43  C   UNL A   1      42.819  24.036  25.597  1.00  0.00     0.010 A 
ATOM     44  C   UNL A   1      44.292  23.436  27.414  1.00  0.00     0.010 A 
ATOM     45  C   UNL A   1      43.491  24.373  26.776  1.00  0.00    -0.014 A 
BRANCH  45  46
ATOM     46  C   UNL A   1      43.257  25.691  27.357  1.00  0.00     0.031 A 
ATOM     47  C   UNL A   1      44.286  26.712  27.010  1.00  0.00     0.074 A 
ATOM     48  C   UNL A   1      42.149  26.004  28.061  1.00  0.00     0.049 A 
ATOM     49  N   UNL A   1      45.094  27.332  27.806  1.00  0.00    -0.248 NA
ATOM     50  C   UNL A   1      44.527  26.986  25.585  1.00  0.00     0.031 C 
ATOM     51  C   UNL A   1      40.941  25.195  28.253  1.00  0.00     0.029 A 
ATOM     52  N   UNL A   1      41.833  27.171  28.694  1.00  0.00    -0.354 N 
ATOM     53  C   UNL A   1      45.823  28.214  27.009  1.00  0.00     0.074 A 
ATOM     54  C   UNL A   1      45.539  27.853  25.646  1.00  0.00     0.031 C 
ATOM     55  C   UNL A   1      39.954  25.973  28.753  1.00  0.00     0.029 A 
ATOM     56  C   UNL A   1      40.493  27.290  29.047  1.00  0.00     0.049 A 
ATOM     57  H   UNL A   1      42.498  27.872  28.883  1.00  0.00     0.167 HD
ATOM     58  C   UNL A   1      46.422  29.316  27.541  1.00  0.00     0.037 A 
ATOM     59  C   UNL A   1      39.865  28.402  29.504  1.00  0.00     0.037 A 
ATOM     60  C   UNL A   1      46.580  29.182  28.968  1.00  0.00     0.049 A 
ATOM     61  C   UNL A   1      40.902  29.332  30.008  1.00  0.00     0.074 A 
ATOM     62  C   UNL A   1      47.262  28.326  29.807  1.00  0.00     0.029 A 
ATOM     63  N   UNL A   1      45.687  29.851  29.767  1.00  0.00    -0.354 N 
ATOM     64  N   UNL A   1      41.607  29.119  31.083  1.00  0.00    -0.248 NA
ATOM     65  C   UNL A   1      41.468  30.288  29.069  1.00  0.00     0.031 C 
ATOM     66  C   UNL A   1      46.423  28.183  30.952  1.00  0.00     0.029 A 
ATOM     67  C   UNL A   1      45.307  28.998  30.765  1.00  0.00     0.049 A 
ATOM     68  H   UNL A   1      45.377  30.777  29.644  1.00  0.00     0.167 HD
ATOM     69  C   UNL A   1      42.883  29.551  30.755  1.00  0.00     0.074 A 
ATOM     70  C   UNL A   1      42.715  30.349  29.542  1.00  0.00     0.031 C 
ATOM     71  C   UNL A   1      43.982  28.986  31.335  1.00  0.00     0.037 A 
BRANCH  58  72
ATOM     72  C   UNL A   1      46.463  30.677  26.871  1.00  0.00     0.057 A 
ATOM     73  C   UNL A   1      45.323  31.443  26.555  1.00  0.00     0.134 A 
ATOM     74  C   UNL A   1      47.676  31.394  26.877  1.00  0.00     0.134 A 
ATOM     75  F   UNL A   1      44.092  30.926  26.505  1.00  0.00    -0.206 F 
ATOM     76  C   UNL A   1      45.373  32.827  26.364  1.00  0.00     0.040 A 
ATOM     77  C   UNL A   1      47.730  32.785  26.732  1.00  0.00     0.040 A 
ATOM     78  F   UNL A   1      48.841  30.777  27.129  1.00  0.00    -0.206 F 
ATOM     79  C   UNL A   1      46.570  33.510  26.501  1.00  0.00     0.006 A 
ENDBRANCH  58  72
BRANCH  59  80
ATOM     80  C   UNL A   1      38.467  28.838  29.284  1.00  0.00     0.057 A 
ATOM     81  C   UNL A   1      38.063  29.386  28.053  1.00  0.00     0.134 A 
ATOM     82  C   UNL A   1      37.565  28.987  30.348  1.00  0.00     0.134 A 
ATOM     83  F   UNL A   1      38.880  29.374  26.991  1.00  0.00    -0.206 F 
ATOM     84  C   UNL A   1      36.843  30.052  27.892  1.00  0.00     0.040 A 
ATOM     85  C   UNL A   1      36.341  29.657  30.201  1.00  0.00     0.040 A 
ATOM     86  F   UNL A   1      37.877  28.541  31.572  1.00  0.00    -0.206 F 
ATOM     87  C   UNL A   1      35.982  30.201  28.971  1.00  0.00     0.006 A 
ENDBRANCH  59  80
BRANCH  71  88
ATOM     88  C   UNL A   1      43.759  28.088  32.517  1.00  0.00     0.057 A 
ATOM     89  C   UNL A   1      43.749  28.653  33.796  1.00  0.00     0.134 A 
ATOM     90  C   UNL A   1      43.686  26.689  32.440  1.00  0.00     0.134 A 
ATOM     91  F   UNL A   1      43.876  29.981  33.950  1.00  0.00    -0.206 F 
ATOM     92  C   UNL A   1      43.655  27.869  34.947  1.00  0.00     0.040 A 
ATOM     93  C   UNL A   1      43.556  25.893  33.583  1.00  0.00     0.040 A 
ATOM     94  F   UNL A   1      43.789  26.053  31.267  1.00  0.00    -0.206 F 
ATOM     95  C   UNL A   1      43.545  26.484  34.843  1.00  0.00     0.006 A 
ENDBRANCH  71  88
ENDBRANCH  45  46
ENDBRANCH  37  40
ENDBRANCH  35  36
ENDBRANCH  34  35
ENDBRANCH  33  34
ENDBRANCH  32  33
ENDBRANCH   1  32
TORSDOF 17
ENDMDL
MODEL 2
REMARK VINA RESULT:     -13.0      3.039      5.804
REMARK SMILES O=C(Cn1c(-c2nc(-c3ccc(C(F)(F)F)cc3)no2)cc2ccccc21)NCCCCCCNC(=O)c1ccc(-c2c3nc(c(-c4c(F)cccc4F)c4ccc([nH]4)c(-c4c(F)cccc4F)c4nc(c(-c5c(F)cccc5F)c5ccc2[nH]5)C=C4)C=C3)cc1
REMARK SMILES IDX 30 1 29 2 28 3 1 4 2 5 3 7 4 8 5 9 27 10 21 11 22 12 26 13
REMARK SMILES IDX 23 14 25 15 24 16 6 17 7 18 20 19 8 20 19 21 9 22 10 23
REMARK SMILES IDX 18 24 11 25 17 26 12 27 13 28 14 29 15 30 16 31 31 32 32 33
REMARK SMILES IDX 33 34 34 35 35 36 36 37 37 39 38 40 39 41 91 42 40 43 90 44
REMARK SMILES IDX 41 45 42 46 43 47 84 48 44 49 89 50 83 51 85 52 45 53 88 54
REMARK SMILES IDX 82 55 81 56 46 58 72 59 55 60 71 61 56 62 59 63 70 64 86 65
REMARK SMILES IDX 57 66 58 67 69 69 87 70 60 71 47 72 48 73 53 74 49 75 50 76
REMARK SMILES IDX 52 77 54 78 51 79 73 80 74 81 79 82 75 83 76 84 78 85 80 86
REMARK SMILES IDX 77 87 61 88 62 89 67 90 63 91 64 92 66 93 68 94 65 95
REMARK H PARENT 28 6 35 38 85 57 59 68
REMARK Flexibility Score: inf
ROOT
ATOM      1  C   UNL A   1      34.893  24.486  25.345  1.00  0.00     0.021 C 
ENDROOT
BRANCH   1   2
ATOM      2  C   UNL A   1      34.385  25.922  25.337  1.00  0.00     0.116 C 
BRANCH   2   3
ATOM      3  N   UNL A   1      33.374  26.158  24.327  1.00  0.00    -0.355 N 
ATOM      4  O   UNL A   1      33.487  28.449  24.442  1.00  0.00    -0.273 OA
ATOM      5  C   UNL A   1      33.068  27.440  23.900  1.00  0.00     0.239 C 
ATOM      6  H   UNL A   1      32.894  25.392  23.936  1.00  0.00     0.163 HD
BRANCH   5   7
ATOM      7  C   UNL A   1      32.090  27.502  22.752  1.00  0.00     0.222 C 
BRANCH   7   8
ATOM      8  N   UNL A   1      30.662  27.337  23.042  1.00  0.00    -0.327 N 
ATOM      9  C   UNL A   1      29.975  26.291  23.626  1.00  0.00     0.109 A 
ATOM     10  C   UNL A   1      29.770  28.389  22.793  1.00  0.00     0.049 A 
ATOM     11  C   UNL A   1      28.643  26.660  23.699  1.00  0.00     0.042 A 
ATOM     12  C   UNL A   1      28.506  27.977  23.214  1.00  0.00     0.000 A 
ATOM     13  C   UNL A   1      29.971  29.675  22.256  1.00  0.00     0.027 A 
ATOM     14  C   UNL A   1      27.415  28.864  23.124  1.00  0.00     0.010 A 
ATOM     15  C   UNL A   1      28.873  30.543  22.178  1.00  0.00     0.002 A 
ATOM     16  C   UNL A   1      27.613  30.146  22.608  1.00  0.00     0.001 A 
BRANCH   9  17
ATOM     17  C   UNL A   1      30.485  25.108  24.250  1.00  0.00     0.274 A 
ATOM     18  N   UNL A   1      31.087  24.078  23.689  1.00  0.00    -0.185 NA
ATOM     19  O   UNL A   1      30.290  24.926  25.594  1.00  0.00    -0.332 OA
ATOM     20  C   UNL A   1      31.272  23.212  24.758  1.00  0.00     0.202 A 
ATOM     21  N   UNL A   1      30.810  23.697  25.922  1.00  0.00    -0.057 NA
BRANCH  20  22
ATOM     22  C   UNL A   1      31.939  21.909  24.699  1.00  0.00     0.023 A 
ATOM     23  C   UNL A   1      32.033  21.246  23.460  1.00  0.00     0.013 A 
ATOM     24  C   UNL A   1      32.483  21.283  25.826  1.00  0.00     0.013 A 
ATOM     25  C   UNL A   1      32.647  19.999  23.344  1.00  0.00     0.014 A 
ATOM     26  C   UNL A   1      33.107  20.026  25.710  1.00  0.00     0.014 A 
ATOM     27  C   UNL A   1      33.193  19.372  24.468  1.00  0.00     0.056 A 
BRANCH  27  28
ATOM     28  C   UNL A   1      33.838  18.016  24.309  1.00  0.00     0.416 C 
ATOM     29  F   UNL A   1      33.541  17.178  25.342  1.00  0.00    -0.166 F 
ATOM     30  F   UNL A   1      33.425  17.372  23.181  1.00  0.00    -0.166 F 
ATOM     31  F   UNL A   1      35.197  18.055  24.239  1.00  0.00    -0.166 F 
ENDBRANCH  27  28
ENDBRANCH  20  22
ENDBRANCH   9  17
ENDBRANCH   7   8
ENDBRANCH   5   7
ENDBRANCH   2   3
ENDBRANCH   1   2
BRANCH   1  32
ATOM     32  C   UNL A   1      34.971  23.819  23.968  1.00  0.00     0.002 C 
BRANCH  32  33
ATOM     33  C   UNL A   1      35.514  22.385  23.941  1.00  0.00     0.002 C 
BRANCH  33  34
ATOM     34  C   UNL A   1      37.024  22.227  24.171  1.00  0.00     0.021 C 
BRANCH  34  35
ATOM     35  C   UNL A   1      37.427  21.850  25.597  1.00  0.00     0.116 C 
BRANCH  35  36
ATOM     36  N   UNL A   1      38.821  21.483  25.731  1.00  0.00    -0.352 N 
ATOM     37  C   UNL A   1      39.909  21.989  26.378  1.00  0.00     0.251 C 
ATOM     38  H   UNL A   1      39.037  20.664  25.229  1.00  0.00     0.163 HD
ATOM     39  O   UNL A   1      40.921  21.281  26.356  1.00  0.00    -0.269 OA
BRANCH  37  40
ATOM     40  C   UNL A   1      39.990  23.320  27.035  1.00  0.00     0.039 A 
ATOM     41  C   UNL A   1      39.111  24.386  26.846  1.00  0.00     0.014 A 
ATOM     42  C   UNL A   1      41.112  23.514  27.868  1.00  0.00     0.014 A 
ATOM     43  C   UNL A   1      39.397  25.635  27.392  1.00  0.00     0.010 A 
ATOM     44  C   UNL A   1      41.397  24.754  28.421  1.00  0.00     0.010 A 
ATOM     45  C   UNL A   1      40.566  25.829  28.136  1.00  0.00    -0.014 A 
BRANCH  45  46
ATOM     46  C   UNL A   1      40.836  27.160  28.672  1.00  0.00     0.031 A 
ATOM     47  C   UNL A   1      42.061  27.809  28.128  1.00  0.00     0.074 A 
ATOM     48  C   UNL A   1      39.997  27.804  29.510  1.00  0.00     0.049 A 
ATOM     49  N   UNL A   1      43.131  28.155  28.765  1.00  0.00    -0.248 NA
ATOM     50  C   UNL A   1      42.153  27.986  26.670  1.00  0.00     0.031 C 
ATOM     51  C   UNL A   1      38.645  27.410  29.917  1.00  0.00     0.029 A 
ATOM     52  N   UNL A   1      40.152  29.016  30.118  1.00  0.00    -0.354 N 
ATOM     53  C   UNL A   1      43.963  28.764  27.825  1.00  0.00     0.074 A 
ATOM     54  C   UNL A   1      43.377  28.498  26.538  1.00  0.00     0.031 C 
ATOM     55  C   UNL A   1      38.030  28.457  30.510  1.00  0.00     0.029 A 
ATOM     56  C   UNL A   1      38.982  29.545  30.652  1.00  0.00     0.049 A 
ATOM     57  H   UNL A   1      41.019  29.478  30.172  1.00  0.00     0.167 HD
ATOM     58  C   UNL A   1      44.943  29.630  28.206  1.00  0.00     0.037 A 
ATOM     59  C   UNL A   1      38.800  30.800  31.135  1.00  0.00     0.037 A 
ATOM     60  C   UNL A   1      45.268  29.464  29.600  1.00  0.00     0.049 A 
ATOM     61  C   UNL A   1      40.135  31.368  31.433  1.00  0.00     0.074 A 
ATOM     62  C   UNL A   1      45.778  28.444  30.378  1.00  0.00     0.029 A 
ATOM     63  N   UNL A   1      44.755  30.382  30.482  1.00  0.00    -0.354 N 
ATOM     64  N   UNL A   1      40.897  30.956  32.406  1.00  0.00    -0.248 NA
ATOM     65  C   UNL A   1      40.814  32.096  30.373  1.00  0.00     0.031 C 
ATOM     66  C   UNL A   1      45.121  28.576  31.637  1.00  0.00     0.029 A 
ATOM     67  C   UNL A   1      44.291  29.695  31.569  1.00  0.00     0.049 A 
ATOM     68  H   UNL A   1      44.727  31.358  30.355  1.00  0.00     0.167 HD
ATOM     69  C   UNL A   1      42.178  30.969  31.876  1.00  0.00     0.074 A 
ATOM     70  C   UNL A   1      42.078  31.772  30.659  1.00  0.00     0.031 C 
ATOM     71  C   UNL A   1      43.128  30.097  32.322  1.00  0.00     0.037 A 
BRANCH  58  72
ATOM     72  C   UNL A   1      45.293  30.907  27.465  1.00  0.00     0.057 A 
ATOM     73  C   UNL A   1      44.529  32.091  27.513  1.00  0.00     0.134 A 
ATOM     74  C   UNL A   1      46.610  31.070  26.989  1.00  0.00     0.134 A 
ATOM     75  F   UNL A   1      43.264  32.121  27.938  1.00  0.00    -0.206 F 
ATOM     76  C   UNL A   1      45.064  33.348  27.214  1.00  0.00     0.040 A 
ATOM     77  C   UNL A   1      47.167  32.328  26.732  1.00  0.00     0.040 A 
ATOM     78  F   UNL A   1      47.432  30.018  26.860  1.00  0.00    -0.206 F 
ATOM     79  C   UNL A   1      46.399  33.476  26.869  1.00  0.00     0.006 A 
ENDBRANCH  58  72
BRANCH  59  80
ATOM     80  C   UNL A   1      37.584  31.645  31.094  1.00  0.00     0.057 A 
ATOM     81  C   UNL A   1      36.697  31.695  32.184  1.00  0.00     0.134 A 
ATOM     82  C   UNL A   1      37.115  32.203  29.895  1.00  0.00     0.134 A 
ATOM     83  F   UNL A   1      37.008  31.119  33.353  1.00  0.00    -0.206 F 
ATOM     84  C   UNL A   1      35.418  32.255  32.086  1.00  0.00     0.040 A 
ATOM     85  C   UNL A   1      35.834  32.763  29.783  1.00  0.00     0.040 A 
ATOM     86  F   UNL A   1      37.867  32.163  28.786  1.00  0.00    -0.206 F 
ATOM     87  C   UNL A   1      34.977  32.780  30.879  1.00  0.00     0.006 A 
ENDBRANCH  59  80
BRANCH  71  88
ATOM     88  C   UNL A   1      42.826  29.320  33.571  1.00  0.00     0.057 A 
ATOM     89  C   UNL A   1      43.396  29.740  34.777  1.00  0.00     0.134 A 
ATOM     90  C   UNL A   1      42.108  28.115  33.594  1.00  0.00     0.134 A 
ATOM     91  F   UNL A   1      44.147  30.852  34.818  1.00  0.00    -0.206 F 
ATOM     92  C   UNL A   1      43.248  29.008  35.956  1.00  0.00     0.040 A 
ATOM     93  C   UNL A   1      41.922  27.390  34.774  1.00  0.00     0.040 A 
ATOM     94  F   UNL A   1      41.612  27.582  32.470  1.00  0.00    -0.206 F 
ATOM     95  C   UNL A   1      42.498  27.834  35.961  1.00  0.00     0.006 A 
ENDBRANCH  71  88
ENDBRANCH  45  46
ENDBRANCH  37  40
ENDBRANCH  35  36
ENDBRANCH  34  35
ENDBRANCH  33  34
ENDBRANCH  32  33
ENDBRANCH   1  32
TORSDOF 17
ENDMDL
MODEL 3
REMARK VINA RESULT:     -12.7      2.532      7.465
REMARK SMILES O=C(Cn1c(-c2nc(-c3ccc(C(F)(F)F)cc3)no2)cc2ccccc21)NCCCCCCNC(=O)c1ccc(-c2c3nc(c(-c4c(F)cccc4F)c4ccc([nH]4)c(-c4c(F)cccc4F)c4nc(c(-c5c(F)cccc5F)c5ccc2[nH]5)C=C4)C=C3)cc1
REMARK SMILES IDX 30 1 29 2 28 3 1 4 2 5 3 7 4 8 5 9 27 10 21 11 22 12 26 13
REMARK SMILES IDX 23 14 25 15 24 16 6 17 7 18 20 19 8 20 19 21 9 22 10 23
REMARK SMILES IDX 18 24 11 25 17 26 12 27 13 28 14 29 15 30 16 31 31 32 32 33
REMARK SMILES IDX 33 34 34 35 35 36 36 37 37 39 38 40 39 41 91 42 40 43 90 44
REMARK SMILES IDX 41 45 42 46 43 47 84 48 44 49 89 50 83 51 85 52 45 53 88 54
REMARK SMILES IDX 82 55 81 56 46 58 72 59 55 60 71 61 56 62 59 63 70 64 86 65
REMARK SMILES IDX 57 66 58 67 69 69 87 70 60 71 47 72 48 73 53 74 49 75 50 76
REMARK SMILES IDX 52 77 54 78 51 79 73 80 74 81 79 82 75 83 76 84 78 85 80 86
REMARK SMILES IDX 77 87 61 88 62 89 67 90 63 91 64 92 66 93 68 94 65 95
REMARK H PARENT 28 6 35 38 85 57 59 68
REMARK Flexibility Score: inf
ROOT
ATOM      1  C   UNL A   1      32.396  27.479  26.885  1.00  0.00     0.021 C 
ENDROOT
BRANCH   1   2
ATOM      2  C   UNL A   1      33.252  26.467  26.134  1.00  0.00     0.116 C 
BRANCH   2   3
ATOM      3  N   UNL A   1      32.615  25.172  26.008  1.00  0.00    -0.355 N 
ATOM      4  O   UNL A   1      34.569  23.967  26.066  1.00  0.00    -0.273 OA
ATOM      5  C   UNL A   1      33.350  23.999  26.071  1.00  0.00     0.239 C 
ATOM      6  H   UNL A   1      31.641  25.123  25.875  1.00  0.00     0.163 HD
BRANCH   5   7
ATOM      7  C   UNL A   1      32.521  22.738  26.056  1.00  0.00     0.222 C 
BRANCH   7   8
ATOM      8  N   UNL A   1      32.270  22.084  24.768  1.00  0.00    -0.327 N 
ATOM      9  C   UNL A   1      31.890  22.608  23.548  1.00  0.00     0.109 A 
ATOM     10  C   UNL A   1      32.499  20.708  24.624  1.00  0.00     0.049 A 
ATOM     11  C   UNL A   1      31.828  21.558  22.647  1.00  0.00     0.042 A 
ATOM     12  C   UNL A   1      32.236  20.374  23.295  1.00  0.00     0.000 A 
ATOM     13  C   UNL A   1      32.936  19.734  25.542  1.00  0.00     0.027 A 
ATOM     14  C   UNL A   1      32.431  19.051  22.854  1.00  0.00     0.010 A 
ATOM     15  C   UNL A   1      33.126  18.424  25.083  1.00  0.00     0.002 A 
ATOM     16  C   UNL A   1      32.881  18.086  23.757  1.00  0.00     0.001 A 
BRANCH   9  17
ATOM     17  C   UNL A   1      31.763  23.977  23.150  1.00  0.00     0.274 A 
ATOM     18  N   UNL A   1      30.835  24.848  23.490  1.00  0.00    -0.185 NA
ATOM     19  O   UNL A   1      32.650  24.492  22.241  1.00  0.00    -0.332 OA
ATOM     20  C   UNL A   1      31.176  25.967  22.742  1.00  0.00     0.202 A 
ATOM     21  N   UNL A   1      32.270  25.787  21.984  1.00  0.00    -0.057 NA
BRANCH  20  22
ATOM     22  C   UNL A   1      30.483  27.257  22.766  1.00  0.00     0.023 A 
ATOM     23  C   UNL A   1      29.157  27.312  23.239  1.00  0.00     0.013 A 
ATOM     24  C   UNL A   1      31.078  28.447  22.331  1.00  0.00     0.013 A 
ATOM     25  C   UNL A   1      28.443  28.509  23.276  1.00  0.00     0.014 A 
ATOM     26  C   UNL A   1      30.360  29.657  22.371  1.00  0.00     0.014 A 
ATOM     27  C   UNL A   1      29.036  29.699  22.842  1.00  0.00     0.056 A 
BRANCH  27  28
ATOM     28  C   UNL A   1      28.230  30.976  22.884  1.00  0.00     0.416 C 
ATOM     29  F   UNL A   1      29.021  32.085  22.927  1.00  0.00    -0.166 F 
ATOM     30  F   UNL A   1      27.441  31.129  21.783  1.00  0.00    -0.166 F 
ATOM     31  F   UNL A   1      27.397  31.069  23.956  1.00  0.00    -0.166 F 
ENDBRANCH  27  28
ENDBRANCH  20  22
ENDBRANCH   9  17
ENDBRANCH   7   8
ENDBRANCH   5   7
ENDBRANCH   2   3
ENDBRANCH   1   2
BRANCH   1  32
ATOM     32  C   UNL A   1      31.451  28.305  26.007  1.00  0.00     0.002 C 
BRANCH  32  33
ATOM     33  C   UNL A   1      31.850  29.767  25.774  1.00  0.00     0.002 C 
BRANCH  33  34
ATOM     34  C   UNL A   1      32.132  30.603  27.031  1.00  0.00     0.021 C 
BRANCH  34  35
ATOM     35  C   UNL A   1      33.569  31.107  27.167  1.00  0.00     0.116 C 
BRANCH  35  36
ATOM     36  N   UNL A   1      33.834  31.785  28.418  1.00  0.00    -0.352 N 
ATOM     37  C   UNL A   1      34.900  31.909  29.258  1.00  0.00     0.251 C 
ATOM     38  H   UNL A   1      33.047  32.280  28.743  1.00  0.00     0.163 HD
ATOM     39  O   UNL A   1      34.761  32.717  30.182  1.00  0.00    -0.269 OA
BRANCH  37  40
ATOM     40  C   UNL A   1      36.159  31.122  29.189  1.00  0.00     0.039 A 
ATOM     41  C   UNL A   1      36.258  29.732  29.131  1.00  0.00     0.014 A 
ATOM     42  C   UNL A   1      37.347  31.878  29.261  1.00  0.00     0.014 A 
ATOM     43  C   UNL A   1      37.502  29.113  29.241  1.00  0.00     0.010 A 
ATOM     44  C   UNL A   1      38.589  31.267  29.363  1.00  0.00     0.010 A 
ATOM     45  C   UNL A   1      38.659  29.881  29.409  1.00  0.00    -0.014 A 
BRANCH  45  46
ATOM     46  C   UNL A   1      39.938  29.191  29.541  1.00  0.00     0.031 A 
ATOM     47  C   UNL A   1      40.429  29.060  30.941  1.00  0.00     0.074 A 
ATOM     48  C   UNL A   1      40.581  28.618  28.501  1.00  0.00     0.049 A 
ATOM     49  N   UNL A   1      41.500  29.564  31.462  1.00  0.00    -0.248 NA
ATOM     50  C   UNL A   1      39.556  28.384  31.914  1.00  0.00     0.031 C 
ATOM     51  C   UNL A   1      40.098  28.433  27.130  1.00  0.00     0.029 A 
ATOM     52  N   UNL A   1      41.793  27.992  28.479  1.00  0.00    -0.354 N 
ATOM     53  C   UNL A   1      41.537  29.117  32.783  1.00  0.00     0.074 A 
ATOM     54  C   UNL A   1      40.252  28.525  33.043  1.00  0.00     0.031 C 
ATOM     55  C   UNL A   1      40.900  27.558  26.484  1.00  0.00     0.029 A 
ATOM     56  C   UNL A   1      42.026  27.228  27.341  1.00  0.00     0.049 A 
ATOM     57  H   UNL A   1      42.449  28.074  29.209  1.00  0.00     0.167 HD
ATOM     58  C   UNL A   1      42.707  29.068  33.479  1.00  0.00     0.037 A 
ATOM     59  C   UNL A   1      43.045  26.356  27.137  1.00  0.00     0.037 A 
ATOM     60  C   UNL A   1      43.706  29.912  32.873  1.00  0.00     0.049 A 
ATOM     61  C   UNL A   1      44.117  26.679  28.107  1.00  0.00     0.074 A 
ATOM     62  C   UNL A   1      43.834  31.264  32.625  1.00  0.00     0.029 A 
ATOM     63  N   UNL A   1      44.670  29.302  32.112  1.00  0.00    -0.354 N 
ATOM     64  N   UNL A   1      44.845  27.758  28.050  1.00  0.00    -0.248 NA
ATOM     65  C   UNL A   1      44.082  26.017  29.401  1.00  0.00     0.031 C 
ATOM     66  C   UNL A   1      44.533  31.347  31.384  1.00  0.00     0.029 A 
ATOM     67  C   UNL A   1      44.833  30.047  30.977  1.00  0.00     0.049 A 
ATOM     68  H   UNL A   1      45.158  28.478  32.341  1.00  0.00     0.167 HD
ATOM     69  C   UNL A   1      44.986  28.155  29.371  1.00  0.00     0.074 A 
ATOM     70  C   UNL A   1      44.581  26.996  30.162  1.00  0.00     0.031 C 
ATOM     71  C   UNL A   1      45.144  29.473  29.691  1.00  0.00     0.037 A 
BRANCH  58  72
ATOM     72  C   UNL A   1      43.095  27.947  34.425  1.00  0.00     0.057 A 
ATOM     73  C   UNL A   1      42.974  28.010  35.828  1.00  0.00     0.134 A 
ATOM     74  C   UNL A   1      43.248  26.648  33.901  1.00  0.00     0.134 A 
ATOM     75  F   UNL A   1      42.821  29.159  36.492  1.00  0.00    -0.206 F 
ATOM     76  C   UNL A   1      42.905  26.868  36.632  1.00  0.00     0.040 A 
ATOM     77  C   UNL A   1      43.134  25.498  34.692  1.00  0.00     0.040 A 
ATOM     78  F   UNL A   1      43.409  26.450  32.583  1.00  0.00    -0.206 F 
ATOM     79  C   UNL A   1      42.936  25.607  36.060  1.00  0.00     0.006 A 
ENDBRANCH  58  72
BRANCH  59  80
ATOM     80  C   UNL A   1      43.048  25.093  26.363  1.00  0.00     0.057 A 
ATOM     81  C   UNL A   1      42.407  23.941  26.851  1.00  0.00     0.134 A 
ATOM     82  C   UNL A   1      43.905  24.902  25.269  1.00  0.00     0.134 A 
ATOM     83  F   UNL A   1      41.631  23.993  27.943  1.00  0.00    -0.206 F 
ATOM     84  C   UNL A   1      42.613  22.674  26.294  1.00  0.00     0.040 A 
ATOM     85  C   UNL A   1      44.125  23.637  24.704  1.00  0.00     0.040 A 
ATOM     86  F   UNL A   1      44.600  25.930  24.761  1.00  0.00    -0.206 F 
ATOM     87  C   UNL A   1      43.484  22.516  25.224  1.00  0.00     0.006 A 
ENDBRANCH  59  80
BRANCH  71  88
ATOM     88  C   UNL A   1      45.429  30.430  28.570  1.00  0.00     0.057 A 
ATOM     89  C   UNL A   1      46.749  30.838  28.355  1.00  0.00     0.134 A 
ATOM     90  C   UNL A   1      44.438  31.052  27.795  1.00  0.00     0.134 A 
ATOM     91  F   UNL A   1      47.743  30.331  29.101  1.00  0.00    -0.206 F 
ATOM     92  C   UNL A   1      47.075  31.807  27.404  1.00  0.00     0.040 A 
ATOM     93  C   UNL A   1      44.754  31.997  26.815  1.00  0.00     0.040 A 
ATOM     94  F   UNL A   1      43.139  30.800  27.999  1.00  0.00    -0.206 F 
ATOM     95  C   UNL A   1      46.077  32.381  26.620  1.00  0.00     0.006 A 
ENDBRANCH  71  88
ENDBRANCH  45  46
ENDBRANCH  37  40
ENDBRANCH  35  36
ENDBRANCH  34  35
ENDBRANCH  33  34
ENDBRANCH  32  33
ENDBRANCH   1  32
TORSDOF 17
ENDMDL
