MODEL 1
REMARK VINA RESULT:     -11.4      0.000      0.000
REMARK SMILES C[C@@H](C(=O)NCCCCCCNC(=O)c1ccc(-c2c3nc(c(-c4c(F)cccc4F)c4ccc([nH]4)c(-c4c(F)cccc4F)c4nc(c(-c5c(F)cccc5F)c5ccc2[nH]5)C=C4)C=C3)cc1)n1ccc(C(=O)N2CC[NH+](Cc3cccc(F)c3)CC2)n1
REMARK SMILES IDX 7 1 6 2 5 3 3 4 4 5 2 7 1 8 69 9 70 10 89 11 71 12 72 13
REMARK SMILES IDX 73 14 74 15 75 16 76 17 88 18 77 19 87 20 78 21 79 23 80 24
REMARK SMILES IDX 81 25 86 26 82 27 84 28 83 29 85 30 8 31 9 32 10 33 11 34
REMARK SMILES IDX 12 35 13 36 14 38 15 39 16 40 68 41 17 42 67 43 18 44 19 45
REMARK SMILES IDX 20 46 61 47 21 48 66 49 60 50 62 51 22 52 65 53 59 54 58 55
REMARK SMILES IDX 23 57 49 58 32 59 48 60 33 61 36 62 47 63 63 64 34 65 35 66
REMARK SMILES IDX 46 68 64 69 37 70 24 71 25 72 30 73 26 74 27 75 29 76 31 77
REMARK SMILES IDX 28 78 50 79 51 80 56 81 52 82 53 83 55 84 57 85 54 86 38 87
REMARK SMILES IDX 39 88 44 89 40 90 41 91 43 92 45 93 42 94
REMARK H PARENT 5 6 78 22 12 37 62 56 36 67
REMARK Flexibility Score: inf
ROOT
ATOM      1  C   UNL A   1      33.474  28.908  22.819  1.00  0.00     0.021 C 
ENDROOT
BRANCH   1   2
ATOM      2  C   UNL A   1      32.014  28.861  22.363  1.00  0.00     0.116 C 
BRANCH   2   3
ATOM      3  N   UNL A   1      31.200  29.831  23.070  1.00  0.00    -0.354 N 
ATOM      4  C   UNL A   1      29.860  29.830  23.346  1.00  0.00     0.244 C 
ATOM      5  O   UNL A   1      29.412  30.830  23.912  1.00  0.00    -0.273 OA
ATOM      6  H   UNL A   1      31.690  30.616  23.407  1.00  0.00     0.163 HD
BRANCH   4   7
ATOM      7  C   UNL A   1      29.005  28.632  22.944  1.00  0.00     0.193 C 
ATOM      8  C   UNL A   1      27.526  28.993  22.820  1.00  0.00     0.044 C 
BRANCH   7   9
ATOM      9  N   UNL A   1      29.169  27.499  23.860  1.00  0.00    -0.260 N 
ATOM     10  C   UNL A   1      28.326  26.439  24.035  1.00  0.00     0.110 A 
ATOM     11  N   UNL A   1      30.363  27.330  24.467  1.00  0.00    -0.167 NA
ATOM     12  C   UNL A   1      29.018  25.520  24.783  1.00  0.00     0.056 A 
ATOM     13  C   UNL A   1      30.285  26.111  25.038  1.00  0.00     0.150 A 
BRANCH  13  14
ATOM     14  C   UNL A   1      31.419  25.458  25.714  1.00  0.00     0.274 C 
ATOM     15  O   UNL A   1      31.695  25.760  26.877  1.00  0.00    -0.267 OA
ATOM     16  N   UNL A   1      32.171  24.501  25.014  1.00  0.00    -0.326 N 
ATOM     17  C   UNL A   1      33.214  23.818  25.769  1.00  0.00     0.181 C 
ATOM     18  C   UNL A   1      32.344  24.546  23.560  1.00  0.00     0.181 C 
ATOM     19  C   UNL A   1      33.726  22.528  25.108  1.00  0.00     0.284 C 
ATOM     20  C   UNL A   1      32.889  23.240  22.952  1.00  0.00     0.284 C 
ATOM     21  N   UNL A   1      33.997  22.602  23.669  1.00  0.00    -0.328 N 
ATOM     22  H   UNL A   1      34.020  21.637  23.338  1.00  0.00     0.348 HD
BRANCH  21  23
ATOM     23  C   UNL A   1      35.349  23.001  23.280  1.00  0.00     0.299 C 
BRANCH  23  24
ATOM     24  C   UNL A   1      36.470  22.775  24.267  1.00  0.00     0.009 A 
ATOM     25  C   UNL A   1      36.901  23.811  25.113  1.00  0.00     0.010 A 
ATOM     26  C   UNL A   1      37.112  21.532  24.350  1.00  0.00     0.048 A 
ATOM     27  C   UNL A   1      37.912  23.594  26.053  1.00  0.00     0.004 A 
ATOM     28  C   UNL A   1      38.113  21.324  25.294  1.00  0.00     0.123 A 
ATOM     29  C   UNL A   1      38.514  22.341  26.151  1.00  0.00     0.039 A 
ATOM     30  F   UNL A   1      38.695  20.121  25.382  1.00  0.00    -0.207 F 
ENDBRANCH  23  24
ENDBRANCH  21  23
ENDBRANCH  13  14
ENDBRANCH   7   9
ENDBRANCH   4   7
ENDBRANCH   2   3
ENDBRANCH   1   2
BRANCH   1  31
ATOM     31  C   UNL A   1      34.016  27.591  23.387  1.00  0.00     0.002 C 
BRANCH  31  32
ATOM     32  C   UNL A   1      34.087  27.507  24.913  1.00  0.00     0.002 C 
BRANCH  32  33
ATOM     33  C   UNL A   1      33.960  28.841  25.657  1.00  0.00     0.021 C 
BRANCH  33  34
ATOM     34  C   UNL A   1      33.915  28.741  27.181  1.00  0.00     0.116 C 
BRANCH  34  35
ATOM     35  N   UNL A   1      33.794  30.037  27.823  1.00  0.00    -0.352 N 
ATOM     36  C   UNL A   1      34.732  30.743  28.534  1.00  0.00     0.251 C 
ATOM     37  H   UNL A   1      32.915  30.470  27.737  1.00  0.00     0.163 HD
ATOM     38  O   UNL A   1      34.406  31.776  29.113  1.00  0.00    -0.269 OA
BRANCH  36  39
ATOM     39  C   UNL A   1      36.129  30.262  28.631  1.00  0.00     0.039 A 
ATOM     40  C   UNL A   1      36.559  29.713  29.844  1.00  0.00     0.014 A 
ATOM     41  C   UNL A   1      37.029  30.402  27.571  1.00  0.00     0.014 A 
ATOM     42  C   UNL A   1      37.877  29.273  29.985  1.00  0.00     0.010 A 
ATOM     43  C   UNL A   1      38.336  29.929  27.698  1.00  0.00     0.010 A 
ATOM     44  C   UNL A   1      38.772  29.370  28.909  1.00  0.00    -0.014 A 
BRANCH  44  45
ATOM     45  C   UNL A   1      40.179  28.925  29.054  1.00  0.00     0.031 A 
ATOM     46  C   UNL A   1      41.206  29.853  29.638  1.00  0.00     0.074 A 
ATOM     47  C   UNL A   1      40.541  27.701  28.629  1.00  0.00     0.049 A 
ATOM     48  N   UNL A   1      42.488  29.661  29.812  1.00  0.00    -0.248 NA
ATOM     49  C   UNL A   1      40.732  31.179  30.062  1.00  0.00     0.031 C 
ATOM     50  C   UNL A   1      39.649  26.718  28.014  1.00  0.00     0.029 A 
ATOM     51  N   UNL A   1      41.764  27.079  28.649  1.00  0.00    -0.354 N 
ATOM     52  C   UNL A   1      42.980  30.847  30.338  1.00  0.00     0.074 A 
ATOM     53  C   UNL A   1      41.862  31.761  30.441  1.00  0.00     0.031 C 
ATOM     54  C   UNL A   1      40.350  25.609  27.730  1.00  0.00     0.029 A 
ATOM     55  C   UNL A   1      41.741  25.809  28.129  1.00  0.00     0.049 A 
ATOM     56  H   UNL A   1      42.579  27.502  29.001  1.00  0.00     0.167 HD
ATOM     57  C   UNL A   1      44.247  31.146  30.712  1.00  0.00     0.037 A 
ATOM     58  C   UNL A   1      42.729  24.905  27.998  1.00  0.00     0.037 A 
ATOM     59  C   UNL A   1      45.353  30.230  30.657  1.00  0.00     0.049 A 
ATOM     60  C   UNL A   1      44.113  25.240  28.476  1.00  0.00     0.074 A 
ATOM     61  C   UNL A   1      46.660  30.428  31.071  1.00  0.00     0.029 A 
ATOM     62  N   UNL A   1      45.278  28.937  30.168  1.00  0.00    -0.354 N 
ATOM     63  N   UNL A   1      44.554  26.351  29.012  1.00  0.00    -0.248 NA
ATOM     64  C   UNL A   1      45.133  24.191  28.337  1.00  0.00     0.031 C 
ATOM     65  C   UNL A   1      47.379  29.252  30.820  1.00  0.00     0.029 A 
ATOM     66  C   UNL A   1      46.515  28.323  30.266  1.00  0.00     0.049 A 
ATOM     67  H   UNL A   1      44.466  28.516  29.804  1.00  0.00     0.167 HD
ATOM     68  C   UNL A   1      45.893  26.130  29.295  1.00  0.00     0.074 A 
ATOM     69  C   UNL A   1      46.195  24.777  28.873  1.00  0.00     0.031 C 
ATOM     70  C   UNL A   1      46.793  26.973  29.856  1.00  0.00     0.037 A 
BRANCH  57  71
ATOM     71  C   UNL A   1      44.499  32.534  31.213  1.00  0.00     0.057 A 
ATOM     72  C   UNL A   1      44.389  32.855  32.572  1.00  0.00     0.134 A 
ATOM     73  C   UNL A   1      44.869  33.555  30.330  1.00  0.00     0.134 A 
ATOM     74  F   UNL A   1      44.021  31.921  33.462  1.00  0.00    -0.206 F 
ATOM     75  C   UNL A   1      44.623  34.151  33.033  1.00  0.00     0.040 A 
ATOM     76  C   UNL A   1      45.121  34.851  30.782  1.00  0.00     0.040 A 
ATOM     77  F   UNL A   1      44.989  33.309  29.017  1.00  0.00    -0.206 F 
ATOM     78  C   UNL A   1      44.993  35.152  32.137  1.00  0.00     0.006 A 
ENDBRANCH  57  71
BRANCH  58  79
ATOM     79  C   UNL A   1      42.435  23.573  27.425  1.00  0.00     0.057 A 
ATOM     80  C   UNL A   1      42.111  22.493  28.254  1.00  0.00     0.134 A 
ATOM     81  C   UNL A   1      42.469  23.348  26.045  1.00  0.00     0.134 A 
ATOM     82  F   UNL A   1      42.081  22.651  29.585  1.00  0.00    -0.206 F 
ATOM     83  C   UNL A   1      41.838  21.230  27.731  1.00  0.00     0.040 A 
ATOM     84  C   UNL A   1      42.186  22.092  25.507  1.00  0.00     0.040 A 
ATOM     85  F   UNL A   1      42.772  24.347  25.204  1.00  0.00    -0.206 F 
ATOM     86  C   UNL A   1      41.873  21.027  26.352  1.00  0.00     0.006 A 
ENDBRANCH  58  79
BRANCH  70  87
ATOM     87  C   UNL A   1      48.176  26.444  30.072  1.00  0.00     0.057 A 
ATOM     88  C   UNL A   1      49.184  26.622  29.118  1.00  0.00     0.134 A 
ATOM     89  C   UNL A   1      48.506  25.779  31.258  1.00  0.00     0.134 A 
ATOM     90  F   UNL A   1      48.921  27.240  27.958  1.00  0.00    -0.206 F 
ATOM     91  C   UNL A   1      50.477  26.143  29.333  1.00  0.00     0.040 A 
ATOM     92  C   UNL A   1      49.799  25.307  31.489  1.00  0.00     0.040 A 
ATOM     93  F   UNL A   1      47.581  25.580  32.209  1.00  0.00    -0.206 F 
ATOM     94  C   UNL A   1      50.788  25.488  30.524  1.00  0.00     0.006 A 
ENDBRANCH  70  87
ENDBRANCH  44  45
ENDBRANCH  36  39
ENDBRANCH  34  35
ENDBRANCH  33  34
ENDBRANCH  32  33
ENDBRANCH  31  32
ENDBRANCH   1  31
TORSDOF 17
ENDMDL
MODEL 2
REMARK VINA RESULT:     -11.3      3.626      5.377
REMARK SMILES C[C@@H](C(=O)NCCCCCCNC(=O)c1ccc(-c2c3nc(c(-c4c(F)cccc4F)c4ccc([nH]4)c(-c4c(F)cccc4F)c4nc(c(-c5c(F)cccc5F)c5ccc2[nH]5)C=C4)C=C3)cc1)n1ccc(C(=O)N2CC[NH+](Cc3cccc(F)c3)CC2)n1
REMARK SMILES IDX 7 1 6 2 5 3 3 4 4 5 2 7 1 8 69 9 70 10 89 11 71 12 72 13
REMARK SMILES IDX 73 14 74 15 75 16 76 17 88 18 77 19 87 20 78 21 79 23 80 24
REMARK SMILES IDX 81 25 86 26 82 27 84 28 83 29 85 30 8 31 9 32 10 33 11 34
REMARK SMILES IDX 12 35 13 36 14 38 15 39 16 40 68 41 17 42 67 43 18 44 19 45
REMARK SMILES IDX 20 46 61 47 21 48 66 49 60 50 62 51 22 52 65 53 59 54 58 55
REMARK SMILES IDX 23 57 49 58 32 59 48 60 33 61 36 62 47 63 63 64 34 65 35 66
REMARK SMILES IDX 46 68 64 69 37 70 24 71 25 72 30 73 26 74 27 75 29 76 31 77
REMARK SMILES IDX 28 78 50 79 51 80 56 81 52 82 53 83 55 84 57 85 54 86 38 87
REMARK SMILES IDX 39 88 44 89 40 90 41 91 43 92 45 93 42 94
REMARK H PARENT 5 6 78 22 12 37 62 56 36 67
REMARK Flexibility Score: inf
ROOT
ATOM      1  C   UNL A   1      31.814  28.746  27.488  1.00  0.00     0.021 C 
ENDROOT
BRANCH   1   2
ATOM      2  C   UNL A   1      31.923  27.447  26.688  1.00  0.00     0.116 C 
BRANCH   2   3
ATOM      3  N   UNL A   1      30.636  27.036  26.156  1.00  0.00    -0.354 N 
ATOM      4  C   UNL A   1      30.332  26.147  25.162  1.00  0.00     0.244 C 
ATOM      5  O   UNL A   1      29.141  26.040  24.864  1.00  0.00    -0.273 OA
ATOM      6  H   UNL A   1      29.858  27.465  26.580  1.00  0.00     0.163 HD
BRANCH   4   7
ATOM      7  C   UNL A   1      31.448  25.361  24.481  1.00  0.00     0.193 C 
ATOM      8  C   UNL A   1      31.010  24.782  23.138  1.00  0.00     0.044 C 
BRANCH   7   9
ATOM      9  N   UNL A   1      31.978  24.294  25.337  1.00  0.00    -0.260 N 
ATOM     10  C   UNL A   1      31.390  23.738  26.437  1.00  0.00     0.110 A 
ATOM     11  N   UNL A   1      33.064  23.611  24.915  1.00  0.00    -0.167 NA
ATOM     12  C   UNL A   1      32.126  22.618  26.737  1.00  0.00     0.056 A 
ATOM     13  C   UNL A   1      33.164  22.573  25.769  1.00  0.00     0.150 A 
BRANCH  13  14
ATOM     14  C   UNL A   1      34.148  21.487  25.612  1.00  0.00     0.274 C 
ATOM     15  O   UNL A   1      33.769  20.314  25.603  1.00  0.00    -0.267 OA
ATOM     16  N   UNL A   1      35.507  21.811  25.480  1.00  0.00    -0.326 N 
ATOM     17  C   UNL A   1      36.417  20.701  25.227  1.00  0.00     0.181 C 
ATOM     18  C   UNL A   1      36.093  23.006  26.093  1.00  0.00     0.181 C 
ATOM     19  C   UNL A   1      37.795  21.127  24.696  1.00  0.00     0.284 C 
ATOM     20  C   UNL A   1      37.488  23.371  25.548  1.00  0.00     0.284 C 
ATOM     21  N   UNL A   1      38.429  22.260  25.376  1.00  0.00    -0.328 N 
ATOM     22  H   UNL A   1      39.147  22.605  24.738  1.00  0.00     0.348 HD
BRANCH  21  23
ATOM     23  C   UNL A   1      39.284  21.939  26.519  1.00  0.00     0.299 C 
BRANCH  23  24
ATOM     24  C   UNL A   1      40.645  21.344  26.245  1.00  0.00     0.009 A 
ATOM     25  C   UNL A   1      41.742  22.169  25.944  1.00  0.00     0.010 A 
ATOM     26  C   UNL A   1      40.838  19.956  26.272  1.00  0.00     0.048 A 
ATOM     27  C   UNL A   1      43.010  21.623  25.728  1.00  0.00     0.004 A 
ATOM     28  C   UNL A   1      42.106  19.423  26.062  1.00  0.00     0.123 A 
ATOM     29  C   UNL A   1      43.195  20.244  25.797  1.00  0.00     0.039 A 
ATOM     30  F   UNL A   1      42.280  18.096  26.122  1.00  0.00    -0.207 F 
ENDBRANCH  23  24
ENDBRANCH  21  23
ENDBRANCH  13  14
ENDBRANCH   7   9
ENDBRANCH   4   7
ENDBRANCH   2   3
ENDBRANCH   1   2
BRANCH   1  31
ATOM     31  C   UNL A   1      32.408  29.981  26.799  1.00  0.00     0.002 C 
BRANCH  31  32
ATOM     32  C   UNL A   1      31.403  30.891  26.091  1.00  0.00     0.002 C 
BRANCH  32  33
ATOM     33  C   UNL A   1      31.403  32.356  26.540  1.00  0.00     0.021 C 
BRANCH  33  34
ATOM     34  C   UNL A   1      32.728  32.872  27.097  1.00  0.00     0.116 C 
BRANCH  34  35
ATOM     35  N   UNL A   1      32.604  34.178  27.719  1.00  0.00    -0.352 N 
ATOM     36  C   UNL A   1      33.305  34.707  28.773  1.00  0.00     0.251 C 
ATOM     37  H   UNL A   1      31.920  34.768  27.327  1.00  0.00     0.163 HD
ATOM     38  O   UNL A   1      32.972  35.793  29.242  1.00  0.00    -0.269 OA
BRANCH  36  39
ATOM     39  C   UNL A   1      34.444  33.973  29.369  1.00  0.00     0.039 A 
ATOM     40  C   UNL A   1      35.737  34.291  28.938  1.00  0.00     0.014 A 
ATOM     41  C   UNL A   1      34.251  32.942  30.293  1.00  0.00     0.014 A 
ATOM     42  C   UNL A   1      36.836  33.602  29.456  1.00  0.00     0.010 A 
ATOM     43  C   UNL A   1      35.351  32.279  30.839  1.00  0.00     0.010 A 
ATOM     44  C   UNL A   1      36.651  32.598  30.417  1.00  0.00    -0.014 A 
BRANCH  44  45
ATOM     45  C   UNL A   1      37.809  31.847  30.957  1.00  0.00     0.031 A 
ATOM     46  C   UNL A   1      38.323  32.145  32.337  1.00  0.00     0.074 A 
ATOM     47  C   UNL A   1      38.422  30.922  30.196  1.00  0.00     0.049 A 
ATOM     48  N   UNL A   1      39.343  31.622  32.969  1.00  0.00    -0.248 NA
ATOM     49  C   UNL A   1      37.609  33.181  33.097  1.00  0.00     0.031 C 
ATOM     50  C   UNL A   1      38.043  30.562  28.829  1.00  0.00     0.029 A 
ATOM     51  N   UNL A   1      39.500  30.117  30.467  1.00  0.00    -0.354 N 
ATOM     52  C   UNL A   1      39.411  32.284  34.187  1.00  0.00     0.074 A 
ATOM     53  C   UNL A   1      38.339  33.257  34.201  1.00  0.00     0.031 C 
ATOM     54  C   UNL A   1      38.865  29.597  28.387  1.00  0.00     0.029 A 
ATOM     55  C   UNL A   1      39.835  29.280  29.433  1.00  0.00     0.049 A 
ATOM     56  H   UNL A   1      39.986  30.138  31.323  1.00  0.00     0.167 HD
ATOM     57  C   UNL A   1      40.281  32.091  35.207  1.00  0.00     0.037 A 
ATOM     58  C   UNL A   1      40.809  28.357  29.342  1.00  0.00     0.037 A 
ATOM     59  C   UNL A   1      41.318  31.096  35.220  1.00  0.00     0.049 A 
ATOM     60  C   UNL A   1      41.723  28.121  30.510  1.00  0.00     0.074 A 
ATOM     61  C   UNL A   1      42.209  30.790  36.235  1.00  0.00     0.029 A 
ATOM     62  N   UNL A   1      41.594  30.236  34.170  1.00  0.00    -0.354 N 
ATOM     63  N   UNL A   1      41.747  28.724  31.672  1.00  0.00    -0.248 NA
ATOM     64  C   UNL A   1      42.739  27.070  30.354  1.00  0.00     0.031 C 
ATOM     65  C   UNL A   1      43.034  29.748  35.792  1.00  0.00     0.029 A 
ATOM     66  C   UNL A   1      42.644  29.399  34.510  1.00  0.00     0.049 A 
ATOM     67  H   UNL A   1      41.116  30.222  33.310  1.00  0.00     0.167 HD
ATOM     68  C   UNL A   1      42.762  28.114  32.395  1.00  0.00     0.074 A 
ATOM     69  C   UNL A   1      43.330  27.091  31.541  1.00  0.00     0.031 C 
ATOM     70  C   UNL A   1      43.185  28.378  33.654  1.00  0.00     0.037 A 
BRANCH  57  71
ATOM     71  C   UNL A   1      40.143  32.988  36.397  1.00  0.00     0.057 A 
ATOM     72  C   UNL A   1      40.939  34.130  36.552  1.00  0.00     0.134 A 
ATOM     73  C   UNL A   1      39.195  32.715  37.390  1.00  0.00     0.134 A 
ATOM     74  F   UNL A   1      41.876  34.433  35.641  1.00  0.00    -0.206 F 
ATOM     75  C   UNL A   1      40.808  34.961  37.665  1.00  0.00     0.040 A 
ATOM     76  C   UNL A   1      39.043  33.548  38.500  1.00  0.00     0.040 A 
ATOM     77  F   UNL A   1      38.404  31.635  37.297  1.00  0.00    -0.206 F 
ATOM     78  C   UNL A   1      39.855  34.672  38.641  1.00  0.00     0.006 A 
ENDBRANCH  57  71
BRANCH  58  79
ATOM     79  C   UNL A   1      40.944  27.550  28.109  1.00  0.00     0.057 A 
ATOM     80  C   UNL A   1      41.761  27.981  27.058  1.00  0.00     0.134 A 
ATOM     81  C   UNL A   1      40.264  26.337  27.951  1.00  0.00     0.134 A 
ATOM     82  F   UNL A   1      42.420  29.145  27.150  1.00  0.00    -0.206 F 
ATOM     83  C   UNL A   1      41.893  27.236  25.886  1.00  0.00     0.040 A 
ATOM     84  C   UNL A   1      40.397  25.577  26.790  1.00  0.00     0.040 A 
ATOM     85  F   UNL A   1      39.470  25.876  28.928  1.00  0.00    -0.206 F 
ATOM     86  C   UNL A   1      41.211  26.028  25.751  1.00  0.00     0.006 A 
ENDBRANCH  58  79
BRANCH  70  87
ATOM     87  C   UNL A   1      44.292  27.526  34.191  1.00  0.00     0.057 A 
ATOM     88  C   UNL A   1      44.034  26.311  34.835  1.00  0.00     0.134 A 
ATOM     89  C   UNL A   1      45.628  27.913  34.034  1.00  0.00     0.134 A 
ATOM     90  F   UNL A   1      42.772  25.897  35.025  1.00  0.00    -0.206 F 
ATOM     91  C   UNL A   1      45.071  25.512  35.317  1.00  0.00     0.040 A 
ATOM     92  C   UNL A   1      46.673  27.116  34.501  1.00  0.00     0.040 A 
ATOM     93  F   UNL A   1      45.936  29.068  33.424  1.00  0.00    -0.206 F 
ATOM     94  C   UNL A   1      46.396  25.912  35.145  1.00  0.00     0.006 A 
ENDBRANCH  70  87
ENDBRANCH  44  45
ENDBRANCH  36  39
ENDBRANCH  34  35
ENDBRANCH  33  34
ENDBRANCH  32  33
ENDBRANCH  31  32
ENDBRANCH   1  31
TORSDOF 17
ENDMDL
MODEL 3
REMARK VINA RESULT:     -11.1      5.196     10.777
REMARK SMILES C[C@@H](C(=O)NCCCCCCNC(=O)c1ccc(-c2c3nc(c(-c4c(F)cccc4F)c4ccc([nH]4)c(-c4c(F)cccc4F)c4nc(c(-c5c(F)cccc5F)c5ccc2[nH]5)C=C4)C=C3)cc1)n1ccc(C(=O)N2CC[NH+](Cc3cccc(F)c3)CC2)n1
REMARK SMILES IDX 7 1 6 2 5 3 3 4 4 5 2 7 1 8 69 9 70 10 89 11 71 12 72 13
REMARK SMILES IDX 73 14 74 15 75 16 76 17 88 18 77 19 87 20 78 21 79 23 80 24
REMARK SMILES IDX 81 25 86 26 82 27 84 28 83 29 85 30 8 31 9 32 10 33 11 34
REMARK SMILES IDX 12 35 13 36 14 38 15 39 16 40 68 41 17 42 67 43 18 44 19 45
REMARK SMILES IDX 20 46 61 47 21 48 66 49 60 50 62 51 22 52 65 53 59 54 58 55
REMARK SMILES IDX 23 57 49 58 32 59 48 60 33 61 36 62 47 63 63 64 34 65 35 66
REMARK SMILES IDX 46 68 64 69 37 70 24 71 25 72 30 73 26 74 27 75 29 76 31 77
REMARK SMILES IDX 28 78 50 79 51 80 56 81 52 82 53 83 55 84 57 85 54 86 38 87
REMARK SMILES IDX 39 88 44 89 40 90 41 91 43 92 45 93 42 94
REMARK H PARENT 5 6 78 22 12 37 62 56 36 67
REMARK Flexibility Score: inf
ROOT
ATOM      1  C   UNL A   1      35.764  34.008  34.694  1.00  0.00     0.021 C 
ENDROOT
BRANCH   1   2
ATOM      2  C   UNL A   1      37.230  33.873  35.112  1.00  0.00     0.116 C 
BRANCH   2   3
ATOM      3  N   UNL A   1      37.433  32.742  35.998  1.00  0.00    -0.354 N 
ATOM      4  C   UNL A   1      37.908  31.486  35.736  1.00  0.00     0.244 C 
ATOM      5  O   UNL A   1      37.910  30.691  36.679  1.00  0.00    -0.273 OA
ATOM      6  H   UNL A   1      37.191  32.906  36.938  1.00  0.00     0.163 HD
BRANCH   4   7
ATOM      7  C   UNL A   1      38.387  31.135  34.332  1.00  0.00     0.193 C 
ATOM      8  C   UNL A   1      37.240  30.699  33.422  1.00  0.00     0.044 C 
BRANCH   7   9
ATOM      9  N   UNL A   1      39.435  30.109  34.342  1.00  0.00    -0.260 N 
ATOM     10  C   UNL A   1      39.799  29.279  33.321  1.00  0.00     0.110 A 
ATOM     11  N   UNL A   1      40.301  30.084  35.378  1.00  0.00    -0.167 NA
ATOM     12  C   UNL A   1      40.980  28.694  33.707  1.00  0.00     0.056 A 
ATOM     13  C   UNL A   1      41.260  29.217  34.998  1.00  0.00     0.150 A 
BRANCH  13  14
ATOM     14  C   UNL A   1      42.484  28.968  35.780  1.00  0.00     0.274 C 
ATOM     15  O   UNL A   1      43.307  29.873  35.934  1.00  0.00    -0.267 OA
ATOM     16  N   UNL A   1      42.693  27.695  36.334  1.00  0.00    -0.326 N 
ATOM     17  C   UNL A   1      43.870  27.541  37.180  1.00  0.00     0.181 C 
ATOM     18  C   UNL A   1      42.172  26.474  35.715  1.00  0.00     0.181 C 
ATOM     19  C   UNL A   1      43.843  26.290  38.072  1.00  0.00     0.284 C 
ATOM     20  C   UNL A   1      42.198  25.242  36.640  1.00  0.00     0.284 C 
ATOM     21  N   UNL A   1      43.419  25.044  37.426  1.00  0.00    -0.328 N 
ATOM     22  H   UNL A   1      43.160  24.410  38.183  1.00  0.00     0.348 HD
BRANCH  21  23
ATOM     23  C   UNL A   1      44.473  24.237  36.812  1.00  0.00     0.299 C 
BRANCH  23  24
ATOM     24  C   UNL A   1      44.418  24.010  35.320  1.00  0.00     0.009 A 
ATOM     25  C   UNL A   1      43.590  23.014  34.775  1.00  0.00     0.010 A 
ATOM     26  C   UNL A   1      45.202  24.780  34.448  1.00  0.00     0.048 A 
ATOM     27  C   UNL A   1      43.509  22.827  33.392  1.00  0.00     0.004 A 
ATOM     28  C   UNL A   1      45.108  24.591  33.073  1.00  0.00     0.123 A 
ATOM     29  C   UNL A   1      44.264  23.626  32.537  1.00  0.00     0.039 A 
ATOM     30  F   UNL A   1      45.840  25.356  32.253  1.00  0.00    -0.207 F 
ENDBRANCH  23  24
ENDBRANCH  21  23
ENDBRANCH  13  14
ENDBRANCH   7   9
ENDBRANCH   4   7
ENDBRANCH   2   3
ENDBRANCH   1   2
BRANCH   1  31
ATOM     31  C   UNL A   1      35.540  34.647  33.318  1.00  0.00     0.002 C 
BRANCH  31  32
ATOM     32  C   UNL A   1      34.399  35.663  33.238  1.00  0.00     0.002 C 
BRANCH  32  33
ATOM     33  C   UNL A   1      33.292  35.338  32.230  1.00  0.00     0.021 C 
BRANCH  33  34
ATOM     34  C   UNL A   1      33.318  36.154  30.939  1.00  0.00     0.116 C 
BRANCH  34  35
ATOM     35  N   UNL A   1      32.786  35.423  29.803  1.00  0.00    -0.352 N 
ATOM     36  C   UNL A   1      33.369  34.427  29.062  1.00  0.00     0.251 C 
ATOM     37  H   UNL A   1      31.877  35.679  29.526  1.00  0.00     0.163 HD
ATOM     38  O   UNL A   1      32.807  34.010  28.052  1.00  0.00    -0.269 OA
BRANCH  36  39
ATOM     39  C   UNL A   1      34.681  33.862  29.452  1.00  0.00     0.039 A 
ATOM     40  C   UNL A   1      35.834  34.398  28.867  1.00  0.00     0.014 A 
ATOM     41  C   UNL A   1      34.783  32.780  30.331  1.00  0.00     0.014 A 
ATOM     42  C   UNL A   1      37.089  33.874  29.187  1.00  0.00     0.010 A 
ATOM     43  C   UNL A   1      36.039  32.281  30.680  1.00  0.00     0.010 A 
ATOM     44  C   UNL A   1      37.200  32.818  30.103  1.00  0.00    -0.014 A 
BRANCH  44  45
ATOM     45  C   UNL A   1      38.525  32.242  30.434  1.00  0.00     0.031 A 
ATOM     46  C   UNL A   1      38.961  30.947  29.811  1.00  0.00     0.074 A 
ATOM     47  C   UNL A   1      39.323  32.863  31.322  1.00  0.00     0.049 A 
ATOM     48  N   UNL A   1      40.063  30.268  30.001  1.00  0.00    -0.248 NA
ATOM     49  C   UNL A   1      38.024  30.323  28.863  1.00  0.00     0.031 C 
ATOM     50  C   UNL A   1      39.004  34.107  32.024  1.00  0.00     0.029 A 
ATOM     51  N   UNL A   1      40.568  32.525  31.789  1.00  0.00    -0.354 N 
ATOM     52  C   UNL A   1      39.942  29.125  29.223  1.00  0.00     0.074 A 
ATOM     53  C   UNL A   1      38.653  29.193  28.567  1.00  0.00     0.031 C 
ATOM     54  C   UNL A   1      40.034  34.437  32.819  1.00  0.00     0.029 A 
ATOM     55  C   UNL A   1      41.077  33.423  32.693  1.00  0.00     0.049 A 
ATOM     56  H   UNL A   1      41.050  31.717  31.502  1.00  0.00     0.167 HD
ATOM     57  C   UNL A   1      40.829  28.115  29.059  1.00  0.00     0.037 A 
ATOM     58  C   UNL A   1      42.257  33.430  33.342  1.00  0.00     0.037 A 
ATOM     59  C   UNL A   1      42.130  28.063  29.667  1.00  0.00     0.049 A 
ATOM     60  C   UNL A   1      43.248  32.328  33.097  1.00  0.00     0.074 A 
ATOM     61  C   UNL A   1      43.120  27.107  29.511  1.00  0.00     0.029 A 
ATOM     62  N   UNL A   1      42.627  29.016  30.541  1.00  0.00    -0.354 N 
ATOM     63  N   UNL A   1      43.137  31.277  32.324  1.00  0.00    -0.248 NA
ATOM     64  C   UNL A   1      44.530  32.421  33.809  1.00  0.00     0.031 C 
ATOM     65  C   UNL A   1      44.214  27.478  30.303  1.00  0.00     0.029 A 
ATOM     66  C   UNL A   1      43.908  28.671  30.936  1.00  0.00     0.049 A 
ATOM     67  H   UNL A   1      42.141  29.819  30.838  1.00  0.00     0.167 HD
ATOM     68  C   UNL A   1      44.340  30.595  32.437  1.00  0.00     0.074 A 
ATOM     69  C   UNL A   1      45.168  31.352  33.353  1.00  0.00     0.031 C 
ATOM     70  C   UNL A   1      44.723  29.444  31.835  1.00  0.00     0.037 A 
BRANCH  57  71
ATOM     71  C   UNL A   1      40.410  26.977  28.181  1.00  0.00     0.057 A 
ATOM     72  C   UNL A   1      40.883  26.851  26.869  1.00  0.00     0.134 A 
ATOM     73  C   UNL A   1      39.538  25.992  28.658  1.00  0.00     0.134 A 
ATOM     74  F   UNL A   1      41.707  27.774  26.352  1.00  0.00    -0.206 F 
ATOM     75  C   UNL A   1      40.487  25.789  26.054  1.00  0.00     0.040 A 
ATOM     76  C   UNL A   1      39.148  24.917  27.858  1.00  0.00     0.040 A 
ATOM     77  F   UNL A   1      39.051  26.060  29.906  1.00  0.00    -0.206 F 
ATOM     78  C   UNL A   1      39.620  24.817  26.550  1.00  0.00     0.006 A 
ENDBRANCH  57  71
BRANCH  58  79
ATOM     79  C   UNL A   1      42.585  34.545  34.257  1.00  0.00     0.057 A 
ATOM     80  C   UNL A   1      43.197  35.708  33.776  1.00  0.00     0.134 A 
ATOM     81  C   UNL A   1      42.296  34.478  35.624  1.00  0.00     0.134 A 
ATOM     82  F   UNL A   1      43.511  35.817  32.477  1.00  0.00    -0.206 F 
ATOM     83  C   UNL A   1      43.520  36.765  34.626  1.00  0.00     0.040 A 
ATOM     84  C   UNL A   1      42.602  35.533  36.483  1.00  0.00     0.040 A 
ATOM     85  F   UNL A   1      41.708  33.388  36.137  1.00  0.00    -0.206 F 
ATOM     86  C   UNL A   1      43.220  36.680  35.985  1.00  0.00     0.006 A 
ENDBRANCH  58  79
BRANCH  70  87
ATOM     87  C   UNL A   1      46.107  28.954  32.125  1.00  0.00     0.057 A 
ATOM     88  C   UNL A   1      46.400  28.236  33.290  1.00  0.00     0.134 A 
ATOM     89  C   UNL A   1      47.146  29.178  31.215  1.00  0.00     0.134 A 
ATOM     90  F   UNL A   1      45.445  28.004  34.203  1.00  0.00    -0.206 F 
ATOM     91  C   UNL A   1      47.687  27.765  33.546  1.00  0.00     0.040 A 
ATOM     92  C   UNL A   1      48.435  28.702  31.455  1.00  0.00     0.040 A 
ATOM     93  F   UNL A   1      46.924  29.860  30.081  1.00  0.00    -0.206 F 
ATOM     94  C   UNL A   1      48.709  27.993  32.624  1.00  0.00     0.006 A 
ENDBRANCH  70  87
ENDBRANCH  44  45
ENDBRANCH  36  39
ENDBRANCH  34  35
ENDBRANCH  33  34
ENDBRANCH  32  33
ENDBRANCH  31  32
ENDBRANCH   1  31
TORSDOF 17
ENDMDL
