MODEL 1
REMARK VINA RESULT:     -11.9      0.000      0.000
REMARK SMILES C[C@@H](C(=O)NCCCCCCNC(=O)c1ccc(-c2c3nc(c(-c4c(F)cccc4F)c4ccc([nH]4)c(-c4c(F)cccc4F)c4nc(c(-c5c(F)cccc5F)c5ccc2[nH]5)C=C4)C=C3)cc1)c1ccc(C[C@H]2CCCC2=O)c(Br)c1
REMARK SMILES IDX 8 1 7 2 6 3 5 4 3 5 4 6 2 8 1 9 69 10 70 11 82 12 71 13
REMARK SMILES IDX 80 14 72 15 81 16 73 17 74 18 75 19 78 20 76 21 77 22 79 23
REMARK SMILES IDX 9 24 10 25 11 26 12 27 13 28 14 30 15 31 16 32 68 33 17 34
REMARK SMILES IDX 67 35 18 36 19 37 20 38 61 39 21 40 66 41 60 42 62 43 22 44
REMARK SMILES IDX 65 45 59 46 58 47 23 49 49 50 32 51 48 52 33 53 36 54 47 55
REMARK SMILES IDX 63 56 34 57 35 58 46 60 64 61 37 62 24 63 25 64 30 65 26 66
REMARK SMILES IDX 27 67 29 68 31 69 28 70 50 71 51 72 56 73 52 74 53 75 55 76
REMARK SMILES IDX 57 77 54 78 38 79 39 80 44 81 40 82 41 83 43 84 45 85 42 86
REMARK H PARENT 5 7 12 29 62 48 36 59
REMARK Flexibility Score: inf
ROOT
ATOM      1  C   UNL A   1      32.667  29.514  27.222  1.00  0.00     0.002 C 
ENDROOT
BRANCH   1   2
ATOM      2  C   UNL A   1      32.817  28.058  26.763  1.00  0.00     0.021 C 
BRANCH   2   3
ATOM      3  C   UNL A   1      31.505  27.411  26.307  1.00  0.00     0.116 C 
BRANCH   3   4
ATOM      4  N   UNL A   1      31.359  26.108  26.922  1.00  0.00    -0.356 N 
ATOM      5  C   UNL A   1      31.255  24.878  26.338  1.00  0.00     0.227 C 
ATOM      6  O   UNL A   1      30.814  23.969  27.043  1.00  0.00    -0.274 OA
ATOM      7  H   UNL A   1      31.330  26.109  27.906  1.00  0.00     0.163 HD
BRANCH   5   8
ATOM      8  C   UNL A   1      31.726  24.674  24.882  1.00  0.00     0.105 C 
ATOM      9  C   UNL A   1      30.537  24.860  23.929  1.00  0.00     0.023 C 
BRANCH   8  10
ATOM     10  C   UNL A   1      32.447  23.333  24.687  1.00  0.00    -0.035 A 
ATOM     11  C   UNL A   1      31.814  22.215  24.135  1.00  0.00     0.005 A 
ATOM     12  C   UNL A   1      33.796  23.193  25.060  1.00  0.00     0.020 A 
ATOM     13  C   UNL A   1      32.465  20.985  24.058  1.00  0.00     0.005 A 
ATOM     14  C   UNL A   1      34.441  21.947  25.019  1.00  0.00     0.021 A 
ATOM     15  C   UNL A   1      33.763  20.809  24.560  1.00  0.00    -0.033 A 
ATOM     16  Br  UNL A   1      36.240  21.898  25.632  1.00  0.00    -0.051 Br
BRANCH  15  17
ATOM     17  C   UNL A   1      34.318  19.403  24.606  1.00  0.00     0.048 C 
BRANCH  17  18
ATOM     18  C   UNL A   1      33.378  18.286  24.118  1.00  0.00     0.060 C 
ATOM     19  C   UNL A   1      33.963  17.268  23.134  1.00  0.00     0.012 C 
ATOM     20  C   UNL A   1      32.891  17.391  25.236  1.00  0.00     0.136 C 
ATOM     21  C   UNL A   1      34.364  16.051  23.959  1.00  0.00     0.009 C 
ATOM     22  C   UNL A   1      33.336  15.961  25.077  1.00  0.00     0.076 C 
ATOM     23  O   UNL A   1      32.197  17.782  26.168  1.00  0.00    -0.299 OA
ENDBRANCH  17  18
ENDBRANCH  15  17
ENDBRANCH   8  10
ENDBRANCH   5   8
ENDBRANCH   3   4
ENDBRANCH   2   3
ENDBRANCH   1   2
BRANCH   1  24
ATOM     24  C   UNL A   1      31.918  30.423  26.244  1.00  0.00     0.002 C 
BRANCH  24  25
ATOM     25  C   UNL A   1      31.570  31.805  26.798  1.00  0.00     0.021 C 
BRANCH  25  26
ATOM     26  C   UNL A   1      32.767  32.585  27.324  1.00  0.00     0.116 C 
BRANCH  26  27
ATOM     27  N   UNL A   1      32.440  33.980  27.580  1.00  0.00    -0.352 N 
ATOM     28  C   UNL A   1      32.979  34.828  28.515  1.00  0.00     0.251 C 
ATOM     29  H   UNL A   1      31.737  34.366  27.007  1.00  0.00     0.163 HD
ATOM     30  O   UNL A   1      32.468  35.918  28.747  1.00  0.00    -0.269 OA
BRANCH  28  31
ATOM     31  C   UNL A   1      34.181  34.398  29.257  1.00  0.00     0.039 A 
ATOM     32  C   UNL A   1      34.033  33.645  30.424  1.00  0.00     0.014 A 
ATOM     33  C   UNL A   1      35.452  34.715  28.769  1.00  0.00     0.014 A 
ATOM     34  C   UNL A   1      35.167  33.151  31.071  1.00  0.00     0.010 A 
ATOM     35  C   UNL A   1      36.573  34.163  29.372  1.00  0.00     0.010 A 
ATOM     36  C   UNL A   1      36.443  33.379  30.531  1.00  0.00    -0.014 A 
BRANCH  36  37
ATOM     37  C   UNL A   1      37.671  32.829  31.155  1.00  0.00     0.031 A 
ATOM     38  C   UNL A   1      38.332  31.626  30.547  1.00  0.00     0.074 A 
ATOM     39  C   UNL A   1      38.115  33.329  32.322  1.00  0.00     0.049 A 
ATOM     40  N   UNL A   1      39.297  30.882  31.022  1.00  0.00    -0.248 NA
ATOM     41  C   UNL A   1      37.807  31.178  29.248  1.00  0.00     0.031 C 
ATOM     42  C   UNL A   1      37.532  34.468  33.032  1.00  0.00     0.029 A 
ATOM     43  N   UNL A   1      39.143  32.920  33.134  1.00  0.00    -0.354 N 
ATOM     44  C   UNL A   1      39.473  29.861  30.096  1.00  0.00     0.074 A 
ATOM     45  C   UNL A   1      38.482  30.054  29.060  1.00  0.00     0.031 C 
ATOM     46  C   UNL A   1      38.207  34.663  34.176  1.00  0.00     0.029 A 
ATOM     47  C   UNL A   1      39.239  33.638  34.301  1.00  0.00     0.049 A 
ATOM     48  H   UNL A   1      39.753  32.182  32.903  1.00  0.00     0.167 HD
ATOM     49  C   UNL A   1      40.386  28.861  30.104  1.00  0.00     0.037 A 
ATOM     50  C   UNL A   1      40.049  33.473  35.364  1.00  0.00     0.037 A 
ATOM     51  C   UNL A   1      41.384  28.693  31.126  1.00  0.00     0.049 A 
ATOM     52  C   UNL A   1      41.061  32.360  35.355  1.00  0.00     0.074 A 
ATOM     53  C   UNL A   1      42.403  27.761  31.189  1.00  0.00     0.029 A 
ATOM     54  N   UNL A   1      41.481  29.473  32.269  1.00  0.00    -0.354 N 
ATOM     55  N   UNL A   1      41.263  31.441  34.443  1.00  0.00    -0.248 NA
ATOM     56  C   UNL A   1      41.957  32.264  36.516  1.00  0.00     0.031 C 
ATOM     57  C   UNL A   1      43.087  27.945  32.395  1.00  0.00     0.029 A 
ATOM     58  C   UNL A   1      42.528  29.026  33.058  1.00  0.00     0.049 A 
ATOM     59  H   UNL A   1      40.894  30.232  32.487  1.00  0.00     0.167 HD
ATOM     60  C   UNL A   1      42.327  30.675  34.903  1.00  0.00     0.074 A 
ATOM     61  C   UNL A   1      42.727  31.238  36.176  1.00  0.00     0.031 C 
ATOM     62  C   UNL A   1      42.921  29.605  34.319  1.00  0.00     0.037 A 
BRANCH  49  63
ATOM     63  C   UNL A   1      40.327  27.869  28.979  1.00  0.00     0.057 A 
ATOM     64  C   UNL A   1      41.053  28.045  27.792  1.00  0.00     0.134 A 
ATOM     65  C   UNL A   1      39.528  26.723  29.081  1.00  0.00     0.134 A 
ATOM     66  F   UNL A   1      41.828  29.127  27.623  1.00  0.00    -0.206 F 
ATOM     67  C   UNL A   1      40.951  27.143  26.732  1.00  0.00     0.040 A 
ATOM     68  C   UNL A   1      39.443  25.796  28.041  1.00  0.00     0.040 A 
ATOM     69  F   UNL A   1      38.814  26.486  30.191  1.00  0.00    -0.206 F 
ATOM     70  C   UNL A   1      40.146  26.012  26.857  1.00  0.00     0.006 A 
ENDBRANCH  49  63
BRANCH  50  71
ATOM     71  C   UNL A   1      39.933  34.398  36.518  1.00  0.00     0.057 A 
ATOM     72  C   UNL A   1      39.177  34.056  37.645  1.00  0.00     0.134 A 
ATOM     73  C   UNL A   1      40.608  35.625  36.540  1.00  0.00     0.134 A 
ATOM     74  F   UNL A   1      38.497  32.901  37.676  1.00  0.00    -0.206 F 
ATOM     75  C   UNL A   1      39.094  34.902  38.753  1.00  0.00     0.040 A 
ATOM     76  C   UNL A   1      40.551  36.471  37.650  1.00  0.00     0.040 A 
ATOM     77  F   UNL A   1      41.357  36.005  35.495  1.00  0.00    -0.206 F 
ATOM     78  C   UNL A   1      39.790  36.109  38.760  1.00  0.00     0.006 A 
ENDBRANCH  50  71
BRANCH  62  79
ATOM     79  C   UNL A   1      44.097  28.991  35.019  1.00  0.00     0.057 A 
ATOM     80  C   UNL A   1      43.951  27.923  35.911  1.00  0.00     0.134 A 
ATOM     81  C   UNL A   1      45.398  29.417  34.724  1.00  0.00     0.134 A 
ATOM     82  F   UNL A   1      42.731  27.476  36.245  1.00  0.00    -0.206 F 
ATOM     83  C   UNL A   1      45.060  27.302  36.490  1.00  0.00     0.040 A 
ATOM     84  C   UNL A   1      46.514  28.790  35.276  1.00  0.00     0.040 A 
ATOM     85  F   UNL A   1      45.605  30.432  33.870  1.00  0.00    -0.206 F 
ATOM     86  C   UNL A   1      46.347  27.729  36.162  1.00  0.00     0.006 A 
ENDBRANCH  62  79
ENDBRANCH  36  37
ENDBRANCH  28  31
ENDBRANCH  26  27
ENDBRANCH  25  26
ENDBRANCH  24  25
ENDBRANCH   1  24
TORSDOF 16
ENDMDL
MODEL 2
REMARK VINA RESULT:     -11.8      5.403     10.879
REMARK SMILES C[C@@H](C(=O)NCCCCCCNC(=O)c1ccc(-c2c3nc(c(-c4c(F)cccc4F)c4ccc([nH]4)c(-c4c(F)cccc4F)c4nc(c(-c5c(F)cccc5F)c5ccc2[nH]5)C=C4)C=C3)cc1)c1ccc(C[C@H]2CCCC2=O)c(Br)c1
REMARK SMILES IDX 8 1 7 2 6 3 5 4 3 5 4 6 2 8 1 9 69 10 70 11 82 12 71 13
REMARK SMILES IDX 80 14 72 15 81 16 73 17 74 18 75 19 78 20 76 21 77 22 79 23
REMARK SMILES IDX 9 24 10 25 11 26 12 27 13 28 14 30 15 31 16 32 68 33 17 34
REMARK SMILES IDX 67 35 18 36 19 37 20 38 61 39 21 40 66 41 60 42 62 43 22 44
REMARK SMILES IDX 65 45 59 46 58 47 23 49 49 50 32 51 48 52 33 53 36 54 47 55
REMARK SMILES IDX 63 56 34 57 35 58 46 60 64 61 37 62 24 63 25 64 30 65 26 66
REMARK SMILES IDX 27 67 29 68 31 69 28 70 50 71 51 72 56 73 52 74 53 75 55 76
REMARK SMILES IDX 57 77 54 78 38 79 39 80 44 81 40 82 41 83 43 84 45 85 42 86
REMARK H PARENT 5 7 12 29 62 48 36 59
REMARK Flexibility Score: inf
ROOT
ATOM      1  C   UNL A   1      36.634  22.447  24.403  1.00  0.00     0.002 C 
ENDROOT
BRANCH   1   2
ATOM      2  C   UNL A   1      35.991  23.683  25.048  1.00  0.00     0.021 C 
BRANCH   2   3
ATOM      3  C   UNL A   1      34.575  23.441  25.582  1.00  0.00     0.116 C 
BRANCH   3   4
ATOM      4  N   UNL A   1      33.640  23.361  24.479  1.00  0.00    -0.356 N 
ATOM      5  C   UNL A   1      32.313  23.679  24.441  1.00  0.00     0.227 C 
ATOM      6  O   UNL A   1      31.665  23.222  23.497  1.00  0.00    -0.274 OA
ATOM      7  H   UNL A   1      34.017  23.030  23.632  1.00  0.00     0.163 HD
BRANCH   5   8
ATOM      8  C   UNL A   1      31.711  24.607  25.517  1.00  0.00     0.105 C 
ATOM      9  C   UNL A   1      30.606  23.861  26.277  1.00  0.00     0.023 C 
BRANCH   8  10
ATOM     10  C   UNL A   1      31.237  25.945  24.932  1.00  0.00    -0.035 A 
ATOM     11  C   UNL A   1      30.357  26.021  23.848  1.00  0.00     0.005 A 
ATOM     12  C   UNL A   1      31.682  27.159  25.488  1.00  0.00     0.020 A 
ATOM     13  C   UNL A   1      30.020  27.248  23.279  1.00  0.00     0.005 A 
ATOM     14  C   UNL A   1      31.375  28.392  24.894  1.00  0.00     0.021 A 
ATOM     15  C   UNL A   1      30.574  28.450  23.745  1.00  0.00    -0.033 A 
ATOM     16  Br  UNL A   1      32.114  29.941  25.714  1.00  0.00    -0.051 Br
BRANCH  15  17
ATOM     17  C   UNL A   1      30.300  29.707  22.951  1.00  0.00     0.048 C 
BRANCH  17  18
ATOM     18  C   UNL A   1      28.898  30.321  23.114  1.00  0.00     0.060 C 
ATOM     19  C   UNL A   1      28.790  31.588  23.968  1.00  0.00     0.012 C 
ATOM     20  C   UNL A   1      28.296  30.779  21.803  1.00  0.00     0.136 C 
ATOM     21  C   UNL A   1      28.778  32.763  22.997  1.00  0.00     0.009 C 
ATOM     22  C   UNL A   1      28.044  32.263  21.761  1.00  0.00     0.076 C 
ATOM     23  O   UNL A   1      28.028  30.022  20.876  1.00  0.00    -0.299 OA
ENDBRANCH  17  18
ENDBRANCH  15  17
ENDBRANCH   8  10
ENDBRANCH   5   8
ENDBRANCH   3   4
ENDBRANCH   2   3
ENDBRANCH   1   2
BRANCH   1  24
ATOM     24  C   UNL A   1      36.503  21.156  25.217  1.00  0.00     0.002 C 
BRANCH  24  25
ATOM     25  C   UNL A   1      37.633  20.149  24.999  1.00  0.00     0.021 C 
BRANCH  25  26
ATOM     26  C   UNL A   1      38.910  20.471  25.764  1.00  0.00     0.116 C 
BRANCH  26  27
ATOM     27  N   UNL A   1      39.831  19.344  25.785  1.00  0.00    -0.352 N 
ATOM     28  C   UNL A   1      41.194  19.356  25.953  1.00  0.00     0.251 C 
ATOM     29  H   UNL A   1      39.423  18.457  25.660  1.00  0.00     0.163 HD
ATOM     30  O   UNL A   1      41.863  18.349  25.751  1.00  0.00    -0.269 OA
BRANCH  28  31
ATOM     31  C   UNL A   1      41.849  20.613  26.364  1.00  0.00     0.039 A 
ATOM     32  C   UNL A   1      42.340  21.482  25.387  1.00  0.00     0.014 A 
ATOM     33  C   UNL A   1      41.941  20.940  27.720  1.00  0.00     0.014 A 
ATOM     34  C   UNL A   1      42.868  22.717  25.768  1.00  0.00     0.010 A 
ATOM     35  C   UNL A   1      42.399  22.197  28.091  1.00  0.00     0.010 A 
ATOM     36  C   UNL A   1      42.871  23.096  27.119  1.00  0.00    -0.014 A 
BRANCH  36  37
ATOM     37  C   UNL A   1      43.373  24.419  27.564  1.00  0.00     0.031 A 
ATOM     38  C   UNL A   1      42.394  25.477  27.985  1.00  0.00     0.074 A 
ATOM     39  C   UNL A   1      44.684  24.706  27.474  1.00  0.00     0.049 A 
ATOM     40  N   UNL A   1      42.599  26.743  28.235  1.00  0.00    -0.248 NA
ATOM     41  C   UNL A   1      40.988  25.058  28.098  1.00  0.00     0.031 C 
ATOM     42  C   UNL A   1      45.728  23.777  27.039  1.00  0.00     0.029 A 
ATOM     43  N   UNL A   1      45.359  25.878  27.713  1.00  0.00    -0.354 N 
ATOM     44  C   UNL A   1      41.346  27.279  28.504  1.00  0.00     0.074 A 
ATOM     45  C   UNL A   1      40.384  26.212  28.337  1.00  0.00     0.031 C 
ATOM     46  C   UNL A   1      46.908  24.414  27.036  1.00  0.00     0.029 A 
ATOM     47  C   UNL A   1      46.700  25.806  27.426  1.00  0.00     0.049 A 
ATOM     48  H   UNL A   1      44.923  26.692  28.056  1.00  0.00     0.167 HD
ATOM     49  C   UNL A   1      41.028  28.544  28.870  1.00  0.00     0.037 A 
ATOM     50  C   UNL A   1      47.650  26.761  27.447  1.00  0.00     0.037 A 
ATOM     51  C   UNL A   1      41.995  29.592  29.058  1.00  0.00     0.049 A 
ATOM     52  C   UNL A   1      47.282  28.159  27.859  1.00  0.00     0.074 A 
ATOM     53  C   UNL A   1      41.788  30.885  29.502  1.00  0.00     0.029 A 
ATOM     54  N   UNL A   1      43.354  29.466  28.807  1.00  0.00    -0.354 N 
ATOM     55  N   UNL A   1      46.105  28.639  28.178  1.00  0.00    -0.248 NA
ATOM     56  C   UNL A   1      48.370  29.144  27.921  1.00  0.00     0.031 C 
ATOM     57  C   UNL A   1      43.014  31.558  29.470  1.00  0.00     0.029 A 
ATOM     58  C   UNL A   1      43.994  30.668  29.059  1.00  0.00     0.049 A 
ATOM     59  H   UNL A   1      43.798  28.645  28.494  1.00  0.00     0.167 HD
ATOM     60  C   UNL A   1      46.312  29.973  28.505  1.00  0.00     0.074 A 
ATOM     61  C   UNL A   1      47.729  30.226  28.347  1.00  0.00     0.031 C 
ATOM     62  C   UNL A   1      45.409  30.901  28.907  1.00  0.00     0.037 A 
BRANCH  49  63
ATOM     63  C   UNL A   1      39.574  28.856  29.070  1.00  0.00     0.057 A 
ATOM     64  C   UNL A   1      38.947  28.717  30.317  1.00  0.00     0.134 A 
ATOM     65  C   UNL A   1      38.786  29.298  28.000  1.00  0.00     0.134 A 
ATOM     66  F   UNL A   1      39.640  28.286  31.382  1.00  0.00    -0.206 F 
ATOM     67  C   UNL A   1      37.582  28.960  30.480  1.00  0.00     0.040 A 
ATOM     68  C   UNL A   1      37.427  29.576  28.158  1.00  0.00     0.040 A 
ATOM     69  F   UNL A   1      39.322  29.462  26.781  1.00  0.00    -0.206 F 
ATOM     70  C   UNL A   1      36.820  29.395  29.398  1.00  0.00     0.006 A 
ENDBRANCH  49  63
BRANCH  50  71
ATOM     71  C   UNL A   1      49.042  26.410  27.072  1.00  0.00     0.057 A 
ATOM     72  C   UNL A   1      49.955  25.952  28.028  1.00  0.00     0.134 A 
ATOM     73  C   UNL A   1      49.480  26.483  25.743  1.00  0.00     0.134 A 
ATOM     74  F   UNL A   1      49.598  25.876  29.318  1.00  0.00    -0.206 F 
ATOM     75  C   UNL A   1      51.255  25.582  27.678  1.00  0.00     0.040 A 
ATOM     76  C   UNL A   1      50.770  26.096  25.376  1.00  0.00     0.040 A 
ATOM     77  F   UNL A   1      48.649  26.904  24.778  1.00  0.00    -0.206 F 
ATOM     78  C   UNL A   1      51.662  25.646  26.347  1.00  0.00     0.006 A 
ENDBRANCH  50  71
BRANCH  62  79
ATOM     79  C   UNL A   1      45.920  32.269  29.249  1.00  0.00     0.057 A 
ATOM     80  C   UNL A   1      46.405  32.582  30.523  1.00  0.00     0.134 A 
ATOM     81  C   UNL A   1      46.011  33.257  28.259  1.00  0.00     0.134 A 
ATOM     82  F   UNL A   1      46.335  31.684  31.517  1.00  0.00    -0.206 F 
ATOM     83  C   UNL A   1      46.960  33.832  30.804  1.00  0.00     0.040 A 
ATOM     84  C   UNL A   1      46.585  34.501  28.521  1.00  0.00     0.040 A 
ATOM     85  F   UNL A   1      45.571  33.017  27.014  1.00  0.00    -0.206 F 
ATOM     86  C   UNL A   1      47.061  34.791  29.797  1.00  0.00     0.006 A 
ENDBRANCH  62  79
ENDBRANCH  36  37
ENDBRANCH  28  31
ENDBRANCH  26  27
ENDBRANCH  25  26
ENDBRANCH  24  25
ENDBRANCH   1  24
TORSDOF 16
ENDMDL
MODEL 3
REMARK VINA RESULT:     -11.8      1.378      2.183
REMARK SMILES C[C@@H](C(=O)NCCCCCCNC(=O)c1ccc(-c2c3nc(c(-c4c(F)cccc4F)c4ccc([nH]4)c(-c4c(F)cccc4F)c4nc(c(-c5c(F)cccc5F)c5ccc2[nH]5)C=C4)C=C3)cc1)c1ccc(C[C@H]2CCCC2=O)c(Br)c1
REMARK SMILES IDX 8 1 7 2 6 3 5 4 3 5 4 6 2 8 1 9 69 10 70 11 82 12 71 13
REMARK SMILES IDX 80 14 72 15 81 16 73 17 74 18 75 19 78 20 76 21 77 22 79 23
REMARK SMILES IDX 9 24 10 25 11 26 12 27 13 28 14 30 15 31 16 32 68 33 17 34
REMARK SMILES IDX 67 35 18 36 19 37 20 38 61 39 21 40 66 41 60 42 62 43 22 44
REMARK SMILES IDX 65 45 59 46 58 47 23 49 49 50 32 51 48 52 33 53 36 54 47 55
REMARK SMILES IDX 63 56 34 57 35 58 46 60 64 61 37 62 24 63 25 64 30 65 26 66
REMARK SMILES IDX 27 67 29 68 31 69 28 70 50 71 51 72 56 73 52 74 53 75 55 76
REMARK SMILES IDX 57 77 54 78 38 79 39 80 44 81 40 82 41 83 43 84 45 85 42 86
REMARK H PARENT 5 7 12 29 62 48 36 59
REMARK Flexibility Score: inf
ROOT
ATOM      1  C   UNL A   1      32.287  29.907  26.942  1.00  0.00     0.002 C 
ENDROOT
BRANCH   1   2
ATOM      2  C   UNL A   1      31.586  28.640  27.449  1.00  0.00     0.021 C 
BRANCH   2   3
ATOM      3  C   UNL A   1      31.897  27.386  26.625  1.00  0.00     0.116 C 
BRANCH   3   4
ATOM      4  N   UNL A   1      31.216  27.454  25.348  1.00  0.00    -0.356 N 
ATOM      5  C   UNL A   1      31.729  27.668  24.101  1.00  0.00     0.227 C 
ATOM      6  O   UNL A   1      30.929  28.008  23.228  1.00  0.00    -0.274 OA
ATOM      7  H   UNL A   1      30.241  27.329  25.385  1.00  0.00     0.163 HD
BRANCH   5   8
ATOM      8  C   UNL A   1      33.231  27.434  23.834  1.00  0.00     0.105 C 
ATOM      9  C   UNL A   1      33.661  28.229  22.593  1.00  0.00     0.023 C 
BRANCH   8  10
ATOM     10  C   UNL A   1      33.580  25.943  23.741  1.00  0.00    -0.035 A 
ATOM     11  C   UNL A   1      33.087  25.119  22.723  1.00  0.00     0.005 A 
ATOM     12  C   UNL A   1      34.430  25.352  24.694  1.00  0.00     0.020 A 
ATOM     13  C   UNL A   1      33.345  23.749  22.719  1.00  0.00     0.005 A 
ATOM     14  C   UNL A   1      34.659  23.968  24.713  1.00  0.00     0.021 A 
ATOM     15  C   UNL A   1      34.076  23.136  23.748  1.00  0.00    -0.033 A 
ATOM     16  Br  UNL A   1      35.766  23.306  26.111  1.00  0.00    -0.051 Br
BRANCH  15  17
ATOM     17  C   UNL A   1      34.145  21.626  23.761  1.00  0.00     0.048 C 
BRANCH  17  18
ATOM     18  C   UNL A   1      32.879  20.893  24.239  1.00  0.00     0.060 C 
ATOM     19  C   UNL A   1      32.321  19.801  23.321  1.00  0.00     0.012 C 
ATOM     20  C   UNL A   1      33.085  20.134  25.532  1.00  0.00     0.136 C 
ATOM     21  C   UNL A   1      32.836  18.473  23.866  1.00  0.00     0.009 C 
ATOM     22  C   UNL A   1      32.894  18.648  25.376  1.00  0.00     0.076 C 
ATOM     23  O   UNL A   1      33.367  20.670  26.599  1.00  0.00    -0.299 OA
ENDBRANCH  17  18
ENDBRANCH  15  17
ENDBRANCH   8  10
ENDBRANCH   5   8
ENDBRANCH   3   4
ENDBRANCH   2   3
ENDBRANCH   1   2
BRANCH   1  24
ATOM     24  C   UNL A   1      31.419  30.816  26.068  1.00  0.00     0.002 C 
BRANCH  24  25
ATOM     25  C   UNL A   1      31.333  32.266  26.546  1.00  0.00     0.021 C 
BRANCH  25  26
ATOM     26  C   UNL A   1      32.639  32.818  27.101  1.00  0.00     0.116 C 
BRANCH  26  27
ATOM     27  N   UNL A   1      32.458  34.116  27.733  1.00  0.00    -0.352 N 
ATOM     28  C   UNL A   1      33.150  34.659  28.787  1.00  0.00     0.251 C 
ATOM     29  H   UNL A   1      31.744  34.679  27.356  1.00  0.00     0.163 HD
ATOM     30  O   UNL A   1      32.758  35.681  29.340  1.00  0.00    -0.269 OA
BRANCH  28  31
ATOM     31  C   UNL A   1      34.371  33.980  29.263  1.00  0.00     0.039 A 
ATOM     32  C   UNL A   1      35.618  34.407  28.801  1.00  0.00     0.014 A 
ATOM     33  C   UNL A   1      34.274  32.944  30.196  1.00  0.00     0.014 A 
ATOM     34  C   UNL A   1      36.778  33.835  29.325  1.00  0.00     0.010 A 
ATOM     35  C   UNL A   1      35.429  32.428  30.768  1.00  0.00     0.010 A 
ATOM     36  C   UNL A   1      36.692  32.865  30.336  1.00  0.00    -0.014 A 
BRANCH  36  37
ATOM     37  C   UNL A   1      37.899  32.270  30.960  1.00  0.00     0.031 A 
ATOM     38  C   UNL A   1      38.616  31.152  30.260  1.00  0.00     0.074 A 
ATOM     39  C   UNL A   1      38.272  32.646  32.197  1.00  0.00     0.049 A 
ATOM     40  N   UNL A   1      39.572  30.376  30.701  1.00  0.00    -0.248 NA
ATOM     41  C   UNL A   1      38.167  30.842  28.894  1.00  0.00     0.031 C 
ATOM     42  C   UNL A   1      37.629  33.690  32.995  1.00  0.00     0.029 A 
ATOM     43  N   UNL A   1      39.266  32.166  33.013  1.00  0.00    -0.354 N 
ATOM     44  C   UNL A   1      39.816  29.466  29.681  1.00  0.00     0.074 A 
ATOM     45  C   UNL A   1      38.875  29.756  28.620  1.00  0.00     0.031 C 
ATOM     46  C   UNL A   1      38.240  33.768  34.187  1.00  0.00     0.029 A 
ATOM     47  C   UNL A   1      39.287  32.752  34.254  1.00  0.00     0.049 A 
ATOM     48  H   UNL A   1      39.902  31.467  32.735  1.00  0.00     0.167 HD
ATOM     49  C   UNL A   1      40.749  28.486  29.627  1.00  0.00     0.037 A 
ATOM     50  C   UNL A   1      40.046  32.484  35.334  1.00  0.00     0.037 A 
ATOM     51  C   UNL A   1      41.697  28.222  30.676  1.00  0.00     0.049 A 
ATOM     52  C   UNL A   1      41.080  31.396  35.257  1.00  0.00     0.074 A 
ATOM     53  C   UNL A   1      42.732  27.305  30.691  1.00  0.00     0.029 A 
ATOM     54  N   UNL A   1      41.719  28.873  31.901  1.00  0.00    -0.354 N 
ATOM     55  N   UNL A   1      41.348  30.585  34.263  1.00  0.00    -0.248 NA
ATOM     56  C   UNL A   1      41.918  31.187  36.446  1.00  0.00     0.031 C 
ATOM     57  C   UNL A   1      43.349  27.366  31.944  1.00  0.00     0.029 A 
ATOM     58  C   UNL A   1      42.734  28.359  32.691  1.00  0.00     0.049 A 
ATOM     59  H   UNL A   1      41.105  29.594  32.170  1.00  0.00     0.167 HD
ATOM     60  C   UNL A   1      42.404  29.790  34.692  1.00  0.00     0.074 A 
ATOM     61  C   UNL A   1      42.727  30.216  36.038  1.00  0.00     0.031 C 
ATOM     62  C   UNL A   1      43.050  28.802  34.026  1.00  0.00     0.037 A 
BRANCH  49  63
ATOM     63  C   UNL A   1      40.769  27.623  28.399  1.00  0.00     0.057 A 
ATOM     64  C   UNL A   1      41.524  27.958  27.266  1.00  0.00     0.134 A 
ATOM     65  C   UNL A   1      40.018  26.442  28.346  1.00  0.00     0.134 A 
ATOM     66  F   UNL A   1      42.257  29.082  27.245  1.00  0.00    -0.206 F 
ATOM     67  C   UNL A   1      41.495  27.175  26.110  1.00  0.00     0.040 A 
ATOM     68  C   UNL A   1      40.006  25.633  27.208  1.00  0.00     0.040 A 
ATOM     69  F   UNL A   1      39.279  26.056  29.397  1.00  0.00    -0.206 F 
ATOM     70  C   UNL A   1      40.736  26.006  26.082  1.00  0.00     0.006 A 
ENDBRANCH  49  63
BRANCH  50  71
ATOM     71  C   UNL A   1      39.851  33.274  36.575  1.00  0.00     0.057 A 
ATOM     72  C   UNL A   1      40.576  34.449  36.805  1.00  0.00     0.134 A 
ATOM     73  C   UNL A   1      38.905  32.899  37.538  1.00  0.00     0.134 A 
ATOM     74  F   UNL A   1      41.505  34.850  35.927  1.00  0.00    -0.206 F 
ATOM     75  C   UNL A   1      40.371  35.220  37.950  1.00  0.00     0.040 A 
ATOM     76  C   UNL A   1      38.675  33.673  38.677  1.00  0.00     0.040 A 
ATOM     77  F   UNL A   1      38.171  31.790  37.370  1.00  0.00    -0.206 F 
ATOM     78  C   UNL A   1      39.412  34.837  38.886  1.00  0.00     0.006 A 
ENDBRANCH  50  71
BRANCH  62  79
ATOM     79  C   UNL A   1      44.201  28.133  34.717  1.00  0.00     0.057 A 
ATOM     80  C   UNL A   1      45.488  28.682  34.712  1.00  0.00     0.134 A 
ATOM     81  C   UNL A   1      43.994  26.972  35.473  1.00  0.00     0.134 A 
ATOM     82  F   UNL A   1      45.754  29.786  33.998  1.00  0.00    -0.206 F 
ATOM     83  C   UNL A   1      46.532  28.097  35.432  1.00  0.00     0.040 A 
ATOM     84  C   UNL A   1      45.022  26.391  36.216  1.00  0.00     0.040 A 
ATOM     85  F   UNL A   1      42.781  26.401  35.525  1.00  0.00    -0.206 F 
ATOM     86  C   UNL A   1      46.296  26.954  36.196  1.00  0.00     0.006 A 
ENDBRANCH  62  79
ENDBRANCH  36  37
ENDBRANCH  28  31
ENDBRANCH  26  27
ENDBRANCH  25  26
ENDBRANCH  24  25
ENDBRANCH   1  24
TORSDOF 16
ENDMDL
