MODEL 1
REMARK VINA RESULT:     -11.7      0.000      0.000
REMARK SMILES Cc1c(Cl)ccc2c1C=C(C(=O)NCCCCCCNC(=O)c1ccc(-c3c4nc(c(-c5c(F)cccc5F)c5ccc([nH]5)c(-c5c(F)cccc5F)c5nc(c(-c6c(F)cccc6F)c6ccc3[nH]6)C=C5)C=C4)cc1)[C@@H](C(F)(F)F)O2
REMARK SMILES IDX 17 1 16 2 15 3 14 4 13 5 11 6 12 7 10 9 1 10 2 11 3 12 8 13
REMARK SMILES IDX 4 14 5 15 7 16 9 17 6 18 82 19 77 20 78 21 79 22 80 23 81 24
REMARK SMILES IDX 18 25 19 26 20 27 21 28 22 30 23 31 24 32 76 33 25 34 75 35
REMARK SMILES IDX 26 36 27 37 28 38 69 39 29 40 74 41 68 42 70 43 30 44 73 45
REMARK SMILES IDX 67 46 66 47 31 49 57 50 40 51 56 52 41 53 44 54 55 55 71 56
REMARK SMILES IDX 42 57 43 58 54 60 72 61 45 62 32 63 33 64 38 65 34 66 35 67
REMARK SMILES IDX 37 68 39 69 36 70 58 71 59 72 64 73 60 74 61 75 63 76 65 77
REMARK SMILES IDX 62 78 46 79 47 80 52 81 48 82 49 83 51 84 53 85 50 86
REMARK H PARENT 13 8 20 29 70 48 44 59
REMARK Flexibility Score: inf
ROOT
ATOM      1  C   UNL A   1      36.155  20.836  25.015  1.00  0.00     0.002 C 
ENDROOT
BRANCH   1   2
ATOM      2  C   UNL A   1      36.442  22.265  25.495  1.00  0.00     0.002 C 
BRANCH   2   3
ATOM      3  C   UNL A   1      35.343  22.910  26.347  1.00  0.00     0.021 C 
BRANCH   3   4
ATOM      4  C   UNL A   1      34.758  24.188  25.754  1.00  0.00     0.116 C 
BRANCH   4   5
ATOM      5  N   UNL A   1      33.322  24.258  25.937  1.00  0.00    -0.352 N 
ATOM      6  C   UNL A   1      32.230  23.613  25.467  1.00  0.00     0.251 C 
ATOM      7  O   UNL A   1      31.154  24.015  25.924  1.00  0.00    -0.270 OA
ATOM      8  H   UNL A   1      33.074  24.965  26.575  1.00  0.00     0.163 HD
BRANCH   6   9
ATOM      9  C   UNL A   1      32.236  22.489  24.481  1.00  0.00     0.067 C 
ATOM     10  C   UNL A   1      33.170  18.495  26.054  1.00  0.00     0.047 C 
ATOM     11  C   UNL A   1      32.807  18.786  24.618  1.00  0.00    -0.021 A 
ATOM     12  C   UNL A   1      32.809  17.717  23.691  1.00  0.00     0.044 A 
ATOM     13  C   UNL A   1      32.468  20.080  24.152  1.00  0.00     0.022 A 
ATOM     14  Cl  UNL A   1      33.198  16.097  24.164  1.00  0.00    -0.084 Cl
ATOM     15  C   UNL A   1      32.488  17.919  22.347  1.00  0.00     0.024 A 
ATOM     16  C   UNL A   1      32.167  20.260  22.794  1.00  0.00     0.128 A 
ATOM     17  C   UNL A   1      32.379  21.261  25.015  1.00  0.00     0.026 C 
ATOM     18  C   UNL A   1      32.165  19.192  21.900  1.00  0.00     0.048 A 
ATOM     19  O   UNL A   1      31.814  21.461  22.249  1.00  0.00    -0.475 OA
ATOM     20  C   UNL A   1      32.143  22.660  22.995  1.00  0.00     0.314 C 
BRANCH  20  21
ATOM     21  C   UNL A   1      33.392  23.309  22.377  1.00  0.00     0.429 C 
ATOM     22  F   UNL A   1      33.362  23.199  21.024  1.00  0.00    -0.167 F 
ATOM     23  F   UNL A   1      33.481  24.631  22.646  1.00  0.00    -0.167 F 
ATOM     24  F   UNL A   1      34.540  22.737  22.804  1.00  0.00    -0.167 F 
ENDBRANCH  20  21
ENDBRANCH   6   9
ENDBRANCH   4   5
ENDBRANCH   3   4
ENDBRANCH   2   3
ENDBRANCH   1   2
BRANCH   1  25
ATOM     25  C   UNL A   1      37.378  19.923  24.894  1.00  0.00     0.021 C 
BRANCH  25  26
ATOM     26  C   UNL A   1      38.640  20.463  25.554  1.00  0.00     0.116 C 
BRANCH  26  27
ATOM     27  N   UNL A   1      39.662  19.440  25.691  1.00  0.00    -0.352 N 
ATOM     28  C   UNL A   1      40.970  19.589  26.074  1.00  0.00     0.251 C 
ATOM     29  H   UNL A   1      39.378  18.520  25.482  1.00  0.00     0.163 HD
ATOM     30  O   UNL A   1      41.768  18.663  25.972  1.00  0.00    -0.269 OA
BRANCH  28  31
ATOM     31  C   UNL A   1      41.414  20.893  26.599  1.00  0.00     0.039 A 
ATOM     32  C   UNL A   1      41.907  21.851  25.711  1.00  0.00     0.014 A 
ATOM     33  C   UNL A   1      41.325  21.164  27.969  1.00  0.00     0.014 A 
ATOM     34  C   UNL A   1      42.279  23.105  26.195  1.00  0.00     0.010 A 
ATOM     35  C   UNL A   1      41.645  22.434  28.441  1.00  0.00     0.010 A 
ATOM     36  C   UNL A   1      42.138  23.407  27.559  1.00  0.00    -0.014 A 
BRANCH  36  37
ATOM     37  C   UNL A   1      42.563  24.723  28.089  1.00  0.00     0.031 A 
ATOM     38  C   UNL A   1      41.541  25.805  28.286  1.00  0.00     0.074 A 
ATOM     39  C   UNL A   1      43.860  24.953  28.358  1.00  0.00     0.049 A 
ATOM     40  N   UNL A   1      41.701  27.022  28.737  1.00  0.00    -0.248 NA
ATOM     41  C   UNL A   1      40.158  25.482  27.901  1.00  0.00     0.031 C 
ATOM     42  C   UNL A   1      44.949  23.994  28.167  1.00  0.00     0.029 A 
ATOM     43  N   UNL A   1      44.482  26.072  28.847  1.00  0.00    -0.354 N 
ATOM     44  C   UNL A   1      40.441  27.606  28.696  1.00  0.00     0.074 A 
ATOM     45  C   UNL A   1      39.542  26.634  28.114  1.00  0.00     0.031 C 
ATOM     46  C   UNL A   1      46.105  24.562  28.552  1.00  0.00     0.029 A 
ATOM     47  C   UNL A   1      45.838  25.927  28.999  1.00  0.00     0.049 A 
ATOM     48  H   UNL A   1      44.001  26.903  29.068  1.00  0.00     0.167 HD
ATOM     49  C   UNL A   1      40.061  28.829  29.132  1.00  0.00     0.037 A 
ATOM     50  C   UNL A   1      46.757  26.798  29.455  1.00  0.00     0.037 A 
ATOM     51  C   UNL A   1      40.955  29.794  29.714  1.00  0.00     0.049 A 
ATOM     52  C   UNL A   1      46.315  28.161  29.909  1.00  0.00     0.074 A 
ATOM     53  C   UNL A   1      40.664  31.043  30.230  1.00  0.00     0.029 A 
ATOM     54  N   UNL A   1      42.324  29.612  29.850  1.00  0.00    -0.354 N 
ATOM     55  N   UNL A   1      45.108  28.674  29.938  1.00  0.00    -0.248 NA
ATOM     56  C   UNL A   1      47.364  29.062  30.406  1.00  0.00     0.031 C 
ATOM     57  C   UNL A   1      41.864  31.634  30.645  1.00  0.00     0.029 A 
ATOM     58  C   UNL A   1      42.896  30.736  30.422  1.00  0.00     0.049 A 
ATOM     59  H   UNL A   1      42.815  28.803  29.579  1.00  0.00     0.167 HD
ATOM     60  C   UNL A   1      45.248  29.946  30.477  1.00  0.00     0.074 A 
ATOM     61  C   UNL A   1      46.656  30.118  30.776  1.00  0.00     0.031 C 
ATOM     62  C   UNL A   1      44.301  30.888  30.705  1.00  0.00     0.037 A 
BRANCH  49  63
ATOM     63  C   UNL A   1      38.608  29.177  28.988  1.00  0.00     0.057 A 
ATOM     64  C   UNL A   1      37.733  29.072  30.076  1.00  0.00     0.134 A 
ATOM     65  C   UNL A   1      38.080  29.637  27.774  1.00  0.00     0.134 A 
ATOM     66  F   UNL A   1      38.174  28.639  31.266  1.00  0.00    -0.206 F 
ATOM     67  C   UNL A   1      36.387  29.424  29.964  1.00  0.00     0.040 A 
ATOM     68  C   UNL A   1      36.741  30.015  27.657  1.00  0.00     0.040 A 
ATOM     69  F   UNL A   1      38.870  29.777  26.700  1.00  0.00    -0.206 F 
ATOM     70  C   UNL A   1      35.890  29.907  28.755  1.00  0.00     0.006 A 
ENDBRANCH  49  63
BRANCH  50  71
ATOM     71  C   UNL A   1      48.184  26.401  29.540  1.00  0.00     0.057 A 
ATOM     72  C   UNL A   1      48.705  25.780  30.681  1.00  0.00     0.134 A 
ATOM     73  C   UNL A   1      49.055  26.616  28.465  1.00  0.00     0.134 A 
ATOM     74  F   UNL A   1      47.920  25.552  31.744  1.00  0.00    -0.206 F 
ATOM     75  C   UNL A   1      50.041  25.384  30.750  1.00  0.00     0.040 A 
ATOM     76  C   UNL A   1      50.388  26.207  28.513  1.00  0.00     0.040 A 
ATOM     77  F   UNL A   1      48.608  27.189  27.339  1.00  0.00    -0.206 F 
ATOM     78  C   UNL A   1      50.885  25.591  29.660  1.00  0.00     0.006 A 
ENDBRANCH  50  71
BRANCH  62  79
ATOM     79  C   UNL A   1      44.760  32.174  31.324  1.00  0.00     0.057 A 
ATOM     80  C   UNL A   1      45.172  33.246  30.523  1.00  0.00     0.134 A 
ATOM     81  C   UNL A   1      44.801  32.349  32.714  1.00  0.00     0.134 A 
ATOM     82  F   UNL A   1      45.163  33.141  29.186  1.00  0.00    -0.206 F 
ATOM     83  C   UNL A   1      45.606  34.448  31.083  1.00  0.00     0.040 A 
ATOM     84  C   UNL A   1      45.210  33.555  33.285  1.00  0.00     0.040 A 
ATOM     85  F   UNL A   1      44.404  31.365  33.535  1.00  0.00    -0.206 F 
ATOM     86  C   UNL A   1      45.618  34.608  32.468  1.00  0.00     0.006 A 
ENDBRANCH  62  79
ENDBRANCH  36  37
ENDBRANCH  28  31
ENDBRANCH  26  27
ENDBRANCH  25  26
ENDBRANCH   1  25
TORSDOF 14
ENDMDL
MODEL 2
REMARK VINA RESULT:     -11.6      0.580      6.214
REMARK SMILES Cc1c(Cl)ccc2c1C=C(C(=O)NCCCCCCNC(=O)c1ccc(-c3c4nc(c(-c5c(F)cccc5F)c5ccc([nH]5)c(-c5c(F)cccc5F)c5nc(c(-c6c(F)cccc6F)c6ccc3[nH]6)C=C5)C=C4)cc1)[C@@H](C(F)(F)F)O2
REMARK SMILES IDX 17 1 16 2 15 3 14 4 13 5 11 6 12 7 10 9 1 10 2 11 3 12 8 13
REMARK SMILES IDX 4 14 5 15 7 16 9 17 6 18 82 19 77 20 78 21 79 22 80 23 81 24
REMARK SMILES IDX 18 25 19 26 20 27 21 28 22 30 23 31 24 32 76 33 25 34 75 35
REMARK SMILES IDX 26 36 27 37 28 38 69 39 29 40 74 41 68 42 70 43 30 44 73 45
REMARK SMILES IDX 67 46 66 47 31 49 57 50 40 51 56 52 41 53 44 54 55 55 71 56
REMARK SMILES IDX 42 57 43 58 54 60 72 61 45 62 32 63 33 64 38 65 34 66 35 67
REMARK SMILES IDX 37 68 39 69 36 70 58 71 59 72 64 73 60 74 61 75 63 76 65 77
REMARK SMILES IDX 62 78 46 79 47 80 52 81 48 82 49 83 51 84 53 85 50 86
REMARK H PARENT 13 8 20 29 70 48 44 59
REMARK Flexibility Score: inf
ROOT
ATOM      1  C   UNL A   1      36.119  20.612  25.004  1.00  0.00     0.002 C 
ENDROOT
BRANCH   1   2
ATOM      2  C   UNL A   1      36.387  22.030  25.527  1.00  0.00     0.002 C 
BRANCH   2   3
ATOM      3  C   UNL A   1      35.275  22.639  26.388  1.00  0.00     0.021 C 
BRANCH   3   4
ATOM      4  C   UNL A   1      34.780  23.998  25.902  1.00  0.00     0.116 C 
BRANCH   4   5
ATOM      5  N   UNL A   1      33.341  24.121  26.026  1.00  0.00    -0.352 N 
ATOM      6  C   UNL A   1      32.246  23.525  25.503  1.00  0.00     0.251 C 
ATOM      7  O   UNL A   1      31.168  23.964  25.919  1.00  0.00    -0.270 OA
ATOM      8  H   UNL A   1      33.093  24.831  26.661  1.00  0.00     0.163 HD
BRANCH   6   9
ATOM      9  C   UNL A   1      32.250  22.411  24.506  1.00  0.00     0.067 C 
ATOM     10  C   UNL A   1      33.175  18.399  26.036  1.00  0.00     0.047 C 
ATOM     11  C   UNL A   1      32.814  18.705  24.603  1.00  0.00    -0.021 A 
ATOM     12  C   UNL A   1      32.814  17.647  23.665  1.00  0.00     0.044 A 
ATOM     13  C   UNL A   1      32.478  20.005  24.151  1.00  0.00     0.022 A 
ATOM     14  Cl  UNL A   1      33.200  16.021  24.122  1.00  0.00    -0.084 Cl
ATOM     15  C   UNL A   1      32.495  17.864  22.323  1.00  0.00     0.024 A 
ATOM     16  C   UNL A   1      32.178  20.200  22.794  1.00  0.00     0.128 A 
ATOM     17  C   UNL A   1      32.390  21.177  25.027  1.00  0.00     0.026 C 
ATOM     18  C   UNL A   1      32.175  19.142  21.889  1.00  0.00     0.048 A 
ATOM     19  O   UNL A   1      31.828  21.407  22.263  1.00  0.00    -0.475 OA
ATOM     20  C   UNL A   1      32.159  22.597  23.021  1.00  0.00     0.314 C 
BRANCH  20  21
ATOM     21  C   UNL A   1      33.410  23.251  22.411  1.00  0.00     0.429 C 
ATOM     22  F   UNL A   1      33.465  24.566  22.742  1.00  0.00    -0.167 F 
ATOM     23  F   UNL A   1      34.560  22.700  22.862  1.00  0.00    -0.167 F 
ATOM     24  F   UNL A   1      33.432  23.172  21.062  1.00  0.00    -0.167 F 
ENDBRANCH  20  21
ENDBRANCH   6   9
ENDBRANCH   4   5
ENDBRANCH   3   4
ENDBRANCH   2   3
ENDBRANCH   1   2
BRANCH   1  25
ATOM     25  C   UNL A   1      37.334  19.682  24.965  1.00  0.00     0.021 C 
BRANCH  25  26
ATOM     26  C   UNL A   1      38.625  20.304  25.482  1.00  0.00     0.116 C 
BRANCH  26  27
ATOM     27  N   UNL A   1      39.672  19.313  25.663  1.00  0.00    -0.352 N 
ATOM     28  C   UNL A   1      40.972  19.508  26.050  1.00  0.00     0.251 C 
ATOM     29  H   UNL A   1      39.413  18.379  25.485  1.00  0.00     0.163 HD
ATOM     30  O   UNL A   1      41.794  18.600  25.988  1.00  0.00    -0.269 OA
BRANCH  28  31
ATOM     31  C   UNL A   1      41.379  20.842  26.532  1.00  0.00     0.039 A 
ATOM     32  C   UNL A   1      41.922  21.754  25.626  1.00  0.00     0.014 A 
ATOM     33  C   UNL A   1      41.204  21.185  27.877  1.00  0.00     0.014 A 
ATOM     34  C   UNL A   1      42.259  23.035  26.064  1.00  0.00     0.010 A 
ATOM     35  C   UNL A   1      41.490  22.479  28.299  1.00  0.00     0.010 A 
ATOM     36  C   UNL A   1      42.034  23.408  27.398  1.00  0.00    -0.014 A 
BRANCH  36  37
ATOM     37  C   UNL A   1      42.421  24.753  27.883  1.00  0.00     0.031 A 
ATOM     38  C   UNL A   1      43.875  25.083  28.062  1.00  0.00     0.074 A 
ATOM     39  C   UNL A   1      41.474  25.655  28.191  1.00  0.00     0.049 A 
ATOM     40  N   UNL A   1      44.426  26.196  28.472  1.00  0.00    -0.248 NA
ATOM     41  C   UNL A   1      44.835  24.009  27.763  1.00  0.00     0.031 C 
ATOM     42  C   UNL A   1      40.029  25.435  28.097  1.00  0.00     0.029 A 
ATOM     43  N   UNL A   1      41.587  26.941  28.651  1.00  0.00    -0.354 N 
ATOM     44  C   UNL A   1      45.794  25.958  28.474  1.00  0.00     0.074 A 
ATOM     45  C   UNL A   1      45.985  24.577  28.090  1.00  0.00     0.031 C 
ATOM     46  C   UNL A   1      39.391  26.557  28.473  1.00  0.00     0.029 A 
ATOM     47  C   UNL A   1      40.380  27.564  28.847  1.00  0.00     0.049 A 
ATOM     48  H   UNL A   1      42.453  27.378  28.824  1.00  0.00     0.167 HD
ATOM     49  C   UNL A   1      46.803  26.820  28.742  1.00  0.00     0.037 A 
ATOM     50  C   UNL A   1      40.107  28.811  29.275  1.00  0.00     0.037 A 
ATOM     51  C   UNL A   1      46.611  28.195  29.120  1.00  0.00     0.049 A 
ATOM     52  C   UNL A   1      41.244  29.743  29.591  1.00  0.00     0.074 A 
ATOM     53  C   UNL A   1      47.565  29.165  29.368  1.00  0.00     0.029 A 
ATOM     54  N   UNL A   1      45.373  28.790  29.312  1.00  0.00    -0.354 N 
ATOM     55  N   UNL A   1      42.536  29.530  29.514  1.00  0.00    -0.248 NA
ATOM     56  C   UNL A   1      40.881  31.094  30.043  1.00  0.00     0.031 C 
ATOM     57  C   UNL A   1      46.903  30.340  29.747  1.00  0.00     0.029 A 
ATOM     58  C   UNL A   1      45.537  30.110  29.697  1.00  0.00     0.049 A 
ATOM     59  H   UNL A   1      44.506  28.340  29.192  1.00  0.00     0.167 HD
ATOM     60  C   UNL A   1      43.140  30.725  29.884  1.00  0.00     0.074 A 
ATOM     61  C   UNL A   1      42.071  31.662  30.168  1.00  0.00     0.031 C 
ATOM     62  C   UNL A   1      44.459  31.023  29.980  1.00  0.00     0.037 A 
BRANCH  49  63
ATOM     63  C   UNL A   1      48.199  26.284  28.628  1.00  0.00     0.057 A 
ATOM     64  C   UNL A   1      48.916  26.394  27.431  1.00  0.00     0.134 A 
ATOM     65  C   UNL A   1      48.843  25.676  29.714  1.00  0.00     0.134 A 
ATOM     66  F   UNL A   1      48.359  26.964  26.352  1.00  0.00    -0.206 F 
ATOM     67  C   UNL A   1      50.228  25.928  27.322  1.00  0.00     0.040 A 
ATOM     68  C   UNL A   1      50.163  25.230  29.625  1.00  0.00     0.040 A 
ATOM     69  F   UNL A   1      48.217  25.557  30.895  1.00  0.00    -0.206 F 
ATOM     70  C   UNL A   1      50.858  25.354  28.424  1.00  0.00     0.006 A 
ENDBRANCH  49  63
BRANCH  50  71
ATOM     71  C   UNL A   1      38.701  29.268  29.397  1.00  0.00     0.057 A 
ATOM     72  C   UNL A   1      37.999  29.777  28.299  1.00  0.00     0.134 A 
ATOM     73  C   UNL A   1      38.021  29.181  30.617  1.00  0.00     0.134 A 
ATOM     74  F   UNL A   1      38.599  29.889  27.105  1.00  0.00    -0.206 F 
ATOM     75  C   UNL A   1      36.668  30.183  28.409  1.00  0.00     0.040 A 
ATOM     76  C   UNL A   1      36.685  29.564  30.737  1.00  0.00     0.040 A 
ATOM     77  F   UNL A   1      38.637  28.683  31.699  1.00  0.00    -0.206 F 
ATOM     78  C   UNL A   1      36.005  30.070  29.630  1.00  0.00     0.006 A 
ENDBRANCH  50  71
BRANCH  62  79
ATOM     79  C   UNL A   1      44.808  32.423  30.390  1.00  0.00     0.057 A 
ATOM     80  C   UNL A   1      44.947  33.434  29.432  1.00  0.00     0.134 A 
ATOM     81  C   UNL A   1      45.014  32.767  31.732  1.00  0.00     0.134 A 
ATOM     82  F   UNL A   1      44.770  33.168  28.130  1.00  0.00    -0.206 F 
ATOM     83  C   UNL A   1      45.276  34.741  29.795  1.00  0.00     0.040 A 
ATOM     84  C   UNL A   1      45.318  34.076  32.110  1.00  0.00     0.040 A 
ATOM     85  F   UNL A   1      44.879  31.847  32.699  1.00  0.00    -0.206 F 
ATOM     86  C   UNL A   1      45.454  35.066  31.139  1.00  0.00     0.006 A 
ENDBRANCH  62  79
ENDBRANCH  36  37
ENDBRANCH  28  31
ENDBRANCH  26  27
ENDBRANCH  25  26
ENDBRANCH   1  25
TORSDOF 14
ENDMDL
MODEL 3
REMARK VINA RESULT:     -11.6      2.210      3.682
REMARK SMILES Cc1c(Cl)ccc2c1C=C(C(=O)NCCCCCCNC(=O)c1ccc(-c3c4nc(c(-c5c(F)cccc5F)c5ccc([nH]5)c(-c5c(F)cccc5F)c5nc(c(-c6c(F)cccc6F)c6ccc3[nH]6)C=C5)C=C4)cc1)[C@@H](C(F)(F)F)O2
REMARK SMILES IDX 17 1 16 2 15 3 14 4 13 5 11 6 12 7 10 9 1 10 2 11 3 12 8 13
REMARK SMILES IDX 4 14 5 15 7 16 9 17 6 18 82 19 77 20 78 21 79 22 80 23 81 24
REMARK SMILES IDX 18 25 19 26 20 27 21 28 22 30 23 31 24 32 76 33 25 34 75 35
REMARK SMILES IDX 26 36 27 37 28 38 69 39 29 40 74 41 68 42 70 43 30 44 73 45
REMARK SMILES IDX 67 46 66 47 31 49 57 50 40 51 56 52 41 53 44 54 55 55 71 56
REMARK SMILES IDX 42 57 43 58 54 60 72 61 45 62 32 63 33 64 38 65 34 66 35 67
REMARK SMILES IDX 37 68 39 69 36 70 58 71 59 72 64 73 60 74 61 75 63 76 65 77
REMARK SMILES IDX 62 78 46 79 47 80 52 81 48 82 49 83 51 84 53 85 50 86
REMARK H PARENT 13 8 20 29 70 48 44 59
REMARK Flexibility Score: inf
ROOT
ATOM      1  C   UNL A   1      36.146  20.947  24.979  1.00  0.00     0.002 C 
ENDROOT
BRANCH   1   2
ATOM      2  C   UNL A   1      34.760  20.288  24.972  1.00  0.00     0.002 C 
BRANCH   2   3
ATOM      3  C   UNL A   1      33.722  20.922  25.905  1.00  0.00     0.021 C 
BRANCH   3   4
ATOM      4  C   UNL A   1      32.345  21.111  25.274  1.00  0.00     0.116 C 
BRANCH   4   5
ATOM      5  N   UNL A   1      31.456  21.862  26.139  1.00  0.00    -0.352 N 
ATOM      6  C   UNL A   1      31.174  23.161  26.383  1.00  0.00     0.251 C 
ATOM      7  O   UNL A   1      30.299  23.351  27.235  1.00  0.00    -0.270 OA
ATOM      8  H   UNL A   1      30.911  21.265  26.700  1.00  0.00     0.163 HD
BRANCH   6   9
ATOM      9  C   UNL A   1      31.815  24.335  25.714  1.00  0.00     0.067 C 
ATOM     10  C   UNL A   1      31.580  28.178  27.827  1.00  0.00     0.047 C 
ATOM     11  C   UNL A   1      32.303  27.964  26.519  1.00  0.00    -0.021 A 
ATOM     12  C   UNL A   1      32.913  29.076  25.894  1.00  0.00     0.044 A 
ATOM     13  C   UNL A   1      32.397  26.701  25.885  1.00  0.00     0.022 A 
ATOM     14  Cl  UNL A   1      32.862  30.660  26.595  1.00  0.00    -0.084 Cl
ATOM     15  C   UNL A   1      33.592  28.948  24.681  1.00  0.00     0.024 A 
ATOM     16  C   UNL A   1      33.070  26.600  24.658  1.00  0.00     0.128 A 
ATOM     17  C   UNL A   1      31.856  25.461  26.450  1.00  0.00     0.026 C 
ATOM     18  C   UNL A   1      33.671  27.708  24.065  1.00  0.00     0.048 A 
ATOM     19  O   UNL A   1      33.230  25.429  23.976  1.00  0.00    -0.475 OA
ATOM     20  C   UNL A   1      32.346  24.330  24.312  1.00  0.00     0.314 C 
BRANCH  20  21
ATOM     21  C   UNL A   1      31.245  24.226  23.244  1.00  0.00     0.429 C 
ATOM     22  F   UNL A   1      31.019  22.926  22.923  1.00  0.00    -0.167 F 
ATOM     23  F   UNL A   1      30.060  24.722  23.665  1.00  0.00    -0.167 F 
ATOM     24  F   UNL A   1      31.566  24.874  22.102  1.00  0.00    -0.167 F 
ENDBRANCH  20  21
ENDBRANCH   6   9
ENDBRANCH   4   5
ENDBRANCH   3   4
ENDBRANCH   2   3
ENDBRANCH   1   2
BRANCH   1  25
ATOM     25  C   UNL A   1      37.335  19.983  24.950  1.00  0.00     0.021 C 
BRANCH  25  26
ATOM     26  C   UNL A   1      38.605  20.523  25.595  1.00  0.00     0.116 C 
BRANCH  26  27
ATOM     27  N   UNL A   1      39.635  19.504  25.703  1.00  0.00    -0.352 N 
ATOM     28  C   UNL A   1      40.948  19.656  26.067  1.00  0.00     0.251 C 
ATOM     29  H   UNL A   1      39.353  18.585  25.488  1.00  0.00     0.163 HD
ATOM     30  O   UNL A   1      41.749  18.736  25.941  1.00  0.00    -0.269 OA
BRANCH  28  31
ATOM     31  C   UNL A   1      41.393  20.957  26.601  1.00  0.00     0.039 A 
ATOM     32  C   UNL A   1      41.896  21.916  25.720  1.00  0.00     0.014 A 
ATOM     33  C   UNL A   1      41.294  21.224  27.971  1.00  0.00     0.014 A 
ATOM     34  C   UNL A   1      42.269  23.167  26.211  1.00  0.00     0.010 A 
ATOM     35  C   UNL A   1      41.615  22.490  28.449  1.00  0.00     0.010 A 
ATOM     36  C   UNL A   1      42.119  23.465  27.575  1.00  0.00    -0.014 A 
BRANCH  36  37
ATOM     37  C   UNL A   1      42.545  24.777  28.113  1.00  0.00     0.031 A 
ATOM     38  C   UNL A   1      41.526  25.863  28.303  1.00  0.00     0.074 A 
ATOM     39  C   UNL A   1      43.840  25.000  28.396  1.00  0.00     0.049 A 
ATOM     40  N   UNL A   1      41.687  27.078  28.760  1.00  0.00    -0.248 NA
ATOM     41  C   UNL A   1      40.146  25.548  27.904  1.00  0.00     0.031 C 
ATOM     42  C   UNL A   1      44.927  24.036  28.213  1.00  0.00     0.029 A 
ATOM     43  N   UNL A   1      44.462  26.115  28.894  1.00  0.00    -0.354 N 
ATOM     44  C   UNL A   1      40.431  27.668  28.708  1.00  0.00     0.074 A 
ATOM     45  C   UNL A   1      39.533  26.702  28.114  1.00  0.00     0.031 C 
ATOM     46  C   UNL A   1      46.081  24.598  28.610  1.00  0.00     0.029 A 
ATOM     47  C   UNL A   1      45.817  25.962  29.059  1.00  0.00     0.049 A 
ATOM     48  H   UNL A   1      43.983  26.947  29.113  1.00  0.00     0.167 HD
ATOM     49  C   UNL A   1      40.052  28.892  29.144  1.00  0.00     0.037 A 
ATOM     50  C   UNL A   1      46.735  26.827  29.526  1.00  0.00     0.037 A 
ATOM     51  C   UNL A   1      40.945  29.850  29.738  1.00  0.00     0.049 A 
ATOM     52  C   UNL A   1      46.295  28.191  29.980  1.00  0.00     0.074 A 
ATOM     53  C   UNL A   1      40.655  31.100  30.255  1.00  0.00     0.029 A 
ATOM     54  N   UNL A   1      42.312  29.662  29.886  1.00  0.00    -0.354 N 
ATOM     55  N   UNL A   1      45.090  28.710  29.999  1.00  0.00    -0.248 NA
ATOM     56  C   UNL A   1      47.343  29.086  30.491  1.00  0.00     0.031 C 
ATOM     57  C   UNL A   1      41.854  31.683  30.683  1.00  0.00     0.029 A 
ATOM     58  C   UNL A   1      42.883  30.781  30.467  1.00  0.00     0.049 A 
ATOM     59  H   UNL A   1      42.802  28.851  29.618  1.00  0.00     0.167 HD
ATOM     60  C   UNL A   1      45.231  29.980  30.543  1.00  0.00     0.074 A 
ATOM     61  C   UNL A   1      46.637  30.145  30.857  1.00  0.00     0.031 C 
ATOM     62  C   UNL A   1      44.286  30.925  30.765  1.00  0.00     0.037 A 
BRANCH  49  63
ATOM     63  C   UNL A   1      38.603  29.247  28.987  1.00  0.00     0.057 A 
ATOM     64  C   UNL A   1      38.086  29.629  27.744  1.00  0.00     0.134 A 
ATOM     65  C   UNL A   1      37.712  29.189  30.068  1.00  0.00     0.134 A 
ATOM     66  F   UNL A   1      38.884  29.706  26.668  1.00  0.00    -0.206 F 
ATOM     67  C   UNL A   1      36.733  29.929  27.578  1.00  0.00     0.040 A 
ATOM     68  C   UNL A   1      36.352  29.462  29.909  1.00  0.00     0.040 A 
ATOM     69  F   UNL A   1      38.141  28.811  31.282  1.00  0.00    -0.206 F 
ATOM     70  C   UNL A   1      35.860  29.836  28.661  1.00  0.00     0.006 A 
ENDBRANCH  49  63
BRANCH  50  71
ATOM     71  C   UNL A   1      48.159  26.424  29.624  1.00  0.00     0.057 A 
ATOM     72  C   UNL A   1      48.662  25.783  30.762  1.00  0.00     0.134 A 
ATOM     73  C   UNL A   1      49.045  26.652  28.565  1.00  0.00     0.134 A 
ATOM     74  F   UNL A   1      47.863  25.541  31.811  1.00  0.00    -0.206 F 
ATOM     75  C   UNL A   1      49.996  25.380  30.843  1.00  0.00     0.040 A 
ATOM     76  C   UNL A   1      50.376  26.237  28.624  1.00  0.00     0.040 A 
ATOM     77  F   UNL A   1      48.615  27.244  27.442  1.00  0.00    -0.206 F 
ATOM     78  C   UNL A   1      50.855  25.601  29.768  1.00  0.00     0.006 A 
ENDBRANCH  50  71
BRANCH  62  79
ATOM     79  C   UNL A   1      44.746  32.208  31.393  1.00  0.00     0.057 A 
ATOM     80  C   UNL A   1      44.777  32.350  32.785  1.00  0.00     0.134 A 
ATOM     81  C   UNL A   1      45.151  33.303  30.619  1.00  0.00     0.134 A 
ATOM     82  F   UNL A   1      44.396  31.341  33.582  1.00  0.00    -0.206 F 
ATOM     83  C   UNL A   1      45.198  33.537  33.386  1.00  0.00     0.040 A 
ATOM     84  C   UNL A   1      45.597  34.486  31.209  1.00  0.00     0.040 A 
ATOM     85  F   UNL A   1      45.159  33.223  29.279  1.00  0.00    -0.206 F 
ATOM     86  C   UNL A   1      45.617  34.607  32.597  1.00  0.00     0.006 A 
ENDBRANCH  62  79
ENDBRANCH  36  37
ENDBRANCH  28  31
ENDBRANCH  26  27
ENDBRANCH  25  26
ENDBRANCH   1  25
TORSDOF 14
ENDMDL
