MODEL 1
REMARK VINA RESULT:     -13.3      0.000      0.000
REMARK SMILES Cc1cc2c(=O)cc(-c3ccc(F)cc3)oc2c(C(=O)NCCCCCCNC(=O)c2ccc(-c3c4nc(c(-c5c(F)cccc5F)c5ccc([nH]5)c(-c5c(F)cccc5F)c5nc(c(-c6c(F)cccc6F)c6ccc3[nH]6)C=C5)C=C4)cc2)c1C
REMARK SMILES IDX 25 1 24 2 23 3 22 4 21 5 19 6 20 7 18 9 1 10 2 11 3 12 85 13
REMARK SMILES IDX 4 14 86 15 5 16 17 17 6 18 7 19 16 20 8 21 9 22 10 23 15 24
REMARK SMILES IDX 11 25 14 26 12 27 13 28 26 29 27 30 28 31 29 32 30 34 31 35
REMARK SMILES IDX 32 36 84 37 33 38 83 39 34 40 35 41 36 42 77 43 37 44 82 45
REMARK SMILES IDX 76 46 78 47 38 48 81 49 75 50 74 51 39 53 65 54 48 55 64 56
REMARK SMILES IDX 49 57 52 58 63 59 79 60 50 61 51 62 62 64 80 65 53 66 40 67
REMARK SMILES IDX 41 68 46 69 42 70 43 71 45 72 47 73 44 74 66 75 67 76 72 77
REMARK SMILES IDX 68 78 69 79 71 80 73 81 70 82 54 83 55 84 60 85 56 86 57 87
REMARK SMILES IDX 59 88 61 89 58 90
REMARK H PARENT 21 8 28 33 78 52 52 63
REMARK Flexibility Score: inf
ROOT
ATOM      1  C   UNL A   1      31.447  30.514  26.505  1.00  0.00     0.002 C 
ENDROOT
BRANCH   1   2
ATOM      2  C   UNL A   1      32.175  29.791  25.366  1.00  0.00     0.002 C 
BRANCH   2   3
ATOM      3  C   UNL A   1      33.537  29.139  25.643  1.00  0.00     0.021 C 
BRANCH   3   4
ATOM      4  C   UNL A   1      33.659  28.149  26.799  1.00  0.00     0.116 C 
BRANCH   4   5
ATOM      5  N   UNL A   1      32.560  27.227  26.994  1.00  0.00    -0.352 N 
ATOM      6  C   UNL A   1      32.314  25.958  26.499  1.00  0.00     0.255 C 
ATOM      7  O   UNL A   1      31.408  25.336  27.061  1.00  0.00    -0.269 OA
ATOM      8  H   UNL A   1      31.855  27.567  27.591  1.00  0.00     0.163 HD
BRANCH   6   9
ATOM      9  C   UNL A   1      33.017  25.314  25.322  1.00  0.00     0.086 A 
ATOM     10  C   UNL A   1      35.654  22.678  24.285  1.00  0.00     0.044 C 
ATOM     11  C   UNL A   1      34.589  23.745  24.240  1.00  0.00    -0.046 A 
ATOM     12  C   UNL A   1      34.234  24.244  22.988  1.00  0.00     0.019 A 
ATOM     13  C   UNL A   1      33.898  24.194  25.401  1.00  0.00    -0.032 A 
ATOM     14  C   UNL A   1      33.250  25.220  22.884  1.00  0.00     0.066 A 
ATOM     15  C   UNL A   1      34.068  23.353  26.640  1.00  0.00     0.045 C 
ATOM     16  C   UNL A   1      32.797  25.608  21.540  1.00  0.00     0.193 A 
ATOM     17  C   UNL A   1      32.671  25.793  24.023  1.00  0.00     0.151 A 
ATOM     18  O   UNL A   1      33.270  25.127  20.518  1.00  0.00    -0.289 OA
ATOM     19  C   UNL A   1      31.710  26.580  21.473  1.00  0.00     0.100 A 
ATOM     20  O   UNL A   1      31.746  26.817  23.879  1.00  0.00    -0.455 OA
ATOM     21  C   UNL A   1      31.252  27.108  22.614  1.00  0.00     0.138 A 
BRANCH  21  22
ATOM     22  C   UNL A   1      30.185  28.122  22.548  1.00  0.00     0.018 A 
ATOM     23  C   UNL A   1      28.924  27.855  23.100  1.00  0.00     0.015 A 
ATOM     24  C   UNL A   1      30.431  29.394  22.000  1.00  0.00     0.015 A 
ATOM     25  C   UNL A   1      27.942  28.849  23.131  1.00  0.00     0.040 A 
ATOM     26  C   UNL A   1      29.448  30.385  22.029  1.00  0.00     0.040 A 
ATOM     27  C   UNL A   1      28.214  30.105  22.601  1.00  0.00     0.123 A 
ATOM     28  F   UNL A   1      27.277  31.060  22.648  1.00  0.00    -0.207 F 
ENDBRANCH  21  22
ENDBRANCH   6   9
ENDBRANCH   4   5
ENDBRANCH   3   4
ENDBRANCH   2   3
ENDBRANCH   1   2
BRANCH   1  29
ATOM     29  C   UNL A   1      31.445  32.043  26.505  1.00  0.00     0.021 C 
BRANCH  29  30
ATOM     30  C   UNL A   1      32.570  32.741  27.260  1.00  0.00     0.116 C 
BRANCH  30  31
ATOM     31  N   UNL A   1      32.274  34.115  27.625  1.00  0.00    -0.352 N 
ATOM     32  C   UNL A   1      32.912  34.956  28.514  1.00  0.00     0.251 C 
ATOM     33  H   UNL A   1      31.496  34.507  27.168  1.00  0.00     0.163 HD
ATOM     34  O   UNL A   1      32.452  36.062  28.749  1.00  0.00    -0.269 OA
BRANCH  32  35
ATOM     35  C   UNL A   1      34.136  34.504  29.219  1.00  0.00     0.039 A 
ATOM     36  C   UNL A   1      35.393  34.597  28.622  1.00  0.00     0.014 A 
ATOM     37  C   UNL A   1      34.015  33.969  30.506  1.00  0.00     0.014 A 
ATOM     38  C   UNL A   1      36.492  33.993  29.227  1.00  0.00     0.010 A 
ATOM     39  C   UNL A   1      35.137  33.437  31.149  1.00  0.00     0.010 A 
ATOM     40  C   UNL A   1      36.375  33.393  30.491  1.00  0.00    -0.014 A 
BRANCH  40  41
ATOM     41  C   UNL A   1      37.550  32.702  31.088  1.00  0.00     0.031 A 
ATOM     42  C   UNL A   1      38.095  33.131  32.425  1.00  0.00     0.074 A 
ATOM     43  C   UNL A   1      38.092  31.645  30.452  1.00  0.00     0.049 A 
ATOM     44  N   UNL A   1      39.094  32.631  33.111  1.00  0.00    -0.248 NA
ATOM     45  C   UNL A   1      37.435  34.271  33.080  1.00  0.00     0.031 C 
ATOM     46  C   UNL A   1      37.651  31.123  29.157  1.00  0.00     0.029 A 
ATOM     47  N   UNL A   1      39.116  30.809  30.817  1.00  0.00    -0.354 N 
ATOM     48  C   UNL A   1      39.191  33.402  34.263  1.00  0.00     0.074 A 
ATOM     49  C   UNL A   1      38.171  34.425  34.171  1.00  0.00     0.031 C 
ATOM     50  C   UNL A   1      38.366  30.028  28.859  1.00  0.00     0.029 A 
ATOM     51  C   UNL A   1      39.354  29.805  29.909  1.00  0.00     0.049 A 
ATOM     52  H   UNL A   1      39.630  30.916  31.649  1.00  0.00     0.167 HD
ATOM     53  C   UNL A   1      40.042  33.265  35.310  1.00  0.00     0.037 A 
ATOM     54  C   UNL A   1      40.274  28.823  29.914  1.00  0.00     0.037 A 
ATOM     55  C   UNL A   1      41.049  32.241  35.410  1.00  0.00     0.049 A 
ATOM     56  C   UNL A   1      41.240  28.729  31.060  1.00  0.00     0.074 A 
ATOM     57  C   UNL A   1      41.945  32.007  36.439  1.00  0.00     0.029 A 
ATOM     58  N   UNL A   1      41.297  31.279  34.442  1.00  0.00    -0.354 N 
ATOM     59  N   UNL A   1      41.308  29.456  32.149  1.00  0.00    -0.248 NA
ATOM     60  C   UNL A   1      42.266  27.681  30.971  1.00  0.00     0.031 C 
ATOM     61  C   UNL A   1      42.762  30.930  36.075  1.00  0.00     0.029 A 
ATOM     62  C   UNL A   1      42.346  30.464  34.838  1.00  0.00     0.049 A 
ATOM     63  H   UNL A   1      40.800  31.189  33.596  1.00  0.00     0.167 HD
ATOM     64  C   UNL A   1      42.372  28.945  32.880  1.00  0.00     0.074 A 
ATOM     65  C   UNL A   1      42.904  27.831  32.123  1.00  0.00     0.031 C 
ATOM     66  C   UNL A   1      42.866  29.364  34.071  1.00  0.00     0.037 A 
BRANCH  53  67
ATOM     67  C   UNL A   1      39.930  34.264  36.427  1.00  0.00     0.057 A 
ATOM     68  C   UNL A   1      39.098  34.015  37.526  1.00  0.00     0.134 A 
ATOM     69  C   UNL A   1      40.623  35.482  36.405  1.00  0.00     0.134 A 
ATOM     70  F   UNL A   1      38.400  32.872  37.607  1.00  0.00    -0.206 F 
ATOM     71  C   UNL A   1      38.961  34.939  38.563  1.00  0.00     0.040 A 
ATOM     72  C   UNL A   1      40.513  36.402  37.449  1.00  0.00     0.040 A 
ATOM     73  F   UNL A   1      41.447  35.777  35.388  1.00  0.00    -0.206 F 
ATOM     74  C   UNL A   1      39.675  36.135  38.530  1.00  0.00     0.006 A 
ENDBRANCH  53  67
BRANCH  54  75
ATOM     75  C   UNL A   1      40.338  27.858  28.789  1.00  0.00     0.057 A 
ATOM     76  C   UNL A   1      39.638  26.647  28.826  1.00  0.00     0.134 A 
ATOM     77  C   UNL A   1      41.089  28.135  27.640  1.00  0.00     0.134 A 
ATOM     78  F   UNL A   1      38.903  26.322  29.900  1.00  0.00    -0.206 F 
ATOM     79  C   UNL A   1      39.686  25.741  27.767  1.00  0.00     0.040 A 
ATOM     80  C   UNL A   1      41.125  27.250  26.561  1.00  0.00     0.040 A 
ATOM     81  F   UNL A   1      41.765  29.289  27.537  1.00  0.00    -0.206 F 
ATOM     82  C   UNL A   1      40.427  26.046  26.626  1.00  0.00     0.006 A 
ENDBRANCH  54  75
BRANCH  66  83
ATOM     83  C   UNL A   1      44.028  28.594  34.629  1.00  0.00     0.057 A 
ATOM     84  C   UNL A   1      43.818  27.478  35.448  1.00  0.00     0.134 A 
ATOM     85  C   UNL A   1      45.353  28.960  34.359  1.00  0.00     0.134 A 
ATOM     86  F   UNL A   1      42.573  27.079  35.750  1.00  0.00    -0.206 F 
ATOM     87  C   UNL A   1      44.885  26.751  35.977  1.00  0.00     0.040 A 
ATOM     88  C   UNL A   1      46.428  28.225  34.861  1.00  0.00     0.040 A 
ATOM     89  F   UNL A   1      45.621  30.009  33.566  1.00  0.00    -0.206 F 
ATOM     90  C   UNL A   1      46.195  27.119  35.676  1.00  0.00     0.006 A 
ENDBRANCH  66  83
ENDBRANCH  40  41
ENDBRANCH  32  35
ENDBRANCH  30  31
ENDBRANCH  29  30
ENDBRANCH   1  29
TORSDOF 14
ENDMDL
MODEL 2
REMARK VINA RESULT:     -13.2      5.325     10.403
REMARK SMILES Cc1cc2c(=O)cc(-c3ccc(F)cc3)oc2c(C(=O)NCCCCCCNC(=O)c2ccc(-c3c4nc(c(-c5c(F)cccc5F)c5ccc([nH]5)c(-c5c(F)cccc5F)c5nc(c(-c6c(F)cccc6F)c6ccc3[nH]6)C=C5)C=C4)cc2)c1C
REMARK SMILES IDX 25 1 24 2 23 3 22 4 21 5 19 6 20 7 18 9 1 10 2 11 3 12 85 13
REMARK SMILES IDX 4 14 86 15 5 16 17 17 6 18 7 19 16 20 8 21 9 22 10 23 15 24
REMARK SMILES IDX 11 25 14 26 12 27 13 28 26 29 27 30 28 31 29 32 30 34 31 35
REMARK SMILES IDX 32 36 84 37 33 38 83 39 34 40 35 41 36 42 77 43 37 44 82 45
REMARK SMILES IDX 76 46 78 47 38 48 81 49 75 50 74 51 39 53 65 54 48 55 64 56
REMARK SMILES IDX 49 57 52 58 63 59 79 60 50 61 51 62 62 64 80 65 53 66 40 67
REMARK SMILES IDX 41 68 46 69 42 70 43 71 45 72 47 73 44 74 66 75 67 76 72 77
REMARK SMILES IDX 68 78 69 79 71 80 73 81 70 82 54 83 55 84 60 85 56 86 57 87
REMARK SMILES IDX 59 88 61 89 58 90
REMARK H PARENT 21 8 28 33 78 52 52 63
REMARK Flexibility Score: inf
ROOT
ATOM      1  C   UNL A   1      37.080  20.834  24.567  1.00  0.00     0.002 C 
ENDROOT
BRANCH   1   2
ATOM      2  C   UNL A   1      35.958  21.298  25.504  1.00  0.00     0.002 C 
BRANCH   2   3
ATOM      3  C   UNL A   1      36.015  22.713  26.096  1.00  0.00     0.021 C 
BRANCH   3   4
ATOM      4  C   UNL A   1      36.459  23.869  25.202  1.00  0.00     0.116 C 
BRANCH   4   5
ATOM      5  N   UNL A   1      35.747  24.046  23.953  1.00  0.00    -0.352 N 
ATOM      6  C   UNL A   1      34.548  24.667  23.648  1.00  0.00     0.255 C 
ATOM      7  O   UNL A   1      34.346  24.867  22.447  1.00  0.00    -0.269 OA
ATOM      8  H   UNL A   1      36.202  23.649  23.176  1.00  0.00     0.163 HD
BRANCH   6   9
ATOM      9  C   UNL A   1      33.476  25.061  24.642  1.00  0.00     0.086 A 
ATOM     10  C   UNL A   1      31.853  28.036  26.512  1.00  0.00     0.044 C 
ATOM     11  C   UNL A   1      32.162  26.650  26.005  1.00  0.00    -0.046 A 
ATOM     12  C   UNL A   1      31.424  25.593  26.534  1.00  0.00     0.019 A 
ATOM     13  C   UNL A   1      33.109  26.401  24.970  1.00  0.00    -0.032 A 
ATOM     14  C   UNL A   1      31.657  24.295  26.094  1.00  0.00     0.066 A 
ATOM     15  C   UNL A   1      33.581  27.607  24.200  1.00  0.00     0.045 C 
ATOM     16  C   UNL A   1      30.755  23.232  26.563  1.00  0.00     0.193 A 
ATOM     17  C   UNL A   1      32.693  24.006  25.198  1.00  0.00     0.151 A 
ATOM     18  O   UNL A   1      29.832  23.442  27.340  1.00  0.00    -0.289 OA
ATOM     19  C   UNL A   1      30.984  21.896  26.022  1.00  0.00     0.100 A 
ATOM     20  O   UNL A   1      32.941  22.689  24.841  1.00  0.00    -0.455 OA
ATOM     21  C   UNL A   1      32.028  21.707  25.207  1.00  0.00     0.138 A 
BRANCH  21  22
ATOM     22  C   UNL A   1      32.289  20.350  24.693  1.00  0.00     0.018 A 
ATOM     23  C   UNL A   1      32.109  20.066  23.332  1.00  0.00     0.015 A 
ATOM     24  C   UNL A   1      32.791  19.342  25.537  1.00  0.00     0.015 A 
ATOM     25  C   UNL A   1      32.452  18.811  22.821  1.00  0.00     0.040 A 
ATOM     26  C   UNL A   1      33.131  18.088  25.026  1.00  0.00     0.040 A 
ATOM     27  C   UNL A   1      32.964  17.836  23.670  1.00  0.00     0.123 A 
ATOM     28  F   UNL A   1      33.308  16.641  23.174  1.00  0.00    -0.207 F 
ENDBRANCH  21  22
ENDBRANCH   6   9
ENDBRANCH   4   5
ENDBRANCH   3   4
ENDBRANCH   2   3
ENDBRANCH   1   2
BRANCH   1  29
ATOM     29  C   UNL A   1      37.958  19.666  25.017  1.00  0.00     0.021 C 
BRANCH  29  30
ATOM     30  C   UNL A   1      39.201  20.005  25.832  1.00  0.00     0.116 C 
BRANCH  30  31
ATOM     31  N   UNL A   1      40.225  18.975  25.804  1.00  0.00    -0.352 N 
ATOM     32  C   UNL A   1      41.580  19.062  26.048  1.00  0.00     0.251 C 
ATOM     33  H   UNL A   1      39.901  18.074  25.574  1.00  0.00     0.163 HD
ATOM     34  O   UNL A   1      42.296  18.087  25.886  1.00  0.00    -0.269 OA
BRANCH  32  35
ATOM     35  C   UNL A   1      42.180  20.353  26.465  1.00  0.00     0.039 A 
ATOM     36  C   UNL A   1      42.200  20.743  27.804  1.00  0.00     0.014 A 
ATOM     37  C   UNL A   1      42.727  21.191  25.487  1.00  0.00     0.014 A 
ATOM     38  C   UNL A   1      42.595  22.035  28.142  1.00  0.00     0.010 A 
ATOM     39  C   UNL A   1      43.200  22.459  25.840  1.00  0.00     0.010 A 
ATOM     40  C   UNL A   1      43.086  22.914  27.162  1.00  0.00    -0.014 A 
BRANCH  40  41
ATOM     41  C   UNL A   1      43.443  24.308  27.539  1.00  0.00     0.031 A 
ATOM     42  C   UNL A   1      44.871  24.782  27.463  1.00  0.00     0.074 A 
ATOM     43  C   UNL A   1      42.470  25.170  27.895  1.00  0.00     0.049 A 
ATOM     44  N   UNL A   1      45.365  25.967  27.727  1.00  0.00    -0.248 NA
ATOM     45  C   UNL A   1      45.878  23.799  27.037  1.00  0.00     0.031 C 
ATOM     46  C   UNL A   1      41.047  24.839  27.997  1.00  0.00     0.029 A 
ATOM     47  N   UNL A   1      42.526  26.503  28.214  1.00  0.00    -0.354 N 
ATOM     48  C   UNL A   1      46.735  25.866  27.516  1.00  0.00     0.074 A 
ATOM     49  C   UNL A   1      47.001  24.496  27.132  1.00  0.00     0.031 C 
ATOM     50  C   UNL A   1      40.360  25.949  28.307  1.00  0.00     0.029 A 
ATOM     51  C   UNL A   1      41.297  27.054  28.484  1.00  0.00     0.049 A 
ATOM     52  H   UNL A   1      43.366  27.015  28.246  1.00  0.00     0.167 HD
ATOM     53  C   UNL A   1      47.685  26.829  27.617  1.00  0.00     0.037 A 
ATOM     54  C   UNL A   1      40.962  28.306  28.846  1.00  0.00     0.037 A 
ATOM     55  C   UNL A   1      47.422  28.195  27.986  1.00  0.00     0.049 A 
ATOM     56  C   UNL A   1      42.041  29.338  29.005  1.00  0.00     0.074 A 
ATOM     57  C   UNL A   1      48.314  29.248  28.096  1.00  0.00     0.029 A 
ATOM     58  N   UNL A   1      46.171  28.699  28.308  1.00  0.00    -0.354 N 
ATOM     59  N   UNL A   1      43.329  29.230  28.785  1.00  0.00    -0.248 NA
ATOM     60  C   UNL A   1      41.620  30.665  29.474  1.00  0.00     0.031 C 
ATOM     61  C   UNL A   1      47.609  30.379  28.525  1.00  0.00     0.029 A 
ATOM     62  C   UNL A   1      46.270  30.041  28.640  1.00  0.00     0.049 A 
ATOM     63  H   UNL A   1      45.335  28.179  28.303  1.00  0.00     0.167 HD
ATOM     64  C   UNL A   1      43.869  30.476  29.074  1.00  0.00     0.074 A 
ATOM     65  C   UNL A   1      42.766  31.330  29.461  1.00  0.00     0.031 C 
ATOM     66  C   UNL A   1      45.163  30.876  29.027  1.00  0.00     0.037 A 
BRANCH  53  67
ATOM     67  C   UNL A   1      49.107  26.427  27.340  1.00  0.00     0.057 A 
ATOM     68  C   UNL A   1      49.619  26.465  26.037  1.00  0.00     0.134 A 
ATOM     69  C   UNL A   1      49.962  25.980  28.357  1.00  0.00     0.134 A 
ATOM     70  F   UNL A   1      48.852  26.876  25.016  1.00  0.00    -0.206 F 
ATOM     71  C   UNL A   1      50.929  26.075  25.755  1.00  0.00     0.040 A 
ATOM     72  C   UNL A   1      51.282  25.611  28.090  1.00  0.00     0.040 A 
ATOM     73  F   UNL A   1      49.539  25.933  29.629  1.00  0.00    -0.206 F 
ATOM     74  C   UNL A   1      51.767  25.652  26.784  1.00  0.00     0.006 A 
ENDBRANCH  53  67
BRANCH  54  75
ATOM     75  C   UNL A   1      39.542  28.652  29.101  1.00  0.00     0.057 A 
ATOM     76  C   UNL A   1      38.963  28.477  30.363  1.00  0.00     0.134 A 
ATOM     77  C   UNL A   1      38.735  29.186  28.089  1.00  0.00     0.134 A 
ATOM     78  F   UNL A   1      39.683  27.968  31.373  1.00  0.00    -0.206 F 
ATOM     79  C   UNL A   1      37.632  28.810  30.610  1.00  0.00     0.040 A 
ATOM     80  C   UNL A   1      37.408  29.548  28.328  1.00  0.00     0.040 A 
ATOM     81  F   UNL A   1      39.238  29.396  26.864  1.00  0.00    -0.206 F 
ATOM     82  C   UNL A   1      36.852  29.356  29.591  1.00  0.00     0.006 A 
ENDBRANCH  54  75
BRANCH  66  83
ATOM     83  C   UNL A   1      45.442  32.307  29.384  1.00  0.00     0.057 A 
ATOM     84  C   UNL A   1      45.753  32.667  30.701  1.00  0.00     0.134 A 
ATOM     85  C   UNL A   1      45.399  33.328  28.426  1.00  0.00     0.134 A 
ATOM     86  F   UNL A   1      45.805  31.738  31.667  1.00  0.00    -0.206 F 
ATOM     87  C   UNL A   1      46.014  33.992  31.052  1.00  0.00     0.040 A 
ATOM     88  C   UNL A   1      45.684  34.653  28.760  1.00  0.00     0.040 A 
ATOM     89  F   UNL A   1      45.125  33.045  27.143  1.00  0.00    -0.206 F 
ATOM     90  C   UNL A   1      45.989  34.988  30.077  1.00  0.00     0.006 A 
ENDBRANCH  66  83
ENDBRANCH  40  41
ENDBRANCH  32  35
ENDBRANCH  30  31
ENDBRANCH  29  30
ENDBRANCH   1  29
TORSDOF 14
ENDMDL
MODEL 3
REMARK VINA RESULT:     -13.0      4.436      9.365
REMARK SMILES Cc1cc2c(=O)cc(-c3ccc(F)cc3)oc2c(C(=O)NCCCCCCNC(=O)c2ccc(-c3c4nc(c(-c5c(F)cccc5F)c5ccc([nH]5)c(-c5c(F)cccc5F)c5nc(c(-c6c(F)cccc6F)c6ccc3[nH]6)C=C5)C=C4)cc2)c1C
REMARK SMILES IDX 25 1 24 2 23 3 22 4 21 5 19 6 20 7 18 9 1 10 2 11 3 12 85 13
REMARK SMILES IDX 4 14 86 15 5 16 17 17 6 18 7 19 16 20 8 21 9 22 10 23 15 24
REMARK SMILES IDX 11 25 14 26 12 27 13 28 26 29 27 30 28 31 29 32 30 34 31 35
REMARK SMILES IDX 32 36 84 37 33 38 83 39 34 40 35 41 36 42 77 43 37 44 82 45
REMARK SMILES IDX 76 46 78 47 38 48 81 49 75 50 74 51 39 53 65 54 48 55 64 56
REMARK SMILES IDX 49 57 52 58 63 59 79 60 50 61 51 62 62 64 80 65 53 66 40 67
REMARK SMILES IDX 41 68 46 69 42 70 43 71 45 72 47 73 44 74 66 75 67 76 72 77
REMARK SMILES IDX 68 78 69 79 71 80 73 81 70 82 54 83 55 84 60 85 56 86 57 87
REMARK SMILES IDX 59 88 61 89 58 90
REMARK H PARENT 21 8 28 33 78 52 52 63
REMARK Flexibility Score: inf
ROOT
ATOM      1  C   UNL A   1      36.051  21.407  24.579  1.00  0.00     0.002 C 
ENDROOT
BRANCH   1   2
ATOM      2  C   UNL A   1      36.352  22.847  25.013  1.00  0.00     0.002 C 
BRANCH   2   3
ATOM      3  C   UNL A   1      35.637  23.423  26.243  1.00  0.00     0.021 C 
BRANCH   3   4
ATOM      4  C   UNL A   1      34.486  22.635  26.863  1.00  0.00     0.116 C 
BRANCH   4   5
ATOM      5  N   UNL A   1      33.363  23.397  27.366  1.00  0.00    -0.352 N 
ATOM      6  C   UNL A   1      32.492  24.283  26.753  1.00  0.00     0.255 C 
ATOM      7  O   UNL A   1      31.482  24.568  27.401  1.00  0.00    -0.269 OA
ATOM      8  H   UNL A   1      33.184  23.260  28.324  1.00  0.00     0.163 HD
BRANCH   6   9
ATOM      9  C   UNL A   1      32.706  24.948  25.409  1.00  0.00     0.086 A 
ATOM     10  C   UNL A   1      33.284  28.334  23.625  1.00  0.00     0.044 C 
ATOM     11  C   UNL A   1      33.103  26.861  23.897  1.00  0.00    -0.046 A 
ATOM     12  C   UNL A   1      33.076  26.005  22.798  1.00  0.00     0.019 A 
ATOM     13  C   UNL A   1      33.037  26.322  25.213  1.00  0.00    -0.032 A 
ATOM     14  C   UNL A   1      32.924  24.636  22.988  1.00  0.00     0.066 A 
ATOM     15  C   UNL A   1      33.445  27.249  26.329  1.00  0.00     0.045 C 
ATOM     16  C   UNL A   1      33.055  23.755  21.818  1.00  0.00     0.193 A 
ATOM     17  C   UNL A   1      32.694  24.101  24.261  1.00  0.00     0.151 A 
ATOM     18  O   UNL A   1      33.264  24.180  20.689  1.00  0.00    -0.289 OA
ATOM     19  C   UNL A   1      32.965  22.320  22.069  1.00  0.00     0.100 A 
ATOM     20  O   UNL A   1      32.474  22.738  24.400  1.00  0.00    -0.455 OA
ATOM     21  C   UNL A   1      32.696  21.903  23.312  1.00  0.00     0.138 A 
BRANCH  21  22
ATOM     22  C   UNL A   1      32.560  20.457  23.562  1.00  0.00     0.018 A 
ATOM     23  C   UNL A   1      32.367  19.573  22.490  1.00  0.00     0.015 A 
ATOM     24  C   UNL A   1      32.694  19.933  24.860  1.00  0.00     0.015 A 
ATOM     25  C   UNL A   1      32.339  18.193  22.710  1.00  0.00     0.040 A 
ATOM     26  C   UNL A   1      32.664  18.554  25.079  1.00  0.00     0.040 A 
ATOM     27  C   UNL A   1      32.494  17.696  24.000  1.00  0.00     0.123 A 
ATOM     28  F   UNL A   1      32.484  16.373  24.205  1.00  0.00    -0.207 F 
ENDBRANCH  21  22
ENDBRANCH   6   9
ENDBRANCH   4   5
ENDBRANCH   3   4
ENDBRANCH   2   3
ENDBRANCH   1   2
BRANCH   1  29
ATOM     29  C   UNL A   1      37.033  20.309  24.988  1.00  0.00     0.021 C 
BRANCH  29  30
ATOM     30  C   UNL A   1      38.403  20.755  25.488  1.00  0.00     0.116 C 
BRANCH  30  31
ATOM     31  N   UNL A   1      39.403  19.701  25.489  1.00  0.00    -0.352 N 
ATOM     32  C   UNL A   1      40.713  19.717  25.923  1.00  0.00     0.251 C 
ATOM     33  H   UNL A   1      39.099  18.840  25.121  1.00  0.00     0.163 HD
ATOM     34  O   UNL A   1      41.427  18.742  25.756  1.00  0.00    -0.269 OA
BRANCH  32  35
ATOM     35  C   UNL A   1      41.271  20.937  26.556  1.00  0.00     0.039 A 
ATOM     36  C   UNL A   1      41.177  21.148  27.931  1.00  0.00     0.014 A 
ATOM     37  C   UNL A   1      41.897  21.892  25.746  1.00  0.00     0.014 A 
ATOM     38  C   UNL A   1      41.537  22.382  28.468  1.00  0.00     0.010 A 
ATOM     39  C   UNL A   1      42.336  23.098  26.301  1.00  0.00     0.010 A 
ATOM     40  C   UNL A   1      42.108  23.377  27.657  1.00  0.00    -0.014 A 
BRANCH  40  41
ATOM     41  C   UNL A   1      42.429  24.706  28.243  1.00  0.00     0.031 A 
ATOM     42  C   UNL A   1      43.845  25.063  28.609  1.00  0.00     0.074 A 
ATOM     43  C   UNL A   1      41.449  25.621  28.390  1.00  0.00     0.049 A 
ATOM     44  N   UNL A   1      44.316  26.180  29.107  1.00  0.00    -0.248 NA
ATOM     45  C   UNL A   1      44.870  24.029  28.393  1.00  0.00     0.031 C 
ATOM     46  C   UNL A   1      40.038  25.405  28.063  1.00  0.00     0.029 A 
ATOM     47  N   UNL A   1      41.495  26.918  28.831  1.00  0.00    -0.354 N 
ATOM     48  C   UNL A   1      45.681  25.979  29.276  1.00  0.00     0.074 A 
ATOM     49  C   UNL A   1      45.960  24.622  28.860  1.00  0.00     0.031 C 
ATOM     50  C   UNL A   1      39.361  26.545  28.269  1.00  0.00     0.029 A 
ATOM     51  C   UNL A   1      40.276  27.551  28.797  1.00  0.00     0.049 A 
ATOM     52  H   UNL A   1      42.320  27.355  29.142  1.00  0.00     0.167 HD
ATOM     53  C   UNL A   1      46.620  26.849  29.724  1.00  0.00     0.037 A 
ATOM     54  C   UNL A   1      39.929  28.799  29.164  1.00  0.00     0.037 A 
ATOM     55  C   UNL A   1      46.348  28.204  30.127  1.00  0.00     0.049 A 
ATOM     56  C   UNL A   1      40.979  29.722  29.709  1.00  0.00     0.074 A 
ATOM     57  C   UNL A   1      47.234  29.168  30.575  1.00  0.00     0.029 A 
ATOM     58  N   UNL A   1      45.090  28.788  30.133  1.00  0.00    -0.354 N 
ATOM     59  N   UNL A   1      42.268  29.522  29.847  1.00  0.00    -0.248 NA
ATOM     60  C   UNL A   1      40.524  31.045  30.160  1.00  0.00     0.031 C 
ATOM     61  C   UNL A   1      46.507  30.321  30.892  1.00  0.00     0.029 A 
ATOM     62  C   UNL A   1      45.173  30.091  30.599  1.00  0.00     0.049 A 
ATOM     63  H   UNL A   1      44.259  28.342  29.849  1.00  0.00     0.167 HD
ATOM     64  C   UNL A   1      42.778  30.695  30.386  1.00  0.00     0.074 A 
ATOM     65  C   UNL A   1      41.665  31.611  30.526  1.00  0.00     0.031 C 
ATOM     66  C   UNL A   1      44.055  30.987  30.737  1.00  0.00     0.037 A 
BRANCH  53  67
ATOM     67  C   UNL A   1      48.034  26.349  29.818  1.00  0.00     0.057 A 
ATOM     68  C   UNL A   1      48.508  25.764  31.000  1.00  0.00     0.134 A 
ATOM     69  C   UNL A   1      48.936  26.469  28.752  1.00  0.00     0.134 A 
ATOM     70  F   UNL A   1      47.700  25.624  32.061  1.00  0.00    -0.206 F 
ATOM     71  C   UNL A   1      49.824  25.314  31.116  1.00  0.00     0.040 A 
ATOM     72  C   UNL A   1      50.247  26.001  28.849  1.00  0.00     0.040 A 
ATOM     73  F   UNL A   1      48.544  27.008  27.587  1.00  0.00    -0.206 F 
ATOM     74  C   UNL A   1      50.697  25.426  30.036  1.00  0.00     0.006 A 
ENDBRANCH  53  67
BRANCH  54  75
ATOM     75  C   UNL A   1      38.518  29.245  29.044  1.00  0.00     0.057 A 
ATOM     76  C   UNL A   1      37.660  29.254  30.149  1.00  0.00     0.134 A 
ATOM     77  C   UNL A   1      38.003  29.692  27.821  1.00  0.00     0.134 A 
ATOM     78  F   UNL A   1      38.093  28.836  31.347  1.00  0.00    -0.206 F 
ATOM     79  C   UNL A   1      36.336  29.682  30.043  1.00  0.00     0.040 A 
ATOM     80  C   UNL A   1      36.689  30.148  27.707  1.00  0.00     0.040 A 
ATOM     81  F   UNL A   1      38.784  29.727  26.732  1.00  0.00    -0.206 F 
ATOM     82  C   UNL A   1      35.850  30.139  28.819  1.00  0.00     0.006 A 
ENDBRANCH  54  75
BRANCH  66  83
ATOM     83  C   UNL A   1      44.308  32.361  31.285  1.00  0.00     0.057 A 
ATOM     84  C   UNL A   1      44.603  33.428  30.428  1.00  0.00     0.134 A 
ATOM     85  C   UNL A   1      44.266  32.626  32.660  1.00  0.00     0.134 A 
ATOM     86  F   UNL A   1      44.665  33.240  29.101  1.00  0.00    -0.206 F 
ATOM     87  C   UNL A   1      44.843  34.713  30.919  1.00  0.00     0.040 A 
ATOM     88  C   UNL A   1      44.478  33.911  33.160  1.00  0.00     0.040 A 
ATOM     89  F   UNL A   1      43.971  31.649  33.532  1.00  0.00    -0.206 F 
ATOM     90  C   UNL A   1      44.771  34.958  32.289  1.00  0.00     0.006 A 
ENDBRANCH  66  83
ENDBRANCH  40  41
ENDBRANCH  32  35
ENDBRANCH  30  31
ENDBRANCH  29  30
ENDBRANCH   1  29
TORSDOF 14
ENDMDL
