MODEL 1
REMARK VINA RESULT:     -10.5      0.000      0.000
REMARK SMILES CC[C@](C)(NC(=O)CCSc1ccccc1Cl)C(=O)NCCCCCCNC(=O)c1ccc(-c2c3nc(c(-c4c(F)cccc4F)c4ccc([nH]4)c(-c4c(F)cccc4F)c4nc(c(-c5c(F)cccc5F)c5ccc2[nH]5)C=C4)C=C3)cc1
REMARK SMILES IDX 22 1 21 2 20 3 18 4 19 5 3 7 4 8 2 9 1 10 5 11 6 12 7 14
REMARK SMILES IDX 8 15 9 16 10 17 11 18 12 19 16 20 13 21 15 22 17 23 14 24
REMARK SMILES IDX 23 25 24 26 25 27 26 28 27 29 28 30 29 32 30 33 31 34 83 35
REMARK SMILES IDX 32 36 82 37 33 38 34 39 35 40 76 41 36 42 81 43 75 44 77 45
REMARK SMILES IDX 37 46 80 47 74 48 73 49 38 51 64 52 47 53 63 54 48 55 51 56
REMARK SMILES IDX 62 57 78 58 49 59 50 60 61 62 79 63 52 64 39 65 40 66 45 67
REMARK SMILES IDX 41 68 42 69 44 70 46 71 43 72 65 73 66 74 71 75 67 76 68 77
REMARK SMILES IDX 70 78 72 79 69 80 53 81 54 82 59 83 55 84 56 85 58 86 60 87
REMARK SMILES IDX 57 88
REMARK H PARENT 20 6 5 13 27 31 77 50 51 61
REMARK Flexibility Score: inf
ROOT
ATOM      1  C   UNL A   1      33.775  29.592  27.081  1.00  0.00     0.021 C 
ENDROOT
BRANCH   1   2
ATOM      2  C   UNL A   1      34.152  28.396  26.213  1.00  0.00     0.116 C 
BRANCH   2   3
ATOM      3  N   UNL A   1      34.255  28.745  24.809  1.00  0.00    -0.354 N 
ATOM      4  C   UNL A   1      33.892  28.060  23.688  1.00  0.00     0.245 C 
ATOM      5  O   UNL A   1      34.024  28.648  22.611  1.00  0.00    -0.272 OA
ATOM      6  H   UNL A   1      34.654  29.628  24.637  1.00  0.00     0.163 HD
BRANCH   4   7
ATOM      7  C   UNL A   1      33.231  26.655  23.780  1.00  0.00     0.116 C 
ATOM      8  C   UNL A   1      31.746  26.766  24.132  1.00  0.00     0.045 C 
BRANCH   7   9
ATOM      9  C   UNL A   1      33.966  25.852  24.897  1.00  0.00     0.035 C 
ATOM     10  C   UNL A   1      33.077  25.296  26.006  1.00  0.00     0.007 C 
ENDBRANCH   7   9
BRANCH   7  11
ATOM     11  N   UNL A   1      33.416  25.922  22.502  1.00  0.00    -0.342 N 
ATOM     12  C   UNL A   1      32.947  24.728  22.056  1.00  0.00     0.221 C 
ATOM     13  H   UNL A   1      33.988  26.392  21.853  1.00  0.00     0.164 HD
ATOM     14  O   UNL A   1      33.185  24.433  20.879  1.00  0.00    -0.275 OA
BRANCH  12  15
ATOM     15  C   UNL A   1      32.106  23.820  22.909  1.00  0.00     0.111 C 
BRANCH  15  16
ATOM     16  C   UNL A   1      32.361  22.326  22.733  1.00  0.00     0.085 C 
BRANCH  16  17
ATOM     17  S   UNL A   1      33.142  21.329  24.056  1.00  0.00    -0.124 SA
BRANCH  17  18
ATOM     18  C   UNL A   1      34.732  22.033  24.526  1.00  0.00     0.026 A 
ATOM     19  C   UNL A   1      35.703  22.460  23.617  1.00  0.00     0.016 A 
ATOM     20  C   UNL A   1      34.999  22.286  25.890  1.00  0.00     0.054 A 
ATOM     21  C   UNL A   1      36.783  23.268  24.003  1.00  0.00     0.001 A 
ATOM     22  C   UNL A   1      36.115  23.039  26.289  1.00  0.00     0.022 A 
ATOM     23  Cl  UNL A   1      33.997  21.674  27.167  1.00  0.00    -0.083 Cl
ATOM     24  C   UNL A   1      36.980  23.572  25.341  1.00  0.00     0.002 A 
ENDBRANCH  17  18
ENDBRANCH  16  17
ENDBRANCH  15  16
ENDBRANCH  12  15
ENDBRANCH   7  11
ENDBRANCH   4   7
ENDBRANCH   2   3
ENDBRANCH   1   2
BRANCH   1  25
ATOM     25  C   UNL A   1      32.270  29.791  27.247  1.00  0.00     0.002 C 
BRANCH  25  26
ATOM     26  C   UNL A   1      31.654  30.740  26.220  1.00  0.00     0.002 C 
BRANCH  26  27
ATOM     27  C   UNL A   1      31.491  32.178  26.717  1.00  0.00     0.021 C 
BRANCH  27  28
ATOM     28  C   UNL A   1      32.768  32.781  27.281  1.00  0.00     0.116 C 
BRANCH  28  29
ATOM     29  N   UNL A   1      32.532  34.119  27.792  1.00  0.00    -0.352 N 
ATOM     30  C   UNL A   1      33.160  34.744  28.838  1.00  0.00     0.251 C 
ATOM     31  H   UNL A   1      31.837  34.641  27.331  1.00  0.00     0.163 HD
ATOM     32  O   UNL A   1      32.686  35.747  29.350  1.00  0.00    -0.269 OA
BRANCH  30  33
ATOM     33  C   UNL A   1      34.421  34.166  29.341  1.00  0.00     0.039 A 
ATOM     34  C   UNL A   1      34.391  33.345  30.467  1.00  0.00     0.014 A 
ATOM     35  C   UNL A   1      35.621  34.417  28.666  1.00  0.00     0.014 A 
ATOM     36  C   UNL A   1      35.571  32.742  30.900  1.00  0.00     0.010 A 
ATOM     37  C   UNL A   1      36.776  33.750  29.051  1.00  0.00     0.010 A 
ATOM     38  C   UNL A   1      36.765  32.920  30.181  1.00  0.00    -0.014 A 
BRANCH  38  39
ATOM     39  C   UNL A   1      38.020  32.261  30.613  1.00  0.00     0.031 A 
ATOM     40  C   UNL A   1      38.861  32.884  31.692  1.00  0.00     0.074 A 
ATOM     41  C   UNL A   1      38.423  31.131  30.001  1.00  0.00     0.049 A 
ATOM     42  N   UNL A   1      40.005  32.483  32.181  1.00  0.00    -0.248 NA
ATOM     43  C   UNL A   1      38.363  34.138  32.281  1.00  0.00     0.031 C 
ATOM     44  C   UNL A   1      37.714  30.461  28.909  1.00  0.00     0.029 A 
ATOM     45  N   UNL A   1      39.529  30.349  30.209  1.00  0.00    -0.354 N 
ATOM     46  C   UNL A   1      40.367  33.437  33.124  1.00  0.00     0.074 A 
ATOM     47  C   UNL A   1      39.354  34.469  33.094  1.00  0.00     0.031 C 
ATOM     48  C   UNL A   1      38.388  29.353  28.563  1.00  0.00     0.029 A 
ATOM     49  C   UNL A   1      39.595  29.257  29.379  1.00  0.00     0.049 A 
ATOM     50  H   UNL A   1      40.212  30.551  30.888  1.00  0.00     0.167 HD
ATOM     51  C   UNL A   1      41.434  33.440  33.958  1.00  0.00     0.037 A 
ATOM     52  C   UNL A   1      40.526  28.290  29.285  1.00  0.00     0.037 A 
ATOM     53  C   UNL A   1      42.428  32.401  33.994  1.00  0.00     0.049 A 
ATOM     54  C   UNL A   1      41.710  28.324  30.213  1.00  0.00     0.074 A 
ATOM     55  C   UNL A   1      43.517  32.280  34.839  1.00  0.00     0.029 A 
ATOM     56  N   UNL A   1      42.457  31.307  33.142  1.00  0.00    -0.354 N 
ATOM     57  N   UNL A   1      42.001  29.193  31.149  1.00  0.00    -0.248 NA
ATOM     58  C   UNL A   1      42.690  27.238  30.073  1.00  0.00     0.031 C 
ATOM     59  C   UNL A   1      44.235  31.140  34.463  1.00  0.00     0.029 A 
ATOM     60  C   UNL A   1      43.561  30.519  33.423  1.00  0.00     0.049 A 
ATOM     61  H   UNL A   1      41.791  31.118  32.441  1.00  0.00     0.167 HD
ATOM     62  C   UNL A   1      43.180  28.744  31.731  1.00  0.00     0.074 A 
ATOM     63  C   UNL A   1      43.540  27.518  31.050  1.00  0.00     0.031 C 
ATOM     64  C   UNL A   1      43.900  29.297  32.738  1.00  0.00     0.037 A 
BRANCH  51  65
ATOM     65  C   UNL A   1      41.575  34.602  34.899  1.00  0.00     0.057 A 
ATOM     66  C   UNL A   1      42.283  35.759  34.546  1.00  0.00     0.134 A 
ATOM     67  C   UNL A   1      40.971  34.577  36.161  1.00  0.00     0.134 A 
ATOM     68  F   UNL A   1      42.899  35.844  33.357  1.00  0.00    -0.206 F 
ATOM     69  C   UNL A   1      42.407  36.837  35.424  1.00  0.00     0.040 A 
ATOM     70  C   UNL A   1      41.061  35.661  37.036  1.00  0.00     0.040 A 
ATOM     71  F   UNL A   1      40.272  33.504  36.562  1.00  0.00    -0.206 F 
ATOM     72  C   UNL A   1      41.789  36.792  36.671  1.00  0.00     0.006 A 
ENDBRANCH  51  65
BRANCH  52  73
ATOM     73  C   UNL A   1      40.368  27.197  28.291  1.00  0.00     0.057 A 
ATOM     74  C   UNL A   1      40.967  27.276  27.028  1.00  0.00     0.134 A 
ATOM     75  C   UNL A   1      39.609  26.055  28.575  1.00  0.00     0.134 A 
ATOM     76  F   UNL A   1      41.694  28.352  26.692  1.00  0.00    -0.206 F 
ATOM     77  C   UNL A   1      40.799  26.270  26.075  1.00  0.00     0.040 A 
ATOM     78  C   UNL A   1      39.456  25.029  27.640  1.00  0.00     0.040 A 
ATOM     79  F   UNL A   1      39.017  25.913  29.770  1.00  0.00    -0.206 F 
ATOM     80  C   UNL A   1      40.044  25.141  26.383  1.00  0.00     0.006 A 
ENDBRANCH  52  73
BRANCH  64  81
ATOM     81  C   UNL A   1      45.128  28.560  33.190  1.00  0.00     0.057 A 
ATOM     82  C   UNL A   1      46.396  28.837  32.663  1.00  0.00     0.134 A 
ATOM     83  C   UNL A   1      45.043  27.588  34.196  1.00  0.00     0.134 A 
ATOM     84  F   UNL A   1      46.544  29.748  31.688  1.00  0.00    -0.206 F 
ATOM     85  C   UNL A   1      47.532  28.155  33.101  1.00  0.00     0.040 A 
ATOM     86  C   UNL A   1      46.177  26.923  34.664  1.00  0.00     0.040 A 
ATOM     87  F   UNL A   1      43.861  27.282  34.750  1.00  0.00    -0.206 F 
ATOM     88  C   UNL A   1      47.425  27.200  34.111  1.00  0.00     0.006 A 
ENDBRANCH  64  81
ENDBRANCH  38  39
ENDBRANCH  30  33
ENDBRANCH  28  29
ENDBRANCH  27  28
ENDBRANCH  26  27
ENDBRANCH  25  26
ENDBRANCH   1  25
TORSDOF 19
ENDMDL
MODEL 2
REMARK VINA RESULT:     -10.4      3.871      8.852
REMARK SMILES CC[C@](C)(NC(=O)CCSc1ccccc1Cl)C(=O)NCCCCCCNC(=O)c1ccc(-c2c3nc(c(-c4c(F)cccc4F)c4ccc([nH]4)c(-c4c(F)cccc4F)c4nc(c(-c5c(F)cccc5F)c5ccc2[nH]5)C=C4)C=C3)cc1
REMARK SMILES IDX 22 1 21 2 20 3 18 4 19 5 3 7 4 8 2 9 1 10 5 11 6 12 7 14
REMARK SMILES IDX 8 15 9 16 10 17 11 18 12 19 16 20 13 21 15 22 17 23 14 24
REMARK SMILES IDX 23 25 24 26 25 27 26 28 27 29 28 30 29 32 30 33 31 34 83 35
REMARK SMILES IDX 32 36 82 37 33 38 34 39 35 40 76 41 36 42 81 43 75 44 77 45
REMARK SMILES IDX 37 46 80 47 74 48 73 49 38 51 64 52 47 53 63 54 48 55 51 56
REMARK SMILES IDX 62 57 78 58 49 59 50 60 61 62 79 63 52 64 39 65 40 66 45 67
REMARK SMILES IDX 41 68 42 69 44 70 46 71 43 72 65 73 66 74 71 75 67 76 68 77
REMARK SMILES IDX 70 78 72 79 69 80 53 81 54 82 59 83 55 84 56 85 58 86 60 87
REMARK SMILES IDX 57 88
REMARK H PARENT 20 6 5 13 27 31 77 50 51 61
REMARK Flexibility Score: inf
ROOT
ATOM      1  C   UNL A   1      37.552  23.853  25.630  1.00  0.00     0.021 C 
ENDROOT
BRANCH   1   2
ATOM      2  C   UNL A   1      36.040  23.976  25.800  1.00  0.00     0.116 C 
BRANCH   2   3
ATOM      3  N   UNL A   1      35.501  22.959  26.682  1.00  0.00    -0.354 N 
ATOM      4  C   UNL A   1      34.290  22.333  26.691  1.00  0.00     0.245 C 
ATOM      5  O   UNL A   1      34.137  21.434  27.522  1.00  0.00    -0.272 OA
ATOM      6  H   UNL A   1      36.116  22.670  27.394  1.00  0.00     0.163 HD
BRANCH   4   7
ATOM      7  C   UNL A   1      33.206  22.660  25.625  1.00  0.00     0.116 C 
ATOM      8  C   UNL A   1      32.469  23.957  25.968  1.00  0.00     0.045 C 
BRANCH   7   9
ATOM      9  C   UNL A   1      32.187  21.480  25.599  1.00  0.00     0.035 C 
ATOM     10  C   UNL A   1      32.471  20.383  24.576  1.00  0.00     0.007 C 
ENDBRANCH   7   9
BRANCH   7  11
ATOM     11  N   UNL A   1      33.828  22.748  24.280  1.00  0.00    -0.342 N 
ATOM     12  C   UNL A   1      33.473  23.413  23.150  1.00  0.00     0.221 C 
ATOM     13  H   UNL A   1      34.657  22.225  24.189  1.00  0.00     0.164 HD
ATOM     14  O   UNL A   1      34.270  23.384  22.205  1.00  0.00    -0.275 OA
BRANCH  12  15
ATOM     15  C   UNL A   1      32.211  24.224  23.051  1.00  0.00     0.111 C 
BRANCH  15  16
ATOM     16  C   UNL A   1      32.290  25.462  22.162  1.00  0.00     0.085 C 
BRANCH  16  17
ATOM     17  S   UNL A   1      31.438  27.018  22.616  1.00  0.00    -0.124 SA
BRANCH  17  18
ATOM     18  C   UNL A   1      31.934  27.557  24.262  1.00  0.00     0.026 A 
ATOM     19  C   UNL A   1      31.170  27.365  25.415  1.00  0.00     0.016 A 
ATOM     20  C   UNL A   1      33.219  28.111  24.447  1.00  0.00     0.054 A 
ATOM     21  C   UNL A   1      31.709  27.522  26.702  1.00  0.00     0.001 A 
ATOM     22  C   UNL A   1      33.742  28.332  25.732  1.00  0.00     0.022 A 
ATOM     23  Cl  UNL A   1      34.236  28.581  23.122  1.00  0.00    -0.083 Cl
ATOM     24  C   UNL A   1      33.004  27.991  26.860  1.00  0.00     0.002 A 
ENDBRANCH  17  18
ENDBRANCH  16  17
ENDBRANCH  15  16
ENDBRANCH  12  15
ENDBRANCH   7  11
ENDBRANCH   4   7
ENDBRANCH   2   3
ENDBRANCH   1   2
BRANCH   1  25
ATOM     25  C   UNL A   1      38.095  22.450  25.893  1.00  0.00     0.002 C 
BRANCH  25  26
ATOM     26  C   UNL A   1      37.754  21.438  24.800  1.00  0.00     0.002 C 
BRANCH  26  27
ATOM     27  C   UNL A   1      38.413  20.070  24.987  1.00  0.00     0.021 C 
BRANCH  27  28
ATOM     28  C   UNL A   1      39.300  19.981  26.219  1.00  0.00     0.116 C 
BRANCH  28  29
ATOM     29  N   UNL A   1      40.473  19.166  25.959  1.00  0.00    -0.352 N 
ATOM     30  C   UNL A   1      41.782  19.569  25.896  1.00  0.00     0.251 C 
ATOM     31  H   UNL A   1      40.308  18.207  25.810  1.00  0.00     0.163 HD
ATOM     32  O   UNL A   1      42.638  18.856  25.396  1.00  0.00    -0.269 OA
BRANCH  30  33
ATOM     33  C   UNL A   1      42.130  20.895  26.441  1.00  0.00     0.039 A 
ATOM     34  C   UNL A   1      42.412  21.938  25.561  1.00  0.00     0.014 A 
ATOM     35  C   UNL A   1      42.140  21.100  27.825  1.00  0.00     0.014 A 
ATOM     36  C   UNL A   1      42.673  23.208  26.073  1.00  0.00     0.010 A 
ATOM     37  C   UNL A   1      42.317  22.382  28.327  1.00  0.00     0.010 A 
ATOM     38  C   UNL A   1      42.602  23.444  27.457  1.00  0.00    -0.014 A 
BRANCH  38  39
ATOM     39  C   UNL A   1      42.846  24.796  28.013  1.00  0.00     0.031 A 
ATOM     40  C   UNL A   1      44.230  25.188  28.449  1.00  0.00     0.074 A 
ATOM     41  C   UNL A   1      41.815  25.648  28.167  1.00  0.00     0.049 A 
ATOM     42  N   UNL A   1      44.639  26.305  28.991  1.00  0.00    -0.248 NA
ATOM     43  C   UNL A   1      45.291  24.181  28.276  1.00  0.00     0.031 C 
ATOM     44  C   UNL A   1      40.420  25.360  27.826  1.00  0.00     0.029 A 
ATOM     45  N   UNL A   1      41.780  26.927  28.656  1.00  0.00    -0.354 N 
ATOM     46  C   UNL A   1      45.996  26.132  29.233  1.00  0.00     0.074 A 
ATOM     47  C   UNL A   1      46.329  24.782  28.837  1.00  0.00     0.031 C 
ATOM     48  C   UNL A   1      39.672  26.443  28.088  1.00  0.00     0.029 A 
ATOM     49  C   UNL A   1      40.525  27.484  28.653  1.00  0.00     0.049 A 
ATOM     50  H   UNL A   1      42.579  27.403  28.980  1.00  0.00     0.167 HD
ATOM     51  C   UNL A   1      46.890  27.027  29.717  1.00  0.00     0.037 A 
ATOM     52  C   UNL A   1      40.109  28.696  29.064  1.00  0.00     0.037 A 
ATOM     53  C   UNL A   1      46.554  28.374  30.092  1.00  0.00     0.049 A 
ATOM     54  C   UNL A   1      41.119  29.667  29.613  1.00  0.00     0.074 A 
ATOM     55  C   UNL A   1      47.394  29.379  30.540  1.00  0.00     0.029 A 
ATOM     56  N   UNL A   1      45.272  28.905  30.069  1.00  0.00    -0.354 N 
ATOM     57  N   UNL A   1      42.412  29.516  29.768  1.00  0.00    -0.248 NA
ATOM     58  C   UNL A   1      40.611  30.979  30.037  1.00  0.00     0.031 C 
ATOM     59  C   UNL A   1      46.612  30.499  30.839  1.00  0.00     0.029 A 
ATOM     60  C   UNL A   1      45.294  30.213  30.520  1.00  0.00     0.049 A 
ATOM     61  H   UNL A   1      44.466  28.421  29.774  1.00  0.00     0.167 HD
ATOM     62  C   UNL A   1      42.877  30.721  30.277  1.00  0.00     0.074 A 
ATOM     63  C   UNL A   1      41.729  31.596  30.392  1.00  0.00     0.031 C 
ATOM     64  C   UNL A   1      44.141  31.073  30.621  1.00  0.00     0.037 A 
BRANCH  51  65
ATOM     65  C   UNL A   1      48.314  26.574  29.864  1.00  0.00     0.057 A 
ATOM     66  C   UNL A   1      48.761  25.895  31.005  1.00  0.00     0.134 A 
ATOM     67  C   UNL A   1      49.243  26.793  28.839  1.00  0.00     0.134 A 
ATOM     68  F   UNL A   1      47.927  25.666  32.031  1.00  0.00    -0.206 F 
ATOM     69  C   UNL A   1      50.086  25.475  31.134  1.00  0.00     0.040 A 
ATOM     70  C   UNL A   1      50.562  26.349  28.943  1.00  0.00     0.040 A 
ATOM     71  F   UNL A   1      48.881  27.431  27.716  1.00  0.00    -0.206 F 
ATOM     72  C   UNL A   1      50.989  25.695  30.097  1.00  0.00     0.006 A 
ENDBRANCH  51  65
BRANCH  52  73
ATOM     73  C   UNL A   1      38.675  29.069  28.955  1.00  0.00     0.057 A 
ATOM     74  C   UNL A   1      38.142  29.549  27.753  1.00  0.00     0.134 A 
ATOM     75  C   UNL A   1      37.807  28.964  30.048  1.00  0.00     0.134 A 
ATOM     76  F   UNL A   1      38.927  29.687  26.674  1.00  0.00    -0.206 F 
ATOM     77  C   UNL A   1      36.804  29.933  27.648  1.00  0.00     0.040 A 
ATOM     78  C   UNL A   1      36.460  29.318  29.949  1.00  0.00     0.040 A 
ATOM     79  F   UNL A   1      38.252  28.502  31.226  1.00  0.00    -0.206 F 
ATOM     80  C   UNL A   1      35.959  29.813  28.748  1.00  0.00     0.006 A 
ENDBRANCH  52  73
BRANCH  64  81
ATOM     81  C   UNL A   1      44.354  32.474  31.116  1.00  0.00     0.057 A 
ATOM     82  C   UNL A   1      44.593  33.542  30.242  1.00  0.00     0.134 A 
ATOM     83  C   UNL A   1      44.279  32.762  32.485  1.00  0.00     0.134 A 
ATOM     84  F   UNL A   1      44.690  33.331  28.920  1.00  0.00    -0.206 F 
ATOM     85  C   UNL A   1      44.777  34.842  30.714  1.00  0.00     0.040 A 
ATOM     86  C   UNL A   1      44.429  34.064  32.966  1.00  0.00     0.040 A 
ATOM     87  F   UNL A   1      44.042  31.788  33.375  1.00  0.00    -0.206 F 
ATOM     88  C   UNL A   1      44.686  35.107  32.080  1.00  0.00     0.006 A 
ENDBRANCH  64  81
ENDBRANCH  38  39
ENDBRANCH  30  33
ENDBRANCH  28  29
ENDBRANCH  27  28
ENDBRANCH  26  27
ENDBRANCH  25  26
ENDBRANCH   1  25
TORSDOF 19
ENDMDL
MODEL 3
REMARK VINA RESULT:     -10.4      4.545      9.057
REMARK SMILES CC[C@](C)(NC(=O)CCSc1ccccc1Cl)C(=O)NCCCCCCNC(=O)c1ccc(-c2c3nc(c(-c4c(F)cccc4F)c4ccc([nH]4)c(-c4c(F)cccc4F)c4nc(c(-c5c(F)cccc5F)c5ccc2[nH]5)C=C4)C=C3)cc1
REMARK SMILES IDX 22 1 21 2 20 3 18 4 19 5 3 7 4 8 2 9 1 10 5 11 6 12 7 14
REMARK SMILES IDX 8 15 9 16 10 17 11 18 12 19 16 20 13 21 15 22 17 23 14 24
REMARK SMILES IDX 23 25 24 26 25 27 26 28 27 29 28 30 29 32 30 33 31 34 83 35
REMARK SMILES IDX 32 36 82 37 33 38 34 39 35 40 76 41 36 42 81 43 75 44 77 45
REMARK SMILES IDX 37 46 80 47 74 48 73 49 38 51 64 52 47 53 63 54 48 55 51 56
REMARK SMILES IDX 62 57 78 58 49 59 50 60 61 62 79 63 52 64 39 65 40 66 45 67
REMARK SMILES IDX 41 68 42 69 44 70 46 71 43 72 65 73 66 74 71 75 67 76 68 77
REMARK SMILES IDX 70 78 72 79 69 80 53 81 54 82 59 83 55 84 56 85 58 86 60 87
REMARK SMILES IDX 57 88
REMARK H PARENT 20 6 5 13 27 31 77 50 51 61
REMARK Flexibility Score: inf
ROOT
ATOM      1  C   UNL A   1      36.965  23.166  24.919  1.00  0.00     0.021 C 
ENDROOT
BRANCH   1   2
ATOM      2  C   UNL A   1      36.064  23.568  26.083  1.00  0.00     0.116 C 
BRANCH   2   3
ATOM      3  N   UNL A   1      35.314  22.445  26.612  1.00  0.00    -0.354 N 
ATOM      4  C   UNL A   1      34.009  22.085  26.451  1.00  0.00     0.245 C 
ATOM      5  O   UNL A   1      33.661  21.017  26.960  1.00  0.00    -0.272 OA
ATOM      6  H   UNL A   1      35.837  21.838  27.183  1.00  0.00     0.163 HD
BRANCH   4   7
ATOM      7  C   UNL A   1      33.045  22.925  25.566  1.00  0.00     0.116 C 
ATOM      8  C   UNL A   1      32.953  24.369  26.068  1.00  0.00     0.045 C 
BRANCH   7   9
ATOM      9  C   UNL A   1      31.634  22.266  25.633  1.00  0.00     0.035 C 
ATOM     10  C   UNL A   1      30.592  23.014  26.460  1.00  0.00     0.007 C 
ENDBRANCH   7   9
BRANCH   7  11
ATOM     11  N   UNL A   1      33.493  22.888  24.151  1.00  0.00    -0.342 N 
ATOM     12  C   UNL A   1      33.050  23.521  23.034  1.00  0.00     0.221 C 
ATOM     13  H   UNL A   1      34.259  22.291  23.992  1.00  0.00     0.164 HD
ATOM     14  O   UNL A   1      33.712  23.372  22.001  1.00  0.00    -0.275 OA
BRANCH  12  15
ATOM     15  C   UNL A   1      31.853  24.432  23.042  1.00  0.00     0.111 C 
BRANCH  15  16
ATOM     16  C   UNL A   1      31.943  25.645  22.121  1.00  0.00     0.085 C 
BRANCH  16  17
ATOM     17  S   UNL A   1      31.261  27.271  22.616  1.00  0.00    -0.124 SA
BRANCH  17  18
ATOM     18  C   UNL A   1      31.869  27.746  24.244  1.00  0.00     0.026 A 
ATOM     19  C   UNL A   1      31.138  27.609  25.426  1.00  0.00     0.016 A 
ATOM     20  C   UNL A   1      33.205  28.181  24.381  1.00  0.00     0.054 A 
ATOM     21  C   UNL A   1      31.740  27.702  26.691  1.00  0.00     0.001 A 
ATOM     22  C   UNL A   1      33.796  28.340  25.646  1.00  0.00     0.022 A 
ATOM     23  Cl  UNL A   1      34.205  28.575  23.019  1.00  0.00    -0.083 Cl
ATOM     24  C   UNL A   1      33.076  28.053  26.800  1.00  0.00     0.002 A 
ENDBRANCH  17  18
ENDBRANCH  16  17
ENDBRANCH  15  16
ENDBRANCH  12  15
ENDBRANCH   7  11
ENDBRANCH   4   7
ENDBRANCH   2   3
ENDBRANCH   1   2
BRANCH   1  25
ATOM     25  C   UNL A   1      37.897  21.996  25.228  1.00  0.00     0.002 C 
BRANCH  25  26
ATOM     26  C   UNL A   1      37.469  20.677  24.587  1.00  0.00     0.002 C 
BRANCH  26  27
ATOM     27  C   UNL A   1      38.364  19.489  24.946  1.00  0.00     0.021 C 
BRANCH  27  28
ATOM     28  C   UNL A   1      39.304  19.759  26.111  1.00  0.00     0.116 C 
BRANCH  28  29
ATOM     29  N   UNL A   1      40.472  18.900  26.048  1.00  0.00    -0.352 N 
ATOM     30  C   UNL A   1      41.791  19.272  26.031  1.00  0.00     0.251 C 
ATOM     31  H   UNL A   1      40.295  17.932  26.016  1.00  0.00     0.163 HD
ATOM     32  O   UNL A   1      42.664  18.486  25.694  1.00  0.00    -0.269 OA
BRANCH  30  33
ATOM     33  C   UNL A   1      42.132  20.653  26.420  1.00  0.00     0.039 A 
ATOM     34  C   UNL A   1      42.269  20.964  27.772  1.00  0.00     0.014 A 
ATOM     35  C   UNL A   1      42.346  21.623  25.434  1.00  0.00     0.014 A 
ATOM     36  C   UNL A   1      42.659  22.251  28.138  1.00  0.00     0.010 A 
ATOM     37  C   UNL A   1      42.815  22.878  25.799  1.00  0.00     0.010 A 
ATOM     38  C   UNL A   1      42.959  23.209  27.153  1.00  0.00    -0.014 A 
BRANCH  38  39
ATOM     39  C   UNL A   1      43.404  24.572  27.528  1.00  0.00     0.031 A 
ATOM     40  C   UNL A   1      42.390  25.612  27.913  1.00  0.00     0.074 A 
ATOM     41  C   UNL A   1      44.713  24.882  27.473  1.00  0.00     0.049 A 
ATOM     42  N   UNL A   1      42.575  26.866  28.235  1.00  0.00    -0.248 NA
ATOM     43  C   UNL A   1      40.978  25.196  27.910  1.00  0.00     0.031 C 
ATOM     44  C   UNL A   1      45.783  23.969  27.067  1.00  0.00     0.029 A 
ATOM     45  N   UNL A   1      45.365  26.054  27.757  1.00  0.00    -0.354 N 
ATOM     46  C   UNL A   1      41.308  27.388  28.462  1.00  0.00     0.074 A 
ATOM     47  C   UNL A   1      40.358  26.334  28.181  1.00  0.00     0.031 C 
ATOM     48  C   UNL A   1      46.961  24.607  27.157  1.00  0.00     0.029 A 
ATOM     49  C   UNL A   1      46.726  25.982  27.586  1.00  0.00     0.049 A 
ATOM     50  H   UNL A   1      44.903  26.870  28.056  1.00  0.00     0.167 HD
ATOM     51  C   UNL A   1      40.968  28.626  28.893  1.00  0.00     0.037 A 
ATOM     52  C   UNL A   1      47.675  26.922  27.753  1.00  0.00     0.037 A 
ATOM     53  C   UNL A   1      41.920  29.663  29.187  1.00  0.00     0.049 A 
ATOM     54  C   UNL A   1      47.270  28.294  28.217  1.00  0.00     0.074 A 
ATOM     55  C   UNL A   1      41.684  30.934  29.683  1.00  0.00     0.029 A 
ATOM     56  N   UNL A   1      43.291  29.551  29.008  1.00  0.00    -0.354 N 
ATOM     57  N   UNL A   1      46.074  28.752  28.498  1.00  0.00    -0.248 NA
ATOM     58  C   UNL A   1      48.348  29.277  28.391  1.00  0.00     0.031 C 
ATOM     59  C   UNL A   1      42.907  31.608  29.752  1.00  0.00     0.029 A 
ATOM     60  C   UNL A   1      43.911  30.739  29.357  1.00  0.00     0.049 A 
ATOM     61  H   UNL A   1      43.754  28.745  28.681  1.00  0.00     0.167 HD
ATOM     62  C   UNL A   1      46.258  30.065  28.913  1.00  0.00     0.074 A 
ATOM     63  C   UNL A   1      47.682  30.324  28.858  1.00  0.00     0.031 C 
ATOM     64  C   UNL A   1      45.332  30.976  29.303  1.00  0.00     0.037 A 
BRANCH  51  65
ATOM     65  C   UNL A   1      39.506  28.921  29.070  1.00  0.00     0.057 A 
ATOM     66  C   UNL A   1      38.707  29.371  28.011  1.00  0.00     0.134 A 
ATOM     67  C   UNL A   1      38.883  28.723  30.308  1.00  0.00     0.134 A 
ATOM     68  F   UNL A   1      39.243  29.596  26.802  1.00  0.00    -0.206 F 
ATOM     69  C   UNL A   1      37.348  29.640  28.184  1.00  0.00     0.040 A 
ATOM     70  C   UNL A   1      37.518  28.958  30.485  1.00  0.00     0.040 A 
ATOM     71  F   UNL A   1      39.587  28.287  31.365  1.00  0.00    -0.206 F 
ATOM     72  C   UNL A   1      36.749  29.427  29.422  1.00  0.00     0.006 A 
ENDBRANCH  51  65
BRANCH  52  73
ATOM     73  C   UNL A   1      49.101  26.593  27.500  1.00  0.00     0.057 A 
ATOM     74  C   UNL A   1      49.655  26.710  26.220  1.00  0.00     0.134 A 
ATOM     75  C   UNL A   1      49.942  26.146  28.528  1.00  0.00     0.134 A 
ATOM     76  F   UNL A   1      48.897  27.119  25.192  1.00  0.00    -0.206 F 
ATOM     77  C   UNL A   1      50.985  26.374  25.965  1.00  0.00     0.040 A 
ATOM     78  C   UNL A   1      51.281  25.832  28.292  1.00  0.00     0.040 A 
ATOM     79  F   UNL A   1      49.476  26.021  29.779  1.00  0.00    -0.206 F 
ATOM     80  C   UNL A   1      51.803  25.937  27.004  1.00  0.00     0.006 A 
ENDBRANCH  52  73
BRANCH  64  81
ATOM     81  C   UNL A   1      45.833  32.322  29.738  1.00  0.00     0.057 A 
ATOM     82  C   UNL A   1      46.224  32.578  31.058  1.00  0.00     0.134 A 
ATOM     83  C   UNL A   1      45.963  33.365  28.810  1.00  0.00     0.134 A 
ATOM     84  F   UNL A   1      46.112  31.627  31.998  1.00  0.00    -0.206 F 
ATOM     85  C   UNL A   1      46.701  33.831  31.447  1.00  0.00     0.040 A 
ATOM     86  C   UNL A   1      46.469  34.612  29.181  1.00  0.00     0.040 A 
ATOM     87  F   UNL A   1      45.617  33.184  27.528  1.00  0.00    -0.206 F 
ATOM     88  C   UNL A   1      46.832  34.850  30.505  1.00  0.00     0.006 A 
ENDBRANCH  64  81
ENDBRANCH  38  39
ENDBRANCH  30  33
ENDBRANCH  28  29
ENDBRANCH  27  28
ENDBRANCH  26  27
ENDBRANCH  25  26
ENDBRANCH   1  25
TORSDOF 19
ENDMDL
