MODEL 1
REMARK VINA RESULT:     -13.4      0.000      0.000
REMARK SMILES Cc1ccccc1OC1(C(=O)NCCCCCCNC(=O)c2ccc(-c3c4nc(c(-c5c(F)cccc5F)c5ccc([nH]5)c(-c5c(F)cccc5F)c5nc(c(-c6c(F)cccc6F)c6ccc3[nH]6)C=C5)C=C4)cc2)CCN(C(=O)[C@H]2CCCCO2)CC1
REMARK SMILES IDX 15 1 14 2 13 3 12 4 10 5 11 6 9 8 76 9 88 10 77 11 87 12
REMARK SMILES IDX 78 13 79 14 80 15 8 16 7 17 1 18 2 19 3 20 4 21 6 22 5 23
REMARK SMILES IDX 81 24 82 25 86 26 83 27 85 28 84 29 16 30 17 31 18 32 19 33
REMARK SMILES IDX 20 34 21 36 22 37 23 38 75 39 24 40 74 41 25 42 26 43 27 44
REMARK SMILES IDX 68 45 28 46 73 47 67 48 69 49 29 50 72 51 66 52 65 53 30 55
REMARK SMILES IDX 56 56 39 57 55 58 40 59 43 60 54 61 70 62 41 63 42 64 53 66
REMARK SMILES IDX 71 67 44 68 31 69 32 70 37 71 33 72 34 73 36 74 38 75 35 76
REMARK SMILES IDX 57 77 58 78 63 79 59 80 60 81 62 82 64 83 61 84 45 85 46 86
REMARK SMILES IDX 51 87 47 88 48 89 50 90 52 91 49 92
REMARK H PARENT 12 7 19 35 69 54 43 65
REMARK Flexibility Score: inf
ROOT
ATOM      1  C   UNL A   1      31.822  28.888  25.865  1.00  0.00     0.002 C 
ENDROOT
BRANCH   1   2
ATOM      2  C   UNL A   1      33.137  28.141  25.603  1.00  0.00     0.021 C 
BRANCH   2   3
ATOM      3  C   UNL A   1      33.165  26.680  26.060  1.00  0.00     0.116 C 
BRANCH   3   4
ATOM      4  N   UNL A   1      31.870  26.190  26.472  1.00  0.00    -0.353 N 
ATOM      5  C   UNL A   1      31.163  25.064  26.146  1.00  0.00     0.264 C 
ATOM      6  O   UNL A   1      30.144  24.893  26.828  1.00  0.00    -0.270 OA
ATOM      7  H   UNL A   1      31.407  26.778  27.110  1.00  0.00     0.163 HD
BRANCH   5   8
ATOM      8  C   UNL A   1      31.596  24.059  25.000  1.00  0.00     0.190 C 
ATOM      9  C   UNL A   1      33.085  24.267  24.737  1.00  0.00     0.080 C 
ATOM     10  C   UNL A   1      31.082  22.665  25.371  1.00  0.00     0.080 C 
ATOM     11  C   UNL A   1      34.011  23.148  25.183  1.00  0.00     0.124 C 
ATOM     12  C   UNL A   1      32.103  21.543  25.540  1.00  0.00     0.124 C 
ATOM     13  N   UNL A   1      33.467  21.795  25.091  1.00  0.00    -0.340 N 
ATOM     14  C   UNL A   1      34.384  20.768  24.813  1.00  0.00     0.251 C 
ATOM     15  O   UNL A   1      35.579  21.029  24.639  1.00  0.00    -0.272 OA
BRANCH   8  16
ATOM     16  O   UNL A   1      30.829  24.599  23.885  1.00  0.00    -0.477 OA
BRANCH  16  17
ATOM     17  C   UNL A   1      30.626  25.851  23.396  1.00  0.00     0.123 A 
ATOM     18  C   UNL A   1      32.833  26.529  22.212  1.00  0.00     0.048 C 
ATOM     19  C   UNL A   1      31.431  26.734  22.662  1.00  0.00    -0.009 A 
ATOM     20  C   UNL A   1      30.940  28.028  22.349  1.00  0.00     0.007 A 
ATOM     21  C   UNL A   1      29.680  28.455  22.740  1.00  0.00     0.001 A 
ATOM     22  C   UNL A   1      29.351  26.313  23.782  1.00  0.00     0.047 A 
ATOM     23  C   UNL A   1      28.878  27.590  23.462  1.00  0.00     0.004 A 
ENDBRANCH  16  17
ENDBRANCH   8  16
BRANCH  14  24
ATOM     24  C   UNL A   1      33.869  19.306  24.697  1.00  0.00     0.207 C 
ATOM     25  C   UNL A   1      32.998  19.176  23.438  1.00  0.00     0.042 C 
ATOM     26  O   UNL A   1      35.006  18.436  24.624  1.00  0.00    -0.368 OA
ATOM     27  C   UNL A   1      32.686  17.726  23.088  1.00  0.00     0.006 C 
ATOM     28  C   UNL A   1      34.678  17.068  24.415  1.00  0.00     0.161 C 
ATOM     29  C   UNL A   1      33.957  16.894  23.089  1.00  0.00     0.029 C 
ENDBRANCH  14  24
ENDBRANCH   5   8
ENDBRANCH   3   4
ENDBRANCH   2   3
ENDBRANCH   1   2
BRANCH   1  30
ATOM     30  C   UNL A   1      31.862  30.024  26.904  1.00  0.00     0.002 C 
BRANCH  30  31
ATOM     31  C   UNL A   1      33.166  30.821  26.995  1.00  0.00     0.021 C 
BRANCH  31  32
ATOM     32  C   UNL A   1      34.205  30.226  27.935  1.00  0.00     0.116 C 
BRANCH  32  33
ATOM     33  N   UNL A   1      35.007  31.217  28.645  1.00  0.00    -0.352 N 
ATOM     34  C   UNL A   1      36.285  31.102  29.169  1.00  0.00     0.251 C 
ATOM     35  H   UNL A   1      34.577  32.093  28.770  1.00  0.00     0.163 HD
ATOM     36  O   UNL A   1      36.795  32.040  29.754  1.00  0.00    -0.269 OA
BRANCH  34  37
ATOM     37  C   UNL A   1      37.079  29.877  28.889  1.00  0.00     0.039 A 
ATOM     38  C   UNL A   1      37.271  28.972  29.940  1.00  0.00     0.014 A 
ATOM     39  C   UNL A   1      37.788  29.730  27.702  1.00  0.00     0.014 A 
ATOM     40  C   UNL A   1      38.358  28.102  29.899  1.00  0.00     0.010 A 
ATOM     41  C   UNL A   1      38.920  28.940  27.697  1.00  0.00     0.010 A 
ATOM     42  C   UNL A   1      39.244  28.185  28.827  1.00  0.00    -0.014 A 
BRANCH  42  43
ATOM     43  C   UNL A   1      40.580  27.602  28.844  1.00  0.00     0.031 A 
ATOM     44  C   UNL A   1      40.782  26.184  28.490  1.00  0.00     0.074 A 
ATOM     45  C   UNL A   1      41.640  28.399  29.108  1.00  0.00     0.049 A 
ATOM     46  N   UNL A   1      41.830  25.497  28.792  1.00  0.00    -0.248 NA
ATOM     47  C   UNL A   1      39.769  25.413  27.783  1.00  0.00     0.031 C 
ATOM     48  C   UNL A   1      43.056  28.090  28.944  1.00  0.00     0.029 A 
ATOM     49  N   UNL A   1      41.628  29.608  29.818  1.00  0.00    -0.354 N 
ATOM     50  C   UNL A   1      41.744  24.284  28.148  1.00  0.00     0.074 A 
ATOM     51  C   UNL A   1      40.427  24.272  27.553  1.00  0.00     0.031 C 
ATOM     52  C   UNL A   1      43.765  28.873  29.773  1.00  0.00     0.029 A 
ATOM     53  C   UNL A   1      42.813  29.606  30.590  1.00  0.00     0.049 A 
ATOM     54  H   UNL A   1      40.940  30.311  29.786  1.00  0.00     0.167 HD
ATOM     55  C   UNL A   1      42.835  23.465  28.116  1.00  0.00     0.037 A 
ATOM     56  C   UNL A   1      42.743  29.560  31.953  1.00  0.00     0.037 A 
ATOM     57  C   UNL A   1      43.925  24.002  28.928  1.00  0.00     0.049 A 
ATOM     58  C   UNL A   1      43.334  28.309  32.570  1.00  0.00     0.074 A 
ATOM     59  C   UNL A   1      45.034  24.788  28.658  1.00  0.00     0.029 A 
ATOM     60  N   UNL A   1      43.781  24.002  30.303  1.00  0.00    -0.354 N 
ATOM     61  N   UNL A   1      43.802  27.300  31.888  1.00  0.00    -0.248 NA
ATOM     62  C   UNL A   1      43.359  28.062  34.014  1.00  0.00     0.031 C 
ATOM     63  C   UNL A   1      45.507  25.321  29.893  1.00  0.00     0.029 A 
ATOM     64  C   UNL A   1      44.696  24.843  30.905  1.00  0.00     0.049 A 
ATOM     65  H   UNL A   1      43.111  23.471  30.789  1.00  0.00     0.167 HD
ATOM     66  C   UNL A   1      44.138  26.292  32.747  1.00  0.00     0.074 A 
ATOM     67  C   UNL A   1      43.851  26.813  34.069  1.00  0.00     0.031 C 
ATOM     68  C   UNL A   1      44.595  25.078  32.333  1.00  0.00     0.037 A 
BRANCH  55  69
ATOM     69  C   UNL A   1      42.986  22.284  27.190  1.00  0.00     0.057 A 
ATOM     70  C   UNL A   1      42.186  21.136  27.357  1.00  0.00     0.134 A 
ATOM     71  C   UNL A   1      43.920  22.191  26.143  1.00  0.00     0.134 A 
ATOM     72  F   UNL A   1      41.186  21.100  28.247  1.00  0.00    -0.206 F 
ATOM     73  C   UNL A   1      42.377  19.959  26.620  1.00  0.00     0.040 A 
ATOM     74  C   UNL A   1      44.164  21.001  25.440  1.00  0.00     0.040 A 
ATOM     75  F   UNL A   1      44.597  23.260  25.709  1.00  0.00    -0.206 F 
ATOM     76  C   UNL A   1      43.397  19.874  25.685  1.00  0.00     0.006 A 
ENDBRANCH  55  69
BRANCH  56  77
ATOM     77  C   UNL A   1      41.575  30.310  32.489  1.00  0.00     0.057 A 
ATOM     78  C   UNL A   1      41.628  31.717  32.493  1.00  0.00     0.134 A 
ATOM     79  C   UNL A   1      40.317  29.720  32.622  1.00  0.00     0.134 A 
ATOM     80  F   UNL A   1      42.807  32.349  32.376  1.00  0.00    -0.206 F 
ATOM     81  C   UNL A   1      40.471  32.498  32.486  1.00  0.00     0.040 A 
ATOM     82  C   UNL A   1      39.151  30.495  32.642  1.00  0.00     0.040 A 
ATOM     83  F   UNL A   1      40.182  28.386  32.615  1.00  0.00    -0.206 F 
ATOM     84  C   UNL A   1      39.224  31.883  32.525  1.00  0.00     0.006 A 
ENDBRANCH  56  77
BRANCH  68  85
ATOM     85  C   UNL A   1      44.994  24.014  33.298  1.00  0.00     0.057 A 
ATOM     86  C   UNL A   1      46.297  23.938  33.806  1.00  0.00     0.134 A 
ATOM     87  C   UNL A   1      44.123  22.969  33.646  1.00  0.00     0.134 A 
ATOM     88  F   UNL A   1      47.206  24.879  33.504  1.00  0.00    -0.206 F 
ATOM     89  C   UNL A   1      46.709  22.887  34.629  1.00  0.00     0.040 A 
ATOM     90  C   UNL A   1      44.532  21.894  34.437  1.00  0.00     0.040 A 
ATOM     91  F   UNL A   1      42.843  22.968  33.240  1.00  0.00    -0.206 F 
ATOM     92  C   UNL A   1      45.828  21.854  34.936  1.00  0.00     0.006 A 
ENDBRANCH  68  85
ENDBRANCH  42  43
ENDBRANCH  34  37
ENDBRANCH  32  33
ENDBRANCH  31  32
ENDBRANCH  30  31
ENDBRANCH   1  30
TORSDOF 16
ENDMDL
MODEL 2
REMARK VINA RESULT:     -13.0      4.024      9.469
REMARK SMILES Cc1ccccc1OC1(C(=O)NCCCCCCNC(=O)c2ccc(-c3c4nc(c(-c5c(F)cccc5F)c5ccc([nH]5)c(-c5c(F)cccc5F)c5nc(c(-c6c(F)cccc6F)c6ccc3[nH]6)C=C5)C=C4)cc2)CCN(C(=O)[C@H]2CCCCO2)CC1
REMARK SMILES IDX 15 1 14 2 13 3 12 4 10 5 11 6 9 8 76 9 88 10 77 11 87 12
REMARK SMILES IDX 78 13 79 14 80 15 8 16 7 17 1 18 2 19 3 20 4 21 6 22 5 23
REMARK SMILES IDX 81 24 82 25 86 26 83 27 85 28 84 29 16 30 17 31 18 32 19 33
REMARK SMILES IDX 20 34 21 36 22 37 23 38 75 39 24 40 74 41 25 42 26 43 27 44
REMARK SMILES IDX 68 45 28 46 73 47 67 48 69 49 29 50 72 51 66 52 65 53 30 55
REMARK SMILES IDX 56 56 39 57 55 58 40 59 43 60 54 61 70 62 41 63 42 64 53 66
REMARK SMILES IDX 71 67 44 68 31 69 32 70 37 71 33 72 34 73 36 74 38 75 35 76
REMARK SMILES IDX 57 77 58 78 63 79 59 80 60 81 62 82 64 83 61 84 45 85 46 86
REMARK SMILES IDX 51 87 47 88 48 89 50 90 52 91 49 92
REMARK H PARENT 12 7 19 35 69 54 43 65
REMARK Flexibility Score: inf
ROOT
ATOM      1  C   UNL A   1      34.917  23.057  23.413  1.00  0.00     0.002 C 
ENDROOT
BRANCH   1   2
ATOM      2  C   UNL A   1      34.138  24.171  24.125  1.00  0.00     0.021 C 
BRANCH   2   3
ATOM      3  C   UNL A   1      34.044  25.496  23.362  1.00  0.00     0.116 C 
BRANCH   3   4
ATOM      4  N   UNL A   1      33.044  25.481  22.320  1.00  0.00    -0.353 N 
ATOM      5  C   UNL A   1      32.030  26.343  22.002  1.00  0.00     0.264 C 
ATOM      6  O   UNL A   1      31.467  26.087  20.929  1.00  0.00    -0.270 OA
ATOM      7  H   UNL A   1      33.103  24.701  21.723  1.00  0.00     0.163 HD
BRANCH   5   8
ATOM      8  C   UNL A   1      31.599  27.565  22.915  1.00  0.00     0.190 C 
ATOM      9  C   UNL A   1      31.093  26.999  24.239  1.00  0.00     0.080 C 
ATOM     10  C   UNL A   1      32.743  28.583  22.918  1.00  0.00     0.080 C 
ATOM     11  C   UNL A   1      31.975  27.232  25.454  1.00  0.00     0.124 C 
ATOM     12  C   UNL A   1      33.388  28.937  24.255  1.00  0.00     0.124 C 
ATOM     13  N   UNL A   1      32.719  28.490  25.470  1.00  0.00    -0.340 N 
ATOM     14  C   UNL A   1      32.956  29.061  26.731  1.00  0.00     0.251 C 
ATOM     15  O   UNL A   1      32.528  28.517  27.753  1.00  0.00    -0.272 OA
BRANCH   8  16
ATOM     16  O   UNL A   1      30.472  28.074  22.145  1.00  0.00    -0.477 OA
BRANCH  16  17
ATOM     17  C   UNL A   1      29.474  28.960  22.402  1.00  0.00     0.123 A 
ATOM     18  C   UNL A   1      27.593  27.608  23.571  1.00  0.00     0.048 C 
ATOM     19  C   UNL A   1      28.220  28.838  23.017  1.00  0.00    -0.009 A 
ATOM     20  C   UNL A   1      27.360  29.965  23.078  1.00  0.00     0.007 A 
ATOM     21  C   UNL A   1      27.719  31.197  22.551  1.00  0.00     0.001 A 
ATOM     22  C   UNL A   1      29.811  30.224  21.874  1.00  0.00     0.047 A 
ATOM     23  C   UNL A   1      28.954  31.328  21.945  1.00  0.00     0.004 A 
ENDBRANCH  16  17
ENDBRANCH   8  16
BRANCH  14  24
ATOM     24  C   UNL A   1      33.738  30.402  26.817  1.00  0.00     0.207 C 
ATOM     25  C   UNL A   1      32.845  31.466  27.472  1.00  0.00     0.042 C 
ATOM     26  O   UNL A   1      34.923  30.180  27.593  1.00  0.00    -0.368 OA
ATOM     27  C   UNL A   1      33.615  32.723  27.857  1.00  0.00     0.006 C 
ATOM     28  C   UNL A   1      35.686  31.354  27.837  1.00  0.00     0.161 C 
ATOM     29  C   UNL A   1      34.871  32.361  28.632  1.00  0.00     0.029 C 
ENDBRANCH  14  24
ENDBRANCH   5   8
ENDBRANCH   3   4
ENDBRANCH   2   3
ENDBRANCH   1   2
BRANCH   1  30
ATOM     30  C   UNL A   1      36.447  23.052  23.597  1.00  0.00     0.002 C 
BRANCH  30  31
ATOM     31  C   UNL A   1      36.969  22.634  24.973  1.00  0.00     0.021 C 
BRANCH  31  32
ATOM     32  C   UNL A   1      37.729  23.724  25.717  1.00  0.00     0.116 C 
BRANCH  32  33
ATOM     33  N   UNL A   1      39.094  23.358  26.082  1.00  0.00    -0.352 N 
ATOM     34  C   UNL A   1      40.044  24.089  26.779  1.00  0.00     0.251 C 
ATOM     35  H   UNL A   1      39.381  22.464  25.791  1.00  0.00     0.163 HD
ATOM     36  O   UNL A   1      41.152  23.625  26.977  1.00  0.00    -0.269 OA
BRANCH  34  37
ATOM     37  C   UNL A   1      39.654  25.382  27.401  1.00  0.00     0.039 A 
ATOM     38  C   UNL A   1      39.926  26.555  26.689  1.00  0.00     0.014 A 
ATOM     39  C   UNL A   1      39.236  25.449  28.726  1.00  0.00     0.014 A 
ATOM     40  C   UNL A   1      40.043  27.760  27.379  1.00  0.00     0.010 A 
ATOM     41  C   UNL A   1      39.444  26.618  29.430  1.00  0.00     0.010 A 
ATOM     42  C   UNL A   1      39.922  27.752  28.767  1.00  0.00    -0.014 A 
BRANCH  42  43
ATOM     43  C   UNL A   1      40.371  28.848  29.618  1.00  0.00     0.031 A 
ATOM     44  C   UNL A   1      39.411  29.852  30.113  1.00  0.00     0.074 A 
ATOM     45  C   UNL A   1      41.664  28.883  30.011  1.00  0.00     0.049 A 
ATOM     46  N   UNL A   1      39.736  31.012  30.570  1.00  0.00    -0.248 NA
ATOM     47  C   UNL A   1      37.973  29.621  30.094  1.00  0.00     0.031 C 
ATOM     48  C   UNL A   1      42.265  29.732  31.035  1.00  0.00     0.029 A 
ATOM     49  N   UNL A   1      42.757  28.288  29.367  1.00  0.00    -0.354 N 
ATOM     50  C   UNL A   1      38.608  31.593  31.102  1.00  0.00     0.074 A 
ATOM     51  C   UNL A   1      37.530  30.695  30.756  1.00  0.00     0.031 C 
ATOM     52  C   UNL A   1      43.575  29.860  30.770  1.00  0.00     0.029 A 
ATOM     53  C   UNL A   1      43.822  29.212  29.493  1.00  0.00     0.049 A 
ATOM     54  H   UNL A   1      42.781  27.412  28.921  1.00  0.00     0.167 HD
ATOM     55  C   UNL A   1      38.730  32.725  31.855  1.00  0.00     0.037 A 
ATOM     56  C   UNL A   1      44.335  29.822  28.385  1.00  0.00     0.037 A 
ATOM     57  C   UNL A   1      40.106  33.215  31.856  1.00  0.00     0.049 A 
ATOM     58  C   UNL A   1      44.142  31.324  28.349  1.00  0.00     0.074 A 
ATOM     59  C   UNL A   1      41.192  33.044  32.700  1.00  0.00     0.029 A 
ATOM     60  N   UNL A   1      40.610  33.759  30.689  1.00  0.00    -0.354 N 
ATOM     61  N   UNL A   1      43.474  32.004  29.240  1.00  0.00    -0.248 NA
ATOM     62  C   UNL A   1      44.618  32.167  27.249  1.00  0.00     0.031 C 
ATOM     63  C   UNL A   1      42.367  33.427  31.988  1.00  0.00     0.029 A 
ATOM     64  C   UNL A   1      41.988  33.843  30.725  1.00  0.00     0.049 A 
ATOM     65  H   UNL A   1      40.056  34.049  29.929  1.00  0.00     0.167 HD
ATOM     66  C   UNL A   1      43.389  33.308  28.841  1.00  0.00     0.074 A 
ATOM     67  C   UNL A   1      44.124  33.368  27.593  1.00  0.00     0.031 C 
ATOM     68  C   UNL A   1      42.695  34.257  29.528  1.00  0.00     0.037 A 
BRANCH  55  69
ATOM     69  C   UNL A   1      37.647  33.270  32.753  1.00  0.00     0.057 A 
ATOM     70  C   UNL A   1      37.707  33.072  34.147  1.00  0.00     0.134 A 
ATOM     71  C   UNL A   1      36.504  33.960  32.315  1.00  0.00     0.134 A 
ATOM     72  F   UNL A   1      38.775  32.517  34.733  1.00  0.00    -0.206 F 
ATOM     73  C   UNL A   1      36.665  33.431  35.014  1.00  0.00     0.040 A 
ATOM     74  C   UNL A   1      35.427  34.269  33.160  1.00  0.00     0.040 A 
ATOM     75  F   UNL A   1      36.400  34.422  31.064  1.00  0.00    -0.206 F 
ATOM     76  C   UNL A   1      35.500  33.994  34.515  1.00  0.00     0.006 A 
ENDBRANCH  55  69
BRANCH  56  77
ATOM     77  C   UNL A   1      44.337  28.930  27.194  1.00  0.00     0.057 A 
ATOM     78  C   UNL A   1      45.282  27.887  27.141  1.00  0.00     0.134 A 
ATOM     79  C   UNL A   1      43.237  28.836  26.340  1.00  0.00     0.134 A 
ATOM     80  F   UNL A   1      46.367  27.918  27.931  1.00  0.00    -0.206 F 
ATOM     81  C   UNL A   1      45.069  26.738  26.377  1.00  0.00     0.040 A 
ATOM     82  C   UNL A   1      43.027  27.699  25.551  1.00  0.00     0.040 A 
ATOM     83  F   UNL A   1      42.287  29.782  26.340  1.00  0.00    -0.206 F 
ATOM     84  C   UNL A   1      43.917  26.628  25.605  1.00  0.00     0.006 A 
ENDBRANCH  56  77
BRANCH  68  85
ATOM     85  C   UNL A   1      42.657  35.681  29.089  1.00  0.00     0.057 A 
ATOM     86  C   UNL A   1      41.800  36.108  28.067  1.00  0.00     0.134 A 
ATOM     87  C   UNL A   1      43.561  36.632  29.590  1.00  0.00     0.134 A 
ATOM     88  F   UNL A   1      40.921  35.260  27.510  1.00  0.00    -0.206 F 
ATOM     89  C   UNL A   1      41.829  37.417  27.578  1.00  0.00     0.040 A 
ATOM     90  C   UNL A   1      43.626  37.931  29.085  1.00  0.00     0.040 A 
ATOM     91  F   UNL A   1      44.399  36.332  30.595  1.00  0.00    -0.206 F 
ATOM     92  C   UNL A   1      42.754  38.329  28.078  1.00  0.00     0.006 A 
ENDBRANCH  68  85
ENDBRANCH  42  43
ENDBRANCH  34  37
ENDBRANCH  32  33
ENDBRANCH  31  32
ENDBRANCH  30  31
ENDBRANCH   1  30
TORSDOF 16
ENDMDL
MODEL 3
REMARK VINA RESULT:     -13.0      2.865      4.691
REMARK SMILES Cc1ccccc1OC1(C(=O)NCCCCCCNC(=O)c2ccc(-c3c4nc(c(-c5c(F)cccc5F)c5ccc([nH]5)c(-c5c(F)cccc5F)c5nc(c(-c6c(F)cccc6F)c6ccc3[nH]6)C=C5)C=C4)cc2)CCN(C(=O)[C@H]2CCCCO2)CC1
REMARK SMILES IDX 15 1 14 2 13 3 12 4 10 5 11 6 9 8 76 9 88 10 77 11 87 12
REMARK SMILES IDX 78 13 79 14 80 15 8 16 7 17 1 18 2 19 3 20 4 21 6 22 5 23
REMARK SMILES IDX 81 24 82 25 86 26 83 27 85 28 84 29 16 30 17 31 18 32 19 33
REMARK SMILES IDX 20 34 21 36 22 37 23 38 75 39 24 40 74 41 25 42 26 43 27 44
REMARK SMILES IDX 68 45 28 46 73 47 67 48 69 49 29 50 72 51 66 52 65 53 30 55
REMARK SMILES IDX 56 56 39 57 55 58 40 59 43 60 54 61 70 62 41 63 42 64 53 66
REMARK SMILES IDX 71 67 44 68 31 69 32 70 37 71 33 72 34 73 36 74 38 75 35 76
REMARK SMILES IDX 57 77 58 78 63 79 59 80 60 81 62 82 64 83 61 84 45 85 46 86
REMARK SMILES IDX 51 87 47 88 48 89 50 90 52 91 49 92
REMARK H PARENT 12 7 19 35 69 54 43 65
REMARK Flexibility Score: inf
ROOT
ATOM      1  C   UNL A   1      35.511  30.518  27.616  1.00  0.00     0.002 C 
ENDROOT
BRANCH   1   2
ATOM      2  C   UNL A   1      34.786  29.209  27.272  1.00  0.00     0.021 C 
BRANCH   2   3
ATOM      3  C   UNL A   1      33.609  29.346  26.302  1.00  0.00     0.116 C 
BRANCH   3   4
ATOM      4  N   UNL A   1      34.013  29.327  24.915  1.00  0.00    -0.353 N 
ATOM      5  C   UNL A   1      33.623  28.558  23.852  1.00  0.00     0.264 C 
ATOM      6  O   UNL A   1      34.073  28.938  22.762  1.00  0.00    -0.270 OA
ATOM      7  H   UNL A   1      34.699  29.994  24.691  1.00  0.00     0.163 HD
BRANCH   5   8
ATOM      8  C   UNL A   1      32.681  27.290  23.985  1.00  0.00     0.190 C 
ATOM      9  C   UNL A   1      32.394  26.775  22.578  1.00  0.00     0.080 C 
ATOM     10  C   UNL A   1      33.298  26.348  25.023  1.00  0.00     0.080 C 
ATOM     11  C   UNL A   1      33.042  25.454  22.198  1.00  0.00     0.124 C 
ATOM     12  C   UNL A   1      33.674  24.937  24.580  1.00  0.00     0.124 C 
ATOM     13  N   UNL A   1      33.195  24.484  23.280  1.00  0.00    -0.340 N 
ATOM     14  C   UNL A   1      33.114  23.129  22.922  1.00  0.00     0.251 C 
ATOM     15  O   UNL A   1      32.903  22.805  21.750  1.00  0.00    -0.272 OA
BRANCH   8  16
ATOM     16  O   UNL A   1      31.482  27.919  24.523  1.00  0.00    -0.477 OA
BRANCH  16  17
ATOM     17  C   UNL A   1      30.280  28.270  23.994  1.00  0.00     0.123 A 
ATOM     18  C   UNL A   1      28.881  26.088  23.876  1.00  0.00     0.048 C 
ATOM     19  C   UNL A   1      29.116  27.546  23.699  1.00  0.00    -0.009 A 
ATOM     20  C   UNL A   1      28.024  28.204  23.077  1.00  0.00     0.007 A 
ATOM     21  C   UNL A   1      28.062  29.552  22.752  1.00  0.00     0.001 A 
ATOM     22  C   UNL A   1      30.290  29.638  23.651  1.00  0.00     0.047 A 
ATOM     23  C   UNL A   1      29.204  30.275  23.042  1.00  0.00     0.004 A 
ENDBRANCH  16  17
ENDBRANCH   8  16
BRANCH  14  24
ATOM     24  C   UNL A   1      33.263  22.046  24.027  1.00  0.00     0.207 C 
ATOM     25  C   UNL A   1      32.503  20.780  23.602  1.00  0.00     0.042 C 
ATOM     26  O   UNL A   1      34.660  21.770  24.199  1.00  0.00    -0.368 OA
ATOM     27  C   UNL A   1      32.826  19.578  24.480  1.00  0.00     0.006 C 
ATOM     28  C   UNL A   1      34.936  20.720  25.116  1.00  0.00     0.161 C 
ATOM     29  C   UNL A   1      34.330  19.416  24.627  1.00  0.00     0.029 C 
ENDBRANCH  14  24
ENDBRANCH   5   8
ENDBRANCH   3   4
ENDBRANCH   2   3
ENDBRANCH   1   2
BRANCH   1  30
ATOM     30  C   UNL A   1      34.628  31.733  27.956  1.00  0.00     0.002 C 
BRANCH  30  31
ATOM     31  C   UNL A   1      34.730  32.274  29.385  1.00  0.00     0.021 C 
BRANCH  31  32
ATOM     32  C   UNL A   1      34.555  33.782  29.502  1.00  0.00     0.116 C 
BRANCH  32  33
ATOM     33  N   UNL A   1      33.732  34.202  30.631  1.00  0.00    -0.352 N 
ATOM     34  C   UNL A   1      34.026  34.193  31.987  1.00  0.00     0.251 C 
ATOM     35  H   UNL A   1      32.838  34.540  30.397  1.00  0.00     0.163 HD
ATOM     36  O   UNL A   1      33.198  34.567  32.797  1.00  0.00    -0.269 OA
BRANCH  34  37
ATOM     37  C   UNL A   1      35.405  33.856  32.429  1.00  0.00     0.039 A 
ATOM     38  C   UNL A   1      36.450  34.669  31.977  1.00  0.00     0.014 A 
ATOM     39  C   UNL A   1      35.682  32.660  33.083  1.00  0.00     0.014 A 
ATOM     40  C   UNL A   1      37.745  34.157  31.937  1.00  0.00     0.010 A 
ATOM     41  C   UNL A   1      36.943  32.111  32.959  1.00  0.00     0.010 A 
ATOM     42  C   UNL A   1      37.953  32.832  32.316  1.00  0.00    -0.014 A 
BRANCH  42  43
ATOM     43  C   UNL A   1      39.160  32.084  31.986  1.00  0.00     0.031 A 
ATOM     44  C   UNL A   1      39.080  30.857  31.171  1.00  0.00     0.074 A 
ATOM     45  C   UNL A   1      40.360  32.575  32.369  1.00  0.00     0.049 A 
ATOM     46  N   UNL A   1      40.002  29.959  31.108  1.00  0.00    -0.248 NA
ATOM     47  C   UNL A   1      37.903  30.534  30.375  1.00  0.00     0.031 C 
ATOM     48  C   UNL A   1      41.685  32.130  31.948  1.00  0.00     0.029 A 
ATOM     49  N   UNL A   1      40.611  33.457  33.428  1.00  0.00    -0.354 N 
ATOM     50  C   UNL A   1      39.659  29.064  30.120  1.00  0.00     0.074 A 
ATOM     51  C   UNL A   1      38.329  29.454  29.712  1.00  0.00     0.031 C 
ATOM     52  C   UNL A   1      42.572  32.469  32.897  1.00  0.00     0.029 A 
ATOM     53  C   UNL A   1      41.820  33.015  34.014  1.00  0.00     0.049 A 
ATOM     54  H   UNL A   1      40.061  34.225  33.707  1.00  0.00     0.167 HD
ATOM     55  C   UNL A   1      40.581  28.150  29.697  1.00  0.00     0.037 A 
ATOM     56  C   UNL A   1      41.825  32.520  35.286  1.00  0.00     0.037 A 
ATOM     57  C   UNL A   1      41.796  28.209  30.505  1.00  0.00     0.049 A 
ATOM     58  C   UNL A   1      42.215  31.060  35.390  1.00  0.00     0.074 A 
ATOM     59  C   UNL A   1      43.011  28.864  30.377  1.00  0.00     0.029 A 
ATOM     60  N   UNL A   1      41.737  27.764  31.813  1.00  0.00    -0.354 N 
ATOM     61  N   UNL A   1      42.450  30.284  34.368  1.00  0.00    -0.248 NA
ATOM     62  C   UNL A   1      42.281  30.336  36.663  1.00  0.00     0.031 C 
ATOM     63  C   UNL A   1      43.646  28.868  31.653  1.00  0.00     0.029 A 
ATOM     64  C   UNL A   1      42.824  28.202  32.544  1.00  0.00     0.049 A 
ATOM     65  H   UNL A   1      41.012  27.207  32.175  1.00  0.00     0.167 HD
ATOM     66  C   UNL A   1      42.649  29.005  34.808  1.00  0.00     0.074 A 
ATOM     67  C   UNL A   1      42.541  29.084  36.251  1.00  0.00     0.031 C 
ATOM     68  C   UNL A   1      42.853  27.950  33.972  1.00  0.00     0.037 A 
BRANCH  55  69
ATOM     69  C   UNL A   1      40.459  27.346  28.426  1.00  0.00     0.057 A 
ATOM     70  C   UNL A   1      39.677  26.175  28.393  1.00  0.00     0.134 A 
ATOM     71  C   UNL A   1      41.112  27.640  27.217  1.00  0.00     0.134 A 
ATOM     72  F   UNL A   1      38.917  25.807  29.433  1.00  0.00    -0.206 F 
ATOM     73  C   UNL A   1      39.639  25.313  27.288  1.00  0.00     0.040 A 
ATOM     74  C   UNL A   1      41.133  26.758  26.126  1.00  0.00     0.040 A 
ATOM     75  F   UNL A   1      41.708  28.820  27.010  1.00  0.00    -0.206 F 
ATOM     76  C   UNL A   1      40.403  25.582  26.162  1.00  0.00     0.006 A 
ENDBRANCH  55  69
BRANCH  56  77
ATOM     77  C   UNL A   1      40.846  33.210  36.170  1.00  0.00     0.057 A 
ATOM     78  C   UNL A   1      39.590  32.609  36.375  1.00  0.00     0.134 A 
ATOM     79  C   UNL A   1      41.239  34.191  37.082  1.00  0.00     0.134 A 
ATOM     80  F   UNL A   1      39.147  31.664  35.530  1.00  0.00    -0.206 F 
ATOM     81  C   UNL A   1      38.825  32.870  37.513  1.00  0.00     0.040 A 
ATOM     82  C   UNL A   1      40.468  34.479  38.213  1.00  0.00     0.040 A 
ATOM     83  F   UNL A   1      42.427  34.802  36.962  1.00  0.00    -0.206 F 
ATOM     84  C   UNL A   1      39.283  33.785  38.456  1.00  0.00     0.006 A 
ENDBRANCH  56  77
BRANCH  68  85
ATOM     85  C   UNL A   1      43.110  26.575  34.485  1.00  0.00     0.057 A 
ATOM     86  C   UNL A   1      44.380  25.989  34.406  1.00  0.00     0.134 A 
ATOM     87  C   UNL A   1      42.070  25.757  34.957  1.00  0.00     0.134 A 
ATOM     88  F   UNL A   1      45.428  26.687  33.941  1.00  0.00    -0.206 F 
ATOM     89  C   UNL A   1      44.608  24.665  34.790  1.00  0.00     0.040 A 
ATOM     90  C   UNL A   1      42.277  24.423  35.309  1.00  0.00     0.040 A 
ATOM     91  F   UNL A   1      40.824  26.235  35.106  1.00  0.00    -0.206 F 
ATOM     92  C   UNL A   1      43.551  23.874  35.230  1.00  0.00     0.006 A 
ENDBRANCH  68  85
ENDBRANCH  42  43
ENDBRANCH  34  37
ENDBRANCH  32  33
ENDBRANCH  31  32
ENDBRANCH  30  31
ENDBRANCH   1  30
TORSDOF 16
ENDMDL
