MODEL 1
REMARK VINA RESULT:     -10.9      0.000      0.000
REMARK SMILES O=C(Cc1ccccc1Nc1c(Cl)cccc1C(F)(F)F)NCCCCCCNC(=O)c1ccc(-c2c3nc(c(-c4c(F)cccc4F)c4ccc([nH]4)c(-c4c(F)cccc4F)c4nc(c(-c5c(F)cccc5F)c5ccc2[nH]5)C=C4)C=C3)cc1
REMARK SMILES IDX 24 1 23 2 22 3 1 4 2 5 3 7 4 8 5 9 9 10 6 11 8 12 7 13 10 14
REMARK SMILES IDX 11 16 12 17 17 18 13 19 14 20 16 21 15 22 18 23 19 24 20 25
REMARK SMILES IDX 21 26 25 27 26 28 27 29 28 30 29 31 30 32 31 34 32 35 33 36
REMARK SMILES IDX 85 37 34 38 84 39 35 40 36 41 37 42 78 43 38 44 83 45 77 46
REMARK SMILES IDX 79 47 39 48 82 49 76 50 75 51 40 53 66 54 49 55 65 56 50 57
REMARK SMILES IDX 53 58 64 59 80 60 51 61 52 62 63 64 81 65 54 66 41 67 42 68
REMARK SMILES IDX 47 69 43 70 44 71 46 72 48 73 45 74 67 75 68 76 73 77 69 78
REMARK SMILES IDX 70 79 72 80 74 81 71 82 55 83 56 84 61 85 57 86 58 87 60 88
REMARK SMILES IDX 62 89 59 90
REMARK H PARENT 22 6 10 15 29 33 79 52 53 63
REMARK Flexibility Score: inf
ROOT
ATOM      1  C   UNL A   1      33.295  28.960  23.752  1.00  0.00     0.021 C 
ENDROOT
BRANCH   1   2
ATOM      2  C   UNL A   1      33.492  28.231  22.420  1.00  0.00     0.116 C 
BRANCH   2   3
ATOM      3  N   UNL A   1      33.103  26.843  22.537  1.00  0.00    -0.356 N 
ATOM      4  O   UNL A   1      31.050  26.952  21.505  1.00  0.00    -0.275 OA
ATOM      5  C   UNL A   1      31.922  26.305  22.074  1.00  0.00     0.224 C 
ATOM      6  H   UNL A   1      33.733  26.233  22.983  1.00  0.00     0.163 HD
BRANCH   5   7
ATOM      7  C   UNL A   1      31.790  24.812  22.364  1.00  0.00     0.137 C 
BRANCH   7   8
ATOM      8  C   UNL A   1      31.479  24.535  23.821  1.00  0.00    -0.015 A 
ATOM      9  C   UNL A   1      30.561  25.377  24.485  1.00  0.00     0.006 A 
ATOM     10  C   UNL A   1      32.082  23.483  24.539  1.00  0.00     0.042 A 
ATOM     11  C   UNL A   1      30.303  25.238  25.846  1.00  0.00     0.000 A 
ATOM     12  C   UNL A   1      31.816  23.372  25.915  1.00  0.00     0.026 A 
ATOM     13  C   UNL A   1      30.946  24.245  26.566  1.00  0.00     0.002 A 
BRANCH  10  14
ATOM     14  N   UNL A   1      32.870  22.515  23.881  1.00  0.00    -0.354 N 
ATOM     15  H   UNL A   1      32.597  22.315  22.956  1.00  0.00     0.167 HD
BRANCH  14  16
ATOM     16  C   UNL A   1      33.994  21.788  24.341  1.00  0.00     0.070 A 
ATOM     17  C   UNL A   1      33.838  20.404  24.601  1.00  0.00     0.065 A 
ATOM     18  C   UNL A   1      35.286  22.344  24.474  1.00  0.00     0.080 A 
ATOM     19  Cl  UNL A   1      32.273  19.664  24.521  1.00  0.00    -0.082 Cl
ATOM     20  C   UNL A   1      34.925  19.584  24.913  1.00  0.00     0.023 A 
ATOM     21  C   UNL A   1      36.377  21.490  24.765  1.00  0.00     0.015 A 
ATOM     22  C   UNL A   1      36.201  20.125  24.975  1.00  0.00     0.002 A 
BRANCH  18  23
ATOM     23  C   UNL A   1      35.597  23.821  24.366  1.00  0.00     0.418 C 
ATOM     24  F   UNL A   1      36.947  24.054  24.404  1.00  0.00    -0.166 F 
ATOM     25  F   UNL A   1      35.191  24.357  23.180  1.00  0.00    -0.166 F 
ATOM     26  F   UNL A   1      35.091  24.609  25.352  1.00  0.00    -0.166 F 
ENDBRANCH  18  23
ENDBRANCH  14  16
ENDBRANCH  10  14
ENDBRANCH   7   8
ENDBRANCH   5   7
ENDBRANCH   2   3
ENDBRANCH   1   2
BRANCH   1  27
ATOM     27  C   UNL A   1      31.878  28.872  24.341  1.00  0.00     0.002 C 
BRANCH  27  28
ATOM     28  C   UNL A   1      31.788  28.978  25.866  1.00  0.00     0.002 C 
BRANCH  28  29
ATOM     29  C   UNL A   1      32.666  27.990  26.635  1.00  0.00     0.021 C 
BRANCH  29  30
ATOM     30  C   UNL A   1      33.980  28.564  27.151  1.00  0.00     0.116 C 
BRANCH  30  31
ATOM     31  N   UNL A   1      33.833  29.901  27.703  1.00  0.00    -0.352 N 
ATOM     32  C   UNL A   1      34.735  30.642  28.422  1.00  0.00     0.251 C 
ATOM     33  H   UNL A   1      32.964  30.335  27.538  1.00  0.00     0.163 HD
ATOM     34  O   UNL A   1      34.391  31.702  28.944  1.00  0.00    -0.269 OA
BRANCH  32  35
ATOM     35  C   UNL A   1      36.123  30.157  28.593  1.00  0.00     0.039 A 
ATOM     36  C   UNL A   1      36.995  30.206  27.502  1.00  0.00     0.014 A 
ATOM     37  C   UNL A   1      36.562  29.646  29.817  1.00  0.00     0.014 A 
ATOM     38  C   UNL A   1      38.319  29.787  27.653  1.00  0.00     0.010 A 
ATOM     39  C   UNL A   1      37.901  29.301  29.986  1.00  0.00     0.010 A 
ATOM     40  C   UNL A   1      38.790  29.355  28.903  1.00  0.00    -0.014 A 
BRANCH  40  41
ATOM     41  C   UNL A   1      40.197  28.915  29.086  1.00  0.00     0.031 A 
ATOM     42  C   UNL A   1      41.209  29.862  29.673  1.00  0.00     0.074 A 
ATOM     43  C   UNL A   1      40.578  27.684  28.689  1.00  0.00     0.049 A 
ATOM     44  N   UNL A   1      42.496  29.696  29.848  1.00  0.00    -0.248 NA
ATOM     45  C   UNL A   1      40.713  31.182  30.099  1.00  0.00     0.031 C 
ATOM     46  C   UNL A   1      39.705  26.686  28.068  1.00  0.00     0.029 A 
ATOM     47  N   UNL A   1      41.803  27.068  28.739  1.00  0.00    -0.354 N 
ATOM     48  C   UNL A   1      42.959  30.885  30.398  1.00  0.00     0.074 A 
ATOM     49  C   UNL A   1      41.832  31.788  30.467  1.00  0.00     0.031 C 
ATOM     50  C   UNL A   1      40.419  25.577  27.809  1.00  0.00     0.029 A 
ATOM     51  C   UNL A   1      41.804  25.798  28.212  1.00  0.00     0.049 A 
ATOM     52  H   UNL A   1      42.606  27.494  29.116  1.00  0.00     0.167 HD
ATOM     53  C   UNL A   1      44.203  31.189  30.838  1.00  0.00     0.037 A 
ATOM     54  C   UNL A   1      42.811  24.916  28.065  1.00  0.00     0.037 A 
ATOM     55  C   UNL A   1      45.323  30.287  30.788  1.00  0.00     0.049 A 
ATOM     56  C   UNL A   1      44.188  25.284  28.551  1.00  0.00     0.074 A 
ATOM     57  C   UNL A   1      46.621  30.497  31.218  1.00  0.00     0.029 A 
ATOM     58  N   UNL A   1      45.273  28.997  30.281  1.00  0.00    -0.354 N 
ATOM     59  N   UNL A   1      44.599  26.398  29.108  1.00  0.00    -0.248 NA
ATOM     60  C   UNL A   1      45.238  24.266  28.402  1.00  0.00     0.031 C 
ATOM     61  C   UNL A   1      47.365  29.345  30.945  1.00  0.00     0.029 A 
ATOM     62  C   UNL A   1      46.517  28.400  30.390  1.00  0.00     0.049 A 
ATOM     63  H   UNL A   1      44.472  28.570  29.900  1.00  0.00     0.167 HD
ATOM     64  C   UNL A   1      45.940  26.197  29.414  1.00  0.00     0.074 A 
ATOM     65  C   UNL A   1      46.268  24.852  28.992  1.00  0.00     0.031 C 
ATOM     66  C   UNL A   1      46.821  27.049  29.993  1.00  0.00     0.037 A 
BRANCH  53  67
ATOM     67  C   UNL A   1      44.413  32.550  31.438  1.00  0.00     0.057 A 
ATOM     68  C   UNL A   1      44.781  33.649  30.649  1.00  0.00     0.134 A 
ATOM     69  C   UNL A   1      44.203  32.777  32.804  1.00  0.00     0.134 A 
ATOM     70  F   UNL A   1      45.011  33.497  29.336  1.00  0.00    -0.206 F 
ATOM     71  C   UNL A   1      44.951  34.919  31.200  1.00  0.00     0.040 A 
ATOM     72  C   UNL A   1      44.343  34.050  33.360  1.00  0.00     0.040 A 
ATOM     73  F   UNL A   1      43.844  31.772  33.616  1.00  0.00    -0.206 F 
ATOM     74  C   UNL A   1      44.723  35.124  32.559  1.00  0.00     0.006 A 
ENDBRANCH  53  67
BRANCH  54  75
ATOM     75  C   UNL A   1      42.566  23.589  27.440  1.00  0.00     0.057 A 
ATOM     76  C   UNL A   1      42.648  23.412  26.054  1.00  0.00     0.134 A 
ATOM     77  C   UNL A   1      42.193  22.480  28.209  1.00  0.00     0.134 A 
ATOM     78  F   UNL A   1      42.981  24.441  25.261  1.00  0.00    -0.206 F 
ATOM     79  C   UNL A   1      42.333  22.193  25.451  1.00  0.00     0.040 A 
ATOM     80  C   UNL A   1      41.905  21.246  27.622  1.00  0.00     0.040 A 
ATOM     81  F   UNL A   1      42.106  22.579  29.544  1.00  0.00    -0.206 F 
ATOM     82  C   UNL A   1      41.960  21.105  26.238  1.00  0.00     0.006 A 
ENDBRANCH  54  75
BRANCH  66  83
ATOM     83  C   UNL A   1      48.202  26.530  30.268  1.00  0.00     0.057 A 
ATOM     84  C   UNL A   1      48.528  25.874  31.461  1.00  0.00     0.134 A 
ATOM     85  C   UNL A   1      49.212  26.666  29.308  1.00  0.00     0.134 A 
ATOM     86  F   UNL A   1      47.609  25.721  32.427  1.00  0.00    -0.206 F 
ATOM     87  C   UNL A   1      49.819  25.399  31.702  1.00  0.00     0.040 A 
ATOM     88  C   UNL A   1      50.498  26.171  29.525  1.00  0.00     0.040 A 
ATOM     89  F   UNL A   1      48.964  27.275  28.138  1.00  0.00    -0.206 F 
ATOM     90  C   UNL A   1      50.806  25.543  30.730  1.00  0.00     0.006 A 
ENDBRANCH  66  83
ENDBRANCH  40  41
ENDBRANCH  32  35
ENDBRANCH  30  31
ENDBRANCH  29  30
ENDBRANCH  28  29
ENDBRANCH  27  28
ENDBRANCH   1  27
TORSDOF 17
ENDMDL
MODEL 2
REMARK VINA RESULT:     -10.9      3.462      4.806
REMARK SMILES O=C(Cc1ccccc1Nc1c(Cl)cccc1C(F)(F)F)NCCCCCCNC(=O)c1ccc(-c2c3nc(c(-c4c(F)cccc4F)c4ccc([nH]4)c(-c4c(F)cccc4F)c4nc(c(-c5c(F)cccc5F)c5ccc2[nH]5)C=C4)C=C3)cc1
REMARK SMILES IDX 24 1 23 2 22 3 1 4 2 5 3 7 4 8 5 9 9 10 6 11 8 12 7 13 10 14
REMARK SMILES IDX 11 16 12 17 17 18 13 19 14 20 16 21 15 22 18 23 19 24 20 25
REMARK SMILES IDX 21 26 25 27 26 28 27 29 28 30 29 31 30 32 31 34 32 35 33 36
REMARK SMILES IDX 85 37 34 38 84 39 35 40 36 41 37 42 78 43 38 44 83 45 77 46
REMARK SMILES IDX 79 47 39 48 82 49 76 50 75 51 40 53 66 54 49 55 65 56 50 57
REMARK SMILES IDX 53 58 64 59 80 60 51 61 52 62 63 64 81 65 54 66 41 67 42 68
REMARK SMILES IDX 47 69 43 70 44 71 46 72 48 73 45 74 67 75 68 76 73 77 69 78
REMARK SMILES IDX 70 79 72 80 74 81 71 82 55 83 56 84 61 85 57 86 58 87 60 88
REMARK SMILES IDX 62 89 59 90
REMARK H PARENT 22 6 10 15 29 33 79 52 53 63
REMARK Flexibility Score: inf
ROOT
ATOM      1  C   UNL A   1      31.861  28.514  27.227  1.00  0.00     0.021 C 
ENDROOT
BRANCH   1   2
ATOM      2  C   UNL A   1      32.712  27.424  26.570  1.00  0.00     0.116 C 
BRANCH   2   3
ATOM      3  N   UNL A   1      31.934  26.684  25.602  1.00  0.00    -0.356 N 
ATOM      4  O   UNL A   1      31.228  24.955  26.945  1.00  0.00    -0.275 OA
ATOM      5  C   UNL A   1      31.251  25.515  25.854  1.00  0.00     0.224 C 
ATOM      6  H   UNL A   1      31.887  27.046  24.687  1.00  0.00     0.163 HD
BRANCH   5   7
ATOM      7  C   UNL A   1      30.537  24.960  24.623  1.00  0.00     0.137 C 
BRANCH   7   8
ATOM      8  C   UNL A   1      31.471  24.803  23.440  1.00  0.00    -0.015 A 
ATOM      9  C   UNL A   1      31.381  25.735  22.384  1.00  0.00     0.006 A 
ATOM     10  C   UNL A   1      32.408  23.755  23.346  1.00  0.00     0.042 A 
ATOM     11  C   UNL A   1      32.140  25.594  21.225  1.00  0.00     0.000 A 
ATOM     12  C   UNL A   1      33.153  23.626  22.161  1.00  0.00     0.026 A 
ATOM     13  C   UNL A   1      33.014  24.527  21.107  1.00  0.00     0.002 A 
BRANCH  10  14
ATOM     14  N   UNL A   1      32.654  22.903  24.444  1.00  0.00    -0.354 N 
ATOM     15  H   UNL A   1      31.911  22.828  25.086  1.00  0.00     0.167 HD
BRANCH  14  16
ATOM     16  C   UNL A   1      33.801  22.138  24.765  1.00  0.00     0.070 A 
ATOM     17  C   UNL A   1      33.736  20.732  24.605  1.00  0.00     0.065 A 
ATOM     18  C   UNL A   1      35.036  22.703  25.152  1.00  0.00     0.080 A 
ATOM     19  Cl  UNL A   1      32.240  19.959  24.194  1.00  0.00    -0.082 Cl
ATOM     20  C   UNL A   1      34.861  19.918  24.756  1.00  0.00     0.023 A 
ATOM     21  C   UNL A   1      36.171  21.863  25.273  1.00  0.00     0.015 A 
ATOM     22  C   UNL A   1      36.087  20.488  25.070  1.00  0.00     0.002 A 
BRANCH  18  23
ATOM     23  C   UNL A   1      35.239  24.163  25.495  1.00  0.00     0.418 C 
ATOM     24  F   UNL A   1      34.357  24.579  26.459  1.00  0.00    -0.166 F 
ATOM     25  F   UNL A   1      36.469  24.411  26.028  1.00  0.00    -0.166 F 
ATOM     26  F   UNL A   1      35.063  25.044  24.474  1.00  0.00    -0.166 F 
ENDBRANCH  18  23
ENDBRANCH  14  16
ENDBRANCH  10  14
ENDBRANCH   7   8
ENDBRANCH   5   7
ENDBRANCH   2   3
ENDBRANCH   1   2
BRANCH   1  27
ATOM     27  C   UNL A   1      32.342  29.954  26.979  1.00  0.00     0.002 C 
BRANCH  27  28
ATOM     28  C   UNL A   1      31.399  30.831  26.151  1.00  0.00     0.002 C 
BRANCH  28  29
ATOM     29  C   UNL A   1      31.360  32.304  26.560  1.00  0.00     0.021 C 
BRANCH  29  30
ATOM     30  C   UNL A   1      32.660  32.844  27.145  1.00  0.00     0.116 C 
BRANCH  30  31
ATOM     31  N   UNL A   1      32.509  34.168  27.727  1.00  0.00    -0.352 N 
ATOM     32  C   UNL A   1      33.207  34.741  28.759  1.00  0.00     0.251 C 
ATOM     33  H   UNL A   1      31.809  34.731  27.324  1.00  0.00     0.163 HD
ATOM     34  O   UNL A   1      32.847  35.821  29.225  1.00  0.00    -0.269 OA
BRANCH  32  35
ATOM     35  C   UNL A   1      34.383  34.049  29.331  1.00  0.00     0.039 A 
ATOM     36  C   UNL A   1      34.196  33.169  30.400  1.00  0.00     0.014 A 
ATOM     37  C   UNL A   1      35.667  34.272  28.826  1.00  0.00     0.014 A 
ATOM     38  C   UNL A   1      35.289  32.479  30.930  1.00  0.00     0.010 A 
ATOM     39  C   UNL A   1      36.742  33.527  29.304  1.00  0.00     0.010 A 
ATOM     40  C   UNL A   1      36.567  32.633  30.370  1.00  0.00    -0.014 A 
BRANCH  40  41
ATOM     41  C   UNL A   1      37.740  31.900  30.914  1.00  0.00     0.031 A 
ATOM     42  C   UNL A   1      38.297  32.270  32.262  1.00  0.00     0.074 A 
ATOM     43  C   UNL A   1      38.330  30.933  30.183  1.00  0.00     0.049 A 
ATOM     44  N   UNL A   1      39.353  31.802  32.880  1.00  0.00    -0.248 NA
ATOM     45  C   UNL A   1      37.587  33.324  33.007  1.00  0.00     0.031 C 
ATOM     46  C   UNL A   1      37.913  30.507  28.845  1.00  0.00     0.029 A 
ATOM     47  N   UNL A   1      39.415  30.140  30.460  1.00  0.00    -0.354 N 
ATOM     48  C   UNL A   1      39.433  32.504  34.076  1.00  0.00     0.074 A 
ATOM     49  C   UNL A   1      38.361  33.475  34.071  1.00  0.00     0.031 C 
ATOM     50  C   UNL A   1      38.724  29.521  28.425  1.00  0.00     0.029 A 
ATOM     51  C   UNL A   1      39.736  29.269  29.446  1.00  0.00     0.049 A 
ATOM     52  H   UNL A   1      39.917  30.190  31.305  1.00  0.00     0.167 HD
ATOM     53  C   UNL A   1      40.298  32.335  35.104  1.00  0.00     0.037 A 
ATOM     54  C   UNL A   1      40.739  28.375  29.349  1.00  0.00     0.037 A 
ATOM     55  C   UNL A   1      41.355  31.357  35.119  1.00  0.00     0.049 A 
ATOM     56  C   UNL A   1      41.696  28.216  30.501  1.00  0.00     0.074 A 
ATOM     57  C   UNL A   1      42.278  31.101  36.118  1.00  0.00     0.029 A 
ATOM     58  N   UNL A   1      41.622  30.470  34.088  1.00  0.00    -0.354 N 
ATOM     59  N   UNL A   1      41.731  28.858  31.644  1.00  0.00    -0.248 NA
ATOM     60  C   UNL A   1      42.744  27.196  30.355  1.00  0.00     0.031 C 
ATOM     61  C   UNL A   1      43.124  30.077  35.678  1.00  0.00     0.029 A 
ATOM     62  C   UNL A   1      42.696  29.664  34.427  1.00  0.00     0.049 A 
ATOM     63  H   UNL A   1      41.124  30.421  33.241  1.00  0.00     0.167 HD
ATOM     64  C   UNL A   1      42.773  28.291  32.367  1.00  0.00     0.074 A 
ATOM     65  C   UNL A   1      43.336  27.246  31.539  1.00  0.00     0.031 C 
ATOM     66  C   UNL A   1      43.225  28.607  33.605  1.00  0.00     0.037 A 
BRANCH  53  67
ATOM     67  C   UNL A   1      40.123  33.211  36.310  1.00  0.00     0.057 A 
ATOM     68  C   UNL A   1      39.239  32.867  37.343  1.00  0.00     0.134 A 
ATOM     69  C   UNL A   1      40.873  34.383  36.467  1.00  0.00     0.134 A 
ATOM     70  F   UNL A   1      38.480  31.764  37.249  1.00  0.00    -0.206 F 
ATOM     71  C   UNL A   1      39.094  33.666  38.477  1.00  0.00     0.040 A 
ATOM     72  C   UNL A   1      40.757  35.175  37.610  1.00  0.00     0.040 A 
ATOM     73  F   UNL A   1      41.741  34.768  35.520  1.00  0.00    -0.206 F 
ATOM     74  C   UNL A   1      39.862  34.820  38.617  1.00  0.00     0.006 A 
ENDBRANCH  53  67
BRANCH  54  75
ATOM     75  C   UNL A   1      40.893  27.545  28.125  1.00  0.00     0.057 A 
ATOM     76  C   UNL A   1      41.657  27.987  27.039  1.00  0.00     0.134 A 
ATOM     77  C   UNL A   1      40.238  26.315  27.992  1.00  0.00     0.134 A 
ATOM     78  F   UNL A   1      42.293  29.167  27.097  1.00  0.00    -0.206 F 
ATOM     79  C   UNL A   1      41.735  27.257  25.852  1.00  0.00     0.040 A 
ATOM     80  C   UNL A   1      40.332  25.559  26.822  1.00  0.00     0.040 A 
ATOM     81  F   UNL A   1      39.498  25.828  28.999  1.00  0.00    -0.206 F 
ATOM     82  C   UNL A   1      41.071  26.037  25.743  1.00  0.00     0.006 A 
ENDBRANCH  54  75
BRANCH  66  83
ATOM     83  C   UNL A   1      44.334  27.767  34.168  1.00  0.00     0.057 A 
ATOM     84  C   UNL A   1      44.091  26.571  34.854  1.00  0.00     0.134 A 
ATOM     85  C   UNL A   1      45.670  28.153  33.994  1.00  0.00     0.134 A 
ATOM     86  F   UNL A   1      42.834  26.151  35.065  1.00  0.00    -0.206 F 
ATOM     87  C   UNL A   1      45.135  25.804  35.373  1.00  0.00     0.040 A 
ATOM     88  C   UNL A   1      46.723  27.380  34.483  1.00  0.00     0.040 A 
ATOM     89  F   UNL A   1      45.974  29.283  33.336  1.00  0.00    -0.206 F 
ATOM     90  C   UNL A   1      46.456  26.206  35.183  1.00  0.00     0.006 A 
ENDBRANCH  66  83
ENDBRANCH  40  41
ENDBRANCH  32  35
ENDBRANCH  30  31
ENDBRANCH  29  30
ENDBRANCH  28  29
ENDBRANCH  27  28
ENDBRANCH   1  27
TORSDOF 17
ENDMDL
MODEL 3
REMARK VINA RESULT:     -10.9      2.687      7.253
REMARK SMILES O=C(Cc1ccccc1Nc1c(Cl)cccc1C(F)(F)F)NCCCCCCNC(=O)c1ccc(-c2c3nc(c(-c4c(F)cccc4F)c4ccc([nH]4)c(-c4c(F)cccc4F)c4nc(c(-c5c(F)cccc5F)c5ccc2[nH]5)C=C4)C=C3)cc1
REMARK SMILES IDX 24 1 23 2 22 3 1 4 2 5 3 7 4 8 5 9 9 10 6 11 8 12 7 13 10 14
REMARK SMILES IDX 11 16 12 17 17 18 13 19 14 20 16 21 15 22 18 23 19 24 20 25
REMARK SMILES IDX 21 26 25 27 26 28 27 29 28 30 29 31 30 32 31 34 32 35 33 36
REMARK SMILES IDX 85 37 34 38 84 39 35 40 36 41 37 42 78 43 38 44 83 45 77 46
REMARK SMILES IDX 79 47 39 48 82 49 76 50 75 51 40 53 66 54 49 55 65 56 50 57
REMARK SMILES IDX 53 58 64 59 80 60 51 61 52 62 63 64 81 65 54 66 41 67 42 68
REMARK SMILES IDX 47 69 43 70 44 71 46 72 48 73 45 74 67 75 68 76 73 77 69 78
REMARK SMILES IDX 70 79 72 80 74 81 71 82 55 83 56 84 61 85 57 86 58 87 60 88
REMARK SMILES IDX 62 89 59 90
REMARK H PARENT 22 6 10 15 29 33 79 52 53 63
REMARK Flexibility Score: inf
ROOT
ATOM      1  C   UNL A   1      35.283  21.778  26.174  1.00  0.00     0.021 C 
ENDROOT
BRANCH   1   2
ATOM      2  C   UNL A   1      35.160  23.301  26.275  1.00  0.00     0.116 C 
BRANCH   2   3
ATOM      3  N   UNL A   1      34.926  23.880  24.971  1.00  0.00    -0.356 N 
ATOM      4  O   UNL A   1      34.075  25.915  25.624  1.00  0.00    -0.275 OA
ATOM      5  C   UNL A   1      34.408  25.135  24.738  1.00  0.00     0.224 C 
ATOM      6  H   UNL A   1      35.157  23.334  24.185  1.00  0.00     0.163 HD
BRANCH   5   7
ATOM      7  C   UNL A   1      34.260  25.457  23.253  1.00  0.00     0.137 C 
BRANCH   7   8
ATOM      8  C   UNL A   1      33.298  26.601  23.005  1.00  0.00    -0.015 A 
ATOM      9  C   UNL A   1      33.820  27.908  22.901  1.00  0.00     0.006 A 
ATOM     10  C   UNL A   1      31.906  26.411  22.894  1.00  0.00     0.042 A 
ATOM     11  C   UNL A   1      32.985  29.015  22.770  1.00  0.00     0.000 A 
ATOM     12  C   UNL A   1      31.083  27.545  22.776  1.00  0.00     0.026 A 
ATOM     13  C   UNL A   1      31.613  28.833  22.725  1.00  0.00     0.002 A 
BRANCH  10  14
ATOM     14  N   UNL A   1      31.355  25.115  22.821  1.00  0.00    -0.354 N 
ATOM     15  H   UNL A   1      30.965  24.878  21.947  1.00  0.00     0.167 HD
BRANCH  14  16
ATOM     16  C   UNL A   1      31.276  24.100  23.805  1.00  0.00     0.070 A 
ATOM     17  C   UNL A   1      31.883  22.850  23.530  1.00  0.00     0.065 A 
ATOM     18  C   UNL A   1      30.703  24.291  25.082  1.00  0.00     0.080 A 
ATOM     19  Cl  UNL A   1      32.550  22.519  21.965  1.00  0.00    -0.082 Cl
ATOM     20  C   UNL A   1      31.981  21.848  24.498  1.00  0.00     0.023 A 
ATOM     21  C   UNL A   1      30.838  23.272  26.057  1.00  0.00     0.015 A 
ATOM     22  C   UNL A   1      31.476  22.068  25.772  1.00  0.00     0.002 A 
BRANCH  18  23
ATOM     23  C   UNL A   1      29.903  25.510  25.487  1.00  0.00     0.418 C 
ATOM     24  F   UNL A   1      29.089  25.242  26.557  1.00  0.00    -0.166 F 
ATOM     25  F   UNL A   1      30.692  26.539  25.908  1.00  0.00    -0.166 F 
ATOM     26  F   UNL A   1      29.065  26.012  24.542  1.00  0.00    -0.166 F 
ENDBRANCH  18  23
ENDBRANCH  14  16
ENDBRANCH  10  14
ENDBRANCH   7   8
ENDBRANCH   5   7
ENDBRANCH   2   3
ENDBRANCH   1   2
BRANCH   1  27
ATOM     27  C   UNL A   1      35.678  21.246  24.786  1.00  0.00     0.002 C 
BRANCH  27  28
ATOM     28  C   UNL A   1      37.179  21.241  24.483  1.00  0.00     0.002 C 
BRANCH  28  29
ATOM     29  C   UNL A   1      37.920  19.972  24.905  1.00  0.00     0.021 C 
BRANCH  29  30
ATOM     30  C   UNL A   1      38.975  20.173  25.987  1.00  0.00     0.116 C 
BRANCH  30  31
ATOM     31  N   UNL A   1      40.094  19.253  25.859  1.00  0.00    -0.352 N 
ATOM     32  C   UNL A   1      41.434  19.498  26.020  1.00  0.00     0.251 C 
ATOM     33  H   UNL A   1      39.856  18.326  25.626  1.00  0.00     0.163 HD
ATOM     34  O   UNL A   1      42.260  18.634  25.726  1.00  0.00    -0.269 OA
BRANCH  32  35
ATOM     35  C   UNL A   1      41.892  20.811  26.525  1.00  0.00     0.039 A 
ATOM     36  C   UNL A   1      42.228  21.808  25.606  1.00  0.00     0.014 A 
ATOM     37  C   UNL A   1      41.999  21.058  27.896  1.00  0.00     0.014 A 
ATOM     38  C   UNL A   1      42.628  23.066  26.064  1.00  0.00     0.010 A 
ATOM     39  C   UNL A   1      42.322  22.334  28.349  1.00  0.00     0.010 A 
ATOM     40  C   UNL A   1      42.654  23.348  27.439  1.00  0.00    -0.014 A 
BRANCH  40  41
ATOM     41  C   UNL A   1      43.066  24.683  27.944  1.00  0.00     0.031 A 
ATOM     42  C   UNL A   1      42.024  25.732  28.227  1.00  0.00     0.074 A 
ATOM     43  C   UNL A   1      44.372  24.969  28.110  1.00  0.00     0.049 A 
ATOM     44  N   UNL A   1      42.181  26.977  28.603  1.00  0.00    -0.248 NA
ATOM     45  C   UNL A   1      40.617  25.338  28.038  1.00  0.00     0.031 C 
ATOM     46  C   UNL A   1      45.482  24.055  27.834  1.00  0.00     0.029 A 
ATOM     47  N   UNL A   1      44.988  26.117  28.543  1.00  0.00    -0.354 N 
ATOM     48  C   UNL A   1      40.901  27.509  28.692  1.00  0.00     0.074 A 
ATOM     49  C   UNL A   1      39.981  26.477  28.267  1.00  0.00     0.031 C 
ATOM     50  C   UNL A   1      46.642  24.673  28.118  1.00  0.00     0.029 A 
ATOM     51  C   UNL A   1      46.360  26.035  28.562  1.00  0.00     0.049 A 
ATOM     52  H   UNL A   1      44.494  26.924  28.814  1.00  0.00     0.167 HD
ATOM     53  C   UNL A   1      40.519  28.735  29.121  1.00  0.00     0.037 A 
ATOM     54  C   UNL A   1      47.285  26.956  28.892  1.00  0.00     0.037 A 
ATOM     55  C   UNL A   1      41.431  29.759  29.561  1.00  0.00     0.049 A 
ATOM     56  C   UNL A   1      46.834  28.317  29.353  1.00  0.00     0.074 A 
ATOM     57  C   UNL A   1      41.142  31.031  30.024  1.00  0.00     0.029 A 
ATOM     58  N   UNL A   1      42.810  29.621  29.600  1.00  0.00    -0.354 N 
ATOM     59  N   UNL A   1      45.617  28.790  29.473  1.00  0.00    -0.248 NA
ATOM     60  C   UNL A   1      47.886  29.267  29.741  1.00  0.00     0.031 C 
ATOM     61  C   UNL A   1      42.349  31.675  30.315  1.00  0.00     0.029 A 
ATOM     62  C   UNL A   1      43.386  30.786  30.080  1.00  0.00     0.049 A 
ATOM     63  H   UNL A   1      43.306  28.817  29.326  1.00  0.00     0.167 HD
ATOM     64  C   UNL A   1      45.756  30.073  29.989  1.00  0.00     0.074 A 
ATOM     65  C   UNL A   1      47.174  30.298  30.170  1.00  0.00     0.031 C 
ATOM     66  C   UNL A   1      44.797  30.983  30.285  1.00  0.00     0.037 A 
BRANCH  53  67
ATOM     67  C   UNL A   1      39.047  29.031  29.158  1.00  0.00     0.057 A 
ATOM     68  C   UNL A   1      38.301  28.882  30.336  1.00  0.00     0.134 A 
ATOM     69  C   UNL A   1      38.378  29.511  28.026  1.00  0.00     0.134 A 
ATOM     70  F   UNL A   1      38.879  28.413  31.453  1.00  0.00    -0.206 F 
ATOM     71  C   UNL A   1      36.939  29.181  30.380  1.00  0.00     0.040 A 
ATOM     72  C   UNL A   1      37.022  29.840  28.067  1.00  0.00     0.040 A 
ATOM     73  F   UNL A   1      39.032  29.682  26.869  1.00  0.00    -0.206 F 
ATOM     74  C   UNL A   1      36.298  29.670  29.245  1.00  0.00     0.006 A 
ENDBRANCH  53  67
BRANCH  54  75
ATOM     75  C   UNL A   1      48.733  26.631  28.815  1.00  0.00     0.057 A 
ATOM     76  C   UNL A   1      49.412  26.073  29.905  1.00  0.00     0.134 A 
ATOM     77  C   UNL A   1      49.484  26.917  27.669  1.00  0.00     0.134 A 
ATOM     78  F   UNL A   1      48.752  25.794  31.040  1.00  0.00    -0.206 F 
ATOM     79  C   UNL A   1      50.789  25.847  29.874  1.00  0.00     0.040 A 
ATOM     80  C   UNL A   1      50.857  26.667  27.612  1.00  0.00     0.040 A 
ATOM     81  F   UNL A   1      48.894  27.443  26.585  1.00  0.00    -0.206 F 
ATOM     82  C   UNL A   1      51.515  26.145  28.723  1.00  0.00     0.006 A 
ENDBRANCH  54  75
BRANCH  66  83
ATOM     83  C   UNL A   1      45.243  32.276  30.903  1.00  0.00     0.057 A 
ATOM     84  C   UNL A   1      45.332  32.449  32.290  1.00  0.00     0.134 A 
ATOM     85  C   UNL A   1      45.616  33.356  30.092  1.00  0.00     0.134 A 
ATOM     86  F   UNL A   1      44.979  31.459  33.123  1.00  0.00    -0.206 F 
ATOM     87  C   UNL A   1      45.746  33.660  32.848  1.00  0.00     0.040 A 
ATOM     88  C   UNL A   1      46.059  34.561  30.637  1.00  0.00     0.040 A 
ATOM     89  F   UNL A   1      45.565  33.253  28.754  1.00  0.00    -0.206 F 
ATOM     90  C   UNL A   1      46.116  34.718  32.020  1.00  0.00     0.006 A 
ENDBRANCH  66  83
ENDBRANCH  40  41
ENDBRANCH  32  35
ENDBRANCH  30  31
ENDBRANCH  29  30
ENDBRANCH  28  29
ENDBRANCH  27  28
ENDBRANCH   1  27
TORSDOF 17
ENDMDL
