MODEL 1
REMARK VINA RESULT:     -11.7      0.000      0.000
REMARK SMILES CC(C)(Cn1ccc2ccc([N+](=O)[O-])cc21)C(=O)NCCCCCCNC(=O)c1ccc(-c2c3nc(c(-c4c(F)cccc4F)c4ccc([nH]4)c(-c4c(F)cccc4F)c4nc(c(-c5c(F)cccc5F)c5ccc2[nH]5)C=C4)C=C3)cc1
REMARK SMILES IDX 22 1 21 2 20 3 19 4 17 5 18 6 2 8 1 9 3 10 4 11 5 12 6 13
REMARK SMILES IDX 16 14 7 15 8 16 15 17 9 18 11 19 10 20 12 21 13 22 14 23
REMARK SMILES IDX 23 24 24 25 25 26 26 27 27 28 28 30 29 31 30 32 82 33 31 34
REMARK SMILES IDX 81 35 32 36 33 37 34 38 75 39 35 40 80 41 74 42 76 43 36 44
REMARK SMILES IDX 79 45 73 46 72 47 37 49 63 50 46 51 62 52 47 53 50 54 61 55
REMARK SMILES IDX 77 56 48 57 49 58 60 60 78 61 51 62 38 63 39 64 44 65 40 66
REMARK SMILES IDX 41 67 43 68 45 69 42 70 64 71 65 72 70 73 66 74 67 75 69 76
REMARK SMILES IDX 71 77 68 78 52 79 53 80 58 81 54 82 55 83 57 84 59 85 56 86
REMARK H PARENT 19 7 26 29 76 48 50 59
REMARK Flexibility Score: inf
ROOT
ATOM      1  C   UNL A   1      39.901  22.108  26.482  1.00  0.00     0.002 C 
ENDROOT
BRANCH   1   2
ATOM      2  C   UNL A   1      38.669  21.528  25.783  1.00  0.00     0.021 C 
BRANCH   2   3
ATOM      3  C   UNL A   1      37.404  22.364  25.917  1.00  0.00     0.116 C 
BRANCH   3   4
ATOM      4  N   UNL A   1      36.226  21.605  25.569  1.00  0.00    -0.356 N 
ATOM      5  C   UNL A   1      35.249  21.791  24.649  1.00  0.00     0.227 C 
ATOM      6  O   UNL A   1      34.375  20.918  24.623  1.00  0.00    -0.274 OA
ATOM      7  H   UNL A   1      36.110  20.788  26.106  1.00  0.00     0.163 HD
BRANCH   5   8
ATOM      8  C   UNL A   1      35.207  22.997  23.694  1.00  0.00     0.061 C 
ATOM      9  C   UNL A   1      36.549  23.024  22.925  1.00  0.00     0.023 C 
ATOM     10  C   UNL A   1      35.210  24.338  24.465  1.00  0.00     0.023 C 
BRANCH   8  11
ATOM     11  C   UNL A   1      33.988  22.948  22.720  1.00  0.00     0.138 C 
BRANCH  11  12
ATOM     12  N   UNL A   1      33.002  24.025  22.749  1.00  0.00    -0.346 N 
ATOM     13  C   UNL A   1      32.880  24.979  21.763  1.00  0.00     0.087 A 
ATOM     14  C   UNL A   1      32.009  24.224  23.689  1.00  0.00     0.055 A 
ATOM     15  C   UNL A   1      31.924  25.888  22.157  1.00  0.00     0.028 A 
ATOM     16  C   UNL A   1      31.411  25.458  23.407  1.00  0.00     0.000 A 
ATOM     17  C   UNL A   1      31.605  23.458  24.791  1.00  0.00     0.112 A 
ATOM     18  C   UNL A   1      30.473  25.995  24.314  1.00  0.00     0.017 A 
ATOM     19  C   UNL A   1      30.778  24.070  25.743  1.00  0.00     0.271 A 
ATOM     20  C   UNL A   1      30.204  25.320  25.512  1.00  0.00     0.086 A 
BRANCH  19  21
ATOM     21  N   UNL A   1      30.586  23.401  27.038  1.00  0.00     0.062 N 
ATOM     22  O   UNL A   1      31.593  22.962  27.615  1.00  0.00    -0.258 OA
ATOM     23  O   UNL A   1      29.433  23.330  27.486  1.00  0.00    -0.258 OA
ENDBRANCH  19  21
ENDBRANCH  11  12
ENDBRANCH   8  11
ENDBRANCH   5   8
ENDBRANCH   3   4
ENDBRANCH   2   3
ENDBRANCH   1   2
BRANCH   1  24
ATOM     24  C   UNL A   1      40.892  21.074  27.025  1.00  0.00     0.002 C 
BRANCH  24  25
ATOM     25  C   UNL A   1      41.118  19.847  26.132  1.00  0.00     0.021 C 
BRANCH  25  26
ATOM     26  C   UNL A   1      42.477  19.170  26.318  1.00  0.00     0.116 C 
BRANCH  26  27
ATOM     27  N   UNL A   1      43.391  19.418  25.224  1.00  0.00    -0.352 N 
ATOM     28  C   UNL A   1      44.144  20.479  24.819  1.00  0.00     0.251 C 
ATOM     29  H   UNL A   1      43.493  18.636  24.634  1.00  0.00     0.163 HD
ATOM     30  O   UNL A   1      44.894  20.271  23.856  1.00  0.00    -0.269 OA
BRANCH  28  31
ATOM     31  C   UNL A   1      44.090  21.848  25.393  1.00  0.00     0.039 A 
ATOM     32  C   UNL A   1      44.734  22.270  26.556  1.00  0.00     0.014 A 
ATOM     33  C   UNL A   1      43.249  22.759  24.723  1.00  0.00     0.014 A 
ATOM     34  C   UNL A   1      44.464  23.525  27.089  1.00  0.00     0.010 A 
ATOM     35  C   UNL A   1      42.988  24.021  25.243  1.00  0.00     0.010 A 
ATOM     36  C   UNL A   1      43.556  24.380  26.457  1.00  0.00    -0.014 A 
BRANCH  36  37
ATOM     37  C   UNL A   1      43.295  25.668  27.087  1.00  0.00     0.031 A 
ATOM     38  C   UNL A   1      44.291  26.729  26.774  1.00  0.00     0.074 A 
ATOM     39  C   UNL A   1      42.221  25.928  27.858  1.00  0.00     0.049 A 
ATOM     40  N   UNL A   1      45.133  27.289  27.580  1.00  0.00    -0.248 NA
ATOM     41  C   UNL A   1      44.455  27.125  25.367  1.00  0.00     0.031 C 
ATOM     42  C   UNL A   1      41.023  25.115  28.075  1.00  0.00     0.029 A 
ATOM     43  N   UNL A   1      41.957  27.053  28.578  1.00  0.00    -0.354 N 
ATOM     44  C   UNL A   1      45.822  28.237  26.826  1.00  0.00     0.074 A 
ATOM     45  C   UNL A   1      45.459  28.001  25.452  1.00  0.00     0.031 C 
ATOM     46  C   UNL A   1      40.077  25.866  28.685  1.00  0.00     0.029 A 
ATOM     47  C   UNL A   1      40.650  27.157  29.030  1.00  0.00     0.049 A 
ATOM     48  H   UNL A   1      42.639  27.739  28.762  1.00  0.00     0.167 HD
ATOM     49  C   UNL A   1      46.487  29.268  27.418  1.00  0.00     0.037 A 
ATOM     50  C   UNL A   1      40.077  28.248  29.599  1.00  0.00     0.037 A 
ATOM     51  C   UNL A   1      46.758  28.991  28.806  1.00  0.00     0.049 A 
ATOM     52  C   UNL A   1      41.170  29.108  30.121  1.00  0.00     0.074 A 
ATOM     53  C   UNL A   1      47.463  28.014  29.483  1.00  0.00     0.029 A 
ATOM     54  N   UNL A   1      45.971  29.595  29.756  1.00  0.00    -0.354 N 
ATOM     55  N   UNL A   1      41.916  28.791  31.140  1.00  0.00    -0.248 NA
ATOM     56  C   UNL A   1      41.732  30.105  29.221  1.00  0.00     0.031 C 
ATOM     57  C   UNL A   1      46.688  27.746  30.650  1.00  0.00     0.029 A 
ATOM     58  C   UNL A   1      45.598  28.615  30.638  1.00  0.00     0.049 A 
ATOM     59  H   UNL A   1      45.724  30.548  29.795  1.00  0.00     0.167 HD
ATOM     60  C   UNL A   1      43.192  29.196  30.782  1.00  0.00     0.074 A 
ATOM     61  C   UNL A   1      43.004  30.073  29.627  1.00  0.00     0.031 C 
ATOM     62  C   UNL A   1      44.302  28.566  31.269  1.00  0.00     0.037 A 
BRANCH  49  63
ATOM     63  C   UNL A   1      46.559  30.668  26.853  1.00  0.00     0.057 A 
ATOM     64  C   UNL A   1      45.433  31.479  26.607  1.00  0.00     0.134 A 
ATOM     65  C   UNL A   1      47.793  31.349  26.864  1.00  0.00     0.134 A 
ATOM     66  F   UNL A   1      44.185  30.998  26.607  1.00  0.00    -0.206 F 
ATOM     67  C   UNL A   1      45.518  32.864  26.447  1.00  0.00     0.040 A 
ATOM     68  C   UNL A   1      47.883  32.742  26.752  1.00  0.00     0.040 A 
ATOM     69  F   UNL A   1      48.941  30.690  27.076  1.00  0.00    -0.206 F 
ATOM     70  C   UNL A   1      46.741  33.506  26.560  1.00  0.00     0.006 A 
ENDBRANCH  49  63
BRANCH  50  71
ATOM     71  C   UNL A   1      38.686  28.734  29.457  1.00  0.00     0.057 A 
ATOM     72  C   UNL A   1      38.267  29.422  28.305  1.00  0.00     0.134 A 
ATOM     73  C   UNL A   1      37.812  28.784  30.554  1.00  0.00     0.134 A 
ATOM     74  F   UNL A   1      39.055  29.509  27.224  1.00  0.00    -0.206 F 
ATOM     75  C   UNL A   1      37.060  30.128  28.248  1.00  0.00     0.040 A 
ATOM     76  C   UNL A   1      36.603  29.494  30.512  1.00  0.00     0.040 A 
ATOM     77  F   UNL A   1      38.141  28.198  31.714  1.00  0.00    -0.206 F 
ATOM     78  C   UNL A   1      36.229  30.177  29.359  1.00  0.00     0.006 A 
ENDBRANCH  50  71
BRANCH  62  79
ATOM     79  C   UNL A   1      44.114  27.563  32.372  1.00  0.00     0.057 A 
ATOM     80  C   UNL A   1      44.204  27.990  33.701  1.00  0.00     0.134 A 
ATOM     81  C   UNL A   1      43.984  26.181  32.161  1.00  0.00     0.134 A 
ATOM     82  F   UNL A   1      44.394  29.290  33.982  1.00  0.00    -0.206 F 
ATOM     83  C   UNL A   1      44.146  27.093  34.770  1.00  0.00     0.040 A 
ATOM     84  C   UNL A   1      43.889  25.276  33.223  1.00  0.00     0.040 A 
ATOM     85  F   UNL A   1      44.002  25.663  30.927  1.00  0.00    -0.206 F 
ATOM     86  C   UNL A   1      43.974  25.732  34.534  1.00  0.00     0.006 A 
ENDBRANCH  62  79
ENDBRANCH  36  37
ENDBRANCH  28  31
ENDBRANCH  26  27
ENDBRANCH  25  26
ENDBRANCH  24  25
ENDBRANCH   1  24
TORSDOF 16
ENDMDL
MODEL 2
REMARK VINA RESULT:     -11.7      1.803      2.381
REMARK SMILES CC(C)(Cn1ccc2ccc([N+](=O)[O-])cc21)C(=O)NCCCCCCNC(=O)c1ccc(-c2c3nc(c(-c4c(F)cccc4F)c4ccc([nH]4)c(-c4c(F)cccc4F)c4nc(c(-c5c(F)cccc5F)c5ccc2[nH]5)C=C4)C=C3)cc1
REMARK SMILES IDX 22 1 21 2 20 3 19 4 17 5 18 6 2 8 1 9 3 10 4 11 5 12 6 13
REMARK SMILES IDX 16 14 7 15 8 16 15 17 9 18 11 19 10 20 12 21 13 22 14 23
REMARK SMILES IDX 23 24 24 25 25 26 26 27 27 28 28 30 29 31 30 32 82 33 31 34
REMARK SMILES IDX 81 35 32 36 33 37 34 38 75 39 35 40 80 41 74 42 76 43 36 44
REMARK SMILES IDX 79 45 73 46 72 47 37 49 63 50 46 51 62 52 47 53 50 54 61 55
REMARK SMILES IDX 77 56 48 57 49 58 60 60 78 61 51 62 38 63 39 64 44 65 40 66
REMARK SMILES IDX 41 67 43 68 45 69 42 70 64 71 65 72 70 73 66 74 67 75 69 76
REMARK SMILES IDX 71 77 68 78 52 79 53 80 58 81 54 82 55 83 57 84 59 85 56 86
REMARK H PARENT 19 7 26 29 76 48 50 59
REMARK Flexibility Score: inf
ROOT
ATOM      1  C   UNL A   1      40.388  21.719  27.137  1.00  0.00     0.002 C 
ENDROOT
BRANCH   1   2
ATOM      2  C   UNL A   1      39.409  21.482  25.985  1.00  0.00     0.021 C 
BRANCH   2   3
ATOM      3  C   UNL A   1      38.204  22.412  25.966  1.00  0.00     0.116 C 
BRANCH   3   4
ATOM      4  N   UNL A   1      37.792  22.721  24.617  1.00  0.00    -0.356 N 
ATOM      5  C   UNL A   1      36.592  22.684  23.989  1.00  0.00     0.227 C 
ATOM      6  O   UNL A   1      36.606  23.029  22.803  1.00  0.00    -0.274 OA
ATOM      7  H   UNL A   1      38.531  23.019  24.038  1.00  0.00     0.163 HD
BRANCH   5   8
ATOM      8  C   UNL A   1      35.290  22.247  24.682  1.00  0.00     0.061 C 
ATOM      9  C   UNL A   1      35.405  20.731  24.968  1.00  0.00     0.023 C 
ATOM     10  C   UNL A   1      34.075  22.339  23.729  1.00  0.00     0.023 C 
BRANCH   8  11
ATOM     11  C   UNL A   1      35.004  23.057  25.986  1.00  0.00     0.138 C 
BRANCH  11  12
ATOM     12  N   UNL A   1      33.645  23.515  26.262  1.00  0.00    -0.346 N 
ATOM     13  C   UNL A   1      32.665  22.720  26.813  1.00  0.00     0.087 A 
ATOM     14  C   UNL A   1      33.146  24.794  26.103  1.00  0.00     0.055 A 
ATOM     15  C   UNL A   1      31.491  23.439  26.844  1.00  0.00     0.028 A 
ATOM     16  C   UNL A   1      31.767  24.733  26.335  1.00  0.00     0.000 A 
ATOM     17  C   UNL A   1      33.765  25.995  25.731  1.00  0.00     0.112 A 
ATOM     18  C   UNL A   1      30.971  25.869  26.074  1.00  0.00     0.017 A 
ATOM     19  C   UNL A   1      32.943  27.062  25.349  1.00  0.00     0.271 A 
ATOM     20  C   UNL A   1      31.560  27.015  25.525  1.00  0.00     0.086 A 
BRANCH  19  21
ATOM     21  N   UNL A   1      33.558  28.217  24.678  1.00  0.00     0.062 N 
ATOM     22  O   UNL A   1      34.007  28.047  23.534  1.00  0.00    -0.258 OA
ATOM     23  O   UNL A   1      33.579  29.296  25.287  1.00  0.00    -0.258 OA
ENDBRANCH  19  21
ENDBRANCH  11  12
ENDBRANCH   8  11
ENDBRANCH   5   8
ENDBRANCH   3   4
ENDBRANCH   2   3
ENDBRANCH   1   2
BRANCH   1  24
ATOM     24  C   UNL A   1      41.474  20.653  27.303  1.00  0.00     0.002 C 
BRANCH  24  25
ATOM     25  C   UNL A   1      41.497  19.563  26.222  1.00  0.00     0.021 C 
BRANCH  25  26
ATOM     26  C   UNL A   1      42.803  18.770  26.150  1.00  0.00     0.116 C 
BRANCH  26  27
ATOM     27  N   UNL A   1      43.552  19.017  24.936  1.00  0.00    -0.352 N 
ATOM     28  C   UNL A   1      44.270  20.064  24.443  1.00  0.00     0.251 C 
ATOM     29  H   UNL A   1      43.538  18.247  24.323  1.00  0.00     0.163 HD
ATOM     30  O   UNL A   1      44.861  19.857  23.374  1.00  0.00    -0.269 OA
BRANCH  28  31
ATOM     31  C   UNL A   1      44.347  21.421  25.045  1.00  0.00     0.039 A 
ATOM     32  C   UNL A   1      45.214  21.811  26.065  1.00  0.00     0.014 A 
ATOM     33  C   UNL A   1      43.402  22.353  24.574  1.00  0.00     0.014 A 
ATOM     34  C   UNL A   1      45.071  23.056  26.667  1.00  0.00     0.010 A 
ATOM     35  C   UNL A   1      43.265  23.605  25.161  1.00  0.00     0.010 A 
ATOM     36  C   UNL A   1      44.065  23.932  26.245  1.00  0.00    -0.014 A 
BRANCH  36  37
ATOM     37  C   UNL A   1      43.950  25.207  26.941  1.00  0.00     0.031 A 
ATOM     38  C   UNL A   1      45.082  26.148  26.712  1.00  0.00     0.074 A 
ATOM     39  C   UNL A   1      42.894  25.561  27.700  1.00  0.00     0.049 A 
ATOM     40  N   UNL A   1      45.963  26.551  27.569  1.00  0.00    -0.248 NA
ATOM     41  C   UNL A   1      45.338  26.594  25.335  1.00  0.00     0.031 C 
ATOM     42  C   UNL A   1      41.597  24.897  27.842  1.00  0.00     0.029 A 
ATOM     43  N   UNL A   1      42.753  26.671  28.476  1.00  0.00    -0.354 N 
ATOM     44  C   UNL A   1      46.788  27.442  26.886  1.00  0.00     0.074 A 
ATOM     45  C   UNL A   1      46.441  27.328  25.493  1.00  0.00     0.031 C 
ATOM     46  C   UNL A   1      40.736  25.729  28.471  1.00  0.00     0.029 A 
ATOM     47  C   UNL A   1      41.456  26.917  28.902  1.00  0.00     0.049 A 
ATOM     48  H   UNL A   1      43.510  27.253  28.715  1.00  0.00     0.167 HD
ATOM     49  C   UNL A   1      47.560  28.347  27.551  1.00  0.00     0.037 A 
ATOM     50  C   UNL A   1      41.009  28.040  29.519  1.00  0.00     0.037 A 
ATOM     51  C   UNL A   1      47.751  27.964  28.927  1.00  0.00     0.049 A 
ATOM     52  C   UNL A   1      42.184  28.725  30.114  1.00  0.00     0.074 A 
ATOM     53  C   UNL A   1      48.306  26.870  29.564  1.00  0.00     0.029 A 
ATOM     54  N   UNL A   1      47.018  28.612  29.891  1.00  0.00    -0.354 N 
ATOM     55  N   UNL A   1      42.853  28.260  31.131  1.00  0.00    -0.248 NA
ATOM     56  C   UNL A   1      42.895  29.688  29.285  1.00  0.00     0.031 C 
ATOM     57  C   UNL A   1      47.467  26.642  30.695  1.00  0.00     0.029 A 
ATOM     58  C   UNL A   1      46.497  27.642  30.707  1.00  0.00     0.049 A 
ATOM     59  H   UNL A   1      46.892  29.585  29.978  1.00  0.00     0.167 HD
ATOM     60  C   UNL A   1      44.181  28.518  30.827  1.00  0.00     0.074 A 
ATOM     61  C   UNL A   1      44.140  29.472  29.719  1.00  0.00     0.031 C 
ATOM     62  C   UNL A   1      45.186  27.726  31.304  1.00  0.00     0.037 A 
BRANCH  49  63
ATOM     63  C   UNL A   1      47.826  29.754  27.068  1.00  0.00     0.057 A 
ATOM     64  C   UNL A   1      46.821  30.721  26.862  1.00  0.00     0.134 A 
ATOM     65  C   UNL A   1      49.138  30.263  27.127  1.00  0.00     0.134 A 
ATOM     66  F   UNL A   1      45.521  30.411  26.826  1.00  0.00    -0.206 F 
ATOM     67  C   UNL A   1      47.092  32.089  26.782  1.00  0.00     0.040 A 
ATOM     68  C   UNL A   1      49.414  31.635  27.096  1.00  0.00     0.040 A 
ATOM     69  F   UNL A   1      50.186  29.446  27.309  1.00  0.00    -0.206 F 
ATOM     70  C   UNL A   1      48.387  32.555  26.940  1.00  0.00     0.006 A 
ENDBRANCH  49  63
BRANCH  50  71
ATOM     71  C   UNL A   1      39.695  28.706  29.371  1.00  0.00     0.057 A 
ATOM     72  C   UNL A   1      38.705  28.597  30.363  1.00  0.00     0.134 A 
ATOM     73  C   UNL A   1      39.275  29.231  28.140  1.00  0.00     0.134 A 
ATOM     74  F   UNL A   1      38.972  28.037  31.552  1.00  0.00    -0.206 F 
ATOM     75  C   UNL A   1      37.375  28.974  30.143  1.00  0.00     0.040 A 
ATOM     76  C   UNL A   1      37.944  29.606  27.904  1.00  0.00     0.040 A 
ATOM     77  F   UNL A   1      40.132  29.333  27.114  1.00  0.00    -0.206 F 
ATOM     78  C   UNL A   1      36.987  29.468  28.905  1.00  0.00     0.006 A 
ENDBRANCH  50  71
BRANCH  62  79
ATOM     79  C   UNL A   1      44.839  26.698  32.343  1.00  0.00     0.057 A 
ATOM     80  C   UNL A   1      45.025  27.010  33.694  1.00  0.00     0.134 A 
ATOM     81  C   UNL A   1      44.462  25.379  32.045  1.00  0.00     0.134 A 
ATOM     82  F   UNL A   1      45.447  28.232  34.055  1.00  0.00    -0.206 F 
ATOM     83  C   UNL A   1      44.823  26.065  34.703  1.00  0.00     0.040 A 
ATOM     84  C   UNL A   1      44.224  24.434  33.048  1.00  0.00     0.040 A 
ATOM     85  F   UNL A   1      44.369  24.952  30.780  1.00  0.00    -0.206 F 
ATOM     86  C   UNL A   1      44.409  24.775  34.383  1.00  0.00     0.006 A 
ENDBRANCH  62  79
ENDBRANCH  36  37
ENDBRANCH  28  31
ENDBRANCH  26  27
ENDBRANCH  25  26
ENDBRANCH  24  25
ENDBRANCH   1  24
TORSDOF 16
ENDMDL
MODEL 3
REMARK VINA RESULT:     -11.6      2.201      3.046
REMARK SMILES CC(C)(Cn1ccc2ccc([N+](=O)[O-])cc21)C(=O)NCCCCCCNC(=O)c1ccc(-c2c3nc(c(-c4c(F)cccc4F)c4ccc([nH]4)c(-c4c(F)cccc4F)c4nc(c(-c5c(F)cccc5F)c5ccc2[nH]5)C=C4)C=C3)cc1
REMARK SMILES IDX 22 1 21 2 20 3 19 4 17 5 18 6 2 8 1 9 3 10 4 11 5 12 6 13
REMARK SMILES IDX 16 14 7 15 8 16 15 17 9 18 11 19 10 20 12 21 13 22 14 23
REMARK SMILES IDX 23 24 24 25 25 26 26 27 27 28 28 30 29 31 30 32 82 33 31 34
REMARK SMILES IDX 81 35 32 36 33 37 34 38 75 39 35 40 80 41 74 42 76 43 36 44
REMARK SMILES IDX 79 45 73 46 72 47 37 49 63 50 46 51 62 52 47 53 50 54 61 55
REMARK SMILES IDX 77 56 48 57 49 58 60 60 78 61 51 62 38 63 39 64 44 65 40 66
REMARK SMILES IDX 41 67 43 68 45 69 42 70 64 71 65 72 70 73 66 74 67 75 69 76
REMARK SMILES IDX 71 77 68 78 52 79 53 80 58 81 54 82 55 83 57 84 59 85 56 86
REMARK H PARENT 19 7 26 29 76 48 50 59
REMARK Flexibility Score: inf
ROOT
ATOM      1  C   UNL A   1      41.689  20.934  26.117  1.00  0.00     0.002 C 
ENDROOT
BRANCH   1   2
ATOM      2  C   UNL A   1      41.010  22.063  26.894  1.00  0.00     0.021 C 
BRANCH   2   3
ATOM      3  C   UNL A   1      39.504  22.165  26.691  1.00  0.00     0.116 C 
BRANCH   3   4
ATOM      4  N   UNL A   1      39.008  21.103  25.847  1.00  0.00    -0.356 N 
ATOM      5  C   UNL A   1      37.847  20.931  25.171  1.00  0.00     0.227 C 
ATOM      6  O   UNL A   1      37.761  19.878  24.529  1.00  0.00    -0.274 OA
ATOM      7  H   UNL A   1      39.640  20.356  25.741  1.00  0.00     0.163 HD
BRANCH   5   8
ATOM      8  C   UNL A   1      36.702  21.958  25.185  1.00  0.00     0.061 C 
ATOM      9  C   UNL A   1      36.471  22.413  23.724  1.00  0.00     0.023 C 
ATOM     10  C   UNL A   1      37.111  23.263  25.906  1.00  0.00     0.023 C 
BRANCH   8  11
ATOM     11  C   UNL A   1      35.394  21.389  25.821  1.00  0.00     0.138 C 
BRANCH  11  12
ATOM     12  N   UNL A   1      34.349  20.852  24.953  1.00  0.00    -0.346 N 
ATOM     13  C   UNL A   1      33.433  21.631  24.283  1.00  0.00     0.087 A 
ATOM     14  C   UNL A   1      34.152  19.530  24.602  1.00  0.00     0.055 A 
ATOM     15  C   UNL A   1      32.543  20.799  23.641  1.00  0.00     0.028 A 
ATOM     16  C   UNL A   1      32.949  19.464  23.891  1.00  0.00     0.000 A 
ATOM     17  C   UNL A   1      34.894  18.373  24.880  1.00  0.00     0.112 A 
ATOM     18  C   UNL A   1      32.413  18.202  23.554  1.00  0.00     0.017 A 
ATOM     19  C   UNL A   1      34.278  17.134  24.658  1.00  0.00     0.271 A 
ATOM     20  C   UNL A   1      33.056  17.038  23.992  1.00  0.00     0.086 A 
BRANCH  19  21
ATOM     21  N   UNL A   1      34.909  15.928  25.213  1.00  0.00     0.062 N 
ATOM     22  O   UNL A   1      34.231  14.890  25.253  1.00  0.00    -0.258 OA
ATOM     23  O   UNL A   1      36.085  16.013  25.593  1.00  0.00    -0.258 OA
ENDBRANCH  19  21
ENDBRANCH  11  12
ENDBRANCH   8  11
ENDBRANCH   5   8
ENDBRANCH   3   4
ENDBRANCH   2   3
ENDBRANCH   1   2
BRANCH   1  24
ATOM     24  C   UNL A   1      42.264  19.802  26.974  1.00  0.00     0.002 C 
BRANCH  24  25
ATOM     25  C   UNL A   1      43.304  18.914  26.278  1.00  0.00     0.021 C 
BRANCH  25  26
ATOM     26  C   UNL A   1      43.556  19.263  24.810  1.00  0.00     0.116 C 
BRANCH  26  27
ATOM     27  N   UNL A   1      44.892  19.761  24.565  1.00  0.00    -0.352 N 
ATOM     28  C   UNL A   1      45.555  20.919  24.841  1.00  0.00     0.251 C 
ATOM     29  H   UNL A   1      45.454  19.110  24.085  1.00  0.00     0.163 HD
ATOM     30  O   UNL A   1      46.757  20.937  24.543  1.00  0.00    -0.269 OA
BRANCH  28  31
ATOM     31  C   UNL A   1      44.946  22.152  25.404  1.00  0.00     0.039 A 
ATOM     32  C   UNL A   1      44.172  23.074  24.700  1.00  0.00     0.014 A 
ATOM     33  C   UNL A   1      45.254  22.426  26.752  1.00  0.00     0.014 A 
ATOM     34  C   UNL A   1      43.807  24.278  25.290  1.00  0.00     0.010 A 
ATOM     35  C   UNL A   1      44.879  23.621  27.353  1.00  0.00     0.010 A 
ATOM     36  C   UNL A   1      44.202  24.569  26.600  1.00  0.00    -0.014 A 
BRANCH  36  37
ATOM     37  C   UNL A   1      43.813  25.863  27.147  1.00  0.00     0.031 A 
ATOM     38  C   UNL A   1      44.752  26.978  26.842  1.00  0.00     0.074 A 
ATOM     39  C   UNL A   1      42.677  26.079  27.839  1.00  0.00     0.049 A 
ATOM     40  N   UNL A   1      45.500  27.633  27.669  1.00  0.00    -0.248 NA
ATOM     41  C   UNL A   1      44.977  27.320  25.430  1.00  0.00     0.031 C 
ATOM     42  C   UNL A   1      41.527  25.193  28.023  1.00  0.00     0.029 A 
ATOM     43  N   UNL A   1      42.291  27.215  28.484  1.00  0.00    -0.354 N 
ATOM     44  C   UNL A   1      46.168  28.592  26.911  1.00  0.00     0.074 A 
ATOM     45  C   UNL A   1      45.911  28.268  25.531  1.00  0.00     0.031 C 
ATOM     46  C   UNL A   1      40.494  25.901  28.537  1.00  0.00     0.029 A 
ATOM     47  C   UNL A   1      40.953  27.244  28.850  1.00  0.00     0.049 A 
ATOM     48  H   UNL A   1      42.910  27.955  28.674  1.00  0.00     0.167 HD
ATOM     49  C   UNL A   1      46.721  29.695  27.489  1.00  0.00     0.037 A 
ATOM     50  C   UNL A   1      40.271  28.316  29.328  1.00  0.00     0.037 A 
ATOM     51  C   UNL A   1      46.921  29.502  28.903  1.00  0.00     0.049 A 
ATOM     52  C   UNL A   1      41.266  29.276  29.870  1.00  0.00     0.074 A 
ATOM     53  C   UNL A   1      47.648  28.611  29.670  1.00  0.00     0.029 A 
ATOM     54  N   UNL A   1      46.036  30.091  29.772  1.00  0.00    -0.354 N 
ATOM     55  N   UNL A   1      41.966  29.060  30.948  1.00  0.00    -0.248 NA
ATOM     56  C   UNL A   1      41.814  30.268  28.957  1.00  0.00     0.031 C 
ATOM     57  C   UNL A   1      46.820  28.341  30.800  1.00  0.00     0.029 A 
ATOM     58  C   UNL A   1      45.676  29.128  30.679  1.00  0.00     0.049 A 
ATOM     59  H   UNL A   1      45.721  31.024  29.748  1.00  0.00     0.167 HD
ATOM     60  C   UNL A   1      43.231  29.540  30.648  1.00  0.00     0.074 A 
ATOM     61  C   UNL A   1      43.057  30.347  29.440  1.00  0.00     0.031 C 
ATOM     62  C   UNL A   1      44.349  29.015  31.232  1.00  0.00     0.037 A 
BRANCH  49  63
ATOM     63  C   UNL A   1      46.732  31.069  26.860  1.00  0.00     0.057 A 
ATOM     64  C   UNL A   1      45.569  31.799  26.538  1.00  0.00     0.134 A 
ATOM     65  C   UNL A   1      47.922  31.822  26.878  1.00  0.00     0.134 A 
ATOM     66  F   UNL A   1      44.353  31.245  26.520  1.00  0.00    -0.206 F 
ATOM     67  C   UNL A   1      45.580  33.178  26.314  1.00  0.00     0.040 A 
ATOM     68  C   UNL A   1      47.935  33.212  26.702  1.00  0.00     0.040 A 
ATOM     69  F   UNL A   1      49.099  31.244  27.160  1.00  0.00    -0.206 F 
ATOM     70  C   UNL A   1      46.758  33.897  26.436  1.00  0.00     0.006 A 
ENDBRANCH  49  63
BRANCH  50  71
ATOM     71  C   UNL A   1      38.862  28.693  29.078  1.00  0.00     0.057 A 
ATOM     72  C   UNL A   1      38.471  29.304  27.873  1.00  0.00     0.134 A 
ATOM     73  C   UNL A   1      37.917  28.722  30.115  1.00  0.00     0.134 A 
ATOM     74  F   UNL A   1      39.321  29.405  26.841  1.00  0.00    -0.206 F 
ATOM     75  C   UNL A   1      37.225  29.917  27.710  1.00  0.00     0.040 A 
ATOM     76  C   UNL A   1      36.665  29.340  29.967  1.00  0.00     0.040 A 
ATOM     77  F   UNL A   1      38.208  28.208  31.318  1.00  0.00    -0.206 F 
ATOM     78  C   UNL A   1      36.321  29.948  28.764  1.00  0.00     0.006 A 
ENDBRANCH  50  71
BRANCH  62  79
ATOM     79  C   UNL A   1      44.160  28.052  32.371  1.00  0.00     0.057 A 
ATOM     80  C   UNL A   1      44.286  28.521  33.682  1.00  0.00     0.134 A 
ATOM     81  C   UNL A   1      43.997  26.668  32.207  1.00  0.00     0.134 A 
ATOM     82  F   UNL A   1      44.509  29.824  33.917  1.00  0.00    -0.206 F 
ATOM     83  C   UNL A   1      44.229  27.660  34.782  1.00  0.00     0.040 A 
ATOM     84  C   UNL A   1      43.904  25.800  33.300  1.00  0.00     0.040 A 
ATOM     85  F   UNL A   1      43.979  26.110  30.991  1.00  0.00    -0.206 F 
ATOM     86  C   UNL A   1      44.024  26.296  34.593  1.00  0.00     0.006 A 
ENDBRANCH  62  79
ENDBRANCH  36  37
ENDBRANCH  28  31
ENDBRANCH  26  27
ENDBRANCH  25  26
ENDBRANCH  24  25
ENDBRANCH   1  24
TORSDOF 16
ENDMDL
