MODEL 1
REMARK VINA RESULT:     -12.4      0.000      0.000
REMARK SMILES COC(=O)c1c(-c2ccccc2Cl)csc1NC(=O)[C@@H]1[C@@H]2CC[C@@H](C2)[C@@H]1C(=O)NCCCCCCNC(=O)c1ccc(-c2c3nc(c(-c4c(F)cccc4F)c4ccc([nH]4)c(-c4c(F)cccc4F)c4nc(c(-c5c(F)cccc5F)c5ccc2[nH]5)C=C4)C=C3)cc1
REMARK SMILES IDX 31 1 30 2 29 3 27 4 28 5 26 7 20 8 21 9 22 10 25 11 24 12
REMARK SMILES IDX 23 13 18 14 17 15 19 17 16 18 5 19 6 20 14 21 15 22 3 23
REMARK SMILES IDX 4 24 2 25 1 26 7 27 8 28 12 29 9 30 11 31 13 32 10 33 32 34
REMARK SMILES IDX 33 35 34 36 35 37 36 38 37 39 38 41 39 42 40 43 92 44 41 45
REMARK SMILES IDX 91 46 42 47 43 48 44 49 85 50 45 51 90 52 84 53 86 54 46 55
REMARK SMILES IDX 89 56 83 57 82 58 47 60 73 61 56 62 72 63 57 64 60 65 71 66
REMARK SMILES IDX 87 67 58 68 59 69 70 71 88 72 61 73 48 74 49 75 54 76 50 77
REMARK SMILES IDX 51 78 53 79 55 80 52 81 74 82 75 83 80 84 76 85 77 86 79 87
REMARK SMILES IDX 81 88 78 89 62 90 63 91 68 92 64 93 65 94 67 95 69 96 66 97
REMARK H PARENT 29 6 17 16 36 40 86 59 60 70
REMARK Flexibility Score: inf
ROOT
ATOM      1  C   UNL A   1      33.478  28.301  27.078  1.00  0.00     0.021 C 
ENDROOT
BRANCH   1   2
ATOM      2  C   UNL A   1      33.442  27.232  25.983  1.00  0.00     0.116 C 
BRANCH   2   3
ATOM      3  N   UNL A   1      33.215  25.915  26.547  1.00  0.00    -0.356 N 
ATOM      4  C   UNL A   1      33.524  24.679  26.061  1.00  0.00     0.224 C 
ATOM      5  O   UNL A   1      33.076  23.706  26.662  1.00  0.00    -0.275 OA
ATOM      6  H   UNL A   1      32.764  25.913  27.422  1.00  0.00     0.163 HD
BRANCH   4   7
ATOM      7  C   UNL A   1      34.463  24.561  24.870  1.00  0.00     0.094 C 
ATOM      8  C   UNL A   1      33.984  23.761  23.633  1.00  0.00     0.094 C 
ATOM      9  C   UNL A   1      35.086  22.670  23.500  1.00  0.00     0.002 C 
ATOM     10  C   UNL A   1      35.077  21.649  24.647  1.00  0.00     0.005 C 
ATOM     11  C   UNL A   1      36.336  23.486  23.863  1.00  0.00     0.009 C 
ATOM     12  C   UNL A   1      35.798  23.861  25.246  1.00  0.00     0.002 C 
ATOM     13  C   UNL A   1      35.557  22.465  25.850  1.00  0.00     0.005 C 
BRANCH   8  14
ATOM     14  C   UNL A   1      32.540  23.278  23.605  1.00  0.00     0.229 C 
ATOM     15  N   UNL A   1      31.471  24.101  23.394  1.00  0.00    -0.317 N 
ATOM     16  H   UNL A   1      30.615  23.654  23.586  1.00  0.00     0.170 HD
ATOM     17  O   UNL A   1      32.279  22.074  23.712  1.00  0.00    -0.274 OA
BRANCH  15  18
ATOM     18  C   UNL A   1      31.296  25.411  22.975  1.00  0.00     0.110 A 
ATOM     19  C   UNL A   1      30.408  26.330  23.538  1.00  0.00     0.102 A 
ATOM     20  C   UNL A   1      30.433  27.588  22.817  1.00  0.00     0.011 A 
ATOM     21  C   UNL A   1      31.349  27.568  21.787  1.00  0.00     0.076 A 
ATOM     22  S   UNL A   1      32.100  26.058  21.635  1.00  0.00    -0.125 S 
BRANCH  19  23
ATOM     23  C   UNL A   1      29.557  25.982  24.679  1.00  0.00     0.341 C 
ATOM     24  O   UNL A   1      28.331  26.029  24.631  1.00  0.00    -0.246 OA
BRANCH  23  25
ATOM     25  O   UNL A   1      30.261  25.644  25.795  1.00  0.00    -0.465 OA
ATOM     26  C   UNL A   1      29.678  24.614  26.594  1.00  0.00     0.282 C 
ENDBRANCH  23  25
ENDBRANCH  19  23
BRANCH  20  27
ATOM     27  C   UNL A   1      29.660  28.804  23.060  1.00  0.00     0.002 A 
ATOM     28  C   UNL A   1      28.372  28.904  22.511  1.00  0.00     0.010 A 
ATOM     29  C   UNL A   1      30.158  29.871  23.829  1.00  0.00     0.048 A 
ATOM     30  C   UNL A   1      27.597  30.045  22.726  1.00  0.00     0.001 A 
ATOM     31  C   UNL A   1      29.373  31.007  24.049  1.00  0.00     0.021 A 
ATOM     32  Cl  UNL A   1      31.744  29.854  24.524  1.00  0.00    -0.084 Cl
ATOM     33  C   UNL A   1      28.095  31.094  23.498  1.00  0.00     0.002 A 
ENDBRANCH  20  27
ENDBRANCH  15  18
ENDBRANCH   8  14
ENDBRANCH   4   7
ENDBRANCH   2   3
ENDBRANCH   1   2
BRANCH   1  34
ATOM     34  C   UNL A   1      34.725  29.195  27.059  1.00  0.00     0.002 C 
BRANCH  34  35
ATOM     35  C   UNL A   1      34.543  30.588  27.670  1.00  0.00     0.002 C 
BRANCH  35  36
ATOM     36  C   UNL A   1      33.648  31.539  26.873  1.00  0.00     0.021 C 
BRANCH  36  37
ATOM     37  C   UNL A   1      32.417  32.045  27.620  1.00  0.00     0.116 C 
BRANCH  37  38
ATOM     38  N   UNL A   1      32.368  33.496  27.694  1.00  0.00    -0.352 N 
ATOM     39  C   UNL A   1      33.213  34.366  28.339  1.00  0.00     0.251 C 
ATOM     40  H   UNL A   1      31.620  33.918  27.212  1.00  0.00     0.163 HD
ATOM     41  O   UNL A   1      32.928  35.556  28.422  1.00  0.00    -0.269 OA
BRANCH  39  42
ATOM     42  C   UNL A   1      34.461  33.866  28.957  1.00  0.00     0.039 A 
ATOM     43  C   UNL A   1      34.382  33.167  30.165  1.00  0.00     0.014 A 
ATOM     44  C   UNL A   1      35.703  34.093  28.358  1.00  0.00     0.014 A 
ATOM     45  C   UNL A   1      35.540  32.643  30.742  1.00  0.00     0.010 A 
ATOM     46  C   UNL A   1      36.849  33.516  28.900  1.00  0.00     0.010 A 
ATOM     47  C   UNL A   1      36.780  32.786  30.097  1.00  0.00    -0.014 A 
BRANCH  47  48
ATOM     48  C   UNL A   1      38.014  32.182  30.659  1.00  0.00     0.031 A 
ATOM     49  C   UNL A   1      38.612  30.956  30.027  1.00  0.00     0.074 A 
ATOM     50  C   UNL A   1      38.562  32.698  31.776  1.00  0.00     0.049 A 
ATOM     51  N   UNL A   1      39.636  30.240  30.416  1.00  0.00    -0.248 NA
ATOM     52  C   UNL A   1      37.955  30.455  28.809  1.00  0.00     0.031 C 
ATOM     53  C   UNL A   1      38.057  33.862  32.507  1.00  0.00     0.029 A 
ATOM     54  N   UNL A   1      39.659  32.303  32.498  1.00  0.00    -0.354 N 
ATOM     55  C   UNL A   1      39.738  29.199  29.502  1.00  0.00     0.074 A 
ATOM     56  C   UNL A   1      38.642  29.349  28.568  1.00  0.00     0.031 C 
ATOM     57  C   UNL A   1      38.855  34.098  33.560  1.00  0.00     0.029 A 
ATOM     58  C   UNL A   1      39.905  33.085  33.599  1.00  0.00     0.049 A 
ATOM     59  H   UNL A   1      40.218  31.530  32.250  1.00  0.00     0.167 HD
ATOM     60  C   UNL A   1      40.672  28.220  29.433  1.00  0.00     0.037 A 
ATOM     61  C   UNL A   1      40.866  32.992  34.538  1.00  0.00     0.037 A 
ATOM     62  C   UNL A   1      41.775  28.085  30.346  1.00  0.00     0.049 A 
ATOM     63  C   UNL A   1      41.884  31.891  34.446  1.00  0.00     0.074 A 
ATOM     64  C   UNL A   1      42.802  27.158  30.329  1.00  0.00     0.029 A 
ATOM     65  N   UNL A   1      41.996  28.906  31.443  1.00  0.00    -0.354 N 
ATOM     66  N   UNL A   1      41.999  30.944  33.547  1.00  0.00    -0.248 NA
ATOM     67  C   UNL A   1      42.909  31.847  35.499  1.00  0.00     0.031 C 
ATOM     68  C   UNL A   1      43.625  27.395  31.436  1.00  0.00     0.029 A 
ATOM     69  C   UNL A   1      43.133  28.495  32.119  1.00  0.00     0.049 A 
ATOM     70  H   UNL A   1      41.428  29.667  31.702  1.00  0.00     0.167 HD
ATOM     71  C   UNL A   1      43.121  30.212  33.908  1.00  0.00     0.074 A 
ATOM     72  C   UNL A   1      43.658  30.828  35.103  1.00  0.00     0.031 C 
ATOM     73  C   UNL A   1      43.660  29.124  33.303  1.00  0.00     0.037 A 
BRANCH  60  74
ATOM     74  C   UNL A   1      40.536  27.218  28.324  1.00  0.00     0.057 A 
ATOM     75  C   UNL A   1      41.205  27.376  27.103  1.00  0.00     0.134 A 
ATOM     76  C   UNL A   1      39.748  26.072  28.484  1.00  0.00     0.134 A 
ATOM     77  F   UNL A   1      41.965  28.459  26.879  1.00  0.00    -0.206 F 
ATOM     78  C   UNL A   1      41.071  26.446  26.071  1.00  0.00     0.040 A 
ATOM     79  C   UNL A   1      39.628  25.121  27.469  1.00  0.00     0.040 A 
ATOM     80  F   UNL A   1      39.085  25.856  29.631  1.00  0.00    -0.206 F 
ATOM     81  C   UNL A   1      40.285  25.311  26.255  1.00  0.00     0.006 A 
ENDBRANCH  60  74
BRANCH  61  82
ATOM     82  C   UNL A   1      40.930  33.991  35.634  1.00  0.00     0.057 A 
ATOM     83  C   UNL A   1      40.197  33.811  36.812  1.00  0.00     0.134 A 
ATOM     84  C   UNL A   1      41.716  35.144  35.532  1.00  0.00     0.134 A 
ATOM     85  F   UNL A   1      39.410  32.734  36.959  1.00  0.00    -0.206 F 
ATOM     86  C   UNL A   1      40.230  34.749  37.844  1.00  0.00     0.040 A 
ATOM     87  C   UNL A   1      41.776  36.081  36.565  1.00  0.00     0.040 A 
ATOM     88  F   UNL A   1      42.448  35.370  34.430  1.00  0.00    -0.206 F 
ATOM     89  C   UNL A   1      41.027  35.886  37.724  1.00  0.00     0.006 A 
ENDBRANCH  61  82
BRANCH  73  90
ATOM     90  C   UNL A   1      44.911  28.556  33.903  1.00  0.00     0.057 A 
ATOM     91  C   UNL A   1      46.181  29.026  33.545  1.00  0.00     0.134 A 
ATOM     92  C   UNL A   1      44.841  27.553  34.877  1.00  0.00     0.134 A 
ATOM     93  F   UNL A   1      46.314  29.977  32.608  1.00  0.00    -0.206 F 
ATOM     94  C   UNL A   1      47.339  28.502  34.121  1.00  0.00     0.040 A 
ATOM     95  C   UNL A   1      45.991  27.038  35.477  1.00  0.00     0.040 A 
ATOM     96  F   UNL A   1      43.655  27.064  35.269  1.00  0.00    -0.206 F 
ATOM     97  C   UNL A   1      47.246  27.509  35.095  1.00  0.00     0.006 A 
ENDBRANCH  73  90
ENDBRANCH  47  48
ENDBRANCH  39  42
ENDBRANCH  37  38
ENDBRANCH  36  37
ENDBRANCH  35  36
ENDBRANCH  34  35
ENDBRANCH   1  34
TORSDOF 18
ENDMDL
MODEL 2
REMARK VINA RESULT:     -12.4      2.408      6.990
REMARK SMILES COC(=O)c1c(-c2ccccc2Cl)csc1NC(=O)[C@@H]1[C@@H]2CC[C@@H](C2)[C@@H]1C(=O)NCCCCCCNC(=O)c1ccc(-c2c3nc(c(-c4c(F)cccc4F)c4ccc([nH]4)c(-c4c(F)cccc4F)c4nc(c(-c5c(F)cccc5F)c5ccc2[nH]5)C=C4)C=C3)cc1
REMARK SMILES IDX 31 1 30 2 29 3 27 4 28 5 26 7 20 8 21 9 22 10 25 11 24 12
REMARK SMILES IDX 23 13 18 14 17 15 19 17 16 18 5 19 6 20 14 21 15 22 3 23
REMARK SMILES IDX 4 24 2 25 1 26 7 27 8 28 12 29 9 30 11 31 13 32 10 33 32 34
REMARK SMILES IDX 33 35 34 36 35 37 36 38 37 39 38 41 39 42 40 43 92 44 41 45
REMARK SMILES IDX 91 46 42 47 43 48 44 49 85 50 45 51 90 52 84 53 86 54 46 55
REMARK SMILES IDX 89 56 83 57 82 58 47 60 73 61 56 62 72 63 57 64 60 65 71 66
REMARK SMILES IDX 87 67 58 68 59 69 70 71 88 72 61 73 48 74 49 75 54 76 50 77
REMARK SMILES IDX 51 78 53 79 55 80 52 81 74 82 75 83 80 84 76 85 77 86 79 87
REMARK SMILES IDX 81 88 78 89 62 90 63 91 68 92 64 93 65 94 67 95 69 96 66 97
REMARK H PARENT 29 6 17 16 36 40 86 59 60 70
REMARK Flexibility Score: inf
ROOT
ATOM      1  C   UNL A   1      38.627  21.328  25.474  1.00  0.00     0.021 C 
ENDROOT
BRANCH   1   2
ATOM      2  C   UNL A   1      37.281  21.932  25.070  1.00  0.00     0.116 C 
BRANCH   2   3
ATOM      3  N   UNL A   1      36.272  21.680  26.083  1.00  0.00    -0.356 N 
ATOM      4  C   UNL A   1      34.912  21.690  25.999  1.00  0.00     0.224 C 
ATOM      5  O   UNL A   1      34.278  21.603  27.047  1.00  0.00    -0.275 OA
ATOM      6  H   UNL A   1      36.629  21.470  26.976  1.00  0.00     0.163 HD
BRANCH   4   7
ATOM      7  C   UNL A   1      34.252  21.720  24.628  1.00  0.00     0.094 C 
ATOM      8  C   UNL A   1      33.857  23.096  24.034  1.00  0.00     0.094 C 
ATOM      9  C   UNL A   1      32.327  22.927  23.802  1.00  0.00     0.002 C 
ATOM     10  C   UNL A   1      31.519  22.823  25.105  1.00  0.00     0.005 C 
ATOM     11  C   UNL A   1      32.273  21.467  23.324  1.00  0.00     0.009 C 
ATOM     12  C   UNL A   1      32.914  20.931  24.607  1.00  0.00     0.002 C 
ATOM     13  C   UNL A   1      31.926  21.458  25.664  1.00  0.00     0.005 C 
BRANCH   8  14
ATOM     14  C   UNL A   1      34.300  24.351  24.772  1.00  0.00     0.229 C 
ATOM     15  N   UNL A   1      33.930  25.614  24.407  1.00  0.00    -0.317 N 
ATOM     16  H   UNL A   1      34.448  26.304  24.881  1.00  0.00     0.170 HD
ATOM     17  O   UNL A   1      34.980  24.267  25.801  1.00  0.00    -0.274 OA
BRANCH  15  18
ATOM     18  C   UNL A   1      33.004  26.162  23.533  1.00  0.00     0.110 A 
ATOM     19  C   UNL A   1      32.012  27.082  23.877  1.00  0.00     0.102 A 
ATOM     20  C   UNL A   1      31.175  27.397  22.735  1.00  0.00     0.011 A 
ATOM     21  C   UNL A   1      31.593  26.738  21.598  1.00  0.00     0.076 A 
ATOM     22  S   UNL A   1      32.901  25.708  21.907  1.00  0.00    -0.125 S 
BRANCH  19  23
ATOM     23  C   UNL A   1      31.864  27.583  25.246  1.00  0.00     0.341 C 
ATOM     24  O   UNL A   1      30.953  27.229  25.988  1.00  0.00    -0.246 OA
BRANCH  23  25
ATOM     25  O   UNL A   1      32.808  28.503  25.589  1.00  0.00    -0.465 OA
ATOM     26  C   UNL A   1      32.327  29.838  25.751  1.00  0.00     0.282 C 
ENDBRANCH  23  25
ENDBRANCH  19  23
BRANCH  20  27
ATOM     27  C   UNL A   1      30.024  28.295  22.656  1.00  0.00     0.002 A 
ATOM     28  C   UNL A   1      30.200  29.564  22.082  1.00  0.00     0.010 A 
ATOM     29  C   UNL A   1      28.751  27.930  23.127  1.00  0.00     0.048 A 
ATOM     30  C   UNL A   1      29.125  30.450  21.980  1.00  0.00     0.001 A 
ATOM     31  C   UNL A   1      27.677  28.818  23.014  1.00  0.00     0.021 A 
ATOM     32  Cl  UNL A   1      28.441  26.400  23.877  1.00  0.00    -0.084 Cl
ATOM     33  C   UNL A   1      27.864  30.076  22.441  1.00  0.00     0.002 A 
ENDBRANCH  20  27
ENDBRANCH  15  18
ENDBRANCH   8  14
ENDBRANCH   4   7
ENDBRANCH   2   3
ENDBRANCH   1   2
BRANCH   1  34
ATOM     34  C   UNL A   1      39.416  22.151  26.501  1.00  0.00     0.002 C 
BRANCH  34  35
ATOM     35  C   UNL A   1      40.889  21.763  26.662  1.00  0.00     0.002 C 
BRANCH  35  36
ATOM     36  C   UNL A   1      41.635  22.481  27.788  1.00  0.00     0.021 C 
BRANCH  36  37
ATOM     37  C   UNL A   1      42.665  23.508  27.328  1.00  0.00     0.116 C 
BRANCH  37  38
ATOM     38  N   UNL A   1      42.227  24.248  26.154  1.00  0.00    -0.352 N 
ATOM     39  C   UNL A   1      41.586  25.459  26.077  1.00  0.00     0.251 C 
ATOM     40  H   UNL A   1      42.418  23.817  25.290  1.00  0.00     0.163 HD
ATOM     41  O   UNL A   1      41.153  25.860  25.001  1.00  0.00    -0.269 OA
BRANCH  39  42
ATOM     42  C   UNL A   1      41.393  26.276  27.295  1.00  0.00     0.039 A 
ATOM     43  C   UNL A   1      42.276  27.331  27.545  1.00  0.00     0.014 A 
ATOM     44  C   UNL A   1      40.359  25.999  28.193  1.00  0.00     0.014 A 
ATOM     45  C   UNL A   1      42.085  28.147  28.663  1.00  0.00     0.010 A 
ATOM     46  C   UNL A   1      40.131  26.850  29.272  1.00  0.00     0.010 A 
ATOM     47  C   UNL A   1      40.991  27.932  29.518  1.00  0.00    -0.014 A 
BRANCH  47  48
ATOM     48  C   UNL A   1      40.732  28.825  30.674  1.00  0.00     0.031 A 
ATOM     49  C   UNL A   1      39.647  29.863  30.600  1.00  0.00     0.074 A 
ATOM     50  C   UNL A   1      41.513  28.746  31.769  1.00  0.00     0.049 A 
ATOM     51  N   UNL A   1      39.322  30.784  31.471  1.00  0.00    -0.248 NA
ATOM     52  C   UNL A   1      38.837  29.884  29.372  1.00  0.00     0.031 C 
ATOM     53  C   UNL A   1      42.623  27.808  31.950  1.00  0.00     0.029 A 
ATOM     54  N   UNL A   1      41.500  29.475  32.931  1.00  0.00    -0.354 N 
ATOM     55  C   UNL A   1      38.282  31.502  30.893  1.00  0.00     0.074 A 
ATOM     56  C   UNL A   1      38.064  30.940  29.576  1.00  0.00     0.031 C 
ATOM     57  C   UNL A   1      43.169  28.004  33.161  1.00  0.00     0.029 A 
ATOM     58  C   UNL A   1      42.473  29.102  33.826  1.00  0.00     0.049 A 
ATOM     59  H   UNL A   1      40.854  30.197  33.106  1.00  0.00     0.167 HD
ATOM     60  C   UNL A   1      37.559  32.519  31.418  1.00  0.00     0.037 A 
ATOM     61  C   UNL A   1      42.773  29.594  35.043  1.00  0.00     0.037 A 
ATOM     62  C   UNL A   1      37.759  33.061  32.736  1.00  0.00     0.049 A 
ATOM     63  C   UNL A   1      41.963  30.731  35.599  1.00  0.00     0.074 A 
ATOM     64  C   UNL A   1      37.045  34.057  33.378  1.00  0.00     0.029 A 
ATOM     65  N   UNL A   1      38.748  32.648  33.618  1.00  0.00    -0.354 N 
ATOM     66  N   UNL A   1      40.950  31.365  35.062  1.00  0.00    -0.248 NA
ATOM     67  C   UNL A   1      42.339  31.220  36.934  1.00  0.00     0.031 C 
ATOM     68  C   UNL A   1      37.624  34.273  34.634  1.00  0.00     0.029 A 
ATOM     69  C   UNL A   1      38.673  33.381  34.789  1.00  0.00     0.049 A 
ATOM     70  H   UNL A   1      39.406  31.938  33.436  1.00  0.00     0.167 HD
ATOM     71  C   UNL A   1      40.549  32.305  36.002  1.00  0.00     0.074 A 
ATOM     72  C   UNL A   1      41.423  32.153  37.146  1.00  0.00     0.031 C 
ATOM     73  C   UNL A   1      39.545  33.213  35.923  1.00  0.00     0.037 A 
BRANCH  60  74
ATOM     74  C   UNL A   1      36.479  33.110  30.560  1.00  0.00     0.057 A 
ATOM     75  C   UNL A   1      36.773  33.983  29.504  1.00  0.00     0.134 A 
ATOM     76  C   UNL A   1      35.134  32.787  30.775  1.00  0.00     0.134 A 
ATOM     77  F   UNL A   1      38.041  34.344  29.252  1.00  0.00    -0.206 F 
ATOM     78  C   UNL A   1      35.765  34.535  28.711  1.00  0.00     0.040 A 
ATOM     79  C   UNL A   1      34.120  33.313  29.973  1.00  0.00     0.040 A 
ATOM     80  F   UNL A   1      34.783  31.953  31.766  1.00  0.00    -0.206 F 
ATOM     81  C   UNL A   1      34.435  34.196  28.942  1.00  0.00     0.006 A 
ENDBRANCH  60  74
BRANCH  61  82
ATOM     82  C   UNL A   1      43.876  28.993  35.833  1.00  0.00     0.057 A 
ATOM     83  C   UNL A   1      43.642  27.899  36.673  1.00  0.00     0.134 A 
ATOM     84  C   UNL A   1      45.181  29.494  35.773  1.00  0.00     0.134 A 
ATOM     85  F   UNL A   1      42.407  27.388  36.787  1.00  0.00    -0.206 F 
ATOM     86  C   UNL A   1      44.663  27.333  37.438  1.00  0.00     0.040 A 
ATOM     87  C   UNL A   1      46.217  28.925  36.515  1.00  0.00     0.040 A 
ATOM     88  F   UNL A   1      45.470  30.537  34.980  1.00  0.00    -0.206 F 
ATOM     89  C   UNL A   1      45.957  27.844  37.355  1.00  0.00     0.006 A 
ENDBRANCH  61  82
BRANCH  73  90
ATOM     90  C   UNL A   1      39.317  34.086  37.121  1.00  0.00     0.057 A 
ATOM     91  C   UNL A   1      38.633  33.624  38.252  1.00  0.00     0.134 A 
ATOM     92  C   UNL A   1      39.820  35.393  37.155  1.00  0.00     0.134 A 
ATOM     93  F   UNL A   1      38.116  32.387  38.275  1.00  0.00    -0.206 F 
ATOM     94  C   UNL A   1      38.440  34.440  39.369  1.00  0.00     0.040 A 
ATOM     95  C   UNL A   1      39.653  36.209  38.275  1.00  0.00     0.040 A 
ATOM     96  F   UNL A   1      40.490  35.893  36.107  1.00  0.00    -0.206 F 
ATOM     97  C   UNL A   1      38.957  35.734  39.384  1.00  0.00     0.006 A 
ENDBRANCH  73  90
ENDBRANCH  47  48
ENDBRANCH  39  42
ENDBRANCH  37  38
ENDBRANCH  36  37
ENDBRANCH  35  36
ENDBRANCH  34  35
ENDBRANCH   1  34
TORSDOF 18
ENDMDL
MODEL 3
REMARK VINA RESULT:     -12.4      5.324     11.817
REMARK SMILES COC(=O)c1c(-c2ccccc2Cl)csc1NC(=O)[C@@H]1[C@@H]2CC[C@@H](C2)[C@@H]1C(=O)NCCCCCCNC(=O)c1ccc(-c2c3nc(c(-c4c(F)cccc4F)c4ccc([nH]4)c(-c4c(F)cccc4F)c4nc(c(-c5c(F)cccc5F)c5ccc2[nH]5)C=C4)C=C3)cc1
REMARK SMILES IDX 31 1 30 2 29 3 27 4 28 5 26 7 20 8 21 9 22 10 25 11 24 12
REMARK SMILES IDX 23 13 18 14 17 15 19 17 16 18 5 19 6 20 14 21 15 22 3 23
REMARK SMILES IDX 4 24 2 25 1 26 7 27 8 28 12 29 9 30 11 31 13 32 10 33 32 34
REMARK SMILES IDX 33 35 34 36 35 37 36 38 37 39 38 41 39 42 40 43 92 44 41 45
REMARK SMILES IDX 91 46 42 47 43 48 44 49 85 50 45 51 90 52 84 53 86 54 46 55
REMARK SMILES IDX 89 56 83 57 82 58 47 60 73 61 56 62 72 63 57 64 60 65 71 66
REMARK SMILES IDX 87 67 58 68 59 69 70 71 88 72 61 73 48 74 49 75 54 76 50 77
REMARK SMILES IDX 51 78 53 79 55 80 52 81 74 82 75 83 80 84 76 85 77 86 79 87
REMARK SMILES IDX 81 88 78 89 62 90 63 91 68 92 64 93 65 94 67 95 69 96 66 97
REMARK H PARENT 29 6 17 16 36 40 86 59 60 70
REMARK Flexibility Score: inf
ROOT
ATOM      1  C   UNL A   1      36.369  30.883  32.786  1.00  0.00     0.021 C 
ENDROOT
BRANCH   1   2
ATOM      2  C   UNL A   1      37.761  30.263  32.920  1.00  0.00     0.116 C 
BRANCH   2   3
ATOM      3  N   UNL A   1      38.116  30.075  34.314  1.00  0.00    -0.356 N 
ATOM      4  C   UNL A   1      39.256  30.397  34.989  1.00  0.00     0.224 C 
ATOM      5  O   UNL A   1      39.371  29.983  36.139  1.00  0.00    -0.275 OA
ATOM      6  H   UNL A   1      37.421  29.645  34.863  1.00  0.00     0.163 HD
BRANCH   4   7
ATOM      7  C   UNL A   1      40.278  31.311  34.328  1.00  0.00     0.094 C 
ATOM      8  C   UNL A   1      41.483  31.797  35.172  1.00  0.00     0.094 C 
ATOM      9  C   UNL A   1      41.340  33.344  35.089  1.00  0.00     0.002 C 
ATOM     10  C   UNL A   1      40.107  33.885  35.830  1.00  0.00     0.005 C 
ATOM     11  C   UNL A   1      40.882  33.508  33.631  1.00  0.00     0.009 C 
ATOM     12  C   UNL A   1      39.639  32.637  33.831  1.00  0.00     0.002 C 
ATOM     13  C   UNL A   1      38.938  33.393  34.973  1.00  0.00     0.005 C 
BRANCH   8  14
ATOM     14  C   UNL A   1      41.674  31.203  36.561  1.00  0.00     0.229 C 
ATOM     15  N   UNL A   1      42.401  30.074  36.808  1.00  0.00    -0.317 N 
ATOM     16  H   UNL A   1      42.268  29.741  37.725  1.00  0.00     0.170 HD
ATOM     17  O   UNL A   1      41.216  31.776  37.556  1.00  0.00    -0.274 OA
BRANCH  15  18
ATOM     18  C   UNL A   1      43.280  29.283  36.084  1.00  0.00     0.110 A 
ATOM     19  C   UNL A   1      42.981  28.034  35.536  1.00  0.00     0.102 A 
ATOM     20  C   UNL A   1      44.148  27.453  34.898  1.00  0.00     0.011 A 
ATOM     21  C   UNL A   1      45.238  28.294  34.965  1.00  0.00     0.076 A 
ATOM     22  S   UNL A   1      44.898  29.705  35.837  1.00  0.00    -0.125 S 
BRANCH  19  23
ATOM     23  C   UNL A   1      41.653  27.428  35.669  1.00  0.00     0.341 C 
ATOM     24  O   UNL A   1      40.955  27.143  34.702  1.00  0.00    -0.246 OA
BRANCH  23  25
ATOM     25  O   UNL A   1      41.266  27.257  36.963  1.00  0.00    -0.465 OA
ATOM     26  C   UNL A   1      41.010  25.905  37.348  1.00  0.00     0.282 C 
ENDBRANCH  23  25
ENDBRANCH  19  23
BRANCH  20  27
ATOM     27  C   UNL A   1      44.280  26.166  34.217  1.00  0.00     0.002 A 
ATOM     28  C   UNL A   1      44.267  26.144  32.814  1.00  0.00     0.010 A 
ATOM     29  C   UNL A   1      44.426  24.956  34.918  1.00  0.00     0.048 A 
ATOM     30  C   UNL A   1      44.398  24.937  32.124  1.00  0.00     0.001 A 
ATOM     31  C   UNL A   1      44.566  23.752  34.221  1.00  0.00     0.021 A 
ATOM     32  Cl  UNL A   1      44.424  24.878  36.648  1.00  0.00    -0.084 Cl
ATOM     33  C   UNL A   1      44.552  23.742  32.827  1.00  0.00     0.002 A 
ENDBRANCH  20  27
ENDBRANCH  15  18
ENDBRANCH   8  14
ENDBRANCH   4   7
ENDBRANCH   2   3
ENDBRANCH   1   2
BRANCH   1  34
ATOM     34  C   UNL A   1      36.324  32.187  31.977  1.00  0.00     0.002 C 
BRANCH  34  35
ATOM     35  C   UNL A   1      34.958  32.877  31.920  1.00  0.00     0.002 C 
BRANCH  35  36
ATOM     36  C   UNL A   1      34.576  33.456  30.556  1.00  0.00     0.021 C 
BRANCH  36  37
ATOM     37  C   UNL A   1      35.239  32.781  29.360  1.00  0.00     0.116 C 
BRANCH  37  38
ATOM     38  N   UNL A   1      34.394  31.762  28.757  1.00  0.00    -0.352 N 
ATOM     39  C   UNL A   1      34.738  30.534  28.246  1.00  0.00     0.251 C 
ATOM     40  H   UNL A   1      33.436  31.984  28.707  1.00  0.00     0.163 HD
ATOM     41  O   UNL A   1      33.911  29.867  27.633  1.00  0.00    -0.269 OA
BRANCH  39  42
ATOM     42  C   UNL A   1      36.115  30.021  28.414  1.00  0.00     0.039 A 
ATOM     43  C   UNL A   1      37.039  30.220  27.384  1.00  0.00     0.014 A 
ATOM     44  C   UNL A   1      36.493  29.336  29.572  1.00  0.00     0.014 A 
ATOM     45  C   UNL A   1      38.358  29.789  27.539  1.00  0.00     0.010 A 
ATOM     46  C   UNL A   1      37.823  28.962  29.753  1.00  0.00     0.010 A 
ATOM     47  C   UNL A   1      38.768  29.184  28.739  1.00  0.00    -0.014 A 
BRANCH  47  48
ATOM     48  C   UNL A   1      40.179  28.776  28.951  1.00  0.00     0.031 A 
ATOM     49  C   UNL A   1      41.166  29.742  29.545  1.00  0.00     0.074 A 
ATOM     50  C   UNL A   1      40.590  27.556  28.552  1.00  0.00     0.049 A 
ATOM     51  N   UNL A   1      42.453  29.600  29.735  1.00  0.00    -0.248 NA
ATOM     52  C   UNL A   1      40.639  31.053  29.956  1.00  0.00     0.031 C 
ATOM     53  C   UNL A   1      39.740  26.540  27.928  1.00  0.00     0.029 A 
ATOM     54  N   UNL A   1      41.828  26.969  28.602  1.00  0.00    -0.354 N 
ATOM     55  C   UNL A   1      42.892  30.803  30.273  1.00  0.00     0.074 A 
ATOM     56  C   UNL A   1      41.742  31.681  30.332  1.00  0.00     0.031 C 
ATOM     57  C   UNL A   1      40.479  25.447  27.674  1.00  0.00     0.029 A 
ATOM     58  C   UNL A   1      41.857  25.698  28.084  1.00  0.00     0.049 A 
ATOM     59  H   UNL A   1      42.622  27.418  28.975  1.00  0.00     0.167 HD
ATOM     60  C   UNL A   1      44.133  31.139  30.699  1.00  0.00     0.037 A 
ATOM     61  C   UNL A   1      42.881  24.834  27.948  1.00  0.00     0.037 A 
ATOM     62  C   UNL A   1      45.269  30.257  30.662  1.00  0.00     0.049 A 
ATOM     63  C   UNL A   1      44.251  25.234  28.418  1.00  0.00     0.074 A 
ATOM     64  C   UNL A   1      46.555  30.487  31.117  1.00  0.00     0.029 A 
ATOM     65  N   UNL A   1      45.255  28.972  30.139  1.00  0.00    -0.354 N 
ATOM     66  N   UNL A   1      44.640  26.356  28.972  1.00  0.00    -0.248 NA
ATOM     67  C   UNL A   1      45.325  24.245  28.246  1.00  0.00     0.031 C 
ATOM     68  C   UNL A   1      47.329  29.355  30.838  1.00  0.00     0.029 A 
ATOM     69  C   UNL A   1      46.513  28.405  30.246  1.00  0.00     0.049 A 
ATOM     70  H   UNL A   1      44.466  28.530  29.750  1.00  0.00     0.167 HD
ATOM     71  C   UNL A   1      45.993  26.198  29.241  1.00  0.00     0.074 A 
ATOM     72  C   UNL A   1      46.356  24.869  28.797  1.00  0.00     0.031 C 
ATOM     73  C   UNL A   1      46.857  27.077  29.806  1.00  0.00     0.037 A 
BRANCH  60  74
ATOM     74  C   UNL A   1      44.320  32.524  31.246  1.00  0.00     0.057 A 
ATOM     75  C   UNL A   1      44.502  33.629  30.405  1.00  0.00     0.134 A 
ATOM     76  C   UNL A   1      44.296  32.759  32.626  1.00  0.00     0.134 A 
ATOM     77  F   UNL A   1      44.549  33.471  29.074  1.00  0.00    -0.206 F 
ATOM     78  C   UNL A   1      44.682  34.915  30.919  1.00  0.00     0.040 A 
ATOM     79  C   UNL A   1      44.448  34.044  33.150  1.00  0.00     0.040 A 
ATOM     80  F   UNL A   1      44.120  31.745  33.488  1.00  0.00    -0.206 F 
ATOM     81  C   UNL A   1      44.651  35.125  32.295  1.00  0.00     0.006 A 
ENDBRANCH  60  74
BRANCH  61  82
ATOM     82  C   UNL A   1      42.644  23.490  27.366  1.00  0.00     0.057 A 
ATOM     83  C   UNL A   1      42.740  23.279  25.986  1.00  0.00     0.134 A 
ATOM     84  C   UNL A   1      42.315  22.391  28.167  1.00  0.00     0.134 A 
ATOM     85  F   UNL A   1      43.034  24.300  25.167  1.00  0.00    -0.206 F 
ATOM     86  C   UNL A   1      42.502  22.026  25.419  1.00  0.00     0.040 A 
ATOM     87  C   UNL A   1      42.095  21.126  27.616  1.00  0.00     0.040 A 
ATOM     88  F   UNL A   1      42.215  22.527  29.497  1.00  0.00    -0.206 F 
ATOM     89  C   UNL A   1      42.183  20.944  26.238  1.00  0.00     0.006 A 
ENDBRANCH  61  82
BRANCH  73  90
ATOM     90  C   UNL A   1      48.270  26.614  30.008  1.00  0.00     0.057 A 
ATOM     91  C   UNL A   1      49.275  26.881  29.072  1.00  0.00     0.134 A 
ATOM     92  C   UNL A   1      48.633  25.924  31.172  1.00  0.00     0.134 A 
ATOM     93  F   UNL A   1      48.988  27.525  27.931  1.00  0.00    -0.206 F 
ATOM     94  C   UNL A   1      50.590  26.460  29.276  1.00  0.00     0.040 A 
ATOM     95  C   UNL A   1      49.949  25.519  31.398  1.00  0.00     0.040 A 
ATOM     96  F   UNL A   1      47.718  25.643  32.111  1.00  0.00    -0.206 F 
ATOM     97  C   UNL A   1      50.931  25.783  30.446  1.00  0.00     0.006 A 
ENDBRANCH  73  90
ENDBRANCH  47  48
ENDBRANCH  39  42
ENDBRANCH  37  38
ENDBRANCH  36  37
ENDBRANCH  35  36
ENDBRANCH  34  35
ENDBRANCH   1  34
TORSDOF 18
ENDMDL
