MODEL 1
REMARK VINA RESULT:     -11.2      0.000      0.000
REMARK SMILES COc1ccc(N2C[C@@H](C)Cn3c2nc2c3c(=O)n(CC(=O)NCCCCCCNC(=O)c3ccc(-c4c5nc(c(-c6c(F)cccc6F)c6ccc([nH]6)c(-c6c(F)cccc6F)c6nc(c(-c7c(F)cccc7F)c7ccc4[nH]7)C=C6)C=C5)cc3)c(=O)n2C)cc1
REMARK SMILES IDX 26 1 25 2 24 3 23 4 21 5 22 6 20 8 19 9 7 10 8 11 13 12 9 13
REMARK SMILES IDX 12 14 14 15 11 16 10 17 16 18 15 19 17 20 89 21 18 22 87 23
REMARK SMILES IDX 90 24 88 25 6 26 3 27 4 28 92 29 5 30 91 31 2 32 1 33 27 34
REMARK SMILES IDX 28 35 29 36 30 37 31 38 32 40 33 41 34 42 86 43 35 44 85 45
REMARK SMILES IDX 36 46 37 47 38 48 79 49 39 50 84 51 78 52 80 53 40 54 83 55
REMARK SMILES IDX 77 56 76 57 41 59 67 60 50 61 66 62 51 63 54 64 65 65 81 66
REMARK SMILES IDX 52 67 53 68 64 70 82 71 55 72 42 73 43 74 48 75 44 76 45 77
REMARK SMILES IDX 47 78 49 79 46 80 68 81 69 82 74 83 70 84 71 85 73 86 75 87
REMARK SMILES IDX 72 88 56 89 57 90 62 91 58 92 59 93 61 94 63 95 60 96
REMARK H PARENT 23 7 30 39 80 58 54 69
REMARK Flexibility Score: inf
ROOT
ATOM      1  C   UNL A   1      33.107  28.725  26.416  1.00  0.00     0.002 C 
ENDROOT
BRANCH   1   2
ATOM      2  C   UNL A   1      31.854  27.988  26.907  1.00  0.00     0.021 C 
BRANCH   2   3
ATOM      3  C   UNL A   1      31.492  26.761  26.070  1.00  0.00     0.116 C 
BRANCH   3   4
ATOM      4  N   UNL A   1      31.319  25.582  26.890  1.00  0.00    -0.355 N 
ATOM      5  C   UNL A   1      31.639  24.282  26.626  1.00  0.00     0.240 C 
ATOM      6  O   UNL A   1      31.617  23.494  27.575  1.00  0.00    -0.273 OA
ATOM      7  H   UNL A   1      30.909  25.740  27.772  1.00  0.00     0.163 HD
BRANCH   5   8
ATOM      8  C   UNL A   1      32.148  23.841  25.246  1.00  0.00     0.230 C 
BRANCH   8   9
ATOM      9  N   UNL A   1      33.418  23.121  25.296  1.00  0.00    -0.249 N 
ATOM     10  N   UNL A   1      39.103  22.455  26.325  1.00  0.00    -0.312 N 
ATOM     11  C   UNL A   1      39.706  23.796  26.378  1.00  0.00     0.131 C 
ATOM     12  C   UNL A   1      37.790  22.348  25.969  1.00  0.00     0.212 A 
ATOM     13  C   UNL A   1      38.787  24.726  27.172  1.00  0.00     0.026 C 
ATOM     14  N   UNL A   1      36.993  23.477  26.038  1.00  0.00    -0.304 N 
ATOM     15  N   UNL A   1      37.056  21.304  25.613  1.00  0.00    -0.194 NA
ATOM     16  C   UNL A   1      37.440  24.790  26.457  1.00  0.00     0.131 C 
ATOM     17  C   UNL A   1      39.391  26.115  27.332  1.00  0.00     0.011 C 
ATOM     18  C   UNL A   1      35.727  23.128  25.689  1.00  0.00     0.154 A 
ATOM     19  C   UNL A   1      35.792  21.794  25.435  1.00  0.00     0.170 A 
ATOM     20  C   UNL A   1      34.539  23.890  25.597  1.00  0.00     0.283 A 
ATOM     21  N   UNL A   1      34.673  21.096  25.041  1.00  0.00    -0.279 N 
ATOM     22  O   UNL A   1      34.514  25.110  25.767  1.00  0.00    -0.267 OA
ATOM     23  C   UNL A   1      33.454  21.769  24.910  1.00  0.00     0.332 A 
ATOM     24  C   UNL A   1      34.763  19.678  24.744  1.00  0.00     0.157 C 
ATOM     25  O   UNL A   1      32.446  21.201  24.482  1.00  0.00    -0.247 OA
BRANCH  10  26
ATOM     26  C   UNL A   1      39.991  21.386  26.548  1.00  0.00     0.044 A 
ATOM     27  C   UNL A   1      41.903  19.345  26.965  1.00  0.00     0.119 A 
ATOM     28  C   UNL A   1      41.892  20.466  27.785  1.00  0.00     0.048 A 
ATOM     29  C   UNL A   1      40.935  19.210  25.969  1.00  0.00     0.048 A 
ATOM     30  C   UNL A   1      40.952  21.476  27.571  1.00  0.00     0.030 A 
ATOM     31  C   UNL A   1      39.979  20.220  25.772  1.00  0.00     0.030 A 
BRANCH  27  32
ATOM     32  O   UNL A   1      42.844  18.398  27.262  1.00  0.00    -0.497 OA
ATOM     33  C   UNL A   1      43.741  18.114  26.195  1.00  0.00     0.278 C 
ENDBRANCH  27  32
ENDBRANCH  10  26
ENDBRANCH   8   9
ENDBRANCH   5   8
ENDBRANCH   3   4
ENDBRANCH   2   3
ENDBRANCH   1   2
BRANCH   1  34
ATOM     34  C   UNL A   1      34.350  28.551  27.297  1.00  0.00     0.002 C 
BRANCH  34  35
ATOM     35  C   UNL A   1      35.385  29.687  27.211  1.00  0.00     0.021 C 
BRANCH  35  36
ATOM     36  C   UNL A   1      36.670  29.448  28.018  1.00  0.00     0.116 C 
BRANCH  36  37
ATOM     37  N   UNL A   1      36.401  29.636  29.432  1.00  0.00    -0.352 N 
ATOM     38  C   UNL A   1      37.114  29.296  30.543  1.00  0.00     0.251 C 
ATOM     39  H   UNL A   1      35.548  30.089  29.624  1.00  0.00     0.163 HD
ATOM     40  O   UNL A   1      36.499  29.166  31.602  1.00  0.00    -0.269 OA
BRANCH  38  41
ATOM     41  C   UNL A   1      38.584  29.130  30.545  1.00  0.00     0.039 A 
ATOM     42  C   UNL A   1      39.345  30.288  30.335  1.00  0.00     0.014 A 
ATOM     43  C   UNL A   1      39.214  27.880  30.546  1.00  0.00     0.014 A 
ATOM     44  C   UNL A   1      40.715  30.202  30.111  1.00  0.00     0.010 A 
ATOM     45  C   UNL A   1      40.596  27.795  30.332  1.00  0.00     0.010 A 
ATOM     46  C   UNL A   1      41.350  28.955  30.106  1.00  0.00    -0.014 A 
BRANCH  46  47
ATOM     47  C   UNL A   1      42.818  28.966  29.961  1.00  0.00     0.031 A 
ATOM     48  C   UNL A   1      43.554  28.195  31.014  1.00  0.00     0.074 A 
ATOM     49  C   UNL A   1      43.394  29.116  28.749  1.00  0.00     0.049 A 
ATOM     50  N   UNL A   1      43.745  26.908  30.977  1.00  0.00    -0.248 NA
ATOM     51  C   UNL A   1      43.880  28.799  32.308  1.00  0.00     0.031 C 
ATOM     52  C   UNL A   1      42.918  28.470  27.522  1.00  0.00     0.029 A 
ATOM     53  N   UNL A   1      44.596  29.684  28.387  1.00  0.00    -0.354 N 
ATOM     54  C   UNL A   1      44.192  26.519  32.231  1.00  0.00     0.074 A 
ATOM     55  C   UNL A   1      44.256  27.726  33.024  1.00  0.00     0.031 C 
ATOM     56  C   UNL A   1      43.897  28.527  26.596  1.00  0.00     0.029 A 
ATOM     57  C   UNL A   1      45.020  29.312  27.113  1.00  0.00     0.049 A 
ATOM     58  H   UNL A   1      45.106  30.292  28.971  1.00  0.00     0.167 HD
ATOM     59  C   UNL A   1      44.493  25.230  32.546  1.00  0.00     0.037 A 
ATOM     60  C   UNL A   1      46.324  29.098  26.775  1.00  0.00     0.037 A 
ATOM     61  C   UNL A   1      44.363  24.288  31.475  1.00  0.00     0.049 A 
ATOM     62  C   UNL A   1      46.576  27.765  27.434  1.00  0.00     0.074 A 
ATOM     63  C   UNL A   1      43.455  23.349  31.038  1.00  0.00     0.029 A 
ATOM     64  N   UNL A   1      45.384  24.234  30.557  1.00  0.00    -0.354 N 
ATOM     65  N   UNL A   1      46.194  26.599  26.984  1.00  0.00    -0.248 NA
ATOM     66  C   UNL A   1      46.948  27.778  28.850  1.00  0.00     0.031 C 
ATOM     67  C   UNL A   1      43.758  23.153  29.652  1.00  0.00     0.029 A 
ATOM     68  C   UNL A   1      44.807  24.014  29.335  1.00  0.00     0.049 A 
ATOM     69  H   UNL A   1      46.346  24.335  30.742  1.00  0.00     0.167 HD
ATOM     70  C   UNL A   1      46.012  25.804  28.118  1.00  0.00     0.074 A 
ATOM     71  C   UNL A   1      46.525  26.580  29.228  1.00  0.00     0.031 C 
ATOM     72  C   UNL A   1      45.280  24.651  28.128  1.00  0.00     0.037 A 
BRANCH  59  73
ATOM     73  C   UNL A   1      45.104  24.768  33.809  1.00  0.00     0.057 A 
ATOM     74  C   UNL A   1      46.503  24.781  33.904  1.00  0.00     0.134 A 
ATOM     75  C   UNL A   1      44.392  24.077  34.789  1.00  0.00     0.134 A 
ATOM     76  F   UNL A   1      47.236  25.427  32.980  1.00  0.00    -0.206 F 
ATOM     77  C   UNL A   1      47.178  24.082  34.901  1.00  0.00     0.040 A 
ATOM     78  C   UNL A   1      45.058  23.381  35.805  1.00  0.00     0.040 A 
ATOM     79  F   UNL A   1      43.053  24.014  34.747  1.00  0.00    -0.206 F 
ATOM     80  C   UNL A   1      46.454  23.364  35.848  1.00  0.00     0.006 A 
ENDBRANCH  59  73
BRANCH  60  81
ATOM     81  C   UNL A   1      47.248  30.271  26.885  1.00  0.00     0.057 A 
ATOM     82  C   UNL A   1      46.737  31.550  26.585  1.00  0.00     0.134 A 
ATOM     83  C   UNL A   1      48.601  30.234  27.249  1.00  0.00     0.134 A 
ATOM     84  F   UNL A   1      45.491  31.686  26.105  1.00  0.00    -0.206 F 
ATOM     85  C   UNL A   1      47.479  32.721  26.765  1.00  0.00     0.040 A 
ATOM     86  C   UNL A   1      49.349  31.401  27.460  1.00  0.00     0.040 A 
ATOM     87  F   UNL A   1      49.249  29.075  27.417  1.00  0.00    -0.206 F 
ATOM     88  C   UNL A   1      48.781  32.650  27.239  1.00  0.00     0.006 A 
ENDBRANCH  60  81
BRANCH  72  89
ATOM     89  C   UNL A   1      44.750  24.207  26.807  1.00  0.00     0.057 A 
ATOM     90  C   UNL A   1      45.542  23.463  25.929  1.00  0.00     0.134 A 
ATOM     91  C   UNL A   1      43.431  24.482  26.417  1.00  0.00     0.134 A 
ATOM     92  F   UNL A   1      46.810  23.156  26.247  1.00  0.00    -0.206 F 
ATOM     93  C   UNL A   1      45.037  22.994  24.715  1.00  0.00     0.040 A 
ATOM     94  C   UNL A   1      42.906  23.993  25.219  1.00  0.00     0.040 A 
ATOM     95  F   UNL A   1      42.617  25.213  27.194  1.00  0.00    -0.206 F 
ATOM     96  C   UNL A   1      43.711  23.246  24.364  1.00  0.00     0.006 A 
ENDBRANCH  72  89
ENDBRANCH  46  47
ENDBRANCH  38  41
ENDBRANCH  36  37
ENDBRANCH  35  36
ENDBRANCH  34  35
ENDBRANCH   1  34
TORSDOF 16
ENDMDL
MODEL 2
REMARK VINA RESULT:     -10.7      2.284      3.505
REMARK SMILES COc1ccc(N2C[C@@H](C)Cn3c2nc2c3c(=O)n(CC(=O)NCCCCCCNC(=O)c3ccc(-c4c5nc(c(-c6c(F)cccc6F)c6ccc([nH]6)c(-c6c(F)cccc6F)c6nc(c(-c7c(F)cccc7F)c7ccc4[nH]7)C=C6)C=C5)cc3)c(=O)n2C)cc1
REMARK SMILES IDX 26 1 25 2 24 3 23 4 21 5 22 6 20 8 19 9 7 10 8 11 13 12 9 13
REMARK SMILES IDX 12 14 14 15 11 16 10 17 16 18 15 19 17 20 89 21 18 22 87 23
REMARK SMILES IDX 90 24 88 25 6 26 3 27 4 28 92 29 5 30 91 31 2 32 1 33 27 34
REMARK SMILES IDX 28 35 29 36 30 37 31 38 32 40 33 41 34 42 86 43 35 44 85 45
REMARK SMILES IDX 36 46 37 47 38 48 79 49 39 50 84 51 78 52 80 53 40 54 83 55
REMARK SMILES IDX 77 56 76 57 41 59 67 60 50 61 66 62 51 63 54 64 65 65 81 66
REMARK SMILES IDX 52 67 53 68 64 70 82 71 55 72 42 73 43 74 48 75 44 76 45 77
REMARK SMILES IDX 47 78 49 79 46 80 68 81 69 82 74 83 70 84 71 85 73 86 75 87
REMARK SMILES IDX 72 88 56 89 57 90 62 91 58 92 59 93 61 94 63 95 60 96
REMARK H PARENT 23 7 30 39 80 58 54 69
REMARK Flexibility Score: inf
ROOT
ATOM      1  C   UNL A   1      32.901  28.999  27.268  1.00  0.00     0.002 C 
ENDROOT
BRANCH   1   2
ATOM      2  C   UNL A   1      31.772  29.532  26.375  1.00  0.00     0.021 C 
BRANCH   2   3
ATOM      3  C   UNL A   1      32.110  29.527  24.884  1.00  0.00     0.116 C 
BRANCH   3   4
ATOM      4  N   UNL A   1      31.088  28.864  24.103  1.00  0.00    -0.355 N 
ATOM      5  C   UNL A   1      31.215  27.938  23.109  1.00  0.00     0.240 C 
ATOM      6  O   UNL A   1      30.191  27.343  22.762  1.00  0.00    -0.273 OA
ATOM      7  H   UNL A   1      30.162  29.118  24.321  1.00  0.00     0.163 HD
BRANCH   5   8
ATOM      8  C   UNL A   1      32.587  27.541  22.546  1.00  0.00     0.230 C 
BRANCH   8   9
ATOM      9  N   UNL A   1      32.863  26.110  22.638  1.00  0.00    -0.249 N 
ATOM     10  N   UNL A   1      33.873  21.063  25.347  1.00  0.00    -0.312 N 
ATOM     11  C   UNL A   1      34.310  21.374  26.717  1.00  0.00     0.131 C 
ATOM     12  C   UNL A   1      33.696  22.096  24.473  1.00  0.00     0.212 A 
ATOM     13  C   UNL A   1      33.435  22.496  27.278  1.00  0.00     0.026 C 
ATOM     14  N   UNL A   1      33.565  23.376  24.982  1.00  0.00    -0.304 N 
ATOM     15  N   UNL A   1      33.545  22.121  23.157  1.00  0.00    -0.194 NA
ATOM     16  C   UNL A   1      33.607  23.724  26.388  1.00  0.00     0.131 C 
ATOM     17  C   UNL A   1      33.786  22.814  28.726  1.00  0.00     0.011 C 
ATOM     18  C   UNL A   1      33.350  24.229  23.946  1.00  0.00     0.154 A 
ATOM     19  C   UNL A   1      33.342  23.436  22.841  1.00  0.00     0.170 A 
ATOM     20  C   UNL A   1      33.151  25.629  23.912  1.00  0.00     0.283 A 
ATOM     21  N   UNL A   1      33.153  23.975  21.588  1.00  0.00    -0.279 N 
ATOM     22  O   UNL A   1      33.229  26.338  24.917  1.00  0.00    -0.267 OA
ATOM     23  C   UNL A   1      32.960  25.354  21.455  1.00  0.00     0.332 A 
ATOM     24  C   UNL A   1      33.175  23.122  20.414  1.00  0.00     0.157 C 
ATOM     25  O   UNL A   1      32.868  25.889  20.347  1.00  0.00    -0.247 OA
BRANCH  10  26
ATOM     26  C   UNL A   1      33.783  19.693  25.038  1.00  0.00     0.044 A 
ATOM     27  C   UNL A   1      33.553  16.913  24.579  1.00  0.00     0.119 A 
ATOM     28  C   UNL A   1      32.436  17.652  24.947  1.00  0.00     0.048 A 
ATOM     29  C   UNL A   1      34.774  17.559  24.388  1.00  0.00     0.048 A 
ATOM     30  C   UNL A   1      32.554  19.023  25.181  1.00  0.00     0.030 A 
ATOM     31  C   UNL A   1      34.883  18.942  24.605  1.00  0.00     0.030 A 
BRANCH  27  32
ATOM     32  O   UNL A   1      33.338  15.582  24.349  1.00  0.00    -0.497 OA
ATOM     33  C   UNL A   1      32.664  14.910  25.407  1.00  0.00     0.278 C 
ENDBRANCH  27  32
ENDBRANCH  10  26
ENDBRANCH   8   9
ENDBRANCH   5   8
ENDBRANCH   3   4
ENDBRANCH   2   3
ENDBRANCH   1   2
BRANCH   1  34
ATOM     34  C   UNL A   1      34.171  29.857  27.291  1.00  0.00     0.002 C 
BRANCH  34  35
ATOM     35  C   UNL A   1      35.497  29.077  27.261  1.00  0.00     0.021 C 
BRANCH  35  36
ATOM     36  C   UNL A   1      36.663  29.762  27.990  1.00  0.00     0.116 C 
BRANCH  36  37
ATOM     37  N   UNL A   1      36.398  29.789  29.417  1.00  0.00    -0.352 N 
ATOM     38  C   UNL A   1      37.106  29.309  30.478  1.00  0.00     0.251 C 
ATOM     39  H   UNL A   1      35.554  30.232  29.662  1.00  0.00     0.163 HD
ATOM     40  O   UNL A   1      36.488  29.069  31.517  1.00  0.00    -0.269 OA
BRANCH  38  41
ATOM     41  C   UNL A   1      38.573  29.117  30.457  1.00  0.00     0.039 A 
ATOM     42  C   UNL A   1      39.356  30.277  30.511  1.00  0.00     0.014 A 
ATOM     43  C   UNL A   1      39.180  27.884  30.192  1.00  0.00     0.014 A 
ATOM     44  C   UNL A   1      40.727  30.214  30.285  1.00  0.00     0.010 A 
ATOM     45  C   UNL A   1      40.563  27.820  29.977  1.00  0.00     0.010 A 
ATOM     46  C   UNL A   1      41.340  28.986  30.015  1.00  0.00    -0.014 A 
BRANCH  46  47
ATOM     47  C   UNL A   1      42.810  28.998  29.889  1.00  0.00     0.031 A 
ATOM     48  C   UNL A   1      43.533  28.228  30.951  1.00  0.00     0.074 A 
ATOM     49  C   UNL A   1      43.400  29.148  28.683  1.00  0.00     0.049 A 
ATOM     50  N   UNL A   1      43.726  26.941  30.917  1.00  0.00    -0.248 NA
ATOM     51  C   UNL A   1      43.842  28.833  32.249  1.00  0.00     0.031 C 
ATOM     52  C   UNL A   1      42.941  28.500  27.451  1.00  0.00     0.029 A 
ATOM     53  N   UNL A   1      44.607  29.717  28.336  1.00  0.00    -0.354 N 
ATOM     54  C   UNL A   1      44.157  26.554  32.178  1.00  0.00     0.074 A 
ATOM     55  C   UNL A   1      44.210  27.761  32.970  1.00  0.00     0.031 C 
ATOM     56  C   UNL A   1      43.932  28.558  26.538  1.00  0.00     0.029 A 
ATOM     57  C   UNL A   1      45.047  29.345  27.068  1.00  0.00     0.049 A 
ATOM     58  H   UNL A   1      45.108  30.326  28.927  1.00  0.00     0.167 HD
ATOM     59  C   UNL A   1      44.455  25.266  32.497  1.00  0.00     0.037 A 
ATOM     60  C   UNL A   1      46.356  29.131  26.747  1.00  0.00     0.037 A 
ATOM     61  C   UNL A   1      44.340  24.323  31.425  1.00  0.00     0.049 A 
ATOM     62  C   UNL A   1      46.601  27.799  27.410  1.00  0.00     0.074 A 
ATOM     63  C   UNL A   1      43.439  23.382  30.977  1.00  0.00     0.029 A 
ATOM     64  N   UNL A   1      45.372  24.269  30.521  1.00  0.00    -0.354 N 
ATOM     65  N   UNL A   1      46.225  26.632  26.956  1.00  0.00    -0.248 NA
ATOM     66  C   UNL A   1      46.954  27.814  28.830  1.00  0.00     0.031 C 
ATOM     67  C   UNL A   1      43.759  23.185  29.596  1.00  0.00     0.029 A 
ATOM     68  C   UNL A   1      44.812  24.047  29.291  1.00  0.00     0.049 A 
ATOM     69  H   UNL A   1      46.332  24.371  30.717  1.00  0.00     0.167 HD
ATOM     70  C   UNL A   1      46.029  25.838  28.088  1.00  0.00     0.074 A 
ATOM     71  C   UNL A   1      46.528  26.615  29.204  1.00  0.00     0.031 C 
ATOM     72  C   UNL A   1      45.299  24.684  28.090  1.00  0.00     0.037 A 
BRANCH  59  73
ATOM     73  C   UNL A   1      45.051  24.805  33.768  1.00  0.00     0.057 A 
ATOM     74  C   UNL A   1      46.449  24.802  33.874  1.00  0.00     0.134 A 
ATOM     75  C   UNL A   1      44.323  24.130  34.747  1.00  0.00     0.134 A 
ATOM     76  F   UNL A   1      47.197  25.432  32.952  1.00  0.00    -0.206 F 
ATOM     77  C   UNL A   1      47.108  24.102  34.881  1.00  0.00     0.040 A 
ATOM     78  C   UNL A   1      44.973  23.433  35.773  1.00  0.00     0.040 A 
ATOM     79  F   UNL A   1      42.984  24.083  34.695  1.00  0.00    -0.206 F 
ATOM     80  C   UNL A   1      46.368  23.400  35.827  1.00  0.00     0.006 A 
ENDBRANCH  59  73
BRANCH  60  81
ATOM     81  C   UNL A   1      47.277  30.305  26.868  1.00  0.00     0.057 A 
ATOM     82  C   UNL A   1      46.764  31.585  26.571  1.00  0.00     0.134 A 
ATOM     83  C   UNL A   1      48.627  30.269  27.238  1.00  0.00     0.134 A 
ATOM     84  F   UNL A   1      45.521  31.721  26.086  1.00  0.00    -0.206 F 
ATOM     85  C   UNL A   1      47.504  32.756  26.762  1.00  0.00     0.040 A 
ATOM     86  C   UNL A   1      49.372  31.436  27.459  1.00  0.00     0.040 A 
ATOM     87  F   UNL A   1      49.277  29.110  27.403  1.00  0.00    -0.206 F 
ATOM     88  C   UNL A   1      48.804  32.685  27.242  1.00  0.00     0.006 A 
ENDBRANCH  60  81
BRANCH  72  89
ATOM     89  C   UNL A   1      44.786  24.238  26.763  1.00  0.00     0.057 A 
ATOM     90  C   UNL A   1      45.583  23.477  25.903  1.00  0.00     0.134 A 
ATOM     91  C   UNL A   1      43.479  24.530  26.347  1.00  0.00     0.134 A 
ATOM     92  F   UNL A   1      46.840  23.154  26.246  1.00  0.00    -0.206 F 
ATOM     93  C   UNL A   1      45.093  23.007  24.685  1.00  0.00     0.040 A 
ATOM     94  C   UNL A   1      42.968  24.040  25.143  1.00  0.00     0.040 A 
ATOM     95  F   UNL A   1      42.661  25.277  27.104  1.00  0.00    -0.206 F 
ATOM     96  C   UNL A   1      43.777  23.275  24.308  1.00  0.00     0.006 A 
ENDBRANCH  72  89
ENDBRANCH  46  47
ENDBRANCH  38  41
ENDBRANCH  36  37
ENDBRANCH  35  36
ENDBRANCH  34  35
ENDBRANCH   1  34
TORSDOF 16
ENDMDL
MODEL 3
REMARK VINA RESULT:     -10.3      9.930     16.548
REMARK SMILES COc1ccc(N2C[C@@H](C)Cn3c2nc2c3c(=O)n(CC(=O)NCCCCCCNC(=O)c3ccc(-c4c5nc(c(-c6c(F)cccc6F)c6ccc([nH]6)c(-c6c(F)cccc6F)c6nc(c(-c7c(F)cccc7F)c7ccc4[nH]7)C=C6)C=C5)cc3)c(=O)n2C)cc1
REMARK SMILES IDX 26 1 25 2 24 3 23 4 21 5 22 6 20 8 19 9 7 10 8 11 13 12 9 13
REMARK SMILES IDX 12 14 14 15 11 16 10 17 16 18 15 19 17 20 89 21 18 22 87 23
REMARK SMILES IDX 90 24 88 25 6 26 3 27 4 28 92 29 5 30 91 31 2 32 1 33 27 34
REMARK SMILES IDX 28 35 29 36 30 37 31 38 32 40 33 41 34 42 86 43 35 44 85 45
REMARK SMILES IDX 36 46 37 47 38 48 79 49 39 50 84 51 78 52 80 53 40 54 83 55
REMARK SMILES IDX 77 56 76 57 41 59 67 60 50 61 66 62 51 63 54 64 65 65 81 66
REMARK SMILES IDX 52 67 53 68 64 70 82 71 55 72 42 73 43 74 48 75 44 76 45 77
REMARK SMILES IDX 47 78 49 79 46 80 68 81 69 82 74 83 70 84 71 85 73 86 75 87
REMARK SMILES IDX 72 88 56 89 57 90 62 91 58 92 59 93 61 94 63 95 60 96
REMARK H PARENT 23 7 30 39 80 58 54 69
REMARK Flexibility Score: inf
ROOT
ATOM      1  C   UNL A   1      43.779  40.705  29.906  1.00  0.00     0.002 C 
ENDROOT
BRANCH   1   2
ATOM      2  C   UNL A   1      45.001  40.056  29.241  1.00  0.00     0.021 C 
BRANCH   2   3
ATOM      3  C   UNL A   1      45.714  40.963  28.239  1.00  0.00     0.116 C 
BRANCH   3   4
ATOM      4  N   UNL A   1      45.828  40.343  26.938  1.00  0.00    -0.355 N 
ATOM      5  C   UNL A   1      45.400  40.787  25.720  1.00  0.00     0.240 C 
ATOM      6  O   UNL A   1      45.827  40.195  24.725  1.00  0.00    -0.273 OA
ATOM      7  H   UNL A   1      46.282  39.469  26.928  1.00  0.00     0.163 HD
BRANCH   5   8
ATOM      8  C   UNL A   1      44.547  42.055  25.578  1.00  0.00     0.230 C 
BRANCH   8   9
ATOM      9  N   UNL A   1      44.922  42.885  24.437  1.00  0.00    -0.249 N 
ATOM     10  N   UNL A   1      44.225  45.367  19.224  1.00  0.00    -0.312 N 
ATOM     11  C   UNL A   1      43.188  44.609  18.506  1.00  0.00     0.131 C 
ATOM     12  C   UNL A   1      44.654  44.895  20.430  1.00  0.00     0.212 A 
ATOM     13  C   UNL A   1      42.045  44.289  19.470  1.00  0.00     0.026 C 
ATOM     14  N   UNL A   1      43.868  43.971  21.095  1.00  0.00    -0.304 N 
ATOM     15  N   UNL A   1      45.702  45.210  21.177  1.00  0.00    -0.194 NA
ATOM     16  C   UNL A   1      42.607  43.445  20.611  1.00  0.00     0.131 C 
ATOM     17  C   UNL A   1      40.900  43.570  18.768  1.00  0.00     0.011 C 
ATOM     18  C   UNL A   1      44.459  43.683  22.284  1.00  0.00     0.154 A 
ATOM     19  C   UNL A   1      45.579  44.454  22.310  1.00  0.00     0.170 A 
ATOM     20  C   UNL A   1      44.078  42.815  23.333  1.00  0.00     0.283 A 
ATOM     21  N   UNL A   1      46.439  44.413  23.384  1.00  0.00    -0.279 N 
ATOM     22  O   UNL A   1      43.095  42.075  23.261  1.00  0.00    -0.267 OA
ATOM     23  C   UNL A   1      46.149  43.572  24.464  1.00  0.00     0.332 A 
ATOM     24  C   UNL A   1      47.646  45.219  23.386  1.00  0.00     0.157 C 
ATOM     25  O   UNL A   1      46.932  43.444  25.409  1.00  0.00    -0.247 OA
BRANCH  10  26
ATOM     26  C   UNL A   1      44.757  46.469  18.528  1.00  0.00     0.044 A 
ATOM     27  C   UNL A   1      45.982  48.620  17.162  1.00  0.00     0.119 A 
ATOM     28  C   UNL A   1      46.155  47.318  16.708  1.00  0.00     0.048 A 
ATOM     29  C   UNL A   1      45.161  48.862  18.263  1.00  0.00     0.048 A 
ATOM     30  C   UNL A   1      45.556  46.258  17.389  1.00  0.00     0.030 A 
ATOM     31  C   UNL A   1      44.544  47.792  18.933  1.00  0.00     0.030 A 
BRANCH  27  32
ATOM     32  O   UNL A   1      46.588  49.596  16.420  1.00  0.00    -0.497 OA
ATOM     33  C   UNL A   1      47.062  50.698  17.184  1.00  0.00     0.278 C 
ENDBRANCH  27  32
ENDBRANCH  10  26
ENDBRANCH   8   9
ENDBRANCH   5   8
ENDBRANCH   3   4
ENDBRANCH   2   3
ENDBRANCH   1   2
BRANCH   1  34
ATOM     34  C   UNL A   1      42.422  40.163  29.439  1.00  0.00     0.002 C 
BRANCH  34  35
ATOM     35  C   UNL A   1      42.068  40.448  27.968  1.00  0.00     0.021 C 
BRANCH  35  36
ATOM     36  C   UNL A   1      41.577  39.226  27.177  1.00  0.00     0.116 C 
BRANCH  36  37
ATOM     37  N   UNL A   1      42.716  38.457  26.710  1.00  0.00    -0.352 N 
ATOM     38  C   UNL A   1      43.430  37.452  27.293  1.00  0.00     0.251 C 
ATOM     39  H   UNL A   1      43.031  38.707  25.812  1.00  0.00     0.163 HD
ATOM     40  O   UNL A   1      44.582  37.267  26.901  1.00  0.00    -0.269 OA
BRANCH  38  41
ATOM     41  C   UNL A   1      42.871  36.551  28.324  1.00  0.00     0.039 A 
ATOM     42  C   UNL A   1      43.639  36.374  29.483  1.00  0.00     0.014 A 
ATOM     43  C   UNL A   1      41.749  35.744  28.109  1.00  0.00     0.014 A 
ATOM     44  C   UNL A   1      43.303  35.392  30.409  1.00  0.00     0.010 A 
ATOM     45  C   UNL A   1      41.404  34.763  29.048  1.00  0.00     0.010 A 
ATOM     46  C   UNL A   1      42.185  34.578  30.198  1.00  0.00    -0.014 A 
BRANCH  46  47
ATOM     47  C   UNL A   1      41.846  33.633  31.279  1.00  0.00     0.031 A 
ATOM     48  C   UNL A   1      40.399  33.623  31.666  1.00  0.00     0.074 A 
ATOM     49  C   UNL A   1      42.577  32.513  31.474  1.00  0.00     0.049 A 
ATOM     50  N   UNL A   1      39.480  32.947  31.039  1.00  0.00    -0.248 NA
ATOM     51  C   UNL A   1      39.863  34.593  32.624  1.00  0.00     0.031 C 
ATOM     52  C   UNL A   1      43.084  31.658  30.397  1.00  0.00     0.029 A 
ATOM     53  N   UNL A   1      42.844  31.803  32.624  1.00  0.00    -0.354 N 
ATOM     54  C   UNL A   1      38.250  33.405  31.489  1.00  0.00     0.074 A 
ATOM     55  C   UNL A   1      38.540  34.428  32.468  1.00  0.00     0.031 C 
ATOM     56  C   UNL A   1      43.439  30.468  30.922  1.00  0.00     0.029 A 
ATOM     57  C   UNL A   1      43.301  30.509  32.379  1.00  0.00     0.049 A 
ATOM     58  H   UNL A   1      42.725  32.172  33.530  1.00  0.00     0.167 HD
ATOM     59  C   UNL A   1      37.065  32.912  31.041  1.00  0.00     0.037 A 
ATOM     60  C   UNL A   1      42.984  29.430  33.149  1.00  0.00     0.037 A 
ATOM     61  C   UNL A   1      37.161  31.842  30.093  1.00  0.00     0.049 A 
ATOM     62  C   UNL A   1      41.555  29.188  32.731  1.00  0.00     0.074 A 
ATOM     63  C   UNL A   1      37.076  31.668  28.730  1.00  0.00     0.029 A 
ATOM     64  N   UNL A   1      37.422  30.587  30.586  1.00  0.00    -0.354 N 
ATOM     65  N   UNL A   1      41.165  28.605  31.628  1.00  0.00    -0.248 NA
ATOM     66  C   UNL A   1      40.519  29.970  33.405  1.00  0.00     0.031 C 
ATOM     67  C   UNL A   1      37.763  30.440  28.465  1.00  0.00     0.029 A 
ATOM     68  C   UNL A   1      38.250  29.972  29.685  1.00  0.00     0.049 A 
ATOM     69  H   UNL A   1      37.080  30.202  31.425  1.00  0.00     0.167 HD
ATOM     70  C   UNL A   1      39.923  29.172  31.327  1.00  0.00     0.074 A 
ATOM     71  C   UNL A   1      39.571  29.978  32.479  1.00  0.00     0.031 C 
ATOM     72  C   UNL A   1      39.343  29.119  30.092  1.00  0.00     0.037 A 
BRANCH  59  73
ATOM     73  C   UNL A   1      35.729  33.250  31.574  1.00  0.00     0.057 A 
ATOM     74  C   UNL A   1      34.966  34.199  30.880  1.00  0.00     0.134 A 
ATOM     75  C   UNL A   1      35.308  32.886  32.853  1.00  0.00     0.134 A 
ATOM     76  F   UNL A   1      35.333  34.588  29.647  1.00  0.00    -0.206 F 
ATOM     77  C   UNL A   1      33.858  34.815  31.456  1.00  0.00     0.040 A 
ATOM     78  C   UNL A   1      34.188  33.488  33.438  1.00  0.00     0.040 A 
ATOM     79  F   UNL A   1      36.002  31.995  33.575  1.00  0.00    -0.206 F 
ATOM     80  C   UNL A   1      33.474  34.470  32.748  1.00  0.00     0.006 A 
ENDBRANCH  59  73
BRANCH  60  81
ATOM     81  C   UNL A   1      43.442  29.464  34.574  1.00  0.00     0.057 A 
ATOM     82  C   UNL A   1      44.377  28.496  34.995  1.00  0.00     0.134 A 
ATOM     83  C   UNL A   1      43.022  30.364  35.562  1.00  0.00     0.134 A 
ATOM     84  F   UNL A   1      44.751  27.510  34.166  1.00  0.00    -0.206 F 
ATOM     85  C   UNL A   1      44.955  28.509  36.269  1.00  0.00     0.040 A 
ATOM     86  C   UNL A   1      43.611  30.406  36.833  1.00  0.00     0.040 A 
ATOM     87  F   UNL A   1      42.032  31.237  35.338  1.00  0.00    -0.206 F 
ATOM     88  C   UNL A   1      44.597  29.490  37.182  1.00  0.00     0.006 A 
ENDBRANCH  60  81
BRANCH  72  89
ATOM     89  C   UNL A   1      40.067  28.315  29.068  1.00  0.00     0.057 A 
ATOM     90  C   UNL A   1      39.834  26.943  28.935  1.00  0.00     0.134 A 
ATOM     91  C   UNL A   1      40.975  28.907  28.178  1.00  0.00     0.134 A 
ATOM     92  F   UNL A   1      38.969  26.317  29.748  1.00  0.00    -0.206 F 
ATOM     93  C   UNL A   1      40.465  26.192  27.942  1.00  0.00     0.040 A 
ATOM     94  C   UNL A   1      41.589  28.172  27.162  1.00  0.00     0.040 A 
ATOM     95  F   UNL A   1      41.272  30.214  28.259  1.00  0.00    -0.206 F 
ATOM     96  C   UNL A   1      41.334  26.809  27.042  1.00  0.00     0.006 A 
ENDBRANCH  72  89
ENDBRANCH  46  47
ENDBRANCH  38  41
ENDBRANCH  36  37
ENDBRANCH  35  36
ENDBRANCH  34  35
ENDBRANCH   1  34
TORSDOF 16
ENDMDL
