MODEL 1
REMARK VINA RESULT:     -11.2      0.000      0.000
REMARK SMILES Nc1ccc(-c2cc(O)ccc2Cl)c(C(=O)NCCCCCCNC(=O)c2ccc(-c3c4nc(c(-c5c(F)cccc5F)c5ccc([nH]5)c(-c5c(F)cccc5F)c5nc(c(-c6c(F)cccc6F)c6ccc3[nH]6)C=C5)C=C4)cc2)n1
REMARK SMILES IDX 20 1 19 2 18 3 17 4 15 5 16 6 14 8 2 9 3 10 81 11 4 12 5 13
REMARK SMILES IDX 1 14 6 17 7 18 12 19 8 20 11 21 13 22 10 23 9 24 21 26 22 27
REMARK SMILES IDX 23 28 24 29 25 30 26 32 27 33 28 34 80 35 29 36 79 37 30 38
REMARK SMILES IDX 31 39 32 40 73 41 33 42 78 43 72 44 74 45 34 46 77 47 71 48
REMARK SMILES IDX 70 49 35 51 61 52 44 53 60 54 45 55 48 56 59 57 75 58 46 59
REMARK SMILES IDX 47 60 58 62 76 63 49 64 36 65 37 66 42 67 38 68 39 69 41 70
REMARK SMILES IDX 43 71 40 72 62 73 63 74 68 75 64 76 65 77 67 78 69 79 66 80
REMARK SMILES IDX 50 81 51 82 56 83 52 84 53 85 55 86 57 87 54 88
REMARK H PARENT 17 7 1 15 1 16 9 25 24 31 74 50 48 61
REMARK Flexibility Score: inf
ROOT
ATOM      1  C   UNL A   1      33.119  26.862  23.810  1.00  0.00     0.002 C 
ENDROOT
BRANCH   1   2
ATOM      2  C   UNL A   1      33.643  25.839  22.795  1.00  0.00     0.021 C 
BRANCH   2   3
ATOM      3  C   UNL A   1      32.630  25.168  21.875  1.00  0.00     0.116 C 
BRANCH   3   4
ATOM      4  N   UNL A   1      32.596  23.730  21.893  1.00  0.00    -0.351 N 
ATOM      5  C   UNL A   1      32.334  22.862  22.936  1.00  0.00     0.270 C 
ATOM      6  O   UNL A   1      32.256  21.665  22.642  1.00  0.00    -0.267 OA
ATOM      7  H   UNL A   1      32.788  23.299  21.029  1.00  0.00     0.163 HD
BRANCH   5   8
ATOM      8  C   UNL A   1      32.225  23.267  24.394  1.00  0.00     0.138 A 
ATOM      9  C   UNL A   1      30.777  24.392  25.853  1.00  0.00     0.124 A 
ATOM     10  C   UNL A   1      31.672  24.275  26.895  1.00  0.00     0.047 A 
ATOM     11  N   UNL A   1      31.019  23.873  24.642  1.00  0.00    -0.225 NA
ATOM     12  C   UNL A   1      32.893  23.657  26.655  1.00  0.00     0.015 A 
ATOM     13  C   UNL A   1      33.220  23.152  25.381  1.00  0.00     0.015 A 
BRANCH   9  14
ATOM     14  N   UNL A   1      29.561  25.018  26.038  1.00  0.00    -0.384 N 
ATOM     15  H   UNL A   1      29.508  25.844  26.570  1.00  0.00     0.158 HD
ATOM     16  H   UNL A   1      28.746  24.638  25.637  1.00  0.00     0.158 HD
ENDBRANCH   9  14
BRANCH  13  17
ATOM     17  C   UNL A   1      34.568  22.583  25.224  1.00  0.00     0.006 A 
ATOM     18  C   UNL A   1      35.661  23.474  25.097  1.00  0.00     0.056 A 
ATOM     19  C   UNL A   1      34.831  21.202  25.163  1.00  0.00     0.049 A 
ATOM     20  C   UNL A   1      36.962  22.994  24.989  1.00  0.00     0.116 A 
ATOM     21  C   UNL A   1      36.143  20.733  25.024  1.00  0.00     0.025 A 
ATOM     22  Cl  UNL A   1      33.565  20.029  25.228  1.00  0.00    -0.084 Cl
ATOM     23  C   UNL A   1      37.209  21.629  24.944  1.00  0.00     0.048 A 
BRANCH  20  24
ATOM     24  O   UNL A   1      38.032  23.837  24.975  1.00  0.00    -0.508 OA
ATOM     25  H   UNL A   1      38.230  24.328  24.202  1.00  0.00     0.293 HD
ENDBRANCH  20  24
ENDBRANCH  13  17
ENDBRANCH   5   8
ENDBRANCH   3   4
ENDBRANCH   2   3
ENDBRANCH   1   2
BRANCH   1  26
ATOM     26  C   UNL A   1      33.810  26.968  25.174  1.00  0.00     0.002 C 
BRANCH  26  27
ATOM     27  C   UNL A   1      33.986  28.357  25.789  1.00  0.00     0.021 C 
BRANCH  27  28
ATOM     28  C   UNL A   1      33.711  28.513  27.280  1.00  0.00     0.116 C 
BRANCH  28  29
ATOM     29  N   UNL A   1      33.681  29.895  27.720  1.00  0.00    -0.352 N 
ATOM     30  C   UNL A   1      34.645  30.671  28.311  1.00  0.00     0.251 C 
ATOM     31  H   UNL A   1      32.823  30.353  27.569  1.00  0.00     0.163 HD
ATOM     32  O   UNL A   1      34.342  31.808  28.687  1.00  0.00    -0.269 OA
BRANCH  30  33
ATOM     33  C   UNL A   1      36.031  30.189  28.540  1.00  0.00     0.039 A 
ATOM     34  C   UNL A   1      36.932  30.237  27.468  1.00  0.00     0.014 A 
ATOM     35  C   UNL A   1      36.448  29.635  29.753  1.00  0.00     0.014 A 
ATOM     36  C   UNL A   1      38.248  29.788  27.626  1.00  0.00     0.010 A 
ATOM     37  C   UNL A   1      37.780  29.248  29.931  1.00  0.00     0.010 A 
ATOM     38  C   UNL A   1      38.695  29.315  28.869  1.00  0.00    -0.014 A 
BRANCH  38  39
ATOM     39  C   UNL A   1      40.106  28.883  29.064  1.00  0.00     0.031 A 
ATOM     40  C   UNL A   1      41.119  29.820  29.666  1.00  0.00     0.074 A 
ATOM     41  C   UNL A   1      40.494  27.657  28.658  1.00  0.00     0.049 A 
ATOM     42  N   UNL A   1      42.402  29.639  29.860  1.00  0.00    -0.248 NA
ATOM     43  C   UNL A   1      40.629  31.141  30.086  1.00  0.00     0.031 C 
ATOM     44  C   UNL A   1      39.628  26.660  28.028  1.00  0.00     0.029 A 
ATOM     45  N   UNL A   1      41.722  27.044  28.709  1.00  0.00    -0.354 N 
ATOM     46  C   UNL A   1      42.874  30.825  30.409  1.00  0.00     0.074 A 
ATOM     47  C   UNL A   1      41.749  31.734  30.477  1.00  0.00     0.031 C 
ATOM     48  C   UNL A   1      40.344  25.555  27.767  1.00  0.00     0.029 A 
ATOM     49  C   UNL A   1      41.728  25.776  28.179  1.00  0.00     0.049 A 
ATOM     50  H   UNL A   1      42.524  27.472  29.089  1.00  0.00     0.167 HD
ATOM     51  C   UNL A   1      44.124  31.125  30.836  1.00  0.00     0.037 A 
ATOM     52  C   UNL A   1      42.734  24.891  28.034  1.00  0.00     0.037 A 
ATOM     53  C   UNL A   1      45.240  30.216  30.800  1.00  0.00     0.049 A 
ATOM     54  C   UNL A   1      44.113  25.250  28.512  1.00  0.00     0.074 A 
ATOM     55  C   UNL A   1      46.529  30.413  31.266  1.00  0.00     0.029 A 
ATOM     56  N   UNL A   1      45.201  28.937  30.266  1.00  0.00    -0.354 N 
ATOM     57  N   UNL A   1      44.530  26.355  29.080  1.00  0.00    -0.248 NA
ATOM     58  C   UNL A   1      45.162  24.236  28.332  1.00  0.00     0.031 C 
ATOM     59  C   UNL A   1      47.279  29.268  30.980  1.00  0.00     0.029 A 
ATOM     60  C   UNL A   1      46.447  28.342  30.373  1.00  0.00     0.049 A 
ATOM     61  H   UNL A   1      44.404  28.515  29.870  1.00  0.00     0.167 HD
ATOM     62  C   UNL A   1      45.878  26.161  29.348  1.00  0.00     0.074 A 
ATOM     63  C   UNL A   1      46.208  24.826  28.892  1.00  0.00     0.031 C 
ATOM     64  C   UNL A   1      46.763  27.012  29.920  1.00  0.00     0.037 A 
BRANCH  51  65
ATOM     65  C   UNL A   1      44.354  32.503  31.389  1.00  0.00     0.057 A 
ATOM     66  C   UNL A   1      44.746  33.570  30.571  1.00  0.00     0.134 A 
ATOM     67  C   UNL A   1      44.142  32.773  32.747  1.00  0.00     0.134 A 
ATOM     68  F   UNL A   1      44.975  33.376  29.263  1.00  0.00    -0.206 F 
ATOM     69  C   UNL A   1      44.945  34.852  31.088  1.00  0.00     0.040 A 
ATOM     70  C   UNL A   1      44.313  34.056  33.271  1.00  0.00     0.040 A 
ATOM     71  F   UNL A   1      43.757  31.799  33.584  1.00  0.00    -0.206 F 
ATOM     72  C   UNL A   1      44.722  35.098  32.441  1.00  0.00     0.006 A 
ENDBRANCH  51  65
BRANCH  52  73
ATOM     73  C   UNL A   1      42.470  23.564  27.424  1.00  0.00     0.057 A 
ATOM     74  C   UNL A   1      42.165  22.453  28.217  1.00  0.00     0.134 A 
ATOM     75  C   UNL A   1      42.529  23.373  26.038  1.00  0.00     0.134 A 
ATOM     76  F   UNL A   1      42.117  22.570  29.552  1.00  0.00    -0.206 F 
ATOM     77  C   UNL A   1      41.941  21.194  27.657  1.00  0.00     0.040 A 
ATOM     78  C   UNL A   1      42.283  22.125  25.462  1.00  0.00     0.040 A 
ATOM     79  F   UNL A   1      42.813  24.400  25.223  1.00  0.00    -0.206 F 
ATOM     80  C   UNL A   1      41.995  21.029  26.275  1.00  0.00     0.006 A 
ENDBRANCH  52  73
BRANCH  64  81
ATOM     81  C   UNL A   1      48.167  26.517  30.112  1.00  0.00     0.057 A 
ATOM     82  C   UNL A   1      48.557  25.832  31.269  1.00  0.00     0.134 A 
ATOM     83  C   UNL A   1      49.130  26.699  29.111  1.00  0.00     0.134 A 
ATOM     84  F   UNL A   1      47.685  25.637  32.270  1.00  0.00    -0.206 F 
ATOM     85  C   UNL A   1      49.861  25.361  31.432  1.00  0.00     0.040 A 
ATOM     86  C   UNL A   1      50.430  26.213  29.252  1.00  0.00     0.040 A 
ATOM     87  F   UNL A   1      48.820  27.341  27.974  1.00  0.00    -0.206 F 
ATOM     88  C   UNL A   1      50.801  25.546  30.419  1.00  0.00     0.006 A 
ENDBRANCH  64  81
ENDBRANCH  38  39
ENDBRANCH  30  33
ENDBRANCH  28  29
ENDBRANCH  27  28
ENDBRANCH  26  27
ENDBRANCH   1  26
TORSDOF 16
ENDMDL
MODEL 2
REMARK VINA RESULT:     -11.0      3.959      5.527
REMARK SMILES Nc1ccc(-c2cc(O)ccc2Cl)c(C(=O)NCCCCCCNC(=O)c2ccc(-c3c4nc(c(-c5c(F)cccc5F)c5ccc([nH]5)c(-c5c(F)cccc5F)c5nc(c(-c6c(F)cccc6F)c6ccc3[nH]6)C=C5)C=C4)cc2)n1
REMARK SMILES IDX 20 1 19 2 18 3 17 4 15 5 16 6 14 8 2 9 3 10 81 11 4 12 5 13
REMARK SMILES IDX 1 14 6 17 7 18 12 19 8 20 11 21 13 22 10 23 9 24 21 26 22 27
REMARK SMILES IDX 23 28 24 29 25 30 26 32 27 33 28 34 80 35 29 36 79 37 30 38
REMARK SMILES IDX 31 39 32 40 73 41 33 42 78 43 72 44 74 45 34 46 77 47 71 48
REMARK SMILES IDX 70 49 35 51 61 52 44 53 60 54 45 55 48 56 59 57 75 58 46 59
REMARK SMILES IDX 47 60 58 62 76 63 49 64 36 65 37 66 42 67 38 68 39 69 41 70
REMARK SMILES IDX 43 71 40 72 62 73 63 74 68 75 64 76 65 77 67 78 69 79 66 80
REMARK SMILES IDX 50 81 51 82 56 83 52 84 53 85 55 86 57 87 54 88
REMARK H PARENT 17 7 1 15 1 16 9 25 24 31 74 50 48 61
REMARK Flexibility Score: inf
ROOT
ATOM      1  C   UNL A   1      31.999  29.858  26.227  1.00  0.00     0.002 C 
ENDROOT
BRANCH   1   2
ATOM      2  C   UNL A   1      33.268  29.562  25.420  1.00  0.00     0.021 C 
BRANCH   2   3
ATOM      3  C   UNL A   1      33.688  28.105  25.263  1.00  0.00     0.116 C 
BRANCH   3   4
ATOM      4  N   UNL A   1      33.954  27.651  23.925  1.00  0.00    -0.351 N 
ATOM      5  C   UNL A   1      33.125  27.611  22.820  1.00  0.00     0.270 C 
ATOM      6  O   UNL A   1      33.653  27.276  21.755  1.00  0.00    -0.267 OA
ATOM      7  H   UNL A   1      34.868  27.317  23.774  1.00  0.00     0.163 HD
BRANCH   5   8
ATOM      8  C   UNL A   1      31.629  27.863  22.849  1.00  0.00     0.138 A 
ATOM      9  C   UNL A   1      30.074  29.562  22.419  1.00  0.00     0.124 A 
ATOM     10  C   UNL A   1      29.031  28.773  22.855  1.00  0.00     0.047 A 
ATOM     11  N   UNL A   1      31.337  29.118  22.377  1.00  0.00    -0.225 NA
ATOM     12  C   UNL A   1      29.316  27.498  23.329  1.00  0.00     0.015 A 
ATOM     13  C   UNL A   1      30.638  27.009  23.365  1.00  0.00     0.015 A 
BRANCH   9  14
ATOM     14  N   UNL A   1      29.842  30.842  21.960  1.00  0.00    -0.384 N 
ATOM     15  H   UNL A   1      29.949  31.050  21.003  1.00  0.00     0.158 HD
ATOM     16  H   UNL A   1      29.568  31.549  22.588  1.00  0.00     0.158 HD
ENDBRANCH   9  14
BRANCH  13  17
ATOM     17  C   UNL A   1      30.830  25.675  23.954  1.00  0.00     0.006 A 
ATOM     18  C   UNL A   1      30.952  24.567  23.081  1.00  0.00     0.056 A 
ATOM     19  C   UNL A   1      30.870  25.431  25.339  1.00  0.00     0.049 A 
ATOM     20  C   UNL A   1      31.177  23.289  23.580  1.00  0.00     0.116 A 
ATOM     21  C   UNL A   1      31.068  24.134  25.829  1.00  0.00     0.025 A 
ATOM     22  Cl  UNL A   1      30.653  26.696  26.495  1.00  0.00    -0.084 Cl
ATOM     23  C   UNL A   1      31.229  23.064  24.949  1.00  0.00     0.048 A 
BRANCH  20  24
ATOM     24  O   UNL A   1      31.404  22.232  22.751  1.00  0.00    -0.508 OA
ATOM     25  H   UNL A   1      31.558  22.377  21.839  1.00  0.00     0.293 HD
ENDBRANCH  20  24
ENDBRANCH  13  17
ENDBRANCH   5   8
ENDBRANCH   3   4
ENDBRANCH   2   3
ENDBRANCH   1   2
BRANCH   1  26
ATOM     26  C   UNL A   1      31.076  30.991  25.763  1.00  0.00     0.002 C 
BRANCH  26  27
ATOM     27  C   UNL A   1      31.146  32.328  26.501  1.00  0.00     0.021 C 
BRANCH  27  28
ATOM     28  C   UNL A   1      32.504  32.781  27.022  1.00  0.00     0.116 C 
BRANCH  28  29
ATOM     29  N   UNL A   1      32.481  34.100  27.626  1.00  0.00    -0.352 N 
ATOM     30  C   UNL A   1      33.278  34.662  28.590  1.00  0.00     0.251 C 
ATOM     31  H   UNL A   1      31.772  34.692  27.285  1.00  0.00     0.163 HD
ATOM     32  O   UNL A   1      32.992  35.786  29.014  1.00  0.00    -0.269 OA
BRANCH  30  33
ATOM     33  C   UNL A   1      34.455  33.960  29.163  1.00  0.00     0.039 A 
ATOM     34  C   UNL A   1      34.238  33.046  30.202  1.00  0.00     0.014 A 
ATOM     35  C   UNL A   1      35.765  34.222  28.752  1.00  0.00     0.014 A 
ATOM     36  C   UNL A   1      35.311  32.363  30.784  1.00  0.00     0.010 A 
ATOM     37  C   UNL A   1      36.831  33.491  29.287  1.00  0.00     0.010 A 
ATOM     38  C   UNL A   1      36.619  32.557  30.312  1.00  0.00    -0.014 A 
BRANCH  38  39
ATOM     39  C   UNL A   1      37.763  31.799  30.887  1.00  0.00     0.031 A 
ATOM     40  C   UNL A   1      38.274  32.112  32.268  1.00  0.00     0.074 A 
ATOM     41  C   UNL A   1      38.379  30.853  30.150  1.00  0.00     0.049 A 
ATOM     42  N   UNL A   1      39.292  31.597  32.911  1.00  0.00    -0.248 NA
ATOM     43  C   UNL A   1      37.557  33.155  33.017  1.00  0.00     0.031 C 
ATOM     44  C   UNL A   1      38.012  30.471  28.786  1.00  0.00     0.029 A 
ATOM     45  N   UNL A   1      39.450  30.045  30.444  1.00  0.00    -0.354 N 
ATOM     46  C   UNL A   1      39.349  32.262  34.130  1.00  0.00     0.074 A 
ATOM     47  C   UNL A   1      38.288  33.248  34.120  1.00  0.00     0.031 C 
ATOM     48  C   UNL A   1      38.830  29.492  28.367  1.00  0.00     0.029 A 
ATOM     49  C   UNL A   1      39.801  29.200  29.419  1.00  0.00     0.049 A 
ATOM     50  H   UNL A   1      39.922  30.068  31.308  1.00  0.00     0.167 HD
ATOM     51  C   UNL A   1      40.192  32.059  35.171  1.00  0.00     0.037 A 
ATOM     52  C   UNL A   1      40.796  28.295  29.330  1.00  0.00     0.037 A 
ATOM     53  C   UNL A   1      41.228  31.060  35.199  1.00  0.00     0.049 A 
ATOM     54  C   UNL A   1      41.721  28.092  30.497  1.00  0.00     0.074 A 
ATOM     55  C   UNL A   1      42.092  30.742  36.234  1.00  0.00     0.029 A 
ATOM     56  N   UNL A   1      41.544  30.218  34.145  1.00  0.00    -0.354 N 
ATOM     57  N   UNL A   1      41.725  28.690  31.663  1.00  0.00    -0.248 NA
ATOM     58  C   UNL A   1      42.779  27.084  30.337  1.00  0.00     0.031 C 
ATOM     59  C   UNL A   1      42.954  29.733  35.793  1.00  0.00     0.029 A 
ATOM     60  C   UNL A   1      42.601  29.395  34.497  1.00  0.00     0.049 A 
ATOM     61  H   UNL A   1      41.083  30.206  33.274  1.00  0.00     0.167 HD
ATOM     62  C   UNL A   1      42.764  28.116  32.383  1.00  0.00     0.074 A 
ATOM     63  C   UNL A   1      43.361  27.111  31.527  1.00  0.00     0.031 C 
ATOM     64  C   UNL A   1      43.185  28.396  33.640  1.00  0.00     0.037 A 
BRANCH  51  65
ATOM     65  C   UNL A   1      40.025  32.938  36.377  1.00  0.00     0.057 A 
ATOM     66  C   UNL A   1      40.805  34.086  36.567  1.00  0.00     0.134 A 
ATOM     67  C   UNL A   1      39.047  32.655  37.339  1.00  0.00     0.134 A 
ATOM     68  F   UNL A   1      41.766  34.408  35.688  1.00  0.00    -0.206 F 
ATOM     69  C   UNL A   1      40.636  34.907  37.684  1.00  0.00     0.040 A 
ATOM     70  C   UNL A   1      38.851  33.481  38.447  1.00  0.00     0.040 A 
ATOM     71  F   UNL A   1      38.259  31.576  37.213  1.00  0.00    -0.206 F 
ATOM     72  C   UNL A   1      39.652  34.608  38.624  1.00  0.00     0.006 A 
ENDBRANCH  51  65
BRANCH  52  73
ATOM     73  C   UNL A   1      40.960  27.494  28.091  1.00  0.00     0.057 A 
ATOM     74  C   UNL A   1      40.332  26.252  27.948  1.00  0.00     0.134 A 
ATOM     75  C   UNL A   1      41.754  27.944  27.030  1.00  0.00     0.134 A 
ATOM     76  F   UNL A   1      39.577  25.759  28.940  1.00  0.00    -0.206 F 
ATOM     77  C   UNL A   1      40.499  25.477  26.798  1.00  0.00     0.040 A 
ATOM     78  C   UNL A   1      41.911  27.190  25.865  1.00  0.00     0.040 A 
ATOM     79  F   UNL A   1      42.380  29.128  27.105  1.00  0.00    -0.206 F 
ATOM     80  C   UNL A   1      41.287  25.949  25.751  1.00  0.00     0.006 A 
ENDBRANCH  52  73
BRANCH  64  81
ATOM     81  C   UNL A   1      44.329  27.586  34.178  1.00  0.00     0.057 A 
ATOM     82  C   UNL A   1      45.654  28.023  34.075  1.00  0.00     0.134 A 
ATOM     83  C   UNL A   1      44.095  26.372  34.837  1.00  0.00     0.134 A 
ATOM     84  F   UNL A   1      45.945  29.171  33.443  1.00  0.00    -0.206 F 
ATOM     85  C   UNL A   1      46.711  27.271  34.592  1.00  0.00     0.040 A 
ATOM     86  C   UNL A   1      45.140  25.624  35.378  1.00  0.00     0.040 A 
ATOM     87  F   UNL A   1      42.847  25.901  34.976  1.00  0.00    -0.206 F 
ATOM     88  C   UNL A   1      46.455  26.070  35.251  1.00  0.00     0.006 A 
ENDBRANCH  64  81
ENDBRANCH  38  39
ENDBRANCH  30  33
ENDBRANCH  28  29
ENDBRANCH  27  28
ENDBRANCH  26  27
ENDBRANCH   1  26
TORSDOF 16
ENDMDL
MODEL 3
REMARK VINA RESULT:     -11.0      3.993      8.554
REMARK SMILES Nc1ccc(-c2cc(O)ccc2Cl)c(C(=O)NCCCCCCNC(=O)c2ccc(-c3c4nc(c(-c5c(F)cccc5F)c5ccc([nH]5)c(-c5c(F)cccc5F)c5nc(c(-c6c(F)cccc6F)c6ccc3[nH]6)C=C5)C=C4)cc2)n1
REMARK SMILES IDX 20 1 19 2 18 3 17 4 15 5 16 6 14 8 2 9 3 10 81 11 4 12 5 13
REMARK SMILES IDX 1 14 6 17 7 18 12 19 8 20 11 21 13 22 10 23 9 24 21 26 22 27
REMARK SMILES IDX 23 28 24 29 25 30 26 32 27 33 28 34 80 35 29 36 79 37 30 38
REMARK SMILES IDX 31 39 32 40 73 41 33 42 78 43 72 44 74 45 34 46 77 47 71 48
REMARK SMILES IDX 70 49 35 51 61 52 44 53 60 54 45 55 48 56 59 57 75 58 46 59
REMARK SMILES IDX 47 60 58 62 76 63 49 64 36 65 37 66 42 67 38 68 39 69 41 70
REMARK SMILES IDX 43 71 40 72 62 73 63 74 68 75 64 76 65 77 67 78 69 79 66 80
REMARK SMILES IDX 50 81 51 82 56 83 52 84 53 85 55 86 57 87 54 88
REMARK H PARENT 17 7 1 15 1 16 9 25 24 31 74 50 48 61
REMARK Flexibility Score: inf
ROOT
ATOM      1  C   UNL A   1      39.334  21.813  26.121  1.00  0.00     0.002 C 
ENDROOT
BRANCH   1   2
ATOM      2  C   UNL A   1      38.673  23.147  26.487  1.00  0.00     0.021 C 
BRANCH   2   3
ATOM      3  C   UNL A   1      37.399  23.536  25.748  1.00  0.00     0.116 C 
BRANCH   3   4
ATOM      4  N   UNL A   1      37.382  23.309  24.328  1.00  0.00    -0.351 N 
ATOM      5  C   UNL A   1      36.346  22.905  23.506  1.00  0.00     0.270 C 
ATOM      6  O   UNL A   1      36.583  22.901  22.294  1.00  0.00    -0.267 OA
ATOM      7  H   UNL A   1      38.240  23.465  23.872  1.00  0.00     0.163 HD
BRANCH   5   8
ATOM      8  C   UNL A   1      35.002  22.398  23.992  1.00  0.00     0.138 A 
ATOM      9  C   UNL A   1      34.013  20.472  24.888  1.00  0.00     0.124 A 
ATOM     10  C   UNL A   1      32.764  21.054  24.865  1.00  0.00     0.047 A 
ATOM     11  N   UNL A   1      35.114  21.128  24.501  1.00  0.00    -0.225 NA
ATOM     12  C   UNL A   1      32.640  22.342  24.358  1.00  0.00     0.015 A 
ATOM     13  C   UNL A   1      33.761  23.050  23.879  1.00  0.00     0.015 A 
BRANCH   9  14
ATOM     14  N   UNL A   1      34.181  19.187  25.363  1.00  0.00    -0.384 N 
ATOM     15  H   UNL A   1      33.460  18.752  25.872  1.00  0.00     0.158 HD
ATOM     16  H   UNL A   1      35.022  18.705  25.192  1.00  0.00     0.158 HD
ENDBRANCH   9  14
BRANCH  13  17
ATOM     17  C   UNL A   1      33.502  24.376  23.297  1.00  0.00     0.006 A 
ATOM     18  C   UNL A   1      33.063  24.445  21.953  1.00  0.00     0.056 A 
ATOM     19  C   UNL A   1      33.694  25.585  23.992  1.00  0.00     0.049 A 
ATOM     20  C   UNL A   1      32.762  25.669  21.364  1.00  0.00     0.116 A 
ATOM     21  C   UNL A   1      33.415  26.812  23.378  1.00  0.00     0.025 A 
ATOM     22  Cl  UNL A   1      34.300  25.621  25.609  1.00  0.00    -0.084 Cl
ATOM     23  C   UNL A   1      32.942  26.853  22.066  1.00  0.00     0.048 A 
BRANCH  20  24
ATOM     24  O   UNL A   1      32.237  25.744  20.110  1.00  0.00    -0.508 OA
ATOM     25  H   UNL A   1      31.312  25.667  19.984  1.00  0.00     0.293 HD
ENDBRANCH  20  24
ENDBRANCH  13  17
ENDBRANCH   5   8
ENDBRANCH   3   4
ENDBRANCH   2   3
ENDBRANCH   1   2
BRANCH   1  26
ATOM     26  C   UNL A   1      40.551  21.347  26.929  1.00  0.00     0.002 C 
BRANCH  26  27
ATOM     27  C   UNL A   1      41.847  21.047  26.175  1.00  0.00     0.021 C 
BRANCH  27  28
ATOM     28  C   UNL A   1      43.107  21.786  26.609  1.00  0.00     0.116 C 
BRANCH  28  29
ATOM     29  N   UNL A   1      43.693  22.596  25.558  1.00  0.00    -0.352 N 
ATOM     30  C   UNL A   1      43.797  23.957  25.424  1.00  0.00     0.251 C 
ATOM     31  H   UNL A   1      44.081  22.081  24.813  1.00  0.00     0.163 HD
ATOM     32  O   UNL A   1      44.259  24.415  24.374  1.00  0.00    -0.269 OA
BRANCH  30  33
ATOM     33  C   UNL A   1      43.353  24.900  26.481  1.00  0.00     0.039 A 
ATOM     34  C   UNL A   1      42.246  24.543  27.263  1.00  0.00     0.014 A 
ATOM     35  C   UNL A   1      43.952  26.147  26.682  1.00  0.00     0.014 A 
ATOM     36  C   UNL A   1      41.780  25.398  28.267  1.00  0.00     0.010 A 
ATOM     37  C   UNL A   1      43.528  26.973  27.729  1.00  0.00     0.010 A 
ATOM     38  C   UNL A   1      42.435  26.611  28.531  1.00  0.00    -0.014 A 
BRANCH  38  39
ATOM     39  C   UNL A   1      41.981  27.506  29.631  1.00  0.00     0.031 A 
ATOM     40  C   UNL A   1      42.664  27.480  30.971  1.00  0.00     0.074 A 
ATOM     41  C   UNL A   1      40.919  28.315  29.442  1.00  0.00     0.049 A 
ATOM     42  N   UNL A   1      42.373  28.144  32.062  1.00  0.00    -0.248 NA
ATOM     43  C   UNL A   1      43.814  26.574  31.110  1.00  0.00     0.031 C 
ATOM     44  C   UNL A   1      40.142  28.417  28.206  1.00  0.00     0.029 A 
ATOM     45  N   UNL A   1      40.307  29.203  30.293  1.00  0.00    -0.354 N 
ATOM     46  C   UNL A   1      43.291  27.726  33.019  1.00  0.00     0.074 A 
ATOM     47  C   UNL A   1      44.121  26.719  32.392  1.00  0.00     0.031 C 
ATOM     48  C   UNL A   1      39.168  29.327  28.371  1.00  0.00     0.029 A 
ATOM     49  C   UNL A   1      39.230  29.848  29.735  1.00  0.00     0.049 A 
ATOM     50  H   UNL A   1      40.610  29.361  31.216  1.00  0.00     0.167 HD
ATOM     51  C   UNL A   1      43.442  28.154  34.295  1.00  0.00     0.037 A 
ATOM     52  C   UNL A   1      38.382  30.755  30.260  1.00  0.00     0.037 A 
ATOM     53  C   UNL A   1      42.640  29.177  34.915  1.00  0.00     0.049 A 
ATOM     54  C   UNL A   1      38.569  31.209  31.680  1.00  0.00     0.074 A 
ATOM     55  C   UNL A   1      42.760  29.717  36.184  1.00  0.00     0.029 A 
ATOM     56  N   UNL A   1      41.566  29.813  34.311  1.00  0.00    -0.354 N 
ATOM     57  N   UNL A   1      39.477  30.846  32.552  1.00  0.00    -0.248 NA
ATOM     58  C   UNL A   1      37.615  32.206  32.188  1.00  0.00     0.031 C 
ATOM     59  C   UNL A   1      41.737  30.654  36.362  1.00  0.00     0.029 A 
ATOM     60  C   UNL A   1      41.004  30.726  35.188  1.00  0.00     0.049 A 
ATOM     61  H   UNL A   1      41.252  29.643  33.394  1.00  0.00     0.167 HD
ATOM     62  C   UNL A   1      39.220  31.583  33.700  1.00  0.00     0.074 A 
ATOM     63  C   UNL A   1      38.079  32.427  33.409  1.00  0.00     0.031 C 
ATOM     64  C   UNL A   1      39.872  31.563  34.888  1.00  0.00     0.037 A 
BRANCH  51  65
ATOM     65  C   UNL A   1      44.528  27.516  35.114  1.00  0.00     0.057 A 
ATOM     66  C   UNL A   1      45.824  28.043  35.159  1.00  0.00     0.134 A 
ATOM     67  C   UNL A   1      44.262  26.385  35.897  1.00  0.00     0.134 A 
ATOM     68  F   UNL A   1      46.147  29.119  34.425  1.00  0.00    -0.206 F 
ATOM     69  C   UNL A   1      46.826  27.454  35.933  1.00  0.00     0.040 A 
ATOM     70  C   UNL A   1      45.248  25.801  36.694  1.00  0.00     0.040 A 
ATOM     71  F   UNL A   1      43.039  25.835  35.907  1.00  0.00    -0.206 F 
ATOM     72  C   UNL A   1      46.537  26.333  36.709  1.00  0.00     0.006 A 
ENDBRANCH  51  65
BRANCH  52  73
ATOM     73  C   UNL A   1      37.285  31.310  29.430  1.00  0.00     0.057 A 
ATOM     74  C   UNL A   1      37.384  32.586  28.864  1.00  0.00     0.134 A 
ATOM     75  C   UNL A   1      36.110  30.587  29.192  1.00  0.00     0.134 A 
ATOM     76  F   UNL A   1      38.476  33.335  29.076  1.00  0.00    -0.206 F 
ATOM     77  C   UNL A   1      36.347  33.130  28.103  1.00  0.00     0.040 A 
ATOM     78  C   UNL A   1      35.075  31.109  28.414  1.00  0.00     0.040 A 
ATOM     79  F   UNL A   1      35.956  29.356  29.704  1.00  0.00    -0.206 F 
ATOM     80  C   UNL A   1      35.191  32.388  27.872  1.00  0.00     0.006 A 
ENDBRANCH  52  73
BRANCH  64  81
ATOM     81  C   UNL A   1      39.385  32.501  35.954  1.00  0.00     0.057 A 
ATOM     82  C   UNL A   1      38.410  32.120  36.883  1.00  0.00     0.134 A 
ATOM     83  C   UNL A   1      39.925  33.788  36.073  1.00  0.00     0.134 A 
ATOM     84  F   UNL A   1      37.844  30.905  36.816  1.00  0.00    -0.206 F 
ATOM     85  C   UNL A   1      37.975  32.993  37.882  1.00  0.00     0.040 A 
ATOM     86  C   UNL A   1      39.516  34.661  37.080  1.00  0.00     0.040 A 
ATOM     87  F   UNL A   1      40.869  34.213  35.219  1.00  0.00    -0.206 F 
ATOM     88  C   UNL A   1      38.532  34.266  37.986  1.00  0.00     0.006 A 
ENDBRANCH  64  81
ENDBRANCH  38  39
ENDBRANCH  30  33
ENDBRANCH  28  29
ENDBRANCH  27  28
ENDBRANCH  26  27
ENDBRANCH   1  26
TORSDOF 16
ENDMDL
