MODEL 1
REMARK VINA RESULT:     -13.0      0.000      0.000
REMARK SMILES Cc1cccc2c1[C@H]1c3c(C)cccc3[C@H](CC(=O)NCCCCCCNC(=O)c3ccc(-c4c5nc(c(-c6c(F)cccc6F)c6ccc([nH]6)c(-c6c(F)cccc6F)c6nc(c(-c7c(F)cccc7F)c7ccc4[nH]7)C=C6)C=C5)cc3)C[C@H]1CC2
REMARK SMILES IDX 24 1 23 2 22 3 21 4 20 5 18 6 19 7 17 9 16 10 1 11 2 12 3 13
REMARK SMILES IDX 7 14 4 15 6 16 8 17 5 18 87 19 9 20 85 21 86 22 10 23 15 24
REMARK SMILES IDX 84 25 12 26 11 27 14 28 13 29 25 30 26 31 27 32 28 33 29 35
REMARK SMILES IDX 30 36 31 37 83 38 32 39 82 40 33 41 34 42 35 43 76 44 36 45
REMARK SMILES IDX 81 46 75 47 77 48 37 49 80 50 74 51 73 52 38 54 64 55 47 56
REMARK SMILES IDX 63 57 48 58 51 59 62 60 78 61 49 62 50 63 61 65 79 66 52 67
REMARK SMILES IDX 39 68 40 69 45 70 41 71 42 72 44 73 46 74 43 75 65 76 66 77
REMARK SMILES IDX 71 78 67 79 68 80 70 81 72 82 69 83 53 84 54 85 59 86 55 87
REMARK SMILES IDX 56 88 58 89 60 90 57 91
REMARK H PARENT 20 8 27 34 77 53 51 64
REMARK Flexibility Score: inf
ROOT
ATOM      1  C   UNL A   1      36.879  20.901  24.644  1.00  0.00     0.002 C 
ENDROOT
BRANCH   1   2
ATOM      2  C   UNL A   1      36.729  21.929  25.772  1.00  0.00     0.002 C 
BRANCH   2   3
ATOM      3  C   UNL A   1      35.317  22.504  25.925  1.00  0.00     0.021 C 
BRANCH   3   4
ATOM      4  C   UNL A   1      34.481  21.753  26.958  1.00  0.00     0.116 C 
BRANCH   4   5
ATOM      5  N   UNL A   1      33.871  20.568  26.379  1.00  0.00    -0.356 N 
ATOM      6  C   UNL A   1      32.720  20.297  25.725  1.00  0.00     0.220 C 
ATOM      7  O   UNL A   1      32.528  19.098  25.475  1.00  0.00    -0.275 OA
ATOM      8  H   UNL A   1      34.433  19.767  26.491  1.00  0.00     0.163 HD
BRANCH   6   9
ATOM      9  C   UNL A   1      31.685  21.303  25.228  1.00  0.00     0.108 C 
BRANCH   9  10
ATOM     10  C   UNL A   1      31.963  22.809  25.279  1.00  0.00     0.029 C 
ATOM     11  C   UNL A   1      28.722  27.264  23.336  1.00  0.00     0.044 C 
ATOM     12  C   UNL A   1      29.930  27.848  24.024  1.00  0.00    -0.047 A 
ATOM     13  C   UNL A   1      30.088  29.245  23.975  1.00  0.00     0.004 A 
ATOM     14  C   UNL A   1      30.877  27.068  24.735  1.00  0.00    -0.034 A 
ATOM     15  C   UNL A   1      31.145  29.870  24.627  1.00  0.00     0.001 A 
ATOM     16  C   UNL A   1      31.865  27.727  25.506  1.00  0.00    -0.044 A 
ATOM     17  C   UNL A   1      30.871  25.542  24.680  1.00  0.00     0.053 C 
ATOM     18  C   UNL A   1      32.010  29.119  25.414  1.00  0.00     0.004 A 
ATOM     19  C   UNL A   1      32.694  27.009  26.545  1.00  0.00     0.036 C 
ATOM     20  C   UNL A   1      31.778  24.828  23.634  1.00  0.00    -0.034 A 
ATOM     21  C   UNL A   1      31.146  25.041  26.115  1.00  0.00     0.002 C 
ATOM     22  C   UNL A   1      32.548  25.490  26.567  1.00  0.00     0.009 C 
ATOM     23  C   UNL A   1      32.181  25.387  22.381  1.00  0.00    -0.047 A 
ATOM     24  C   UNL A   1      32.164  23.472  23.904  1.00  0.00    -0.040 A 
ATOM     25  C   UNL A   1      30.929  23.529  26.146  1.00  0.00     0.013 C 
ATOM     26  C   UNL A   1      32.920  24.613  21.460  1.00  0.00     0.004 A 
ATOM     27  C   UNL A   1      31.891  26.783  21.899  1.00  0.00     0.044 C 
ATOM     28  C   UNL A   1      32.879  22.742  22.925  1.00  0.00     0.004 A 
ATOM     29  C   UNL A   1      33.260  23.304  21.721  1.00  0.00     0.001 A 
ENDBRANCH   9  10
ENDBRANCH   6   9
ENDBRANCH   4   5
ENDBRANCH   3   4
ENDBRANCH   2   3
ENDBRANCH   1   2
BRANCH   1  30
ATOM     30  C   UNL A   1      37.910  19.801  24.913  1.00  0.00     0.021 C 
BRANCH  30  31
ATOM     31  C   UNL A   1      39.100  20.262  25.747  1.00  0.00     0.116 C 
BRANCH  31  32
ATOM     32  N   UNL A   1      40.092  19.207  25.886  1.00  0.00    -0.352 N 
ATOM     33  C   UNL A   1      41.442  19.323  26.105  1.00  0.00     0.251 C 
ATOM     34  H   UNL A   1      39.749  18.287  25.813  1.00  0.00     0.163 HD
ATOM     35  O   UNL A   1      42.187  18.362  25.979  1.00  0.00    -0.269 OA
BRANCH  33  36
ATOM     36  C   UNL A   1      41.982  20.640  26.490  1.00  0.00     0.039 A 
ATOM     37  C   UNL A   1      42.329  21.554  25.493  1.00  0.00     0.014 A 
ATOM     38  C   UNL A   1      42.125  20.964  27.842  1.00  0.00     0.014 A 
ATOM     39  C   UNL A   1      42.777  22.823  25.856  1.00  0.00     0.010 A 
ATOM     40  C   UNL A   1      42.520  22.247  28.201  1.00  0.00     0.010 A 
ATOM     41  C   UNL A   1      42.854  23.182  27.210  1.00  0.00    -0.014 A 
BRANCH  41  42
ATOM     42  C   UNL A   1      43.320  24.525  27.626  1.00  0.00     0.031 A 
ATOM     43  C   UNL A   1      42.311  25.569  28.003  1.00  0.00     0.074 A 
ATOM     44  C   UNL A   1      44.632  24.818  27.597  1.00  0.00     0.049 A 
ATOM     45  N   UNL A   1      42.495  26.830  28.300  1.00  0.00    -0.248 NA
ATOM     46  C   UNL A   1      40.903  25.142  28.027  1.00  0.00     0.031 C 
ATOM     47  C   UNL A   1      45.701  23.890  27.228  1.00  0.00     0.029 A 
ATOM     48  N   UNL A   1      45.286  25.993  27.864  1.00  0.00    -0.354 N 
ATOM     49  C   UNL A   1      41.230  27.344  28.551  1.00  0.00     0.074 A 
ATOM     50  C   UNL A   1      40.282  26.277  28.309  1.00  0.00     0.031 C 
ATOM     51  C   UNL A   1      46.879  24.530  27.293  1.00  0.00     0.029 A 
ATOM     52  C   UNL A   1      46.644  25.921  27.672  1.00  0.00     0.049 A 
ATOM     53  H   UNL A   1      44.827  26.810  28.165  1.00  0.00     0.167 HD
ATOM     54  C   UNL A   1      40.891  28.586  28.970  1.00  0.00     0.037 A 
ATOM     55  C   UNL A   1      47.586  26.878  27.770  1.00  0.00     0.037 A 
ATOM     56  C   UNL A   1      41.837  29.646  29.195  1.00  0.00     0.049 A 
ATOM     57  C   UNL A   1      47.173  28.274  28.155  1.00  0.00     0.074 A 
ATOM     58  C   UNL A   1      41.604  30.931  29.651  1.00  0.00     0.029 A 
ATOM     59  N   UNL A   1      43.202  29.545  28.966  1.00  0.00    -0.354 N 
ATOM     60  N   UNL A   1      45.982  28.735  28.453  1.00  0.00    -0.248 NA
ATOM     61  C   UNL A   1      48.239  29.284  28.212  1.00  0.00     0.031 C 
ATOM     62  C   UNL A   1      42.820  31.624  29.644  1.00  0.00     0.029 A 
ATOM     63  C   UNL A   1      43.819  30.756  29.234  1.00  0.00     0.049 A 
ATOM     64  H   UNL A   1      43.665  28.732  28.658  1.00  0.00     0.167 HD
ATOM     65  C   UNL A   1      46.157  30.081  28.747  1.00  0.00     0.074 A 
ATOM     66  C   UNL A   1      47.574  30.353  28.621  1.00  0.00     0.031 C 
ATOM     67  C   UNL A   1      45.230  31.011  29.086  1.00  0.00     0.037 A 
BRANCH  54  68
ATOM     68  C   UNL A   1      39.433  28.855  29.199  1.00  0.00     0.057 A 
ATOM     69  C   UNL A   1      38.849  28.636  30.453  1.00  0.00     0.134 A 
ATOM     70  C   UNL A   1      38.600  29.332  28.175  1.00  0.00     0.134 A 
ATOM     71  F   UNL A   1      39.585  28.176  31.477  1.00  0.00    -0.206 F 
ATOM     72  C   UNL A   1      37.495  28.886  30.682  1.00  0.00     0.040 A 
ATOM     73  C   UNL A   1      37.252  29.614  28.401  1.00  0.00     0.040 A 
ATOM     74  F   UNL A   1      39.099  29.577  26.954  1.00  0.00    -0.206 F 
ATOM     75  C   UNL A   1      36.695  29.387  29.656  1.00  0.00     0.006 A 
ENDBRANCH  54  68
BRANCH  55  76
ATOM     76  C   UNL A   1      49.010  26.562  27.492  1.00  0.00     0.057 A 
ATOM     77  C   UNL A   1      49.845  26.014  28.473  1.00  0.00     0.134 A 
ATOM     78  C   UNL A   1      49.557  26.766  26.220  1.00  0.00     0.134 A 
ATOM     79  F   UNL A   1      49.382  25.797  29.713  1.00  0.00    -0.206 F 
ATOM     80  C   UNL A   1      51.172  25.681  28.200  1.00  0.00     0.040 A 
ATOM     81  C   UNL A   1      50.875  26.413  25.925  1.00  0.00     0.040 A 
ATOM     82  F   UNL A   1      48.801  27.267  25.233  1.00  0.00    -0.206 F 
ATOM     83  C   UNL A   1      51.687  25.870  26.920  1.00  0.00     0.006 A 
ENDBRANCH  55  76
BRANCH  67  84
ATOM     84  C   UNL A   1      45.728  32.404  29.343  1.00  0.00     0.057 A 
ATOM     85  C   UNL A   1      46.155  32.789  30.620  1.00  0.00     0.134 A 
ATOM     86  C   UNL A   1      45.770  33.370  28.330  1.00  0.00     0.134 A 
ATOM     87  F   UNL A   1      46.134  31.916  31.639  1.00  0.00    -0.206 F 
ATOM     88  C   UNL A   1      46.603  34.084  30.880  1.00  0.00     0.040 A 
ATOM     89  C   UNL A   1      46.244  34.660  28.570  1.00  0.00     0.040 A 
ATOM     90  F   UNL A   1      45.390  33.061  27.080  1.00  0.00    -0.206 F 
ATOM     91  C   UNL A   1      46.657  35.022  29.851  1.00  0.00     0.006 A 
ENDBRANCH  67  84
ENDBRANCH  41  42
ENDBRANCH  33  36
ENDBRANCH  31  32
ENDBRANCH  30  31
ENDBRANCH   1  30
TORSDOF 14
ENDMDL
MODEL 2
REMARK VINA RESULT:     -12.8      1.102      2.746
REMARK SMILES Cc1cccc2c1[C@H]1c3c(C)cccc3[C@H](CC(=O)NCCCCCCNC(=O)c3ccc(-c4c5nc(c(-c6c(F)cccc6F)c6ccc([nH]6)c(-c6c(F)cccc6F)c6nc(c(-c7c(F)cccc7F)c7ccc4[nH]7)C=C6)C=C5)cc3)C[C@H]1CC2
REMARK SMILES IDX 24 1 23 2 22 3 21 4 20 5 18 6 19 7 17 9 16 10 1 11 2 12 3 13
REMARK SMILES IDX 7 14 4 15 6 16 8 17 5 18 87 19 9 20 85 21 86 22 10 23 15 24
REMARK SMILES IDX 84 25 12 26 11 27 14 28 13 29 25 30 26 31 27 32 28 33 29 35
REMARK SMILES IDX 30 36 31 37 83 38 32 39 82 40 33 41 34 42 35 43 76 44 36 45
REMARK SMILES IDX 81 46 75 47 77 48 37 49 80 50 74 51 73 52 38 54 64 55 47 56
REMARK SMILES IDX 63 57 48 58 51 59 62 60 78 61 49 62 50 63 61 65 79 66 52 67
REMARK SMILES IDX 39 68 40 69 45 70 41 71 42 72 44 73 46 74 43 75 65 76 66 77
REMARK SMILES IDX 71 78 67 79 68 80 70 81 72 82 69 83 53 84 54 85 59 86 55 87
REMARK SMILES IDX 56 88 58 89 60 90 57 91
REMARK H PARENT 20 8 27 34 77 53 51 64
REMARK Flexibility Score: inf
ROOT
ATOM      1  C   UNL A   1      36.835  20.758  25.004  1.00  0.00     0.002 C 
ENDROOT
BRANCH   1   2
ATOM      2  C   UNL A   1      35.472  20.055  24.979  1.00  0.00     0.002 C 
BRANCH   2   3
ATOM      3  C   UNL A   1      34.285  20.959  25.326  1.00  0.00     0.021 C 
BRANCH   3   4
ATOM      4  C   UNL A   1      34.369  21.529  26.741  1.00  0.00     0.116 C 
BRANCH   4   5
ATOM      5  N   UNL A   1      33.072  22.004  27.193  1.00  0.00    -0.356 N 
ATOM      6  C   UNL A   1      32.316  23.102  26.972  1.00  0.00     0.220 C 
ATOM      7  O   UNL A   1      31.280  23.171  27.648  1.00  0.00    -0.275 OA
ATOM      8  H   UNL A   1      32.639  21.372  27.812  1.00  0.00     0.163 HD
BRANCH   6   9
ATOM      9  C   UNL A   1      32.580  24.211  25.956  1.00  0.00     0.108 C 
BRANCH   9  10
ATOM     10  C   UNL A   1      31.464  25.173  25.533  1.00  0.00     0.029 C 
ATOM     11  C   UNL A   1      31.572  29.509  21.619  1.00  0.00     0.044 C 
ATOM     12  C   UNL A   1      30.161  29.403  22.140  1.00  0.00    -0.047 A 
ATOM     13  C   UNL A   1      29.236  30.365  21.697  1.00  0.00     0.004 A 
ATOM     14  C   UNL A   1      29.726  28.372  23.013  1.00  0.00    -0.034 A 
ATOM     15  C   UNL A   1      27.903  30.309  22.087  1.00  0.00     0.001 A 
ATOM     16  C   UNL A   1      28.342  28.248  23.288  1.00  0.00    -0.044 A 
ATOM     17  C   UNL A   1      30.706  27.406  23.673  1.00  0.00     0.053 C 
ATOM     18  C   UNL A   1      27.451  29.240  22.851  1.00  0.00     0.004 A 
ATOM     19  C   UNL A   1      27.751  27.011  23.921  1.00  0.00     0.036 C 
ATOM     20  C   UNL A   1      31.237  27.738  25.100  1.00  0.00    -0.034 A 
ATOM     21  C   UNL A   1      30.062  26.003  23.612  1.00  0.00     0.002 C 
ATOM     22  C   UNL A   1      28.761  25.989  24.434  1.00  0.00     0.009 C 
ATOM     23  C   UNL A   1      31.370  29.055  25.639  1.00  0.00    -0.047 A 
ATOM     24  C   UNL A   1      31.714  26.647  25.902  1.00  0.00    -0.040 A 
ATOM     25  C   UNL A   1      31.101  24.977  24.060  1.00  0.00     0.013 C 
ATOM     26  C   UNL A   1      31.959  29.251  26.907  1.00  0.00     0.004 A 
ATOM     27  C   UNL A   1      30.934  30.333  24.974  1.00  0.00     0.044 C 
ATOM     28  C   UNL A   1      32.322  26.914  27.152  1.00  0.00     0.004 A 
ATOM     29  C   UNL A   1      32.438  28.196  27.654  1.00  0.00     0.001 A 
ENDBRANCH   9  10
ENDBRANCH   6   9
ENDBRANCH   4   5
ENDBRANCH   3   4
ENDBRANCH   2   3
ENDBRANCH   1   2
BRANCH   1  30
ATOM     30  C   UNL A   1      38.041  19.816  24.944  1.00  0.00     0.021 C 
BRANCH  30  31
ATOM     31  C   UNL A   1      39.207  20.250  25.826  1.00  0.00     0.116 C 
BRANCH  31  32
ATOM     32  N   UNL A   1      40.216  19.206  25.924  1.00  0.00    -0.352 N 
ATOM     33  C   UNL A   1      41.566  19.336  26.125  1.00  0.00     0.251 C 
ATOM     34  H   UNL A   1      39.884  18.282  25.835  1.00  0.00     0.163 HD
ATOM     35  O   UNL A   1      42.323  18.389  25.966  1.00  0.00    -0.269 OA
BRANCH  33  36
ATOM     36  C   UNL A   1      42.094  20.651  26.534  1.00  0.00     0.039 A 
ATOM     37  C   UNL A   1      42.576  21.526  25.558  1.00  0.00     0.014 A 
ATOM     38  C   UNL A   1      42.092  21.012  27.884  1.00  0.00     0.014 A 
ATOM     39  C   UNL A   1      43.013  22.795  25.934  1.00  0.00     0.010 A 
ATOM     40  C   UNL A   1      42.478  22.295  28.250  1.00  0.00     0.010 A 
ATOM     41  C   UNL A   1      42.947  23.192  27.278  1.00  0.00    -0.014 A 
BRANCH  41  42
ATOM     42  C   UNL A   1      43.397  24.536  27.708  1.00  0.00     0.031 A 
ATOM     43  C   UNL A   1      42.376  25.587  28.030  1.00  0.00     0.074 A 
ATOM     44  C   UNL A   1      44.711  24.824  27.739  1.00  0.00     0.049 A 
ATOM     45  N   UNL A   1      42.551  26.848  28.327  1.00  0.00    -0.248 NA
ATOM     46  C   UNL A   1      40.967  25.165  27.989  1.00  0.00     0.031 C 
ATOM     47  C   UNL A   1      45.792  23.889  27.427  1.00  0.00     0.029 A 
ATOM     48  N   UNL A   1      45.356  25.998  28.030  1.00  0.00    -0.354 N 
ATOM     49  C   UNL A   1      41.278  27.369  28.515  1.00  0.00     0.074 A 
ATOM     50  C   UNL A   1      40.338  26.305  28.234  1.00  0.00     0.031 C 
ATOM     51  C   UNL A   1      46.968  24.526  27.545  1.00  0.00     0.029 A 
ATOM     52  C   UNL A   1      46.722  25.919  27.903  1.00  0.00     0.049 A 
ATOM     53  H   UNL A   1      44.887  26.819  28.304  1.00  0.00     0.167 HD
ATOM     54  C   UNL A   1      40.925  28.615  28.910  1.00  0.00     0.037 A 
ATOM     55  C   UNL A   1      47.661  26.874  28.041  1.00  0.00     0.037 A 
ATOM     56  C   UNL A   1      41.863  29.673  29.173  1.00  0.00     0.049 A 
ATOM     57  C   UNL A   1      47.236  28.273  28.396  1.00  0.00     0.074 A 
ATOM     58  C   UNL A   1      41.615  30.962  29.610  1.00  0.00     0.029 A 
ATOM     59  N   UNL A   1      43.237  29.565  29.010  1.00  0.00    -0.354 N 
ATOM     60  N   UNL A   1      46.035  28.741  28.634  1.00  0.00    -0.248 NA
ATOM     61  C   UNL A   1      48.303  29.279  28.497  1.00  0.00     0.031 C 
ATOM     62  C   UNL A   1      42.832  31.650  29.656  1.00  0.00     0.029 A 
ATOM     63  C   UNL A   1      43.846  30.775  29.299  1.00  0.00     0.049 A 
ATOM     64  H   UNL A   1      43.710  28.748  28.729  1.00  0.00     0.167 HD
ATOM     65  C   UNL A   1      46.201  30.088  28.928  1.00  0.00     0.074 A 
ATOM     66  C   UNL A   1      47.624  30.354  28.868  1.00  0.00     0.031 C 
ATOM     67  C   UNL A   1      45.263  31.024  29.217  1.00  0.00     0.037 A 
BRANCH  54  68
ATOM     68  C   UNL A   1      39.458  28.891  29.068  1.00  0.00     0.057 A 
ATOM     69  C   UNL A   1      38.692  29.351  27.990  1.00  0.00     0.134 A 
ATOM     70  C   UNL A   1      38.800  28.703  30.292  1.00  0.00     0.134 A 
ATOM     71  F   UNL A   1      39.258  29.557  26.790  1.00  0.00    -0.206 F 
ATOM     72  C   UNL A   1      37.326  29.607  28.121  1.00  0.00     0.040 A 
ATOM     73  C   UNL A   1      37.429  28.927  30.428  1.00  0.00     0.040 A 
ATOM     74  F   UNL A   1      39.471  28.250  31.362  1.00  0.00    -0.206 F 
ATOM     75  C   UNL A   1      36.689  29.385  29.341  1.00  0.00     0.006 A 
ENDBRANCH  54  68
BRANCH  55  76
ATOM     76  C   UNL A   1      49.096  26.550  27.832  1.00  0.00     0.057 A 
ATOM     77  C   UNL A   1      49.666  26.537  26.554  1.00  0.00     0.134 A 
ATOM     78  C   UNL A   1      49.939  26.286  28.917  1.00  0.00     0.134 A 
ATOM     79  F   UNL A   1      48.912  26.779  25.472  1.00  0.00    -0.206 F 
ATOM     80  C   UNL A   1      51.024  26.273  26.362  1.00  0.00     0.040 A 
ATOM     81  C   UNL A   1      51.303  26.046  28.743  1.00  0.00     0.040 A 
ATOM     82  F   UNL A   1      49.455  26.306  30.168  1.00  0.00    -0.206 F 
ATOM     83  C   UNL A   1      51.847  26.036  27.460  1.00  0.00     0.006 A 
ENDBRANCH  55  76
BRANCH  67  84
ATOM     84  C   UNL A   1      45.754  32.416  29.489  1.00  0.00     0.057 A 
ATOM     85  C   UNL A   1      45.813  33.370  28.466  1.00  0.00     0.134 A 
ATOM     86  C   UNL A   1      46.185  32.809  30.763  1.00  0.00     0.134 A 
ATOM     87  F   UNL A   1      45.424  33.059  27.220  1.00  0.00    -0.206 F 
ATOM     88  C   UNL A   1      46.285  34.662  28.699  1.00  0.00     0.040 A 
ATOM     89  C   UNL A   1      46.631  34.107  31.016  1.00  0.00     0.040 A 
ATOM     90  F   UNL A   1      46.138  31.948  31.791  1.00  0.00    -0.206 F 
ATOM     91  C   UNL A   1      46.687  35.036  29.980  1.00  0.00     0.006 A 
ENDBRANCH  67  84
ENDBRANCH  41  42
ENDBRANCH  33  36
ENDBRANCH  31  32
ENDBRANCH  30  31
ENDBRANCH   1  30
TORSDOF 14
ENDMDL
MODEL 3
REMARK VINA RESULT:     -12.8      6.084     10.384
REMARK SMILES Cc1cccc2c1[C@H]1c3c(C)cccc3[C@H](CC(=O)NCCCCCCNC(=O)c3ccc(-c4c5nc(c(-c6c(F)cccc6F)c6ccc([nH]6)c(-c6c(F)cccc6F)c6nc(c(-c7c(F)cccc7F)c7ccc4[nH]7)C=C6)C=C5)cc3)C[C@H]1CC2
REMARK SMILES IDX 24 1 23 2 22 3 21 4 20 5 18 6 19 7 17 9 16 10 1 11 2 12 3 13
REMARK SMILES IDX 7 14 4 15 6 16 8 17 5 18 87 19 9 20 85 21 86 22 10 23 15 24
REMARK SMILES IDX 84 25 12 26 11 27 14 28 13 29 25 30 26 31 27 32 28 33 29 35
REMARK SMILES IDX 30 36 31 37 83 38 32 39 82 40 33 41 34 42 35 43 76 44 36 45
REMARK SMILES IDX 81 46 75 47 77 48 37 49 80 50 74 51 73 52 38 54 64 55 47 56
REMARK SMILES IDX 63 57 48 58 51 59 62 60 78 61 49 62 50 63 61 65 79 66 52 67
REMARK SMILES IDX 39 68 40 69 45 70 41 71 42 72 44 73 46 74 43 75 65 76 66 77
REMARK SMILES IDX 71 78 67 79 68 80 70 81 72 82 69 83 53 84 54 85 59 86 55 87
REMARK SMILES IDX 56 88 58 89 60 90 57 91
REMARK H PARENT 20 8 27 34 77 53 51 64
REMARK Flexibility Score: inf
ROOT
ATOM      1  C   UNL A   1      35.292  34.673  28.786  1.00  0.00     0.002 C 
ENDROOT
BRANCH   1   2
ATOM      2  C   UNL A   1      35.025  33.205  29.141  1.00  0.00     0.002 C 
BRANCH   2   3
ATOM      3  C   UNL A   1      35.480  32.200  28.078  1.00  0.00     0.021 C 
BRANCH   3   4
ATOM      4  C   UNL A   1      34.753  30.861  28.179  1.00  0.00     0.116 C 
BRANCH   4   5
ATOM      5  N   UNL A   1      33.355  30.993  27.806  1.00  0.00    -0.356 N 
ATOM      6  C   UNL A   1      32.600  30.621  26.748  1.00  0.00     0.220 C 
ATOM      7  O   UNL A   1      31.428  31.024  26.774  1.00  0.00    -0.275 OA
ATOM      8  H   UNL A   1      32.831  31.469  28.489  1.00  0.00     0.163 HD
BRANCH   6   9
ATOM      9  C   UNL A   1      33.023  29.731  25.582  1.00  0.00     0.108 C 
BRANCH   9  10
ATOM     10  C   UNL A   1      32.527  28.286  25.474  1.00  0.00     0.029 C 
ATOM     11  C   UNL A   1      35.534  23.285  25.757  1.00  0.00     0.044 C 
ATOM     12  C   UNL A   1      34.073  22.930  25.635  1.00  0.00    -0.047 A 
ATOM     13  C   UNL A   1      33.749  21.567  25.513  1.00  0.00     0.004 A 
ATOM     14  C   UNL A   1      33.030  23.890  25.673  1.00  0.00    -0.034 A 
ATOM     15  C   UNL A   1      32.424  21.149  25.448  1.00  0.00     0.001 A 
ATOM     16  C   UNL A   1      31.689  23.441  25.746  1.00  0.00    -0.044 A 
ATOM     17  C   UNL A   1      33.311  25.390  25.622  1.00  0.00     0.053 C 
ATOM     18  C   UNL A   1      31.400  22.077  25.596  1.00  0.00     0.004 A 
ATOM     19  C   UNL A   1      30.548  24.357  26.120  1.00  0.00     0.036 C 
ATOM     20  C   UNL A   1      33.280  26.111  24.241  1.00  0.00    -0.034 A 
ATOM     21  C   UNL A   1      32.361  26.059  26.640  1.00  0.00     0.002 C 
ATOM     22  C   UNL A   1      30.898  25.839  26.213  1.00  0.00     0.009 C 
ATOM     23  C   UNL A   1      33.569  25.490  22.986  1.00  0.00    -0.047 A 
ATOM     24  C   UNL A   1      33.032  27.525  24.234  1.00  0.00    -0.040 A 
ATOM     25  C   UNL A   1      32.762  27.526  26.781  1.00  0.00     0.013 C 
ATOM     26  C   UNL A   1      33.612  26.259  21.803  1.00  0.00     0.004 A 
ATOM     27  C   UNL A   1      33.851  24.028  22.765  1.00  0.00     0.044 C 
ATOM     28  C   UNL A   1      33.121  28.243  23.018  1.00  0.00     0.004 A 
ATOM     29  C   UNL A   1      33.399  27.620  21.816  1.00  0.00     0.001 A 
ENDBRANCH   9  10
ENDBRANCH   6   9
ENDBRANCH   4   5
ENDBRANCH   3   4
ENDBRANCH   2   3
ENDBRANCH   1   2
BRANCH   1  30
ATOM     30  C   UNL A   1      34.063  35.582  28.860  1.00  0.00     0.021 C 
BRANCH  30  31
ATOM     31  C   UNL A   1      32.932  35.022  29.716  1.00  0.00     0.116 C 
BRANCH  31  32
ATOM     32  N   UNL A   1      32.531  35.964  30.750  1.00  0.00    -0.352 N 
ATOM     33  C   UNL A   1      32.934  36.020  32.060  1.00  0.00     0.251 C 
ATOM     34  H   UNL A   1      31.885  36.654  30.472  1.00  0.00     0.163 HD
ATOM     35  O   UNL A   1      32.351  36.726  32.871  1.00  0.00    -0.269 OA
BRANCH  33  36
ATOM     36  C   UNL A   1      34.087  35.202  32.478  1.00  0.00     0.039 A 
ATOM     37  C   UNL A   1      33.867  33.919  32.982  1.00  0.00     0.014 A 
ATOM     38  C   UNL A   1      35.383  35.711  32.351  1.00  0.00     0.014 A 
ATOM     39  C   UNL A   1      34.959  33.119  33.315  1.00  0.00     0.010 A 
ATOM     40  C   UNL A   1      36.470  34.893  32.633  1.00  0.00     0.010 A 
ATOM     41  C   UNL A   1      36.265  33.595  33.122  1.00  0.00    -0.014 A 
BRANCH  41  42
ATOM     42  C   UNL A   1      37.445  32.766  33.460  1.00  0.00     0.031 A 
ATOM     43  C   UNL A   1      38.210  33.053  34.719  1.00  0.00     0.074 A 
ATOM     44  C   UNL A   1      37.861  31.814  32.607  1.00  0.00     0.049 A 
ATOM     45  N   UNL A   1      39.322  32.518  35.152  1.00  0.00    -0.248 NA
ATOM     46  C   UNL A   1      37.659  34.098  35.596  1.00  0.00     0.031 C 
ATOM     47  C   UNL A   1      37.209  31.461  31.345  1.00  0.00     0.029 A 
ATOM     48  N   UNL A   1      38.949  30.981  32.666  1.00  0.00    -0.354 N 
ATOM     49  C   UNL A   1      39.601  33.156  36.353  1.00  0.00     0.074 A 
ATOM     50  C   UNL A   1      38.579  34.162  36.548  1.00  0.00     0.031 C 
ATOM     51  C   UNL A   1      37.909  30.482  30.750  1.00  0.00     0.029 A 
ATOM     52  C   UNL A   1      39.076  30.166  31.568  1.00  0.00     0.049 A 
ATOM     53  H   UNL A   1      39.578  30.968  33.423  1.00  0.00     0.167 HD
ATOM     54  C   UNL A   1      40.606  32.909  37.227  1.00  0.00     0.037 A 
ATOM     55  C   UNL A   1      40.041  29.282  31.253  1.00  0.00     0.037 A 
ATOM     56  C   UNL A   1      41.627  31.917  37.021  1.00  0.00     0.049 A 
ATOM     57  C   UNL A   1      41.194  29.087  32.201  1.00  0.00     0.074 A 
ATOM     58  C   UNL A   1      42.670  31.563  37.857  1.00  0.00     0.029 A 
ATOM     59  N   UNL A   1      41.740  31.128  35.885  1.00  0.00    -0.354 N 
ATOM     60  N   UNL A   1      41.415  29.649  33.365  1.00  0.00    -0.248 NA
ATOM     61  C   UNL A   1      42.234  28.134  31.786  1.00  0.00     0.031 C 
ATOM     62  C   UNL A   1      43.447  30.600  37.203  1.00  0.00     0.029 A 
ATOM     63  C   UNL A   1      42.858  30.316  35.981  1.00  0.00     0.049 A 
ATOM     64  H   UNL A   1      41.117  31.143  35.122  1.00  0.00     0.167 HD
ATOM     65  C   UNL A   1      42.608  29.108  33.828  1.00  0.00     0.074 A 
ATOM     66  C   UNL A   1      43.046  28.152  32.832  1.00  0.00     0.031 C 
ATOM     67  C   UNL A   1      43.286  29.381  34.971  1.00  0.00     0.037 A 
BRANCH  54  68
ATOM     68  C   UNL A   1      40.641  33.738  38.478  1.00  0.00     0.057 A 
ATOM     69  C   UNL A   1      39.872  33.389  39.594  1.00  0.00     0.134 A 
ATOM     70  C   UNL A   1      41.439  34.887  38.579  1.00  0.00     0.134 A 
ATOM     71  F   UNL A   1      39.082  32.304  39.566  1.00  0.00    -0.206 F 
ATOM     72  C   UNL A   1      39.899  34.148  40.765  1.00  0.00     0.040 A 
ATOM     73  C   UNL A   1      41.497  35.636  39.755  1.00  0.00     0.040 A 
ATOM     74  F   UNL A   1      42.213  35.269  37.551  1.00  0.00    -0.206 F 
ATOM     75  C   UNL A   1      40.722  35.270  40.851  1.00  0.00     0.006 A 
ENDBRANCH  54  68
BRANCH  55  76
ATOM     76  C   UNL A   1      39.973  28.518  29.980  1.00  0.00     0.057 A 
ATOM     77  C   UNL A   1      40.628  28.960  28.824  1.00  0.00     0.134 A 
ATOM     78  C   UNL A   1      39.281  27.304  29.905  1.00  0.00     0.134 A 
ATOM     79  F   UNL A   1      41.307  30.116  28.830  1.00  0.00    -0.206 F 
ATOM     80  C   UNL A   1      40.598  28.222  27.640  1.00  0.00     0.040 A 
ATOM     81  C   UNL A   1      39.264  26.543  28.736  1.00  0.00     0.040 A 
ATOM     82  F   UNL A   1      38.652  26.819  30.985  1.00  0.00    -0.206 F 
ATOM     83  C   UNL A   1      39.922  27.005  27.597  1.00  0.00     0.006 A 
ENDBRANCH  55  76
BRANCH  67  84
ATOM     84  C   UNL A   1      44.566  28.631  35.197  1.00  0.00     0.057 A 
ATOM     85  C   UNL A   1      45.790  29.150  34.757  1.00  0.00     0.134 A 
ATOM     86  C   UNL A   1      44.586  27.385  35.837  1.00  0.00     0.134 A 
ATOM     87  F   UNL A   1      45.843  30.334  34.129  1.00  0.00    -0.206 F 
ATOM     88  C   UNL A   1      46.986  28.456  34.943  1.00  0.00     0.040 A 
ATOM     89  C   UNL A   1      45.779  26.695  36.056  1.00  0.00     0.040 A 
ATOM     90  F   UNL A   1      43.449  26.840  36.298  1.00  0.00    -0.206 F 
ATOM     91  C   UNL A   1      46.984  27.228  35.602  1.00  0.00     0.006 A 
ENDBRANCH  67  84
ENDBRANCH  41  42
ENDBRANCH  33  36
ENDBRANCH  31  32
ENDBRANCH  30  31
ENDBRANCH   1  30
TORSDOF 14
ENDMDL
