MODEL 1
REMARK VINA RESULT:     -12.1      0.000      0.000
REMARK SMILES COc1ccc(-n2c(SCc3cn(-c4ccc(C(=O)NCCCCCCNC(=O)c5ccc(-c6c7nc(c(-c8c(F)cccc8F)c8ccc([nH]8)c(-c8c(F)cccc8F)c8nc(c(-c9c(F)cccc9F)c9ccc6[nH]9)C=C8)C=C7)cc5)cc4)nn3)nc3ccccc3c2=O)cc1
REMARK SMILES IDX 21 1 20 2 18 3 19 4 17 6 14 7 15 8 85 9 16 10 84 11 13 12
REMARK SMILES IDX 11 13 12 14 87 15 86 16 10 17 9 18 8 19 7 20 95 21 88 22
REMARK SMILES IDX 94 23 96 24 89 25 93 26 90 27 92 28 91 29 6 30 3 31 4 32
REMARK SMILES IDX 98 33 5 34 97 35 2 36 1 37 22 38 23 39 24 40 25 41 26 42
REMARK SMILES IDX 27 43 28 44 29 46 30 47 31 48 83 49 32 50 82 51 33 52 34 53
REMARK SMILES IDX 35 54 76 55 36 56 81 57 75 58 77 59 37 60 80 61 74 62 73 63
REMARK SMILES IDX 38 65 64 66 47 67 63 68 48 69 51 70 62 71 78 72 49 73 50 74
REMARK SMILES IDX 61 76 79 77 52 78 39 79 40 80 45 81 41 82 42 83 44 84 46 85
REMARK SMILES IDX 43 86 65 87 66 88 71 89 67 90 68 91 70 92 72 93 69 94 53 95
REMARK SMILES IDX 54 96 59 97 55 98 56 99 58 100 60 101 57 102
REMARK H PARENT 20 5 27 45 77 64 51 75
REMARK Flexibility Score: inf
ROOT
ATOM      1  C   UNL A   1      43.473  29.280  27.007  1.00  0.00     0.116 C 
ENDROOT
BRANCH   1   2
ATOM      2  N   UNL A   1      43.410  28.875  28.398  1.00  0.00    -0.352 N 
ATOM      3  C   UNL A   1      42.808  27.833  29.052  1.00  0.00     0.251 C 
ATOM      4  O   UNL A   1      42.874  27.822  30.281  1.00  0.00    -0.269 OA
ATOM      5  H   UNL A   1      43.905  29.477  29.000  1.00  0.00     0.163 HD
BRANCH   3   6
ATOM      6  C   UNL A   1      42.180  26.679  28.355  1.00  0.00     0.039 A 
ATOM      7  C   UNL A   1      40.564  24.782  27.129  1.00  0.00     0.066 A 
ATOM      8  C   UNL A   1      40.758  26.001  26.491  1.00  0.00     0.029 A 
ATOM      9  C   UNL A   1      41.277  24.445  28.287  1.00  0.00     0.029 A 
ATOM     10  C   UNL A   1      41.538  26.960  27.133  1.00  0.00     0.016 A 
ATOM     11  C   UNL A   1      42.138  25.378  28.857  1.00  0.00     0.016 A 
BRANCH   7  12
ATOM     12  N   UNL A   1      39.517  23.955  26.708  1.00  0.00    -0.220 N 
ATOM     13  C   UNL A   1      37.592  23.282  25.971  1.00  0.00     0.093 A 
ATOM     14  C   UNL A   1      38.272  24.400  26.382  1.00  0.00     0.141 A 
ATOM     15  N   UNL A   1      38.448  22.214  26.001  1.00  0.00    -0.134 NA
ATOM     16  N   UNL A   1      39.643  22.654  26.381  1.00  0.00    -0.062 NA
BRANCH  13  17
ATOM     17  C   UNL A   1      36.206  23.138  25.494  1.00  0.00     0.138 C 
BRANCH  17  18
ATOM     18  S   UNL A   1      35.833  21.548  24.753  1.00  0.00    -0.081 SA
BRANCH  18  19
ATOM     19  C   UNL A   1      34.192  21.132  25.362  1.00  0.00     0.176 A 
ATOM     20  N   UNL A   1      33.592  20.122  24.650  1.00  0.00    -0.255 N 
ATOM     21  C   UNL A   1      32.784  20.509  23.591  1.00  0.00     0.266 A 
ATOM     22  N   UNL A   1      33.469  22.143  25.749  1.00  0.00    -0.223 NA
ATOM     23  C   UNL A   1      32.682  21.999  23.448  1.00  0.00     0.066 A 
ATOM     24  O   UNL A   1      32.216  19.769  22.798  1.00  0.00    -0.268 OA
ATOM     25  C   UNL A   1      32.908  22.764  24.611  1.00  0.00     0.079 A 
ATOM     26  C   UNL A   1      32.635  22.617  22.203  1.00  0.00     0.016 A 
ATOM     27  C   UNL A   1      32.927  24.154  24.547  1.00  0.00     0.029 A 
ATOM     28  C   UNL A   1      32.781  24.006  22.135  1.00  0.00     0.001 A 
ATOM     29  C   UNL A   1      32.887  24.774  23.301  1.00  0.00     0.002 A 
BRANCH  20  30
ATOM     30  C   UNL A   1      33.772  18.787  25.073  1.00  0.00     0.052 A 
ATOM     31  C   UNL A   1      33.709  16.002  25.199  1.00  0.00     0.119 A 
ATOM     32  C   UNL A   1      34.824  16.635  24.657  1.00  0.00     0.048 A 
ATOM     33  C   UNL A   1      32.692  16.752  25.791  1.00  0.00     0.048 A 
ATOM     34  C   UNL A   1      34.842  18.031  24.564  1.00  0.00     0.030 A 
ATOM     35  C   UNL A   1      32.736  18.146  25.752  1.00  0.00     0.030 A 
BRANCH  31  36
ATOM     36  O   UNL A   1      33.663  14.634  25.189  1.00  0.00    -0.497 OA
ATOM     37  C   UNL A   1      32.407  14.147  25.676  1.00  0.00     0.278 C 
ENDBRANCH  31  36
ENDBRANCH  20  30
ENDBRANCH  18  19
ENDBRANCH  17  18
ENDBRANCH  13  17
ENDBRANCH   7  12
ENDBRANCH   3   6
ENDBRANCH   1   2
BRANCH   1  38
ATOM     38  C   UNL A   1      44.580  30.321  26.824  1.00  0.00     0.021 C 
BRANCH  38  39
ATOM     39  C   UNL A   1      44.048  31.761  26.798  1.00  0.00     0.002 C 
BRANCH  39  40
ATOM     40  C   UNL A   1      44.995  32.804  26.180  1.00  0.00     0.002 C 
BRANCH  40  41
ATOM     41  C   UNL A   1      44.440  33.610  24.996  1.00  0.00     0.021 C 
BRANCH  41  42
ATOM     42  C   UNL A   1      43.937  34.991  25.382  1.00  0.00     0.116 C 
BRANCH  42  43
ATOM     43  N   UNL A   1      44.929  35.741  26.158  1.00  0.00    -0.352 N 
ATOM     44  C   UNL A   1      44.826  36.312  27.416  1.00  0.00     0.251 C 
ATOM     45  H   UNL A   1      45.802  35.856  25.718  1.00  0.00     0.163 HD
ATOM     46  O   UNL A   1      45.587  37.191  27.772  1.00  0.00    -0.269 OA
BRANCH  44  47
ATOM     47  C   UNL A   1      43.780  35.816  28.327  1.00  0.00     0.039 A 
ATOM     48  C   UNL A   1      42.533  36.437  28.452  1.00  0.00     0.014 A 
ATOM     49  C   UNL A   1      44.084  34.682  29.065  1.00  0.00     0.014 A 
ATOM     50  C   UNL A   1      41.588  35.865  29.301  1.00  0.00     0.010 A 
ATOM     51  C   UNL A   1      43.086  33.988  29.674  1.00  0.00     0.010 A 
ATOM     52  C   UNL A   1      41.885  34.638  29.907  1.00  0.00    -0.014 A 
BRANCH  52  53
ATOM     53  C   UNL A   1      40.965  33.942  30.788  1.00  0.00     0.031 A 
ATOM     54  C   UNL A   1      41.443  33.799  32.181  1.00  0.00     0.074 A 
ATOM     55  C   UNL A   1      39.673  33.759  30.433  1.00  0.00     0.049 A 
ATOM     56  N   UNL A   1      41.776  32.713  32.794  1.00  0.00    -0.248 NA
ATOM     57  C   UNL A   1      41.734  35.026  32.941  1.00  0.00     0.031 C 
ATOM     58  C   UNL A   1      38.986  34.211  29.213  1.00  0.00     0.029 A 
ATOM     59  N   UNL A   1      38.657  33.242  31.167  1.00  0.00    -0.354 N 
ATOM     60  C   UNL A   1      42.094  33.101  34.092  1.00  0.00     0.074 A 
ATOM     61  C   UNL A   1      42.285  34.524  34.047  1.00  0.00     0.031 C 
ATOM     62  C   UNL A   1      37.650  34.158  29.398  1.00  0.00     0.029 A 
ATOM     63  C   UNL A   1      37.386  33.519  30.673  1.00  0.00     0.049 A 
ATOM     64  H   UNL A   1      38.806  32.711  31.982  1.00  0.00     0.167 HD
ATOM     65  C   UNL A   1      41.886  32.258  35.143  1.00  0.00     0.037 A 
ATOM     66  C   UNL A   1      36.215  33.280  31.314  1.00  0.00     0.037 A 
ATOM     67  C   UNL A   1      41.654  30.908  34.679  1.00  0.00     0.049 A 
ATOM     68  C   UNL A   1      36.503  32.280  32.378  1.00  0.00     0.074 A 
ATOM     69  C   UNL A   1      42.363  30.015  33.897  1.00  0.00     0.029 A 
ATOM     70  N   UNL A   1      40.359  30.445  34.685  1.00  0.00    -0.354 N 
ATOM     71  N   UNL A   1      36.857  31.047  32.136  1.00  0.00    -0.248 NA
ATOM     72  C   UNL A   1      36.869  32.787  33.692  1.00  0.00     0.031 C 
ATOM     73  C   UNL A   1      41.379  29.380  33.082  1.00  0.00     0.029 A 
ATOM     74  C   UNL A   1      40.127  29.860  33.467  1.00  0.00     0.049 A 
ATOM     75  H   UNL A   1      39.718  30.520  35.427  1.00  0.00     0.167 HD
ATOM     76  C   UNL A   1      37.847  30.771  33.069  1.00  0.00     0.074 A 
ATOM     77  C   UNL A   1      37.755  31.852  34.050  1.00  0.00     0.031 C 
ATOM     78  C   UNL A   1      38.844  29.876  32.800  1.00  0.00     0.037 A 
BRANCH  65  79
ATOM     79  C   UNL A   1      41.488  32.699  36.535  1.00  0.00     0.057 A 
ATOM     80  C   UNL A   1      40.370  33.543  36.679  1.00  0.00     0.134 A 
ATOM     81  C   UNL A   1      42.291  32.582  37.688  1.00  0.00     0.134 A 
ATOM     82  F   UNL A   1      39.518  33.739  35.661  1.00  0.00    -0.206 F 
ATOM     83  C   UNL A   1      40.133  34.291  37.838  1.00  0.00     0.040 A 
ATOM     84  C   UNL A   1      42.032  33.282  38.871  1.00  0.00     0.040 A 
ATOM     85  F   UNL A   1      43.423  31.870  37.719  1.00  0.00    -0.206 F 
ATOM     86  C   UNL A   1      40.973  34.170  38.936  1.00  0.00     0.006 A 
ENDBRANCH  65  79
BRANCH  66  87
ATOM     87  C   UNL A   1      34.971  34.086  31.293  1.00  0.00     0.057 A 
ATOM     88  C   UNL A   1      34.772  35.129  32.210  1.00  0.00     0.134 A 
ATOM     89  C   UNL A   1      34.074  34.045  30.209  1.00  0.00     0.134 A 
ATOM     90  F   UNL A   1      35.593  35.277  33.258  1.00  0.00    -0.206 F 
ATOM     91  C   UNL A   1      33.767  36.092  32.041  1.00  0.00     0.040 A 
ATOM     92  C   UNL A   1      33.061  34.995  30.034  1.00  0.00     0.040 A 
ATOM     93  F   UNL A   1      34.204  33.137  29.231  1.00  0.00    -0.206 F 
ATOM     94  C   UNL A   1      32.916  36.034  30.942  1.00  0.00     0.006 A 
ENDBRANCH  66  87
BRANCH  78  95
ATOM     95  C   UNL A   1      38.714  29.012  31.573  1.00  0.00     0.057 A 
ATOM     96  C   UNL A   1      38.934  29.464  30.262  1.00  0.00     0.134 A 
ATOM     97  C   UNL A   1      38.525  27.637  31.738  1.00  0.00     0.134 A 
ATOM     98  F   UNL A   1      39.225  30.744  30.008  1.00  0.00    -0.206 F 
ATOM     99  C   UNL A   1      38.925  28.595  29.166  1.00  0.00     0.040 A 
ATOM    100  C   UNL A   1      38.546  26.752  30.656  1.00  0.00     0.040 A 
ATOM    101  F   UNL A   1      38.366  27.120  32.966  1.00  0.00    -0.206 F 
ATOM    102  C   UNL A   1      38.738  27.232  29.363  1.00  0.00     0.006 A 
ENDBRANCH  78  95
ENDBRANCH  52  53
ENDBRANCH  44  47
ENDBRANCH  42  43
ENDBRANCH  41  42
ENDBRANCH  40  41
ENDBRANCH  39  40
ENDBRANCH  38  39
ENDBRANCH   1  38
TORSDOF 19
ENDMDL
MODEL 2
REMARK VINA RESULT:     -11.9      3.370      9.090
REMARK SMILES COc1ccc(-n2c(SCc3cn(-c4ccc(C(=O)NCCCCCCNC(=O)c5ccc(-c6c7nc(c(-c8c(F)cccc8F)c8ccc([nH]8)c(-c8c(F)cccc8F)c8nc(c(-c9c(F)cccc9F)c9ccc6[nH]9)C=C8)C=C7)cc5)cc4)nn3)nc3ccccc3c2=O)cc1
REMARK SMILES IDX 21 1 20 2 18 3 19 4 17 6 14 7 15 8 85 9 16 10 84 11 13 12
REMARK SMILES IDX 11 13 12 14 87 15 86 16 10 17 9 18 8 19 7 20 95 21 88 22
REMARK SMILES IDX 94 23 96 24 89 25 93 26 90 27 92 28 91 29 6 30 3 31 4 32
REMARK SMILES IDX 98 33 5 34 97 35 2 36 1 37 22 38 23 39 24 40 25 41 26 42
REMARK SMILES IDX 27 43 28 44 29 46 30 47 31 48 83 49 32 50 82 51 33 52 34 53
REMARK SMILES IDX 35 54 76 55 36 56 81 57 75 58 77 59 37 60 80 61 74 62 73 63
REMARK SMILES IDX 38 65 64 66 47 67 63 68 48 69 51 70 62 71 78 72 49 73 50 74
REMARK SMILES IDX 61 76 79 77 52 78 39 79 40 80 45 81 41 82 42 83 44 84 46 85
REMARK SMILES IDX 43 86 65 87 66 88 71 89 67 90 68 91 70 92 72 93 69 94 53 95
REMARK SMILES IDX 54 96 59 97 55 98 56 99 58 100 60 101 57 102
REMARK H PARENT 20 5 27 45 77 64 51 75
REMARK Flexibility Score: inf
ROOT
ATOM      1  C   UNL A   1      32.864  24.845  25.186  1.00  0.00     0.116 C 
ENDROOT
BRANCH   1   2
ATOM      2  N   UNL A   1      33.239  24.290  23.899  1.00  0.00    -0.352 N 
ATOM      3  C   UNL A   1      34.353  23.640  23.439  1.00  0.00     0.251 C 
ATOM      4  O   UNL A   1      34.395  23.368  22.239  1.00  0.00    -0.269 OA
ATOM      5  H   UNL A   1      32.544  24.406  23.211  1.00  0.00     0.163 HD
BRANCH   3   6
ATOM      6  C   UNL A   1      35.447  23.159  24.324  1.00  0.00     0.039 A 
ATOM      7  C   UNL A   1      37.782  22.614  25.726  1.00  0.00     0.066 A 
ATOM      8  C   UNL A   1      37.136  23.823  25.956  1.00  0.00     0.029 A 
ATOM      9  C   UNL A   1      37.204  21.622  24.923  1.00  0.00     0.029 A 
ATOM     10  C   UNL A   1      35.989  24.104  25.219  1.00  0.00     0.016 A 
ATOM     11  C   UNL A   1      35.998  21.879  24.279  1.00  0.00     0.016 A 
BRANCH   7  12
ATOM     12  N   UNL A   1      39.103  22.457  26.160  1.00  0.00    -0.220 N 
ATOM     13  C   UNL A   1      40.963  22.732  27.238  1.00  0.00     0.093 A 
ATOM     14  C   UNL A   1      39.719  23.280  27.053  1.00  0.00     0.141 A 
ATOM     15  N   UNL A   1      41.046  21.576  26.510  1.00  0.00    -0.134 NA
ATOM     16  N   UNL A   1      39.874  21.380  25.914  1.00  0.00    -0.062 NA
BRANCH  13  17
ATOM     17  C   UNL A   1      42.076  23.178  28.094  1.00  0.00     0.138 C 
BRANCH  17  18
ATOM     18  S   UNL A   1      42.554  24.892  27.867  1.00  0.00    -0.081 SA
BRANCH  18  19
ATOM     19  C   UNL A   1      42.529  25.143  26.086  1.00  0.00     0.176 A 
ATOM     20  N   UNL A   1      43.773  25.392  25.559  1.00  0.00    -0.255 N 
ATOM     21  C   UNL A   1      44.141  26.725  25.450  1.00  0.00     0.266 A 
ATOM     22  N   UNL A   1      41.509  25.811  25.632  1.00  0.00    -0.223 NA
ATOM     23  C   UNL A   1      43.065  27.668  25.900  1.00  0.00     0.066 A 
ATOM     24  O   UNL A   1      45.223  27.155  25.071  1.00  0.00    -0.268 OA
ATOM     25  C   UNL A   1      41.739  27.190  25.840  1.00  0.00     0.079 A 
ATOM     26  C   UNL A   1      43.355  28.841  26.589  1.00  0.00     0.016 A 
ATOM     27  C   UNL A   1      40.689  27.963  26.327  1.00  0.00     0.029 A 
ATOM     28  C   UNL A   1      42.306  29.548  27.185  1.00  0.00     0.001 A 
ATOM     29  C   UNL A   1      40.978  29.135  27.023  1.00  0.00     0.002 A 
BRANCH  20  30
ATOM     30  C   UNL A   1      44.553  24.307  25.105  1.00  0.00     0.052 A 
ATOM     31  C   UNL A   1      45.857  21.846  24.945  1.00  0.00     0.119 A 
ATOM     32  C   UNL A   1      44.600  21.992  24.365  1.00  0.00     0.048 A 
ATOM     33  C   UNL A   1      46.514  22.952  25.487  1.00  0.00     0.048 A 
ATOM     34  C   UNL A   1      43.932  23.216  24.473  1.00  0.00     0.030 A 
ATOM     35  C   UNL A   1      45.873  24.191  25.543  1.00  0.00     0.030 A 
BRANCH  31  36
ATOM     36  O   UNL A   1      46.452  20.614  24.920  1.00  0.00    -0.497 OA
ATOM     37  C   UNL A   1      45.589  19.626  24.345  1.00  0.00     0.278 C 
ENDBRANCH  31  36
ENDBRANCH  20  30
ENDBRANCH  18  19
ENDBRANCH  17  18
ENDBRANCH  13  17
ENDBRANCH   7  12
ENDBRANCH   3   6
ENDBRANCH   1   2
BRANCH   1  38
ATOM     38  C   UNL A   1      31.782  25.910  24.993  1.00  0.00     0.021 C 
BRANCH  38  39
ATOM     39  C   UNL A   1      31.955  27.115  25.928  1.00  0.00     0.002 C 
BRANCH  39  40
ATOM     40  C   UNL A   1      33.366  27.301  26.512  1.00  0.00     0.002 C 
BRANCH  40  41
ATOM     41  C   UNL A   1      34.070  28.625  26.181  1.00  0.00     0.021 C 
BRANCH  41  42
ATOM     42  C   UNL A   1      34.333  29.496  27.398  1.00  0.00     0.116 C 
BRANCH  42  43
ATOM     43  N   UNL A   1      33.745  30.832  27.256  1.00  0.00    -0.352 N 
ATOM     44  C   UNL A   1      33.951  31.977  28.008  1.00  0.00     0.251 C 
ATOM     45  H   UNL A   1      33.108  30.930  26.512  1.00  0.00     0.163 HD
ATOM     46  O   UNL A   1      33.145  32.888  28.000  1.00  0.00    -0.269 OA
BRANCH  44  47
ATOM     47  C   UNL A   1      35.183  32.078  28.807  1.00  0.00     0.039 A 
ATOM     48  C   UNL A   1      35.184  32.003  30.204  1.00  0.00     0.014 A 
ATOM     49  C   UNL A   1      36.368  32.247  28.107  1.00  0.00     0.014 A 
ATOM     50  C   UNL A   1      36.406  32.058  30.873  1.00  0.00     0.010 A 
ATOM     51  C   UNL A   1      37.556  32.032  28.732  1.00  0.00     0.010 A 
ATOM     52  C   UNL A   1      37.584  32.075  30.117  1.00  0.00    -0.014 A 
BRANCH  52  53
ATOM     53  C   UNL A   1      38.908  32.105  30.708  1.00  0.00     0.031 A 
ATOM     54  C   UNL A   1      39.378  30.800  31.225  1.00  0.00     0.074 A 
ATOM     55  C   UNL A   1      39.740  33.149  30.489  1.00  0.00     0.049 A 
ATOM     56  N   UNL A   1      39.582  30.465  32.454  1.00  0.00    -0.248 NA
ATOM     57  C   UNL A   1      39.487  29.680  30.275  1.00  0.00     0.031 C 
ATOM     58  C   UNL A   1      39.512  34.342  29.659  1.00  0.00     0.029 A 
ATOM     59  N   UNL A   1      41.036  33.294  30.860  1.00  0.00    -0.354 N 
ATOM     60  C   UNL A   1      40.072  29.163  32.409  1.00  0.00     0.074 A 
ATOM     61  C   UNL A   1      39.759  28.666  31.097  1.00  0.00     0.031 C 
ATOM     62  C   UNL A   1      40.690  34.952  29.406  1.00  0.00     0.029 A 
ATOM     63  C   UNL A   1      41.724  34.296  30.183  1.00  0.00     0.049 A 
ATOM     64  H   UNL A   1      41.457  32.736  31.553  1.00  0.00     0.167 HD
ATOM     65  C   UNL A   1      40.947  28.713  33.351  1.00  0.00     0.037 A 
ATOM     66  C   UNL A   1      43.061  34.514  30.233  1.00  0.00     0.037 A 
ATOM     67  C   UNL A   1      40.980  29.606  34.488  1.00  0.00     0.049 A 
ATOM     68  C   UNL A   1      43.565  33.828  31.454  1.00  0.00     0.074 A 
ATOM     69  C   UNL A   1      40.032  30.091  35.370  1.00  0.00     0.029 A 
ATOM     70  N   UNL A   1      42.056  30.454  34.602  1.00  0.00    -0.354 N 
ATOM     71  N   UNL A   1      43.254  34.191  32.669  1.00  0.00    -0.248 NA
ATOM     72  C   UNL A   1      44.014  32.451  31.310  1.00  0.00     0.031 C 
ATOM     73  C   UNL A   1      40.384  31.459  35.571  1.00  0.00     0.029 A 
ATOM     74  C   UNL A   1      41.566  31.706  34.871  1.00  0.00     0.049 A 
ATOM     75  H   UNL A   1      43.004  30.208  34.506  1.00  0.00     0.167 HD
ATOM     76  C   UNL A   1      43.053  33.001  33.355  1.00  0.00     0.074 A 
ATOM     77  C   UNL A   1      43.612  31.964  32.488  1.00  0.00     0.031 C 
ATOM     78  C   UNL A   1      42.183  32.928  34.407  1.00  0.00     0.037 A 
BRANCH  65  79
ATOM     79  C   UNL A   1      42.057  27.716  33.091  1.00  0.00     0.057 A 
ATOM     80  C   UNL A   1      42.279  26.697  34.037  1.00  0.00     0.134 A 
ATOM     81  C   UNL A   1      43.081  27.869  32.134  1.00  0.00     0.134 A 
ATOM     82  F   UNL A   1      41.381  26.441  35.000  1.00  0.00    -0.206 F 
ATOM     83  C   UNL A   1      43.471  25.965  34.089  1.00  0.00     0.040 A 
ATOM     84  C   UNL A   1      44.252  27.105  32.144  1.00  0.00     0.040 A 
ATOM     85  F   UNL A   1      43.067  28.822  31.197  1.00  0.00    -0.206 F 
ATOM     86  C   UNL A   1      44.468  26.175  33.147  1.00  0.00     0.006 A 
ENDBRANCH  65  79
BRANCH  66  87
ATOM     87  C   UNL A   1      43.962  34.976  29.149  1.00  0.00     0.057 A 
ATOM     88  C   UNL A   1      44.181  34.187  28.010  1.00  0.00     0.134 A 
ATOM     89  C   UNL A   1      44.407  36.309  29.066  1.00  0.00     0.134 A 
ATOM     90  F   UNL A   1      43.763  32.914  27.975  1.00  0.00    -0.206 F 
ATOM     91  C   UNL A   1      44.774  34.701  26.847  1.00  0.00     0.040 A 
ATOM     92  C   UNL A   1      45.008  36.830  27.915  1.00  0.00     0.040 A 
ATOM     93  F   UNL A   1      44.194  37.178  30.064  1.00  0.00    -0.206 F 
ATOM     94  C   UNL A   1      45.177  36.031  26.793  1.00  0.00     0.006 A 
ENDBRANCH  66  87
BRANCH  78  95
ATOM     95  C   UNL A   1      41.633  34.214  34.965  1.00  0.00     0.057 A 
ATOM     96  C   UNL A   1      40.415  34.790  34.569  1.00  0.00     0.134 A 
ATOM     97  C   UNL A   1      42.275  34.799  36.061  1.00  0.00     0.134 A 
ATOM     98  F   UNL A   1      39.673  34.247  33.598  1.00  0.00    -0.206 F 
ATOM     99  C   UNL A   1      39.885  35.917  35.206  1.00  0.00     0.040 A 
ATOM    100  C   UNL A   1      41.740  35.905  36.728  1.00  0.00     0.040 A 
ATOM    101  F   UNL A   1      43.413  34.271  36.537  1.00  0.00    -0.206 F 
ATOM    102  C   UNL A   1      40.545  36.473  36.295  1.00  0.00     0.006 A 
ENDBRANCH  78  95
ENDBRANCH  52  53
ENDBRANCH  44  47
ENDBRANCH  42  43
ENDBRANCH  41  42
ENDBRANCH  40  41
ENDBRANCH  39  40
ENDBRANCH  38  39
ENDBRANCH   1  38
TORSDOF 19
ENDMDL
MODEL 3
REMARK VINA RESULT:     -11.7      2.994      6.488
REMARK SMILES COc1ccc(-n2c(SCc3cn(-c4ccc(C(=O)NCCCCCCNC(=O)c5ccc(-c6c7nc(c(-c8c(F)cccc8F)c8ccc([nH]8)c(-c8c(F)cccc8F)c8nc(c(-c9c(F)cccc9F)c9ccc6[nH]9)C=C8)C=C7)cc5)cc4)nn3)nc3ccccc3c2=O)cc1
REMARK SMILES IDX 21 1 20 2 18 3 19 4 17 6 14 7 15 8 85 9 16 10 84 11 13 12
REMARK SMILES IDX 11 13 12 14 87 15 86 16 10 17 9 18 8 19 7 20 95 21 88 22
REMARK SMILES IDX 94 23 96 24 89 25 93 26 90 27 92 28 91 29 6 30 3 31 4 32
REMARK SMILES IDX 98 33 5 34 97 35 2 36 1 37 22 38 23 39 24 40 25 41 26 42
REMARK SMILES IDX 27 43 28 44 29 46 30 47 31 48 83 49 32 50 82 51 33 52 34 53
REMARK SMILES IDX 35 54 76 55 36 56 81 57 75 58 77 59 37 60 80 61 74 62 73 63
REMARK SMILES IDX 38 65 64 66 47 67 63 68 48 69 51 70 62 71 78 72 49 73 50 74
REMARK SMILES IDX 61 76 79 77 52 78 39 79 40 80 45 81 41 82 42 83 44 84 46 85
REMARK SMILES IDX 43 86 65 87 66 88 71 89 67 90 68 91 70 92 72 93 69 94 53 95
REMARK SMILES IDX 54 96 59 97 55 98 56 99 58 100 60 101 57 102
REMARK H PARENT 20 5 27 45 77 64 51 75
REMARK Flexibility Score: inf
ROOT
ATOM      1  C   UNL A   1      43.588  21.714  25.339  1.00  0.00     0.116 C 
ENDROOT
BRANCH   1   2
ATOM      2  N   UNL A   1      43.303  20.563  26.175  1.00  0.00    -0.352 N 
ATOM      3  C   UNL A   1      42.204  20.162  26.887  1.00  0.00     0.251 C 
ATOM      4  O   UNL A   1      42.317  19.152  27.581  1.00  0.00    -0.269 OA
ATOM      5  H   UNL A   1      44.060  19.937  26.243  1.00  0.00     0.163 HD
BRANCH   3   6
ATOM      6  C   UNL A   1      40.873  20.817  26.782  1.00  0.00     0.039 A 
ATOM      7  C   UNL A   1      38.482  22.039  26.073  1.00  0.00     0.066 A 
ATOM      8  C   UNL A   1      38.662  20.698  25.755  1.00  0.00     0.029 A 
ATOM      9  C   UNL A   1      39.410  22.730  26.863  1.00  0.00     0.029 A 
ATOM     10  C   UNL A   1      39.880  20.106  26.079  1.00  0.00     0.016 A 
ATOM     11  C   UNL A   1      40.574  22.088  27.271  1.00  0.00     0.016 A 
BRANCH   7  12
ATOM     12  N   UNL A   1      37.450  22.751  25.451  1.00  0.00    -0.220 N 
ATOM     13  C   UNL A   1      35.750  24.059  25.134  1.00  0.00     0.093 A 
ATOM     14  C   UNL A   1      36.519  23.488  26.117  1.00  0.00     0.141 A 
ATOM     15  N   UNL A   1      36.265  23.705  23.916  1.00  0.00    -0.134 NA
ATOM     16  N   UNL A   1      37.350  22.967  24.125  1.00  0.00    -0.062 NA
BRANCH  13  17
ATOM     17  C   UNL A   1      34.592  24.962  25.241  1.00  0.00     0.138 C 
BRANCH  17  18
ATOM     18  S   UNL A   1      33.201  24.289  26.153  1.00  0.00    -0.081 SA
BRANCH  18  19
ATOM     19  C   UNL A   1      32.014  23.808  24.890  1.00  0.00     0.176 A 
ATOM     20  N   UNL A   1      32.609  23.386  23.725  1.00  0.00    -0.255 N 
ATOM     21  C   UNL A   1      32.815  24.353  22.752  1.00  0.00     0.266 A 
ATOM     22  N   UNL A   1      30.947  24.549  24.818  1.00  0.00    -0.223 NA
ATOM     23  C   UNL A   1      32.297  25.703  23.150  1.00  0.00     0.066 A 
ATOM     24  O   UNL A   1      33.383  24.198  21.678  1.00  0.00    -0.268 OA
ATOM     25  C   UNL A   1      31.256  25.727  24.102  1.00  0.00     0.079 A 
ATOM     26  C   UNL A   1      32.967  26.876  22.817  1.00  0.00     0.016 A 
ATOM     27  C   UNL A   1      30.783  26.938  24.599  1.00  0.00     0.029 A 
ATOM     28  C   UNL A   1      32.566  28.074  23.417  1.00  0.00     0.001 A 
ATOM     29  C   UNL A   1      31.458  28.113  24.272  1.00  0.00     0.002 A 
BRANCH  20  30
ATOM     30  C   UNL A   1      32.900  22.014  23.564  1.00  0.00     0.052 A 
ATOM     31  C   UNL A   1      32.847  19.235  23.795  1.00  0.00     0.119 A 
ATOM     32  C   UNL A   1      32.154  19.847  22.754  1.00  0.00     0.048 A 
ATOM     33  C   UNL A   1      33.664  19.991  24.636  1.00  0.00     0.048 A 
ATOM     34  C   UNL A   1      32.154  21.242  22.657  1.00  0.00     0.030 A 
ATOM     35  C   UNL A   1      33.713  21.380  24.504  1.00  0.00     0.030 A 
BRANCH  31  36
ATOM     36  O   UNL A   1      32.752  17.878  23.936  1.00  0.00    -0.497 OA
ATOM     37  C   UNL A   1      33.958  17.221  23.527  1.00  0.00     0.278 C 
ENDBRANCH  31  36
ENDBRANCH  20  30
ENDBRANCH  18  19
ENDBRANCH  17  18
ENDBRANCH  13  17
ENDBRANCH   7  12
ENDBRANCH   3   6
ENDBRANCH   1   2
BRANCH   1  38
ATOM     38  C   UNL A   1      45.060  21.694  24.921  1.00  0.00     0.021 C 
BRANCH  38  39
ATOM     39  C   UNL A   1      45.507  22.998  24.244  1.00  0.00     0.002 C 
BRANCH  39  40
ATOM     40  C   UNL A   1      46.160  24.035  25.174  1.00  0.00     0.002 C 
BRANCH  40  41
ATOM     41  C   UNL A   1      45.232  25.119  25.742  1.00  0.00     0.021 C 
BRANCH  41  42
ATOM     42  C   UNL A   1      45.357  25.301  27.245  1.00  0.00     0.116 C 
BRANCH  42  43
ATOM     43  N   UNL A   1      44.679  24.233  27.987  1.00  0.00    -0.352 N 
ATOM     44  C   UNL A   1      43.859  24.308  29.100  1.00  0.00     0.251 C 
ATOM     45  H   UNL A   1      44.829  23.325  27.639  1.00  0.00     0.163 HD
ATOM     46  O   UNL A   1      43.666  23.337  29.807  1.00  0.00    -0.269 OA
BRANCH  44  47
ATOM     47  C   UNL A   1      43.204  25.592  29.403  1.00  0.00     0.039 A 
ATOM     48  C   UNL A   1      43.657  26.450  30.412  1.00  0.00     0.014 A 
ATOM     49  C   UNL A   1      42.104  25.928  28.629  1.00  0.00     0.014 A 
ATOM     50  C   UNL A   1      43.004  27.668  30.592  1.00  0.00     0.010 A 
ATOM     51  C   UNL A   1      41.648  27.209  28.627  1.00  0.00     0.010 A 
ATOM     52  C   UNL A   1      41.998  28.030  29.688  1.00  0.00    -0.014 A 
BRANCH  52  53
ATOM     53  C   UNL A   1      41.272  29.284  29.766  1.00  0.00     0.031 A 
ATOM     54  C   UNL A   1      42.075  30.478  29.416  1.00  0.00     0.074 A 
ATOM     55  C   UNL A   1      39.921  29.299  29.819  1.00  0.00     0.049 A 
ATOM     56  N   UNL A   1      42.449  31.434  30.198  1.00  0.00    -0.248 NA
ATOM     57  C   UNL A   1      42.666  30.542  28.069  1.00  0.00     0.031 C 
ATOM     58  C   UNL A   1      38.991  28.160  29.782  1.00  0.00     0.029 A 
ATOM     59  N   UNL A   1      39.082  30.364  29.779  1.00  0.00    -0.354 N 
ATOM     60  C   UNL A   1      43.124  32.338  29.384  1.00  0.00     0.074 A 
ATOM     61  C   UNL A   1      43.431  31.629  28.172  1.00  0.00     0.031 C 
ATOM     62  C   UNL A   1      37.747  28.598  29.490  1.00  0.00     0.029 A 
ATOM     63  C   UNL A   1      37.759  30.048  29.484  1.00  0.00     0.049 A 
ATOM     64  H   UNL A   1      39.383  31.285  29.947  1.00  0.00     0.167 HD
ATOM     65  C   UNL A   1      43.112  33.672  29.663  1.00  0.00     0.037 A 
ATOM     66  C   UNL A   1      36.774  30.937  29.204  1.00  0.00     0.037 A 
ATOM     67  C   UNL A   1      42.643  33.910  31.009  1.00  0.00     0.049 A 
ATOM     68  C   UNL A   1      37.229  32.258  29.716  1.00  0.00     0.074 A 
ATOM     69  C   UNL A   1      43.040  33.488  32.265  1.00  0.00     0.029 A 
ATOM     70  N   UNL A   1      41.354  34.366  31.165  1.00  0.00    -0.354 N 
ATOM     71  N   UNL A   1      37.390  32.528  30.983  1.00  0.00    -0.248 NA
ATOM     72  C   UNL A   1      37.965  33.115  28.799  1.00  0.00     0.031 C 
ATOM     73  C   UNL A   1      41.824  33.242  32.971  1.00  0.00     0.029 A 
ATOM     74  C   UNL A   1      40.763  33.603  32.139  1.00  0.00     0.049 A 
ATOM     75  H   UNL A   1      40.934  35.103  30.668  1.00  0.00     0.167 HD
ATOM     76  C   UNL A   1      38.555  33.280  31.042  1.00  0.00     0.074 A 
ATOM     77  C   UNL A   1      38.820  33.676  29.659  1.00  0.00     0.031 C 
ATOM     78  C   UNL A   1      39.360  33.254  32.145  1.00  0.00     0.037 A 
BRANCH  65  79
ATOM     79  C   UNL A   1      43.127  34.770  28.621  1.00  0.00     0.057 A 
ATOM     80  C   UNL A   1      44.369  35.305  28.227  1.00  0.00     0.134 A 
ATOM     81  C   UNL A   1      42.004  35.515  28.205  1.00  0.00     0.134 A 
ATOM     82  F   UNL A   1      45.518  34.693  28.550  1.00  0.00    -0.206 F 
ATOM     83  C   UNL A   1      44.485  36.535  27.569  1.00  0.00     0.040 A 
ATOM     84  C   UNL A   1      42.107  36.717  27.499  1.00  0.00     0.040 A 
ATOM     85  F   UNL A   1      40.751  35.190  28.537  1.00  0.00    -0.206 F 
ATOM     86  C   UNL A   1      43.351  37.252  27.212  1.00  0.00     0.006 A 
ENDBRANCH  65  79
BRANCH  66  87
ATOM     87  C   UNL A   1      35.648  30.795  28.250  1.00  0.00     0.057 A 
ATOM     88  C   UNL A   1      35.578  29.699  27.376  1.00  0.00     0.134 A 
ATOM     89  C   UNL A   1      34.477  31.568  28.357  1.00  0.00     0.134 A 
ATOM     90  F   UNL A   1      36.628  28.880  27.229  1.00  0.00    -0.206 F 
ATOM     91  C   UNL A   1      34.405  29.372  26.681  1.00  0.00     0.040 A 
ATOM     92  C   UNL A   1      33.304  31.257  27.662  1.00  0.00     0.040 A 
ATOM     93  F   UNL A   1      34.400  32.601  29.210  1.00  0.00    -0.206 F 
ATOM     94  C   UNL A   1      33.259  30.144  26.833  1.00  0.00     0.006 A 
ENDBRANCH  66  87
BRANCH  78  95
ATOM     95  C   UNL A   1      38.839  32.588  33.392  1.00  0.00     0.057 A 
ATOM     96  C   UNL A   1      39.053  31.239  33.716  1.00  0.00     0.134 A 
ATOM     97  C   UNL A   1      38.244  33.382  34.377  1.00  0.00     0.134 A 
ATOM     98  F   UNL A   1      39.705  30.420  32.883  1.00  0.00    -0.206 F 
ATOM     99  C   UNL A   1      38.658  30.699  34.943  1.00  0.00     0.040 A 
ATOM    100  C   UNL A   1      37.874  32.863  35.621  1.00  0.00     0.040 A 
ATOM    101  F   UNL A   1      38.058  34.694  34.166  1.00  0.00    -0.206 F 
ATOM    102  C   UNL A   1      38.073  31.514  35.905  1.00  0.00     0.006 A 
ENDBRANCH  78  95
ENDBRANCH  52  53
ENDBRANCH  44  47
ENDBRANCH  42  43
ENDBRANCH  41  42
ENDBRANCH  40  41
ENDBRANCH  39  40
ENDBRANCH  38  39
ENDBRANCH   1  38
TORSDOF 19
ENDMDL
