MODEL 1
REMARK VINA RESULT:     -11.4      0.000      0.000
REMARK SMILES C[C@@H]1[NH2+]CC[C@@H]1C(=O)Nc1ccccc1CC(=O)NCCCCCCNC(=O)c1ccc(-c2c3nc(c(-c4c(F)cccc4F)c4ccc([nH]4)c(-c4c(F)cccc4F)c4nc(c(-c5c(F)cccc5F)c5ccc2[nH]5)C=C4)C=C3)cc1
REMARK SMILES IDX 22 1 21 2 20 3 19 4 17 5 18 6 16 8 15 9 10 10 11 11 12 12
REMARK SMILES IDX 14 13 13 14 9 15 7 16 8 17 6 19 1 20 2 21 3 22 4 23 5 26
REMARK SMILES IDX 23 27 24 28 25 29 26 30 27 31 28 33 29 34 30 35 82 36 31 37
REMARK SMILES IDX 81 38 32 39 33 40 34 41 75 42 35 43 80 44 74 45 76 46 36 47
REMARK SMILES IDX 79 48 73 49 72 50 37 52 63 53 46 54 62 55 47 56 50 57 61 58
REMARK SMILES IDX 77 59 48 60 49 61 60 63 78 64 51 65 38 66 39 67 44 68 40 69
REMARK SMILES IDX 41 70 43 71 45 72 42 73 64 74 65 75 70 76 66 77 67 78 69 79
REMARK SMILES IDX 71 80 68 81 52 82 53 83 58 84 54 85 55 86 57 87 59 88 56 89
REMARK H PARENT 19 7 9 18 3 24 3 25 26 32 76 51 50 62
REMARK Flexibility Score: inf
ROOT
ATOM      1  C   UNL A   1      36.598  21.921  24.341  1.00  0.00     0.002 C 
ENDROOT
BRANCH   1   2
ATOM      2  C   UNL A   1      37.299  22.997  25.175  1.00  0.00     0.021 C 
BRANCH   2   3
ATOM      3  C   UNL A   1      36.331  23.758  26.078  1.00  0.00     0.116 C 
BRANCH   3   4
ATOM      4  N   UNL A   1      35.529  22.817  26.827  1.00  0.00    -0.356 N 
ATOM      5  C   UNL A   1      34.198  22.931  27.095  1.00  0.00     0.224 C 
ATOM      6  O   UNL A   1      33.741  22.363  28.088  1.00  0.00    -0.275 OA
ATOM      7  H   UNL A   1      35.988  22.019  27.176  1.00  0.00     0.163 HD
BRANCH   5   8
ATOM      8  C   UNL A   1      33.300  23.636  26.101  1.00  0.00     0.137 C 
BRANCH   8   9
ATOM      9  C   UNL A   1      32.993  22.935  24.798  1.00  0.00    -0.015 A 
ATOM     10  C   UNL A   1      33.157  23.488  23.511  1.00  0.00     0.044 A 
ATOM     11  C   UNL A   1      32.756  22.738  22.386  1.00  0.00     0.026 A 
ATOM     12  C   UNL A   1      32.280  21.436  22.503  1.00  0.00     0.002 A 
ATOM     13  C   UNL A   1      32.517  21.606  24.891  1.00  0.00     0.006 A 
ATOM     14  C   UNL A   1      32.176  20.863  23.760  1.00  0.00     0.000 A 
BRANCH  10  15
ATOM     15  N   UNL A   1      33.662  24.762  23.166  1.00  0.00    -0.325 N 
ATOM     16  C   UNL A   1      33.128  25.799  22.464  1.00  0.00     0.233 C 
ATOM     17  O   UNL A   1      33.653  26.044  21.369  1.00  0.00    -0.274 OA
ATOM     18  H   UNL A   1      34.575  24.932  23.495  1.00  0.00     0.169 HD
BRANCH  16  19
ATOM     19  C   UNL A   1      32.315  26.882  23.198  1.00  0.00     0.142 C 
ATOM     20  C   UNL A   1      33.648  27.204  25.499  1.00  0.00     0.076 C 
ATOM     21  C   UNL A   1      32.357  27.196  24.701  1.00  0.00     0.192 C 
ATOM     22  N   UNL A   1      31.264  26.448  25.346  1.00  0.00    -0.343 N 
ATOM     23  C   UNL A   1      30.498  25.781  24.292  1.00  0.00     0.261 C 
ATOM     24  H   UNL A   1      30.660  27.089  25.861  1.00  0.00     0.346 HD
ATOM     25  H   UNL A   1      31.639  25.763  26.002  1.00  0.00     0.346 HD
ATOM     26  C   UNL A   1      30.815  26.573  23.039  1.00  0.00     0.081 C 
ENDBRANCH  16  19
ENDBRANCH  10  15
ENDBRANCH   8   9
ENDBRANCH   5   8
ENDBRANCH   3   4
ENDBRANCH   2   3
ENDBRANCH   1   2
BRANCH   1  27
ATOM     27  C   UNL A   1      36.665  20.523  24.959  1.00  0.00     0.002 C 
BRANCH  27  28
ATOM     28  C   UNL A   1      38.008  19.817  24.757  1.00  0.00     0.021 C 
BRANCH  28  29
ATOM     29  C   UNL A   1      39.039  20.137  25.834  1.00  0.00     0.116 C 
BRANCH  29  30
ATOM     30  N   UNL A   1      40.054  19.100  25.924  1.00  0.00    -0.352 N 
ATOM     31  C   UNL A   1      41.413  19.230  26.055  1.00  0.00     0.251 C 
ATOM     32  H   UNL A   1      39.719  18.175  25.885  1.00  0.00     0.163 HD
ATOM     33  O   UNL A   1      42.153  18.275  25.882  1.00  0.00    -0.269 OA
BRANCH  31  34
ATOM     34  C   UNL A   1      41.970  20.551  26.404  1.00  0.00     0.039 A 
ATOM     35  C   UNL A   1      42.309  21.431  25.377  1.00  0.00     0.014 A 
ATOM     36  C   UNL A   1      42.151  20.909  27.743  1.00  0.00     0.014 A 
ATOM     37  C   UNL A   1      42.794  22.698  25.696  1.00  0.00     0.010 A 
ATOM     38  C   UNL A   1      42.568  22.196  28.061  1.00  0.00     0.010 A 
ATOM     39  C   UNL A   1      42.902  23.097  27.041  1.00  0.00    -0.014 A 
BRANCH  39  40
ATOM     40  C   UNL A   1      43.357  24.463  27.388  1.00  0.00     0.031 A 
ATOM     41  C   UNL A   1      42.366  25.507  27.809  1.00  0.00     0.074 A 
ATOM     42  C   UNL A   1      44.660  24.773  27.258  1.00  0.00     0.049 A 
ATOM     43  N   UNL A   1      42.575  26.756  28.141  1.00  0.00    -0.248 NA
ATOM     44  C   UNL A   1      40.950  25.108  27.829  1.00  0.00     0.031 C 
ATOM     45  C   UNL A   1      45.701  23.862  26.779  1.00  0.00     0.029 A 
ATOM     46  N   UNL A   1      45.327  25.944  27.508  1.00  0.00    -0.354 N 
ATOM     47  C   UNL A   1      41.320  27.293  28.394  1.00  0.00     0.074 A 
ATOM     48  C   UNL A   1      40.352  26.252  28.124  1.00  0.00     0.031 C 
ATOM     49  C   UNL A   1      46.880  24.503  26.789  1.00  0.00     0.029 A 
ATOM     50  C   UNL A   1      46.673  25.872  27.251  1.00  0.00     0.049 A 
ATOM     51  H   UNL A   1      44.884  26.758  27.840  1.00  0.00     0.167 HD
ATOM     52  C   UNL A   1      41.006  28.535  28.834  1.00  0.00     0.037 A 
ATOM     53  C   UNL A   1      47.634  26.805  27.376  1.00  0.00     0.037 A 
ATOM     54  C   UNL A   1      41.978  29.556  29.123  1.00  0.00     0.049 A 
ATOM     55  C   UNL A   1      47.272  28.161  27.905  1.00  0.00     0.074 A 
ATOM     56  C   UNL A   1      41.775  30.813  29.665  1.00  0.00     0.029 A 
ATOM     57  N   UNL A   1      43.341  29.439  28.884  1.00  0.00    -0.354 N 
ATOM     58  N   UNL A   1      46.092  28.627  28.241  1.00  0.00    -0.248 NA
ATOM     59  C   UNL A   1      48.371  29.118  28.084  1.00  0.00     0.031 C 
ATOM     60  C   UNL A   1      43.009  31.474  29.708  1.00  0.00     0.029 A 
ATOM     61  C   UNL A   1      43.987  30.612  29.237  1.00  0.00     0.049 A 
ATOM     62  H   UNL A   1      43.782  28.639  28.517  1.00  0.00     0.167 HD
ATOM     63  C   UNL A   1      46.307  29.926  28.681  1.00  0.00     0.074 A 
ATOM     64  C   UNL A   1      47.734  30.165  28.590  1.00  0.00     0.031 C 
ATOM     65  C   UNL A   1      45.405  30.840  29.118  1.00  0.00     0.037 A 
BRANCH  52  66
ATOM     66  C   UNL A   1      39.550  28.849  29.021  1.00  0.00     0.057 A 
ATOM     67  C   UNL A   1      38.753  29.325  27.971  1.00  0.00     0.134 A 
ATOM     68  C   UNL A   1      38.936  28.671  30.267  1.00  0.00     0.134 A 
ATOM     69  F   UNL A   1      39.281  29.531  26.755  1.00  0.00    -0.206 F 
ATOM     70  C   UNL A   1      37.409  29.651  28.163  1.00  0.00     0.040 A 
ATOM     71  C   UNL A   1      37.585  28.966  30.464  1.00  0.00     0.040 A 
ATOM     72  F   UNL A   1      39.638  28.214  31.314  1.00  0.00    -0.206 F 
ATOM     73  C   UNL A   1      36.820  29.467  29.412  1.00  0.00     0.006 A 
ENDBRANCH  52  66
BRANCH  53  74
ATOM     74  C   UNL A   1      49.032  26.461  27.025  1.00  0.00     0.057 A 
ATOM     75  C   UNL A   1      49.911  25.940  27.980  1.00  0.00     0.134 A 
ATOM     76  C   UNL A   1      49.508  26.603  25.715  1.00  0.00     0.134 A 
ATOM     77  F   UNL A   1      49.515  25.795  29.253  1.00  0.00    -0.206 F 
ATOM     78  C   UNL A   1      51.217  25.577  27.648  1.00  0.00     0.040 A 
ATOM     79  C   UNL A   1      50.804  26.224  25.365  1.00  0.00     0.040 A 
ATOM     80  F   UNL A   1      48.708  27.084  24.753  1.00  0.00    -0.206 F 
ATOM     81  C   UNL A   1      51.664  25.712  26.335  1.00  0.00     0.006 A 
ENDBRANCH  53  74
BRANCH  65  82
ATOM     82  C   UNL A   1      45.941  32.180  29.526  1.00  0.00     0.057 A 
ATOM     83  C   UNL A   1      46.388  32.428  30.831  1.00  0.00     0.134 A 
ATOM     84  C   UNL A   1      46.033  33.228  28.601  1.00  0.00     0.134 A 
ATOM     85  F   UNL A   1      46.313  31.470  31.768  1.00  0.00    -0.206 F 
ATOM     86  C   UNL A   1      46.882  33.676  31.208  1.00  0.00     0.040 A 
ATOM     87  C   UNL A   1      46.551  34.474  28.960  1.00  0.00     0.040 A 
ATOM     88  F   UNL A   1      45.631  33.055  27.334  1.00  0.00    -0.206 F 
ATOM     89  C   UNL A   1      46.970  34.703  30.268  1.00  0.00     0.006 A 
ENDBRANCH  65  82
ENDBRANCH  39  40
ENDBRANCH  31  34
ENDBRANCH  29  30
ENDBRANCH  28  29
ENDBRANCH  27  28
ENDBRANCH   1  27
TORSDOF 16
ENDMDL
MODEL 2
REMARK VINA RESULT:     -11.3      0.518      6.147
REMARK SMILES C[C@@H]1[NH2+]CC[C@@H]1C(=O)Nc1ccccc1CC(=O)NCCCCCCNC(=O)c1ccc(-c2c3nc(c(-c4c(F)cccc4F)c4ccc([nH]4)c(-c4c(F)cccc4F)c4nc(c(-c5c(F)cccc5F)c5ccc2[nH]5)C=C4)C=C3)cc1
REMARK SMILES IDX 22 1 21 2 20 3 19 4 17 5 18 6 16 8 15 9 10 10 11 11 12 12
REMARK SMILES IDX 14 13 13 14 9 15 7 16 8 17 6 19 1 20 2 21 3 22 4 23 5 26
REMARK SMILES IDX 23 27 24 28 25 29 26 30 27 31 28 33 29 34 30 35 82 36 31 37
REMARK SMILES IDX 81 38 32 39 33 40 34 41 75 42 35 43 80 44 74 45 76 46 36 47
REMARK SMILES IDX 79 48 73 49 72 50 37 52 63 53 46 54 62 55 47 56 50 57 61 58
REMARK SMILES IDX 77 59 48 60 49 61 60 63 78 64 51 65 38 66 39 67 44 68 40 69
REMARK SMILES IDX 41 70 43 71 45 72 42 73 64 74 65 75 70 76 66 77 67 78 69 79
REMARK SMILES IDX 71 80 68 81 52 82 53 83 58 84 54 85 55 86 57 87 59 88 56 89
REMARK H PARENT 19 7 9 18 3 24 3 25 26 32 76 51 50 62
REMARK Flexibility Score: inf
ROOT
ATOM      1  C   UNL A   1      36.723  21.837  24.305  1.00  0.00     0.002 C 
ENDROOT
BRANCH   1   2
ATOM      2  C   UNL A   1      37.380  22.896  25.196  1.00  0.00     0.021 C 
BRANCH   2   3
ATOM      3  C   UNL A   1      36.356  23.708  25.986  1.00  0.00     0.116 C 
BRANCH   3   4
ATOM      4  N   UNL A   1      35.571  22.821  26.813  1.00  0.00    -0.356 N 
ATOM      5  C   UNL A   1      34.253  22.972  27.129  1.00  0.00     0.224 C 
ATOM      6  O   UNL A   1      33.828  22.462  28.167  1.00  0.00    -0.275 OA
ATOM      7  H   UNL A   1      36.030  22.033  27.184  1.00  0.00     0.163 HD
BRANCH   5   8
ATOM      8  C   UNL A   1      33.327  23.642  26.138  1.00  0.00     0.137 C 
BRANCH   8   9
ATOM      9  C   UNL A   1      33.042  22.930  24.835  1.00  0.00    -0.015 A 
ATOM     10  C   UNL A   1      33.194  23.484  23.548  1.00  0.00     0.044 A 
ATOM     11  C   UNL A   1      32.816  22.721  22.423  1.00  0.00     0.026 A 
ATOM     12  C   UNL A   1      32.377  21.406  22.543  1.00  0.00     0.002 A 
ATOM     13  C   UNL A   1      32.605  21.588  24.931  1.00  0.00     0.006 A 
ATOM     14  C   UNL A   1      32.287  20.833  23.801  1.00  0.00     0.000 A 
BRANCH  10  15
ATOM     15  N   UNL A   1      33.664  24.771  23.200  1.00  0.00    -0.325 N 
ATOM     16  C   UNL A   1      33.100  25.792  22.498  1.00  0.00     0.233 C 
ATOM     17  O   UNL A   1      33.617  26.050  21.402  1.00  0.00    -0.274 OA
ATOM     18  H   UNL A   1      34.571  24.966  23.528  1.00  0.00     0.169 HD
BRANCH  16  19
ATOM     19  C   UNL A   1      32.259  26.854  23.232  1.00  0.00     0.142 C 
ATOM     20  C   UNL A   1      33.589  27.220  25.527  1.00  0.00     0.076 C 
ATOM     21  C   UNL A   1      32.296  27.173  24.733  1.00  0.00     0.192 C 
ATOM     22  N   UNL A   1      31.227  26.395  25.384  1.00  0.00    -0.343 N 
ATOM     23  C   UNL A   1      30.478  25.704  24.334  1.00  0.00     0.261 C 
ATOM     24  H   UNL A   1      30.607  27.020  25.899  1.00  0.00     0.346 HD
ATOM     25  H   UNL A   1      31.623  25.723  26.041  1.00  0.00     0.346 HD
ATOM     26  C   UNL A   1      30.767  26.501  23.078  1.00  0.00     0.081 C 
ENDBRANCH  16  19
ENDBRANCH  10  15
ENDBRANCH   8   9
ENDBRANCH   5   8
ENDBRANCH   3   4
ENDBRANCH   2   3
ENDBRANCH   1   2
BRANCH   1  27
ATOM     27  C   UNL A   1      36.779  20.423  24.886  1.00  0.00     0.002 C 
BRANCH  27  28
ATOM     28  C   UNL A   1      38.142  19.743  24.739  1.00  0.00     0.021 C 
BRANCH  28  29
ATOM     29  C   UNL A   1      39.100  20.032  25.890  1.00  0.00     0.116 C 
BRANCH  29  30
ATOM     30  N   UNL A   1      40.183  19.062  25.937  1.00  0.00    -0.352 N 
ATOM     31  C   UNL A   1      41.531  19.277  26.065  1.00  0.00     0.251 C 
ATOM     32  H   UNL A   1      39.909  18.118  25.867  1.00  0.00     0.163 HD
ATOM     33  O   UNL A   1      42.331  18.381  25.854  1.00  0.00    -0.269 OA
BRANCH  31  34
ATOM     34  C   UNL A   1      42.002  20.619  26.459  1.00  0.00     0.039 A 
ATOM     35  C   UNL A   1      42.318  21.541  25.461  1.00  0.00     0.014 A 
ATOM     36  C   UNL A   1      42.127  20.956  27.810  1.00  0.00     0.014 A 
ATOM     37  C   UNL A   1      42.720  22.826  25.821  1.00  0.00     0.010 A 
ATOM     38  C   UNL A   1      42.461  22.256  28.167  1.00  0.00     0.010 A 
ATOM     39  C   UNL A   1      42.770  23.198  27.176  1.00  0.00    -0.014 A 
BRANCH  39  40
ATOM     40  C   UNL A   1      43.136  24.579  27.566  1.00  0.00     0.031 A 
ATOM     41  C   UNL A   1      44.573  25.015  27.554  1.00  0.00     0.074 A 
ATOM     42  C   UNL A   1      42.174  25.418  27.992  1.00  0.00     0.049 A 
ATOM     43  N   UNL A   1      45.084  26.177  27.871  1.00  0.00    -0.248 NA
ATOM     44  C   UNL A   1      45.568  24.003  27.169  1.00  0.00     0.031 C 
ATOM     45  C   UNL A   1      40.756  25.078  28.123  1.00  0.00     0.029 A 
ATOM     46  N   UNL A   1      42.246  26.722  28.404  1.00  0.00    -0.354 N 
ATOM     47  C   UNL A   1      46.458  26.032  27.737  1.00  0.00     0.074 A 
ATOM     48  C   UNL A   1      46.704  24.656  27.365  1.00  0.00     0.031 C 
ATOM     49  C   UNL A   1      40.088  26.155  28.565  1.00  0.00     0.029 A 
ATOM     50  C   UNL A   1      41.032  27.249  28.769  1.00  0.00     0.049 A 
ATOM     51  H   UNL A   1      43.087  27.234  28.434  1.00  0.00     0.167 HD
ATOM     52  C   UNL A   1      47.425  26.969  27.888  1.00  0.00     0.037 A 
ATOM     53  C   UNL A   1      40.716  28.477  29.217  1.00  0.00     0.037 A 
ATOM     54  C   UNL A   1      47.168  28.342  28.235  1.00  0.00     0.049 A 
ATOM     55  C   UNL A   1      41.796  29.512  29.338  1.00  0.00     0.074 A 
ATOM     56  C   UNL A   1      48.063  29.393  28.319  1.00  0.00     0.029 A 
ATOM     57  N   UNL A   1      45.920  28.852  28.566  1.00  0.00    -0.354 N 
ATOM     58  N   UNL A   1      43.081  29.393  29.108  1.00  0.00    -0.248 NA
ATOM     59  C   UNL A   1      41.382  30.854  29.768  1.00  0.00     0.031 C 
ATOM     60  C   UNL A   1      47.364  30.528  28.748  1.00  0.00     0.029 A 
ATOM     61  C   UNL A   1      46.026  30.195  28.886  1.00  0.00     0.049 A 
ATOM     62  H   UNL A   1      45.083  28.333  28.573  1.00  0.00     0.167 HD
ATOM     63  C   UNL A   1      43.630  30.644  29.354  1.00  0.00     0.074 A 
ATOM     64  C   UNL A   1      42.531  31.513  29.729  1.00  0.00     0.031 C 
ATOM     65  C   UNL A   1      44.925  31.038  29.280  1.00  0.00     0.037 A 
BRANCH  52  66
ATOM     66  C   UNL A   1      48.845  26.528  27.683  1.00  0.00     0.057 A 
ATOM     67  C   UNL A   1      49.434  26.491  26.412  1.00  0.00     0.134 A 
ATOM     68  C   UNL A   1      49.635  26.135  28.771  1.00  0.00     0.134 A 
ATOM     69  F   UNL A   1      48.730  26.841  25.325  1.00  0.00    -0.206 F 
ATOM     70  C   UNL A   1      50.743  26.042  26.225  1.00  0.00     0.040 A 
ATOM     71  C   UNL A   1      50.954  25.712  28.600  1.00  0.00     0.040 A 
ATOM     72  F   UNL A   1      49.136  26.150  30.016  1.00  0.00    -0.206 F 
ATOM     73  C   UNL A   1      51.509  25.655  27.323  1.00  0.00     0.006 A 
ENDBRANCH  52  66
BRANCH  53  74
ATOM     74  C   UNL A   1      39.305  28.790  29.546  1.00  0.00     0.057 A 
ATOM     75  C   UNL A   1      38.798  28.579  30.832  1.00  0.00     0.134 A 
ATOM     76  C   UNL A   1      38.445  29.350  28.594  1.00  0.00     0.134 A 
ATOM     77  F   UNL A   1      39.572  28.033  31.781  1.00  0.00    -0.206 F 
ATOM     78  C   UNL A   1      37.482  28.908  31.161  1.00  0.00     0.040 A 
ATOM     79  C   UNL A   1      37.133  29.704  28.914  1.00  0.00     0.040 A 
ATOM     80  F   UNL A   1      38.877  29.588  27.347  1.00  0.00    -0.206 F 
ATOM     81  C   UNL A   1      36.648  29.479  30.201  1.00  0.00     0.006 A 
ENDBRANCH  53  74
BRANCH  65  82
ATOM     82  C   UNL A   1      45.219  32.471  29.615  1.00  0.00     0.057 A 
ATOM     83  C   UNL A   1      45.153  33.481  28.645  1.00  0.00     0.134 A 
ATOM     84  C   UNL A   1      45.548  32.849  30.922  1.00  0.00     0.134 A 
ATOM     85  F   UNL A   1      44.858  33.182  27.371  1.00  0.00    -0.206 F 
ATOM     86  C   UNL A   1      45.430  34.812  28.960  1.00  0.00     0.040 A 
ATOM     87  C   UNL A   1      45.801  34.181  31.254  1.00  0.00     0.040 A 
ATOM     88  F   UNL A   1      45.619  31.933  31.898  1.00  0.00    -0.206 F 
ATOM     89  C   UNL A   1      45.750  35.165  30.270  1.00  0.00     0.006 A 
ENDBRANCH  65  82
ENDBRANCH  39  40
ENDBRANCH  31  34
ENDBRANCH  29  30
ENDBRANCH  28  29
ENDBRANCH  27  28
ENDBRANCH   1  27
TORSDOF 16
ENDMDL
MODEL 3
REMARK VINA RESULT:     -11.3      4.953      7.153
REMARK SMILES C[C@@H]1[NH2+]CC[C@@H]1C(=O)Nc1ccccc1CC(=O)NCCCCCCNC(=O)c1ccc(-c2c3nc(c(-c4c(F)cccc4F)c4ccc([nH]4)c(-c4c(F)cccc4F)c4nc(c(-c5c(F)cccc5F)c5ccc2[nH]5)C=C4)C=C3)cc1
REMARK SMILES IDX 22 1 21 2 20 3 19 4 17 5 18 6 16 8 15 9 10 10 11 11 12 12
REMARK SMILES IDX 14 13 13 14 9 15 7 16 8 17 6 19 1 20 2 21 3 22 4 23 5 26
REMARK SMILES IDX 23 27 24 28 25 29 26 30 27 31 28 33 29 34 30 35 82 36 31 37
REMARK SMILES IDX 81 38 32 39 33 40 34 41 75 42 35 43 80 44 74 45 76 46 36 47
REMARK SMILES IDX 79 48 73 49 72 50 37 52 63 53 46 54 62 55 47 56 50 57 61 58
REMARK SMILES IDX 77 59 48 60 49 61 60 63 78 64 51 65 38 66 39 67 44 68 40 69
REMARK SMILES IDX 41 70 43 71 45 72 42 73 64 74 65 75 70 76 66 77 67 78 69 79
REMARK SMILES IDX 71 80 68 81 52 82 53 83 58 84 54 85 55 86 57 87 59 88 56 89
REMARK H PARENT 19 7 9 18 3 24 3 25 26 32 76 51 50 62
REMARK Flexibility Score: inf
ROOT
ATOM      1  C   UNL A   1      35.722  21.138  24.894  1.00  0.00     0.002 C 
ENDROOT
BRANCH   1   2
ATOM      2  C   UNL A   1      34.343  20.790  25.465  1.00  0.00     0.021 C 
BRANCH   2   3
ATOM      3  C   UNL A   1      34.088  21.453  26.816  1.00  0.00     0.116 C 
BRANCH   3   4
ATOM      4  N   UNL A   1      32.743  21.981  26.848  1.00  0.00    -0.356 N 
ATOM      5  C   UNL A   1      32.397  23.299  26.850  1.00  0.00     0.224 C 
ATOM      6  O   UNL A   1      31.315  23.629  27.338  1.00  0.00    -0.275 OA
ATOM      7  H   UNL A   1      32.007  21.327  26.870  1.00  0.00     0.163 HD
BRANCH   5   8
ATOM      8  C   UNL A   1      33.283  24.298  26.139  1.00  0.00     0.137 C 
BRANCH   8   9
ATOM      9  C   UNL A   1      32.970  24.628  24.698  1.00  0.00    -0.015 A 
ATOM     10  C   UNL A   1      31.988  25.541  24.261  1.00  0.00     0.044 A 
ATOM     11  C   UNL A   1      31.757  25.691  22.877  1.00  0.00     0.026 A 
ATOM     12  C   UNL A   1      32.528  25.025  21.928  1.00  0.00     0.002 A 
ATOM     13  C   UNL A   1      33.748  23.972  23.715  1.00  0.00     0.006 A 
ATOM     14  C   UNL A   1      33.537  24.175  22.350  1.00  0.00     0.000 A 
BRANCH  10  15
ATOM     15  N   UNL A   1      31.135  26.349  25.046  1.00  0.00    -0.325 N 
ATOM     16  C   UNL A   1      31.381  27.378  25.902  1.00  0.00     0.233 C 
ATOM     17  O   UNL A   1      31.155  27.157  27.100  1.00  0.00    -0.274 OA
ATOM     18  H   UNL A   1      30.180  26.124  24.958  1.00  0.00     0.169 HD
BRANCH  16  19
ATOM     19  C   UNL A   1      31.420  28.824  25.371  1.00  0.00     0.142 C 
ATOM     20  C   UNL A   1      29.658  28.790  23.354  1.00  0.00     0.076 C 
ATOM     21  C   UNL A   1      30.932  29.307  23.998  1.00  0.00     0.192 C 
ATOM     22  N   UNL A   1      32.093  29.323  23.089  1.00  0.00    -0.343 N 
ATOM     23  C   UNL A   1      33.278  28.975  23.874  1.00  0.00     0.261 C 
ATOM     24  H   UNL A   1      32.205  30.252  22.685  1.00  0.00     0.346 HD
ATOM     25  H   UNL A   1      31.961  28.656  22.329  1.00  0.00     0.346 HD
ATOM     26  C   UNL A   1      32.887  29.290  25.304  1.00  0.00     0.081 C 
ENDBRANCH  16  19
ENDBRANCH  10  15
ENDBRANCH   8   9
ENDBRANCH   5   8
ENDBRANCH   3   4
ENDBRANCH   2   3
ENDBRANCH   1   2
BRANCH   1  27
ATOM     27  C   UNL A   1      36.597  21.949  25.852  1.00  0.00     0.002 C 
BRANCH  27  28
ATOM     28  C   UNL A   1      36.988  23.329  25.321  1.00  0.00     0.021 C 
BRANCH  28  29
ATOM     29  C   UNL A   1      37.890  24.118  26.264  1.00  0.00     0.116 C 
BRANCH  29  30
ATOM     30  N   UNL A   1      39.290  23.772  26.075  1.00  0.00    -0.352 N 
ATOM     31  C   UNL A   1      40.410  24.438  26.501  1.00  0.00     0.251 C 
ATOM     32  H   UNL A   1      39.457  22.943  25.570  1.00  0.00     0.163 HD
ATOM     33  O   UNL A   1      41.513  24.151  26.067  1.00  0.00    -0.269 OA
BRANCH  31  34
ATOM     34  C   UNL A   1      40.259  25.518  27.496  1.00  0.00     0.039 A 
ATOM     35  C   UNL A   1      39.397  25.323  28.576  1.00  0.00     0.014 A 
ATOM     36  C   UNL A   1      40.968  26.714  27.354  1.00  0.00     0.014 A 
ATOM     37  C   UNL A   1      39.281  26.317  29.544  1.00  0.00     0.010 A 
ATOM     38  C   UNL A   1      40.904  27.676  28.355  1.00  0.00     0.010 A 
ATOM     39  C   UNL A   1      40.052  27.489  29.452  1.00  0.00    -0.014 A 
BRANCH  39  40
ATOM     40  C   UNL A   1      39.981  28.524  30.509  1.00  0.00     0.031 A 
ATOM     41  C   UNL A   1      38.994  29.649  30.404  1.00  0.00     0.074 A 
ATOM     42  C   UNL A   1      40.856  28.480  31.531  1.00  0.00     0.049 A 
ATOM     43  N   UNL A   1      38.793  30.648  31.225  1.00  0.00    -0.248 NA
ATOM     44  C   UNL A   1      38.143  29.674  29.204  1.00  0.00     0.031 C 
ATOM     45  C   UNL A   1      41.913  27.479  31.694  1.00  0.00     0.029 A 
ATOM     46  N   UNL A   1      41.001  29.301  32.618  1.00  0.00    -0.354 N 
ATOM     47  C   UNL A   1      37.806  31.427  30.634  1.00  0.00     0.074 A 
ATOM     48  C   UNL A   1      37.488  30.814  29.362  1.00  0.00     0.031 C 
ATOM     49  C   UNL A   1      42.585  27.735  32.827  1.00  0.00     0.029 A 
ATOM     50  C   UNL A   1      42.023  28.927  33.454  1.00  0.00     0.049 A 
ATOM     51  H   UNL A   1      40.428  30.084  32.783  1.00  0.00     0.167 HD
ATOM     52  C   UNL A   1      37.203  32.538  31.121  1.00  0.00     0.037 A 
ATOM     53  C   UNL A   1      42.456  29.481  34.601  1.00  0.00     0.037 A 
ATOM     54  C   UNL A   1      37.508  33.126  32.398  1.00  0.00     0.049 A 
ATOM     55  C   UNL A   1      41.747  30.688  35.143  1.00  0.00     0.074 A 
ATOM     56  C   UNL A   1      36.891  34.191  33.028  1.00  0.00     0.029 A 
ATOM     57  N   UNL A   1      38.528  32.700  33.239  1.00  0.00    -0.354 N 
ATOM     58  N   UNL A   1      40.744  31.356  34.627  1.00  0.00    -0.248 NA
ATOM     59  C   UNL A   1      42.221  31.210  36.431  1.00  0.00     0.031 C 
ATOM     60  C   UNL A   1      37.568  34.441  34.227  1.00  0.00     0.029 A 
ATOM     61  C   UNL A   1      38.578  33.502  34.367  1.00  0.00     0.049 A 
ATOM     62  H   UNL A   1      39.127  31.940  33.058  1.00  0.00     0.167 HD
ATOM     63  C   UNL A   1      40.458  32.371  35.530  1.00  0.00     0.074 A 
ATOM     64  C   UNL A   1      41.380  32.215  36.637  1.00  0.00     0.031 C 
ATOM     65  C   UNL A   1      39.518  33.346  35.448  1.00  0.00     0.037 A 
BRANCH  52  66
ATOM     66  C   UNL A   1      36.158  33.184  30.257  1.00  0.00     0.057 A 
ATOM     67  C   UNL A   1      36.494  33.941  29.127  1.00  0.00     0.134 A 
ATOM     68  C   UNL A   1      34.798  33.047  30.560  1.00  0.00     0.134 A 
ATOM     69  F   UNL A   1      37.779  34.124  28.787  1.00  0.00    -0.206 F 
ATOM     70  C   UNL A   1      35.518  34.571  28.352  1.00  0.00     0.040 A 
ATOM     71  C   UNL A   1      33.811  33.648  29.776  1.00  0.00     0.040 A 
ATOM     72  F   UNL A   1      34.405  32.333  31.625  1.00  0.00    -0.206 F 
ATOM     73  C   UNL A   1      34.171  34.421  28.674  1.00  0.00     0.006 A 
ENDBRANCH  52  66
BRANCH  53  74
ATOM     74  C   UNL A   1      43.598  28.868  35.319  1.00  0.00     0.057 A 
ATOM     75  C   UNL A   1      44.914  29.264  35.058  1.00  0.00     0.134 A 
ATOM     76  C   UNL A   1      43.397  27.905  36.315  1.00  0.00     0.134 A 
ATOM     77  F   UNL A   1      45.168  30.173  34.105  1.00  0.00    -0.206 F 
ATOM     78  C   UNL A   1      45.992  28.720  35.757  1.00  0.00     0.040 A 
ATOM     79  C   UNL A   1      44.463  27.369  37.038  1.00  0.00     0.040 A 
ATOM     80  F   UNL A   1      42.157  27.495  36.620  1.00  0.00    -0.206 F 
ATOM     81  C   UNL A   1      45.767  27.775  36.756  1.00  0.00     0.006 A 
ENDBRANCH  53  74
BRANCH  65  82
ATOM     82  C   UNL A   1      39.450  34.318  36.589  1.00  0.00     0.057 A 
ATOM     83  C   UNL A   1      38.742  34.026  37.763  1.00  0.00     0.134 A 
ATOM     84  C   UNL A   1      40.114  35.549  36.524  1.00  0.00     0.134 A 
ATOM     85  F   UNL A   1      38.071  32.869  37.881  1.00  0.00    -0.206 F 
ATOM     86  C   UNL A   1      38.677  34.933  38.820  1.00  0.00     0.040 A 
ATOM     87  C   UNL A   1      40.079  36.454  37.586  1.00  0.00     0.040 A 
ATOM     88  F   UNL A   1      40.816  35.887  35.433  1.00  0.00    -0.206 F 
ATOM     89  C   UNL A   1      39.352  36.150  38.735  1.00  0.00     0.006 A 
ENDBRANCH  65  82
ENDBRANCH  39  40
ENDBRANCH  31  34
ENDBRANCH  29  30
ENDBRANCH  28  29
ENDBRANCH  27  28
ENDBRANCH   1  27
TORSDOF 16
ENDMDL
