MODEL 1
REMARK VINA RESULT:     -11.6      0.000      0.000
REMARK SMILES O=C(CCn1cc(/C=C\C(=O)c2ccc(F)cc2)c(-c2cccc(Cl)c2)n1)NCCCCCCNC(=O)c1ccc(-c2c3nc(c(-c4c(F)cccc4F)c4ccc([nH]4)c(-c4c(F)cccc4F)c4nc(c(-c5c(F)cccc5F)c5ccc2[nH]5)C=C4)C=C3)cc1
REMARK SMILES IDX 30 1 29 2 28 3 1 4 2 5 3 7 4 8 5 9 6 10 27 11 7 12 19 13
REMARK SMILES IDX 8 14 9 15 10 16 11 17 12 18 13 19 18 20 14 21 17 22 15 23
REMARK SMILES IDX 16 24 20 25 21 26 26 27 22 28 24 29 23 30 25 31 31 32 32 33
REMARK SMILES IDX 33 34 34 35 35 36 36 37 37 39 38 40 39 41 91 42 40 43 90 44
REMARK SMILES IDX 41 45 42 46 43 47 84 48 44 49 89 50 83 51 85 52 45 53 88 54
REMARK SMILES IDX 82 55 81 56 46 58 72 59 55 60 71 61 56 62 59 63 70 64 86 65
REMARK SMILES IDX 57 66 58 67 69 69 87 70 60 71 47 72 48 73 53 74 49 75 50 76
REMARK SMILES IDX 52 77 54 78 51 79 73 80 74 81 79 82 75 83 76 84 78 85 80 86
REMARK SMILES IDX 77 87 61 88 62 89 67 90 63 91 64 92 66 93 68 94 65 95
REMARK H PARENT 28 6 35 38 85 57 59 68
REMARK Flexibility Score: inf
ROOT
ATOM      1  C   UNL A   1      34.686  32.761  31.792  1.00  0.00     0.021 C 
ENDROOT
BRANCH   1   2
ATOM      2  C   UNL A   1      34.647  33.258  30.339  1.00  0.00     0.116 C 
BRANCH   2   3
ATOM      3  N   UNL A   1      33.968  32.313  29.465  1.00  0.00    -0.356 N 
ATOM      4  O   UNL A   1      35.331  32.645  27.665  1.00  0.00    -0.275 OA
ATOM      5  C   UNL A   1      34.329  32.128  28.154  1.00  0.00     0.221 C 
ATOM      6  H   UNL A   1      33.220  31.787  29.828  1.00  0.00     0.163 HD
BRANCH   5   7
ATOM      7  C   UNL A   1      33.355  31.350  27.284  1.00  0.00     0.123 C 
BRANCH   7   8
ATOM      8  C   UNL A   1      33.276  29.852  27.538  1.00  0.00     0.154 C 
BRANCH   8   9
ATOM      9  N   UNL A   1      33.114  28.973  26.393  1.00  0.00    -0.271 N 
ATOM     10  C   UNL A   1      33.987  28.669  25.384  1.00  0.00     0.117 A 
ATOM     11  N   UNL A   1      31.881  28.485  26.170  1.00  0.00    -0.172 NA
ATOM     12  C   UNL A   1      33.203  28.285  24.311  1.00  0.00     0.021 A 
ATOM     13  C   UNL A   1      31.866  28.249  24.853  1.00  0.00     0.100 A 
BRANCH  12  14
ATOM     14  C   UNL A   1      33.715  28.081  22.977  1.00  0.00     0.016 C 
ATOM     15  C   UNL A   1      33.654  27.046  22.107  1.00  0.00     0.053 C 
BRANCH  15  16
ATOM     16  C   UNL A   1      33.043  25.649  22.092  1.00  0.00     0.185 C 
ATOM     17  O   UNL A   1      32.051  25.438  21.403  1.00  0.00    -0.289 OA
BRANCH  16  18
ATOM     18  C   UNL A   1      33.589  24.600  23.076  1.00  0.00     0.022 A 
ATOM     19  C   UNL A   1      32.366  24.738  24.406  1.00  0.00     0.015 A 
ATOM     20  C   UNL A   1      35.325  23.646  23.533  1.00  0.00     0.015 A 
ATOM     21  C   UNL A   1      32.770  24.166  26.020  1.00  0.00     0.040 A 
ATOM     22  C   UNL A   1      35.593  23.121  25.232  1.00  0.00     0.040 A 
ATOM     23  C   UNL A   1      34.328  23.420  26.397  1.00  0.00     0.123 A 
ATOM     24  F   UNL A   1      34.531  23.027  27.663  1.00  0.00    -0.207 F 
ENDBRANCH  16  18
ENDBRANCH  15  16
ENDBRANCH  12  14
BRANCH  13  25
ATOM     25  C   UNL A   1      30.600  28.032  24.022  1.00  0.00     0.004 A 
ATOM     26  C   UNL A   1      29.115  26.643  23.942  1.00  0.00     0.010 A 
ATOM     27  C   UNL A   1      30.116  29.748  23.638  1.00  0.00     0.031 A 
ATOM     28  C   UNL A   1      27.437  27.178  23.616  1.00  0.00     0.002 A 
ATOM     29  C   UNL A   1      28.420  30.102  23.342  1.00  0.00     0.041 A 
ATOM     30  C   UNL A   1      27.150  28.876  23.347  1.00  0.00     0.020 A 
ATOM     31  Cl  UNL A   1      27.960  31.740  23.066  1.00  0.00    -0.084 Cl
ENDBRANCH  13  25
ENDBRANCH   8   9
ENDBRANCH   7   8
ENDBRANCH   5   7
ENDBRANCH   2   3
ENDBRANCH   1   2
BRANCH   1  32
ATOM     32  C   UNL A   1      34.378  33.825  32.853  1.00  0.00     0.002 C 
BRANCH  32  33
ATOM     33  C   UNL A   1      35.614  34.431  33.514  1.00  0.00     0.002 C 
BRANCH  33  34
ATOM     34  C   UNL A   1      36.939  33.675  33.473  1.00  0.00     0.021 C 
BRANCH  34  35
ATOM     35  C   UNL A   1      38.030  34.414  32.732  1.00  0.00     0.116 C 
BRANCH  35  36
ATOM     36  N   UNL A   1      37.741  34.654  31.310  1.00  0.00    -0.352 N 
ATOM     37  C   UNL A   1      38.323  34.009  30.223  1.00  0.00     0.251 C 
ATOM     38  H   UNL A   1      37.066  35.342  31.107  1.00  0.00     0.163 HD
ATOM     39  O   UNL A   1      38.330  34.497  29.101  1.00  0.00    -0.269 OA
BRANCH  37  40
ATOM     40  C   UNL A   1      38.903  32.674  30.459  1.00  0.00     0.039 A 
ATOM     41  C   UNL A   1      38.187  31.475  30.381  1.00  0.00     0.014 A 
ATOM     42  C   UNL A   1      40.275  32.663  30.642  1.00  0.00     0.014 A 
ATOM     43  C   UNL A   1      38.898  30.277  30.489  1.00  0.00     0.010 A 
ATOM     44  C   UNL A   1      40.944  31.530  30.309  1.00  0.00     0.010 A 
ATOM     45  C   UNL A   1      40.300  30.325  30.471  1.00  0.00    -0.014 A 
BRANCH  45  46
ATOM     46  C   UNL A   1      41.173  29.161  30.405  1.00  0.00     0.031 A 
ATOM     47  C   UNL A   1      41.660  28.778  31.750  1.00  0.00     0.074 A 
ATOM     48  C   UNL A   1      41.301  28.397  29.288  1.00  0.00     0.049 A 
ATOM     49  N   UNL A   1      42.839  28.990  32.225  1.00  0.00    -0.248 NA
ATOM     50  C   UNL A   1      40.682  28.350  32.768  1.00  0.00     0.031 C 
ATOM     51  C   UNL A   1      40.621  28.534  27.989  1.00  0.00     0.029 A 
ATOM     52  N   UNL A   1      42.049  27.268  29.094  1.00  0.00    -0.354 N 
ATOM     53  C   UNL A   1      42.826  28.447  33.503  1.00  0.00     0.074 A 
ATOM     54  C   UNL A   1      41.443  28.318  33.866  1.00  0.00     0.031 C 
ATOM     55  C   UNL A   1      40.814  27.423  27.236  1.00  0.00     0.029 A 
ATOM     56  C   UNL A   1      41.758  26.558  27.915  1.00  0.00     0.049 A 
ATOM     57  H   UNL A   1      42.740  26.974  29.732  1.00  0.00     0.167 HD
ATOM     58  C   UNL A   1      43.947  27.856  34.000  1.00  0.00     0.037 A 
ATOM     59  C   UNL A   1      42.284  25.353  27.547  1.00  0.00     0.037 A 
ATOM     60  C   UNL A   1      45.096  28.216  33.200  1.00  0.00     0.049 A 
ATOM     61  C   UNL A   1      43.534  25.181  28.333  1.00  0.00     0.074 A 
ATOM     62  C   UNL A   1      45.722  29.405  32.884  1.00  0.00     0.029 A 
ATOM     63  N   UNL A   1      45.471  27.316  32.233  1.00  0.00    -0.354 N 
ATOM     64  N   UNL A   1      44.582  25.943  28.180  1.00  0.00    -0.248 NA
ATOM     65  C   UNL A   1      43.397  24.538  29.630  1.00  0.00     0.031 C 
ATOM     66  C   UNL A   1      46.055  29.289  31.503  1.00  0.00     0.029 A 
ATOM     67  C   UNL A   1      45.736  28.000  31.075  1.00  0.00     0.049 A 
ATOM     68  H   UNL A   1      45.539  26.341  32.352  1.00  0.00     0.167 HD
ATOM     69  C   UNL A   1      44.977  26.246  29.474  1.00  0.00     0.074 A 
ATOM     70  C   UNL A   1      44.219  25.327  30.328  1.00  0.00     0.031 C 
ATOM     71  C   UNL A   1      45.621  27.416  29.757  1.00  0.00     0.037 A 
BRANCH  58  72
ATOM     72  C   UNL A   1      43.949  26.641  34.895  1.00  0.00     0.057 A 
ATOM     73  C   UNL A   1      43.783  25.311  34.455  1.00  0.00     0.134 A 
ATOM     74  C   UNL A   1      44.419  26.773  36.214  1.00  0.00     0.134 A 
ATOM     75  F   UNL A   1      43.438  25.001  33.199  1.00  0.00    -0.206 F 
ATOM     76  C   UNL A   1      44.069  24.203  35.256  1.00  0.00     0.040 A 
ATOM     77  C   UNL A   1      44.755  25.670  37.008  1.00  0.00     0.040 A 
ATOM     78  F   UNL A   1      44.646  27.983  36.746  1.00  0.00    -0.206 F 
ATOM     79  C   UNL A   1      44.582  24.378  36.529  1.00  0.00     0.006 A 
ENDBRANCH  58  72
BRANCH  59  80
ATOM     80  C   UNL A   1      41.625  24.177  26.910  1.00  0.00     0.057 A 
ATOM     81  C   UNL A   1      40.353  23.746  27.319  1.00  0.00     0.134 A 
ATOM     82  C   UNL A   1      42.357  23.254  26.136  1.00  0.00     0.134 A 
ATOM     83  F   UNL A   1      39.591  24.514  28.111  1.00  0.00    -0.206 F 
ATOM     84  C   UNL A   1      39.854  22.471  27.018  1.00  0.00     0.040 A 
ATOM     85  C   UNL A   1      41.868  21.974  25.824  1.00  0.00     0.040 A 
ATOM     86  F   UNL A   1      43.601  23.544  25.727  1.00  0.00    -0.206 F 
ATOM     87  C   UNL A   1      40.618  21.572  26.283  1.00  0.00     0.006 A 
ENDBRANCH  59  80
BRANCH  71  88
ATOM     88  C   UNL A   1      46.106  28.265  28.609  1.00  0.00     0.057 A 
ATOM     89  C   UNL A   1      45.250  29.265  28.136  1.00  0.00     0.134 A 
ATOM     90  C   UNL A   1      47.259  28.010  27.848  1.00  0.00     0.134 A 
ATOM     91  F   UNL A   1      44.108  29.533  28.786  1.00  0.00    -0.206 F 
ATOM     92  C   UNL A   1      45.506  29.962  26.954  1.00  0.00     0.040 A 
ATOM     93  C   UNL A   1      47.544  28.725  26.677  1.00  0.00     0.040 A 
ATOM     94  F   UNL A   1      48.104  27.024  28.174  1.00  0.00    -0.206 F 
ATOM     95  C   UNL A   1      46.658  29.696  26.220  1.00  0.00     0.006 A 
ENDBRANCH  71  88
ENDBRANCH  45  46
ENDBRANCH  37  40
ENDBRANCH  35  36
ENDBRANCH  34  35
ENDBRANCH  33  34
ENDBRANCH  32  33
ENDBRANCH   1  32
TORSDOF 19
ENDMDL
MODEL 2
REMARK VINA RESULT:     -11.6      4.061      8.876
REMARK SMILES O=C(CCn1cc(/C=C\C(=O)c2ccc(F)cc2)c(-c2cccc(Cl)c2)n1)NCCCCCCNC(=O)c1ccc(-c2c3nc(c(-c4c(F)cccc4F)c4ccc([nH]4)c(-c4c(F)cccc4F)c4nc(c(-c5c(F)cccc5F)c5ccc2[nH]5)C=C4)C=C3)cc1
REMARK SMILES IDX 30 1 29 2 28 3 1 4 2 5 3 7 4 8 5 9 6 10 27 11 7 12 19 13
REMARK SMILES IDX 8 14 9 15 10 16 11 17 12 18 13 19 18 20 14 21 17 22 15 23
REMARK SMILES IDX 16 24 20 25 21 26 26 27 22 28 24 29 23 30 25 31 31 32 32 33
REMARK SMILES IDX 33 34 34 35 35 36 36 37 37 39 38 40 39 41 91 42 40 43 90 44
REMARK SMILES IDX 41 45 42 46 43 47 84 48 44 49 89 50 83 51 85 52 45 53 88 54
REMARK SMILES IDX 82 55 81 56 46 58 72 59 55 60 71 61 56 62 59 63 70 64 86 65
REMARK SMILES IDX 57 66 58 67 69 69 87 70 60 71 47 72 48 73 53 74 49 75 50 76
REMARK SMILES IDX 52 77 54 78 51 79 73 80 74 81 79 82 75 83 76 84 78 85 80 86
REMARK SMILES IDX 77 87 61 88 62 89 67 90 63 91 64 92 66 93 68 94 65 95
REMARK H PARENT 28 6 35 38 85 57 59 68
REMARK Flexibility Score: inf
ROOT
ATOM      1  C   UNL A   1      41.888  23.143  27.236  1.00  0.00     0.021 C 
ENDROOT
BRANCH   1   2
ATOM      2  C   UNL A   1      40.720  22.273  27.725  1.00  0.00     0.116 C 
BRANCH   2   3
ATOM      3  N   UNL A   1      39.542  22.434  26.887  1.00  0.00    -0.356 N 
ATOM      4  O   UNL A   1      39.656  20.365  25.932  1.00  0.00    -0.275 OA
ATOM      5  C   UNL A   1      39.135  21.476  25.992  1.00  0.00     0.221 C 
ATOM      6  H   UNL A   1      39.017  23.263  26.963  1.00  0.00     0.163 HD
BRANCH   5   7
ATOM      7  C   UNL A   1      38.085  21.896  24.977  1.00  0.00     0.123 C 
BRANCH   7   8
ATOM      8  C   UNL A   1      37.315  23.169  25.294  1.00  0.00     0.154 C 
BRANCH   8   9
ATOM      9  N   UNL A   1      35.873  23.075  25.444  1.00  0.00    -0.271 N 
ATOM     10  C   UNL A   1      35.087  23.267  26.548  1.00  0.00     0.117 A 
ATOM     11  N   UNL A   1      35.184  22.577  24.403  1.00  0.00    -0.172 NA
ATOM     12  C   UNL A   1      33.937  22.531  26.321  1.00  0.00     0.021 A 
ATOM     13  C   UNL A   1      34.085  22.062  24.965  1.00  0.00     0.100 A 
BRANCH  12  14
ATOM     14  C   UNL A   1      32.932  22.288  27.328  1.00  0.00     0.016 C 
ATOM     15  C   UNL A   1      31.713  22.825  27.572  1.00  0.00     0.053 C 
BRANCH  15  16
ATOM     16  C   UNL A   1      30.829  23.895  26.939  1.00  0.00     0.185 C 
ATOM     17  O   UNL A   1      29.617  23.850  27.115  1.00  0.00    -0.289 OA
BRANCH  16  18
ATOM     18  C   UNL A   1      31.474  24.892  25.960  1.00  0.00     0.022 A 
ATOM     19  C   UNL A   1      30.965  24.167  24.380  1.00  0.00     0.015 A 
ATOM     20  C   UNL A   1      32.978  26.258  25.891  1.00  0.00     0.015 A 
ATOM     21  C   UNL A   1      31.849  24.573  22.913  1.00  0.00     0.040 A 
ATOM     22  C   UNL A   1      33.787  26.562  24.314  1.00  0.00     0.040 A 
ATOM     23  C   UNL A   1      33.210  25.700  22.910  1.00  0.00     0.123 A 
ATOM     24  F   UNL A   1      33.816  25.930  21.736  1.00  0.00    -0.207 F 
ENDBRANCH  16  18
ENDBRANCH  15  16
ENDBRANCH  12  14
BRANCH  13  25
ATOM     25  C   UNL A   1      33.145  21.064  24.287  1.00  0.00     0.004 A 
ATOM     26  C   UNL A   1      32.111  20.975  22.536  1.00  0.00     0.010 A 
ATOM     27  C   UNL A   1      33.771  19.476  24.931  1.00  0.00     0.031 A 
ATOM     28  C   UNL A   1      31.967  19.405  21.687  1.00  0.00     0.002 A 
ATOM     29  C   UNL A   1      33.546  18.025  23.965  1.00  0.00     0.041 A 
ATOM     30  C   UNL A   1      32.699  18.002  22.417  1.00  0.00     0.020 A 
ATOM     31  Cl  UNL A   1      34.217  16.545  24.541  1.00  0.00    -0.084 Cl
ENDBRANCH  13  25
ENDBRANCH   8   9
ENDBRANCH   7   8
ENDBRANCH   5   7
ENDBRANCH   2   3
ENDBRANCH   1   2
BRANCH   1  32
ATOM     32  C   UNL A   1      42.558  22.666  25.942  1.00  0.00     0.002 C 
BRANCH  32  33
ATOM     33  C   UNL A   1      43.332  21.356  26.079  1.00  0.00     0.002 C 
BRANCH  33  34
ATOM     34  C   UNL A   1      44.565  21.114  25.213  1.00  0.00     0.021 C 
BRANCH  34  35
ATOM     35  C   UNL A   1      44.699  22.096  24.071  1.00  0.00     0.116 C 
BRANCH  35  36
ATOM     36  N   UNL A   1      46.064  22.601  23.863  1.00  0.00    -0.352 N 
ATOM     37  C   UNL A   1      46.558  23.845  24.246  1.00  0.00     0.251 C 
ATOM     38  H   UNL A   1      46.693  21.997  23.407  1.00  0.00     0.163 HD
ATOM     39  O   UNL A   1      47.547  24.342  23.726  1.00  0.00    -0.269 OA
BRANCH  37  40
ATOM     40  C   UNL A   1      45.867  24.538  25.349  1.00  0.00     0.039 A 
ATOM     41  C   UNL A   1      46.244  24.458  26.693  1.00  0.00     0.014 A 
ATOM     42  C   UNL A   1      44.866  25.406  24.949  1.00  0.00     0.014 A 
ATOM     43  C   UNL A   1      45.584  25.280  27.610  1.00  0.00     0.010 A 
ATOM     44  C   UNL A   1      44.581  26.453  25.764  1.00  0.00     0.010 A 
ATOM     45  C   UNL A   1      44.726  26.277  27.121  1.00  0.00    -0.014 A 
BRANCH  45  46
ATOM     46  C   UNL A   1      44.104  27.313  27.934  1.00  0.00     0.031 A 
ATOM     47  C   UNL A   1      44.909  28.556  27.926  1.00  0.00     0.074 A 
ATOM     48  C   UNL A   1      42.836  27.213  28.413  1.00  0.00     0.049 A 
ATOM     49  N   UNL A   1      45.662  28.986  28.879  1.00  0.00    -0.248 NA
ATOM     50  C   UNL A   1      45.108  29.269  26.650  1.00  0.00     0.031 C 
ATOM     51  C   UNL A   1      41.854  26.134  28.219  1.00  0.00     0.029 A 
ATOM     52  N   UNL A   1      42.119  28.113  29.154  1.00  0.00    -0.354 N 
ATOM     53  C   UNL A   1      46.194  30.183  28.419  1.00  0.00     0.074 A 
ATOM     54  C   UNL A   1      46.038  30.165  26.992  1.00  0.00     0.031 C 
ATOM     55  C   UNL A   1      40.625  26.535  28.627  1.00  0.00     0.029 A 
ATOM     56  C   UNL A   1      40.745  27.832  29.261  1.00  0.00     0.049 A 
ATOM     57  H   UNL A   1      42.533  28.899  29.579  1.00  0.00     0.167 HD
ATOM     58  C   UNL A   1      46.411  31.207  29.289  1.00  0.00     0.037 A 
ATOM     59  C   UNL A   1      39.801  28.625  29.850  1.00  0.00     0.037 A 
ATOM     60  C   UNL A   1      46.360  30.724  30.650  1.00  0.00     0.049 A 
ATOM     61  C   UNL A   1      40.534  29.551  30.754  1.00  0.00     0.074 A 
ATOM     62  C   UNL A   1      47.082  29.798  31.377  1.00  0.00     0.029 A 
ATOM     63  N   UNL A   1      45.165  30.879  31.308  1.00  0.00    -0.354 N 
ATOM     64  N   UNL A   1      41.183  29.148  31.811  1.00  0.00    -0.248 NA
ATOM     65  C   UNL A   1      40.983  30.804  30.168  1.00  0.00     0.031 C 
ATOM     66  C   UNL A   1      46.111  29.104  32.156  1.00  0.00     0.029 A 
ATOM     67  C   UNL A   1      44.871  29.714  31.968  1.00  0.00     0.049 A 
ATOM     68  H   UNL A   1      44.611  31.693  31.306  1.00  0.00     0.167 HD
ATOM     69  C   UNL A   1      42.390  29.828  31.751  1.00  0.00     0.074 A 
ATOM     70  C   UNL A   1      42.196  30.856  30.725  1.00  0.00     0.031 C 
ATOM     71  C   UNL A   1      43.525  29.296  32.292  1.00  0.00     0.037 A 
BRANCH  58  72
ATOM     72  C   UNL A   1      46.227  32.668  28.955  1.00  0.00     0.057 A 
ATOM     73  C   UNL A   1      45.014  33.255  28.538  1.00  0.00     0.134 A 
ATOM     74  C   UNL A   1      47.226  33.580  29.338  1.00  0.00     0.134 A 
ATOM     75  F   UNL A   1      43.928  32.537  28.234  1.00  0.00    -0.206 F 
ATOM     76  C   UNL A   1      44.808  34.637  28.511  1.00  0.00     0.040 A 
ATOM     77  C   UNL A   1      47.014  34.964  29.361  1.00  0.00     0.040 A 
ATOM     78  F   UNL A   1      48.418  33.151  29.781  1.00  0.00    -0.206 F 
ATOM     79  C   UNL A   1      45.800  35.497  28.949  1.00  0.00     0.006 A 
ENDBRANCH  58  72
BRANCH  59  80
ATOM     80  C   UNL A   1      38.409  28.937  29.415  1.00  0.00     0.057 A 
ATOM     81  C   UNL A   1      38.143  29.434  28.130  1.00  0.00     0.134 A 
ATOM     82  C   UNL A   1      37.363  29.079  30.349  1.00  0.00     0.134 A 
ATOM     83  F   UNL A   1      39.086  29.411  27.176  1.00  0.00    -0.206 F 
ATOM     84  C   UNL A   1      36.936  30.068  27.800  1.00  0.00     0.040 A 
ATOM     85  C   UNL A   1      36.147  29.710  30.031  1.00  0.00     0.040 A 
ATOM     86  F   UNL A   1      37.524  28.678  31.618  1.00  0.00    -0.206 F 
ATOM     87  C   UNL A   1      35.939  30.224  28.755  1.00  0.00     0.006 A 
ENDBRANCH  59  80
BRANCH  71  88
ATOM     88  C   UNL A   1      43.400  28.069  33.159  1.00  0.00     0.057 A 
ATOM     89  C   UNL A   1      43.233  28.262  34.534  1.00  0.00     0.134 A 
ATOM     90  C   UNL A   1      43.633  26.751  32.731  1.00  0.00     0.134 A 
ATOM     91  F   UNL A   1      43.050  29.499  35.021  1.00  0.00    -0.206 F 
ATOM     92  C   UNL A   1      43.318  27.209  35.447  1.00  0.00     0.040 A 
ATOM     93  C   UNL A   1      43.689  25.681  33.634  1.00  0.00     0.040 A 
ATOM     94  F   UNL A   1      43.879  26.471  31.445  1.00  0.00    -0.206 F 
ATOM     95  C   UNL A   1      43.544  25.911  34.998  1.00  0.00     0.006 A 
ENDBRANCH  71  88
ENDBRANCH  45  46
ENDBRANCH  37  40
ENDBRANCH  35  36
ENDBRANCH  34  35
ENDBRANCH  33  34
ENDBRANCH  32  33
ENDBRANCH   1  32
TORSDOF 19
ENDMDL
MODEL 3
REMARK VINA RESULT:     -11.4      2.808      6.423
REMARK SMILES O=C(CCn1cc(/C=C\C(=O)c2ccc(F)cc2)c(-c2cccc(Cl)c2)n1)NCCCCCCNC(=O)c1ccc(-c2c3nc(c(-c4c(F)cccc4F)c4ccc([nH]4)c(-c4c(F)cccc4F)c4nc(c(-c5c(F)cccc5F)c5ccc2[nH]5)C=C4)C=C3)cc1
REMARK SMILES IDX 30 1 29 2 28 3 1 4 2 5 3 7 4 8 5 9 6 10 27 11 7 12 19 13
REMARK SMILES IDX 8 14 9 15 10 16 11 17 12 18 13 19 18 20 14 21 17 22 15 23
REMARK SMILES IDX 16 24 20 25 21 26 26 27 22 28 24 29 23 30 25 31 31 32 32 33
REMARK SMILES IDX 33 34 34 35 35 36 36 37 37 39 38 40 39 41 91 42 40 43 90 44
REMARK SMILES IDX 41 45 42 46 43 47 84 48 44 49 89 50 83 51 85 52 45 53 88 54
REMARK SMILES IDX 82 55 81 56 46 58 72 59 55 60 71 61 56 62 59 63 70 64 86 65
REMARK SMILES IDX 57 66 58 67 69 69 87 70 60 71 47 72 48 73 53 74 49 75 50 76
REMARK SMILES IDX 52 77 54 78 51 79 73 80 74 81 79 82 75 83 76 84 78 85 80 86
REMARK SMILES IDX 77 87 61 88 62 89 67 90 63 91 64 92 66 93 68 94 65 95
REMARK H PARENT 28 6 35 38 85 57 59 68
REMARK Flexibility Score: inf
ROOT
ATOM      1  C   UNL A   1      36.456  33.314  29.904  1.00  0.00     0.021 C 
ENDROOT
BRANCH   1   2
ATOM      2  C   UNL A   1      36.143  33.247  28.402  1.00  0.00     0.116 C 
BRANCH   2   3
ATOM      3  N   UNL A   1      35.942  31.878  27.955  1.00  0.00    -0.356 N 
ATOM      4  O   UNL A   1      33.661  31.964  27.967  1.00  0.00    -0.275 OA
ATOM      5  C   UNL A   1      34.695  31.314  27.835  1.00  0.00     0.221 C 
ATOM      6  H   UNL A   1      36.730  31.333  27.730  1.00  0.00     0.163 HD
BRANCH   5   7
ATOM      7  C   UNL A   1      34.645  29.806  27.658  1.00  0.00     0.123 C 
BRANCH   7   8
ATOM      8  C   UNL A   1      33.268  29.202  27.428  1.00  0.00     0.154 C 
BRANCH   8   9
ATOM      9  N   UNL A   1      33.029  28.505  26.175  1.00  0.00    -0.271 N 
ATOM     10  C   UNL A   1      33.824  28.384  25.068  1.00  0.00     0.117 A 
ATOM     11  N   UNL A   1      31.790  28.022  25.974  1.00  0.00    -0.172 NA
ATOM     12  C   UNL A   1      32.962  28.148  24.012  1.00  0.00     0.021 A 
ATOM     13  C   UNL A   1      31.673  27.992  24.642  1.00  0.00     0.100 A 
BRANCH  12  14
ATOM     14  C   UNL A   1      33.369  28.166  22.627  1.00  0.00     0.016 C 
ATOM     15  C   UNL A   1      33.535  27.199  21.694  1.00  0.00     0.053 C 
BRANCH  15  16
ATOM     16  C   UNL A   1      33.378  25.683  21.635  1.00  0.00     0.185 C 
ATOM     17  O   UNL A   1      33.070  25.156  20.572  1.00  0.00    -0.289 OA
BRANCH  16  18
ATOM     18  C   UNL A   1      33.444  24.887  22.950  1.00  0.00     0.022 A 
ATOM     19  C   UNL A   1      31.713  24.372  23.102  1.00  0.00     0.015 A 
ATOM     20  C   UNL A   1      34.588  24.733  24.623  1.00  0.00     0.015 A 
ATOM     21  C   UNL A   1      31.086  23.890  24.674  1.00  0.00     0.040 A 
ATOM     22  C   UNL A   1      33.799  24.228  26.158  1.00  0.00     0.040 A 
ATOM     23  C   UNL A   1      32.094  23.853  26.124  1.00  0.00     0.123 A 
ATOM     24  F   UNL A   1      31.509  23.477  27.271  1.00  0.00    -0.207 F 
ENDBRANCH  16  18
ENDBRANCH  15  16
ENDBRANCH  12  14
BRANCH  13  25
ATOM     25  C   UNL A   1      30.349  27.870  23.887  1.00  0.00     0.004 A 
ATOM     26  C   UNL A   1      28.729  26.638  23.950  1.00  0.00     0.010 A 
ATOM     27  C   UNL A   1      30.020  29.607  23.441  1.00  0.00     0.031 A 
ATOM     28  C   UNL A   1      27.099  27.329  23.681  1.00  0.00     0.002 A 
ATOM     29  C   UNL A   1      28.354  30.121  23.213  1.00  0.00     0.041 A 
ATOM     30  C   UNL A   1      26.970  29.034  23.342  1.00  0.00     0.020 A 
ATOM     31  Cl  UNL A   1      28.047  31.784  22.879  1.00  0.00    -0.084 Cl
ENDBRANCH  13  25
ENDBRANCH   8   9
ENDBRANCH   7   8
ENDBRANCH   5   7
ENDBRANCH   2   3
ENDBRANCH   1   2
BRANCH   1  32
ATOM     32  C   UNL A   1      35.309  33.821  30.787  1.00  0.00     0.002 C 
BRANCH  32  33
ATOM     33  C   UNL A   1      34.710  32.763  31.712  1.00  0.00     0.002 C 
BRANCH  33  34
ATOM     34  C   UNL A   1      33.969  33.197  32.973  1.00  0.00     0.021 C 
BRANCH  34  35
ATOM     35  C   UNL A   1      34.457  34.513  33.535  1.00  0.00     0.116 C 
BRANCH  35  36
ATOM     36  N   UNL A   1      35.077  34.412  34.864  1.00  0.00    -0.352 N 
ATOM     37  C   UNL A   1      36.279  33.780  35.175  1.00  0.00     0.251 C 
ATOM     38  H   UNL A   1      34.593  34.833  35.611  1.00  0.00     0.163 HD
ATOM     39  O   UNL A   1      36.545  33.405  36.309  1.00  0.00    -0.269 OA
BRANCH  37  40
ATOM     40  C   UNL A   1      37.259  33.615  34.087  1.00  0.00     0.039 A 
ATOM     41  C   UNL A   1      37.882  34.672  33.415  1.00  0.00     0.014 A 
ATOM     42  C   UNL A   1      37.638  32.306  33.843  1.00  0.00     0.014 A 
ATOM     43  C   UNL A   1      38.894  34.365  32.503  1.00  0.00     0.010 A 
ATOM     44  C   UNL A   1      38.869  32.098  33.310  1.00  0.00     0.010 A 
ATOM     45  C   UNL A   1      39.371  33.046  32.447  1.00  0.00    -0.014 A 
BRANCH  45  46
ATOM     46  C   UNL A   1      40.527  32.609  31.678  1.00  0.00     0.031 A 
ATOM     47  C   UNL A   1      40.220  31.390  30.895  1.00  0.00     0.074 A 
ATOM     48  C   UNL A   1      41.639  33.374  31.517  1.00  0.00     0.049 A 
ATOM     49  N   UNL A   1      40.599  30.189  31.169  1.00  0.00    -0.248 NA
ATOM     50  C   UNL A   1      39.183  31.457  29.848  1.00  0.00     0.031 C 
ATOM     51  C   UNL A   1      41.910  34.731  32.019  1.00  0.00     0.029 A 
ATOM     52  N   UNL A   1      42.775  33.109  30.801  1.00  0.00    -0.354 N 
ATOM     53  C   UNL A   1      40.085  29.397  30.151  1.00  0.00     0.074 A 
ATOM     54  C   UNL A   1      39.034  30.164  29.543  1.00  0.00     0.031 C 
ATOM     55  C   UNL A   1      43.011  35.245  31.418  1.00  0.00     0.029 A 
ATOM     56  C   UNL A   1      43.627  34.212  30.611  1.00  0.00     0.049 A 
ATOM     57  H   UNL A   1      42.980  32.213  30.446  1.00  0.00     0.167 HD
ATOM     58  C   UNL A   1      40.793  28.325  29.702  1.00  0.00     0.037 A 
ATOM     59  C   UNL A   1      44.759  34.235  29.847  1.00  0.00     0.037 A 
ATOM     60  C   UNL A   1      41.843  27.995  30.639  1.00  0.00     0.049 A 
ATOM     61  C   UNL A   1      45.179  32.819  29.673  1.00  0.00     0.074 A 
ATOM     62  C   UNL A   1      41.873  27.609  31.965  1.00  0.00     0.029 A 
ATOM     63  N   UNL A   1      43.091  28.497  30.359  1.00  0.00    -0.354 N 
ATOM     64  N   UNL A   1      45.587  32.072  30.661  1.00  0.00    -0.248 NA
ATOM     65  C   UNL A   1      44.621  32.116  28.529  1.00  0.00     0.031 C 
ATOM     66  C   UNL A   1      42.969  28.323  32.532  1.00  0.00     0.029 A 
ATOM     67  C   UNL A   1      43.629  29.008  31.511  1.00  0.00     0.049 A 
ATOM     68  H   UNL A   1      43.526  28.490  29.476  1.00  0.00     0.167 HD
ATOM     69  C   UNL A   1      44.926  30.868  30.474  1.00  0.00     0.074 A 
ATOM     70  C   UNL A   1      44.362  30.949  29.124  1.00  0.00     0.031 C 
ATOM     71  C   UNL A   1      44.619  30.062  31.532  1.00  0.00     0.037 A 
BRANCH  58  72
ATOM     72  C   UNL A   1      40.837  27.868  28.265  1.00  0.00     0.057 A 
ATOM     73  C   UNL A   1      41.494  28.548  27.219  1.00  0.00     0.134 A 
ATOM     74  C   UNL A   1      40.450  26.549  27.962  1.00  0.00     0.134 A 
ATOM     75  F   UNL A   1      42.015  29.772  27.366  1.00  0.00    -0.206 F 
ATOM     76  C   UNL A   1      41.753  27.965  25.976  1.00  0.00     0.040 A 
ATOM     77  C   UNL A   1      40.748  25.939  26.738  1.00  0.00     0.040 A 
ATOM     78  F   UNL A   1      39.841  25.783  28.880  1.00  0.00    -0.206 F 
ATOM     79  C   UNL A   1      41.404  26.646  25.740  1.00  0.00     0.006 A 
ENDBRANCH  58  72
BRANCH  59  80
ATOM     80  C   UNL A   1      45.271  35.293  28.929  1.00  0.00     0.057 A 
ATOM     81  C   UNL A   1      44.559  35.662  27.777  1.00  0.00     0.134 A 
ATOM     82  C   UNL A   1      46.614  35.718  28.974  1.00  0.00     0.134 A 
ATOM     83  F   UNL A   1      43.293  35.262  27.594  1.00  0.00    -0.206 F 
ATOM     84  C   UNL A   1      45.149  36.370  26.719  1.00  0.00     0.040 A 
ATOM     85  C   UNL A   1      47.217  36.430  27.923  1.00  0.00     0.040 A 
ATOM     86  F   UNL A   1      47.399  35.385  30.009  1.00  0.00    -0.206 F 
ATOM     87  C   UNL A   1      46.487  36.742  26.781  1.00  0.00     0.006 A 
ENDBRANCH  59  80
BRANCH  71  88
ATOM     88  C   UNL A   1      45.216  30.387  32.879  1.00  0.00     0.057 A 
ATOM     89  C   UNL A   1      46.413  29.753  33.227  1.00  0.00     0.134 A 
ATOM     90  C   UNL A   1      44.573  31.120  33.890  1.00  0.00     0.134 A 
ATOM     91  F   UNL A   1      47.060  28.999  32.325  1.00  0.00    -0.206 F 
ATOM     92  C   UNL A   1      46.937  29.817  34.520  1.00  0.00     0.040 A 
ATOM     93  C   UNL A   1      45.105  31.218  35.183  1.00  0.00     0.040 A 
ATOM     94  F   UNL A   1      43.386  31.702  33.680  1.00  0.00    -0.206 F 
ATOM     95  C   UNL A   1      46.285  30.553  35.503  1.00  0.00     0.006 A 
ENDBRANCH  71  88
ENDBRANCH  45  46
ENDBRANCH  37  40
ENDBRANCH  35  36
ENDBRANCH  34  35
ENDBRANCH  33  34
ENDBRANCH  32  33
ENDBRANCH   1  32
TORSDOF 19
ENDMDL
