MODEL 1
REMARK VINA RESULT:     -11.3      0.000      0.000
REMARK SMILES Cc1cccc(Cl)c1Nc1ccccc1CC(=O)NCCCCCCNC(=O)c1ccc(-c2c3nc(c(-c4c(F)cccc4F)c4ccc([nH]4)c(-c4c(F)cccc4F)c4nc(c(-c5c(F)cccc5F)c5ccc2[nH]5)C=C4)C=C3)cc1
REMARK SMILES IDX 22 1 21 2 20 3 19 4 17 5 18 6 16 8 15 9 10 10 11 11 12 12
REMARK SMILES IDX 14 13 13 14 9 15 8 17 1 18 2 19 3 20 4 21 6 22 5 23 7 24
REMARK SMILES IDX 23 25 24 26 25 27 26 28 27 29 28 31 29 32 30 33 82 34 31 35
REMARK SMILES IDX 81 36 32 37 33 38 34 39 75 40 35 41 80 42 74 43 76 44 36 45
REMARK SMILES IDX 79 46 73 47 72 48 37 50 63 51 46 52 62 53 47 54 50 55 61 56
REMARK SMILES IDX 77 57 48 58 49 59 60 61 78 62 51 63 38 64 39 65 44 66 40 67
REMARK SMILES IDX 41 68 43 69 45 70 42 71 64 72 65 73 70 74 66 75 67 76 69 77
REMARK SMILES IDX 71 78 68 79 52 80 53 81 58 82 54 83 55 84 57 85 59 86 56 87
REMARK H PARENT 19 7 9 16 26 30 76 49 50 60
REMARK Flexibility Score: inf
ROOT
ATOM      1  C   UNL A   1      36.936  22.185  24.579  1.00  0.00     0.002 C 
ENDROOT
BRANCH   1   2
ATOM      2  C   UNL A   1      36.088  22.984  23.581  1.00  0.00     0.021 C 
BRANCH   2   3
ATOM      3  C   UNL A   1      34.795  23.534  24.183  1.00  0.00     0.116 C 
BRANCH   3   4
ATOM      4  N   UNL A   1      34.449  24.808  23.586  1.00  0.00    -0.356 N 
ATOM      5  C   UNL A   1      34.017  25.943  24.212  1.00  0.00     0.224 C 
ATOM      6  O   UNL A   1      33.622  26.882  23.517  1.00  0.00    -0.275 OA
ATOM      7  H   UNL A   1      34.536  24.863  22.608  1.00  0.00     0.163 HD
BRANCH   5   8
ATOM      8  C   UNL A   1      34.093  26.047  25.726  1.00  0.00     0.137 C 
BRANCH   8   9
ATOM      9  C   UNL A   1      33.442  27.285  26.310  1.00  0.00    -0.015 A 
ATOM     10  C   UNL A   1      32.063  27.373  26.598  1.00  0.00     0.042 A 
ATOM     11  C   UNL A   1      31.547  28.601  27.052  1.00  0.00     0.026 A 
ATOM     12  C   UNL A   1      32.369  29.710  27.251  1.00  0.00     0.002 A 
ATOM     13  C   UNL A   1      34.264  28.408  26.543  1.00  0.00     0.006 A 
ATOM     14  C   UNL A   1      33.731  29.610  27.008  1.00  0.00     0.000 A 
BRANCH  10  15
ATOM     15  N   UNL A   1      31.154  26.296  26.515  1.00  0.00    -0.354 N 
ATOM     16  H   UNL A   1      30.537  26.239  27.279  1.00  0.00     0.167 HD
BRANCH  15  17
ATOM     17  C   UNL A   1      30.954  25.282  25.546  1.00  0.00     0.060 A 
ATOM     18  C   UNL A   1      29.984  27.074  23.996  1.00  0.00     0.046 C 
ATOM     19  C   UNL A   1      30.406  25.657  24.290  1.00  0.00    -0.026 A 
ATOM     20  C   UNL A   1      30.279  24.704  23.262  1.00  0.00     0.005 A 
ATOM     21  C   UNL A   1      30.676  23.386  23.459  1.00  0.00     0.002 A 
ATOM     22  C   UNL A   1      31.319  23.929  25.730  1.00  0.00     0.064 A 
ATOM     23  C   UNL A   1      31.188  22.999  24.692  1.00  0.00     0.023 A 
ATOM     24  Cl  UNL A   1      31.842  23.289  27.252  1.00  0.00    -0.082 Cl
ENDBRANCH  15  17
ENDBRANCH  10  15
ENDBRANCH   8   9
ENDBRANCH   5   8
ENDBRANCH   3   4
ENDBRANCH   2   3
ENDBRANCH   1   2
BRANCH   1  25
ATOM     25  C   UNL A   1      36.554  20.706  24.709  1.00  0.00     0.002 C 
BRANCH  25  26
ATOM     26  C   UNL A   1      37.740  19.740  24.784  1.00  0.00     0.021 C 
BRANCH  26  27
ATOM     27  C   UNL A   1      38.847  20.170  25.740  1.00  0.00     0.116 C 
BRANCH  27  28
ATOM     28  N   UNL A   1      39.916  19.187  25.810  1.00  0.00    -0.352 N 
ATOM     29  C   UNL A   1      41.262  19.372  25.989  1.00  0.00     0.251 C 
ATOM     30  H   UNL A   1      39.631  18.249  25.715  1.00  0.00     0.163 HD
ATOM     31  O   UNL A   1      42.041  18.436  25.809  1.00  0.00    -0.269 OA
BRANCH  29  32
ATOM     32  C   UNL A   1      41.787  20.695  26.383  1.00  0.00     0.039 A 
ATOM     33  C   UNL A   1      42.165  21.594  25.384  1.00  0.00     0.014 A 
ATOM     34  C   UNL A   1      41.936  21.040  27.731  1.00  0.00     0.014 A 
ATOM     35  C   UNL A   1      42.650  22.856  25.733  1.00  0.00     0.010 A 
ATOM     36  C   UNL A   1      42.352  22.323  28.078  1.00  0.00     0.010 A 
ATOM     37  C   UNL A   1      42.721  23.240  27.083  1.00  0.00    -0.014 A 
BRANCH  37  38
ATOM     38  C   UNL A   1      43.181  24.599  27.462  1.00  0.00     0.031 A 
ATOM     39  C   UNL A   1      42.192  25.648  27.887  1.00  0.00     0.074 A 
ATOM     40  C   UNL A   1      44.491  24.902  27.375  1.00  0.00     0.049 A 
ATOM     41  N   UNL A   1      42.405  26.893  28.234  1.00  0.00    -0.248 NA
ATOM     42  C   UNL A   1      40.773  25.257  27.900  1.00  0.00     0.031 C 
ATOM     43  C   UNL A   1      45.541  23.989  26.920  1.00  0.00     0.029 A 
ATOM     44  N   UNL A   1      45.161  26.063  27.662  1.00  0.00    -0.354 N 
ATOM     45  C   UNL A   1      41.152  27.433  28.494  1.00  0.00     0.074 A 
ATOM     46  C   UNL A   1      40.180  26.400  28.213  1.00  0.00     0.031 C 
ATOM     47  C   UNL A   1      46.726  24.616  26.985  1.00  0.00     0.029 A 
ATOM     48  C   UNL A   1      46.517  25.981  27.455  1.00  0.00     0.049 A 
ATOM     49  H   UNL A   1      44.714  26.878  27.987  1.00  0.00     0.167 HD
ATOM     50  C   UNL A   1      40.842  28.672  28.948  1.00  0.00     0.037 A 
ATOM     51  C   UNL A   1      47.482  26.904  27.628  1.00  0.00     0.037 A 
ATOM     52  C   UNL A   1      41.814  29.690  29.250  1.00  0.00     0.049 A 
ATOM     53  C   UNL A   1      47.113  28.265  28.148  1.00  0.00     0.074 A 
ATOM     54  C   UNL A   1      41.604  30.953  29.777  1.00  0.00     0.029 A 
ATOM     55  N   UNL A   1      43.180  29.562  29.048  1.00  0.00    -0.354 N 
ATOM     56  N   UNL A   1      45.932  28.737  28.463  1.00  0.00    -0.248 NA
ATOM     57  C   UNL A   1      48.215  29.216  28.348  1.00  0.00     0.031 C 
ATOM     58  C   UNL A   1      42.841  31.605  29.854  1.00  0.00     0.029 A 
ATOM     59  C   UNL A   1      43.824  30.732  29.420  1.00  0.00     0.049 A 
ATOM     60  H   UNL A   1      43.626  28.761  28.693  1.00  0.00     0.167 HD
ATOM     61  C   UNL A   1      46.149  30.030  28.921  1.00  0.00     0.074 A 
ATOM     62  C   UNL A   1      47.578  30.260  28.860  1.00  0.00     0.031 C 
ATOM     63  C   UNL A   1      45.248  30.945  29.352  1.00  0.00     0.037 A 
BRANCH  50  64
ATOM     64  C   UNL A   1      39.388  28.990  29.150  1.00  0.00     0.057 A 
ATOM     65  C   UNL A   1      38.758  28.814  30.390  1.00  0.00     0.134 A 
ATOM     66  C   UNL A   1      38.616  29.507  28.103  1.00  0.00     0.134 A 
ATOM     67  F   UNL A   1      39.437  28.310  31.432  1.00  0.00    -0.206 F 
ATOM     68  C   UNL A   1      37.407  29.114  30.573  1.00  0.00     0.040 A 
ATOM     69  C   UNL A   1      37.271  29.838  28.280  1.00  0.00     0.040 A 
ATOM     70  F   UNL A   1      39.157  29.707  26.892  1.00  0.00    -0.206 F 
ATOM     71  C   UNL A   1      36.662  29.635  29.517  1.00  0.00     0.006 A 
ENDBRANCH  50  64
BRANCH  51  72
ATOM     72  C   UNL A   1      48.896  26.559  27.334  1.00  0.00     0.057 A 
ATOM     73  C   UNL A   1      49.725  26.011  28.320  1.00  0.00     0.134 A 
ATOM     74  C   UNL A   1      49.452  26.771  26.067  1.00  0.00     0.134 A 
ATOM     75  F   UNL A   1      49.253  25.801  29.558  1.00  0.00    -0.206 F 
ATOM     76  C   UNL A   1      51.061  25.704  28.063  1.00  0.00     0.040 A 
ATOM     77  C   UNL A   1      50.781  26.446  25.790  1.00  0.00     0.040 A 
ATOM     78  F   UNL A   1      48.707  27.284  25.078  1.00  0.00    -0.206 F 
ATOM     79  C   UNL A   1      51.591  25.918  26.792  1.00  0.00     0.006 A 
ENDBRANCH  51  72
BRANCH  63  80
ATOM     80  C   UNL A   1      45.786  32.269  29.814  1.00  0.00     0.057 A 
ATOM     81  C   UNL A   1      45.913  33.359  28.945  1.00  0.00     0.134 A 
ATOM     82  C   UNL A   1      46.164  32.457  31.149  1.00  0.00     0.134 A 
ATOM     83  F   UNL A   1      45.580  33.240  27.650  1.00  0.00    -0.206 F 
ATOM     84  C   UNL A   1      46.424  34.583  29.380  1.00  0.00     0.040 A 
ATOM     85  C   UNL A   1      46.650  33.684  31.603  1.00  0.00     0.040 A 
ATOM     86  F   UNL A   1      46.060  31.455  32.035  1.00  0.00    -0.206 F 
ATOM     87  C   UNL A   1      46.789  34.748  30.715  1.00  0.00     0.006 A 
ENDBRANCH  63  80
ENDBRANCH  37  38
ENDBRANCH  29  32
ENDBRANCH  27  28
ENDBRANCH  26  27
ENDBRANCH  25  26
ENDBRANCH   1  25
TORSDOF 16
ENDMDL
MODEL 2
REMARK VINA RESULT:     -11.3      4.475      8.867
REMARK SMILES Cc1cccc(Cl)c1Nc1ccccc1CC(=O)NCCCCCCNC(=O)c1ccc(-c2c3nc(c(-c4c(F)cccc4F)c4ccc([nH]4)c(-c4c(F)cccc4F)c4nc(c(-c5c(F)cccc5F)c5ccc2[nH]5)C=C4)C=C3)cc1
REMARK SMILES IDX 22 1 21 2 20 3 19 4 17 5 18 6 16 8 15 9 10 10 11 11 12 12
REMARK SMILES IDX 14 13 13 14 9 15 8 17 1 18 2 19 3 20 4 21 6 22 5 23 7 24
REMARK SMILES IDX 23 25 24 26 25 27 26 28 27 29 28 31 29 32 30 33 82 34 31 35
REMARK SMILES IDX 81 36 32 37 33 38 34 39 75 40 35 41 80 42 74 43 76 44 36 45
REMARK SMILES IDX 79 46 73 47 72 48 37 50 63 51 46 52 62 53 47 54 50 55 61 56
REMARK SMILES IDX 77 57 48 58 49 59 60 61 78 62 51 63 38 64 39 65 44 66 40 67
REMARK SMILES IDX 41 68 43 69 45 70 42 71 64 72 65 73 70 74 66 75 67 76 69 77
REMARK SMILES IDX 71 78 68 79 52 80 53 81 58 82 54 83 55 84 57 85 59 86 56 87
REMARK H PARENT 19 7 9 16 26 30 76 49 50 60
REMARK Flexibility Score: inf
ROOT
ATOM      1  C   UNL A   1      32.732  30.051  26.913  1.00  0.00     0.002 C 
ENDROOT
BRANCH   1   2
ATOM      2  C   UNL A   1      32.454  28.618  27.383  1.00  0.00     0.021 C 
BRANCH   2   3
ATOM      3  C   UNL A   1      31.402  27.894  26.542  1.00  0.00     0.116 C 
BRANCH   3   4
ATOM      4  N   UNL A   1      31.369  26.482  26.862  1.00  0.00    -0.356 N 
ATOM      5  C   UNL A   1      32.262  25.514  26.498  1.00  0.00     0.224 C 
ATOM      6  O   UNL A   1      31.980  24.336  26.735  1.00  0.00    -0.275 OA
ATOM      7  H   UNL A   1      30.609  26.181  27.410  1.00  0.00     0.163 HD
BRANCH   5   8
ATOM      8  C   UNL A   1      33.592  25.908  25.876  1.00  0.00     0.137 C 
BRANCH   8   9
ATOM      9  C   UNL A   1      34.253  24.820  25.053  1.00  0.00    -0.015 A 
ATOM     10  C   UNL A   1      34.160  24.750  23.645  1.00  0.00     0.042 A 
ATOM     11  C   UNL A   1      34.736  23.646  22.987  1.00  0.00     0.026 A 
ATOM     12  C   UNL A   1      35.416  22.650  23.688  1.00  0.00     0.002 A 
ATOM     13  C   UNL A   1      34.968  23.819  25.743  1.00  0.00     0.006 A 
ATOM     14  C   UNL A   1      35.542  22.744  25.067  1.00  0.00     0.000 A 
BRANCH  10  15
ATOM     15  N   UNL A   1      33.571  25.738  22.827  1.00  0.00    -0.354 N 
ATOM     16  H   UNL A   1      34.043  25.878  21.975  1.00  0.00     0.167 HD
BRANCH  15  17
ATOM     17  C   UNL A   1      32.435  26.567  22.992  1.00  0.00     0.060 A 
ATOM     18  C   UNL A   1      33.997  28.590  22.863  1.00  0.00     0.046 C 
ATOM     19  C   UNL A   1      32.626  27.974  22.981  1.00  0.00    -0.026 A 
ATOM     20  C   UNL A   1      31.517  28.838  23.043  1.00  0.00     0.005 A 
ATOM     21  C   UNL A   1      30.224  28.334  23.125  1.00  0.00     0.002 A 
ATOM     22  C   UNL A   1      31.112  26.081  23.108  1.00  0.00     0.064 A 
ATOM     23  C   UNL A   1      30.023  26.959  23.165  1.00  0.00     0.023 A 
ATOM     24  Cl  UNL A   1      30.734  24.401  23.302  1.00  0.00    -0.082 Cl
ENDBRANCH  15  17
ENDBRANCH  10  15
ENDBRANCH   8   9
ENDBRANCH   5   8
ENDBRANCH   3   4
ENDBRANCH   2   3
ENDBRANCH   1   2
BRANCH   1  25
ATOM     25  C   UNL A   1      31.520  30.783  26.326  1.00  0.00     0.002 C 
BRANCH  25  26
ATOM     26  C   UNL A   1      31.380  32.245  26.759  1.00  0.00     0.021 C 
BRANCH  26  27
ATOM     27  C   UNL A   1      32.702  32.988  26.916  1.00  0.00     0.116 C 
BRANCH  27  28
ATOM     28  N   UNL A   1      32.550  34.208  27.692  1.00  0.00    -0.352 N 
ATOM     29  C   UNL A   1      33.196  34.603  28.834  1.00  0.00     0.251 C 
ATOM     30  H   UNL A   1      31.885  34.846  27.346  1.00  0.00     0.163 HD
ATOM     31  O   UNL A   1      32.785  35.574  29.469  1.00  0.00    -0.269 OA
BRANCH  29  32
ATOM     32  C   UNL A   1      34.377  33.858  29.318  1.00  0.00     0.039 A 
ATOM     33  C   UNL A   1      35.648  34.285  28.928  1.00  0.00     0.014 A 
ATOM     34  C   UNL A   1      34.235  32.726  30.127  1.00  0.00     0.014 A 
ATOM     35  C   UNL A   1      36.778  33.606  29.385  1.00  0.00     0.010 A 
ATOM     36  C   UNL A   1      35.363  32.092  30.640  1.00  0.00     0.010 A 
ATOM     37  C   UNL A   1      36.646  32.521  30.268  1.00  0.00    -0.014 A 
BRANCH  37  38
ATOM     38  C   UNL A   1      37.843  31.828  30.805  1.00  0.00     0.031 A 
ATOM     39  C   UNL A   1      38.404  32.204  32.148  1.00  0.00     0.074 A 
ATOM     40  C   UNL A   1      38.455  30.890  30.057  1.00  0.00     0.049 A 
ATOM     41  N   UNL A   1      39.452  31.724  32.770  1.00  0.00    -0.248 NA
ATOM     42  C   UNL A   1      37.714  33.279  32.878  1.00  0.00     0.031 C 
ATOM     43  C   UNL A   1      38.042  30.478  28.714  1.00  0.00     0.029 A 
ATOM     44  N   UNL A   1      39.557  30.116  30.318  1.00  0.00    -0.354 N 
ATOM     45  C   UNL A   1      39.551  32.444  33.954  1.00  0.00     0.074 A 
ATOM     46  C   UNL A   1      38.492  33.428  33.940  1.00  0.00     0.031 C 
ATOM     47  C   UNL A   1      38.863  29.508  28.280  1.00  0.00     0.029 A 
ATOM     48  C   UNL A   1      39.876  29.252  29.299  1.00  0.00     0.049 A 
ATOM     49  H   UNL A   1      40.070  30.173  31.156  1.00  0.00     0.167 HD
ATOM     50  C   UNL A   1      40.432  32.283  34.971  1.00  0.00     0.037 A 
ATOM     51  C   UNL A   1      40.873  28.353  29.199  1.00  0.00     0.037 A 
ATOM     52  C   UNL A   1      41.470  31.285  34.992  1.00  0.00     0.049 A 
ATOM     53  C   UNL A   1      41.827  28.182  30.348  1.00  0.00     0.074 A 
ATOM     54  C   UNL A   1      42.370  30.999  36.005  1.00  0.00     0.029 A 
ATOM     55  N   UNL A   1      41.749  30.413  33.951  1.00  0.00    -0.354 N 
ATOM     56  N   UNL A   1      41.862  28.816  31.494  1.00  0.00    -0.248 NA
ATOM     57  C   UNL A   1      42.872  27.160  30.192  1.00  0.00     0.031 C 
ATOM     58  C   UNL A   1      43.221  29.981  35.557  1.00  0.00     0.029 A 
ATOM     59  C   UNL A   1      42.821  29.601  34.287  1.00  0.00     0.049 A 
ATOM     60  H   UNL A   1      41.258  30.375  33.098  1.00  0.00     0.167 HD
ATOM     61  C   UNL A   1      42.914  28.256  32.206  1.00  0.00     0.074 A 
ATOM     62  C   UNL A   1      43.479  27.218  31.369  1.00  0.00     0.031 C 
ATOM     63  C   UNL A   1      43.373  28.573  33.442  1.00  0.00     0.037 A 
BRANCH  50  64
ATOM     64  C   UNL A   1      40.305  33.206  36.149  1.00  0.00     0.057 A 
ATOM     65  C   UNL A   1      41.051  34.388  36.245  1.00  0.00     0.134 A 
ATOM     66  C   UNL A   1      39.404  32.926  37.183  1.00  0.00     0.134 A 
ATOM     67  F   UNL A   1      41.942  34.710  35.294  1.00  0.00    -0.206 F 
ATOM     68  C   UNL A   1      40.927  35.244  37.340  1.00  0.00     0.040 A 
ATOM     69  C   UNL A   1      39.249  33.789  38.270  1.00  0.00     0.040 A 
ATOM     70  F   UNL A   1      38.652  31.816  37.152  1.00  0.00    -0.206 F 
ATOM     71  C   UNL A   1      40.017  34.948  38.354  1.00  0.00     0.006 A 
ENDBRANCH  50  64
BRANCH  51  72
ATOM     72  C   UNL A   1      41.000  27.521  27.975  1.00  0.00     0.057 A 
ATOM     73  C   UNL A   1      41.779  27.946  26.892  1.00  0.00     0.134 A 
ATOM     74  C   UNL A   1      40.346  26.289  27.857  1.00  0.00     0.134 A 
ATOM     75  F   UNL A   1      42.415  29.126  26.939  1.00  0.00    -0.206 F 
ATOM     76  C   UNL A   1      41.888  27.185  25.728  1.00  0.00     0.040 A 
ATOM     77  C   UNL A   1      40.466  25.506  26.708  1.00  0.00     0.040 A 
ATOM     78  F   UNL A   1      39.593  25.823  28.864  1.00  0.00    -0.206 F 
ATOM     79  C   UNL A   1      41.233  25.958  25.636  1.00  0.00     0.006 A 
ENDBRANCH  51  72
BRANCH  63  80
ATOM     80  C   UNL A   1      44.526  27.770  33.968  1.00  0.00     0.057 A 
ATOM     81  C   UNL A   1      44.336  26.564  34.654  1.00  0.00     0.134 A 
ATOM     82  C   UNL A   1      45.844  28.201  33.770  1.00  0.00     0.134 A 
ATOM     83  F   UNL A   1      43.097  26.103  34.889  1.00  0.00    -0.206 F 
ATOM     84  C   UNL A   1      45.414  25.829  35.149  1.00  0.00     0.040 A 
ATOM     85  C   UNL A   1      46.932  27.461  34.236  1.00  0.00     0.040 A 
ATOM     86  F   UNL A   1      46.097  29.344  33.114  1.00  0.00    -0.206 F 
ATOM     87  C   UNL A   1      46.717  26.275  34.936  1.00  0.00     0.006 A 
ENDBRANCH  63  80
ENDBRANCH  37  38
ENDBRANCH  29  32
ENDBRANCH  27  28
ENDBRANCH  26  27
ENDBRANCH  25  26
ENDBRANCH   1  25
TORSDOF 16
ENDMDL
MODEL 3
REMARK VINA RESULT:     -11.2      0.764      6.093
REMARK SMILES Cc1cccc(Cl)c1Nc1ccccc1CC(=O)NCCCCCCNC(=O)c1ccc(-c2c3nc(c(-c4c(F)cccc4F)c4ccc([nH]4)c(-c4c(F)cccc4F)c4nc(c(-c5c(F)cccc5F)c5ccc2[nH]5)C=C4)C=C3)cc1
REMARK SMILES IDX 22 1 21 2 20 3 19 4 17 5 18 6 16 8 15 9 10 10 11 11 12 12
REMARK SMILES IDX 14 13 13 14 9 15 8 17 1 18 2 19 3 20 4 21 6 22 5 23 7 24
REMARK SMILES IDX 23 25 24 26 25 27 26 28 27 29 28 31 29 32 30 33 82 34 31 35
REMARK SMILES IDX 81 36 32 37 33 38 34 39 75 40 35 41 80 42 74 43 76 44 36 45
REMARK SMILES IDX 79 46 73 47 72 48 37 50 63 51 46 52 62 53 47 54 50 55 61 56
REMARK SMILES IDX 77 57 48 58 49 59 60 61 78 62 51 63 38 64 39 65 44 66 40 67
REMARK SMILES IDX 41 68 43 69 45 70 42 71 64 72 65 73 70 74 66 75 67 76 69 77
REMARK SMILES IDX 71 78 68 79 52 80 53 81 58 82 54 83 55 84 57 85 59 86 56 87
REMARK H PARENT 19 7 9 16 26 30 76 49 50 60
REMARK Flexibility Score: inf
ROOT
ATOM      1  C   UNL A   1      36.727  22.043  24.667  1.00  0.00     0.002 C 
ENDROOT
BRANCH   1   2
ATOM      2  C   UNL A   1      35.816  22.770  23.670  1.00  0.00     0.021 C 
BRANCH   2   3
ATOM      3  C   UNL A   1      34.631  23.476  24.329  1.00  0.00     0.116 C 
BRANCH   3   4
ATOM      4  N   UNL A   1      34.359  24.742  23.682  1.00  0.00    -0.356 N 
ATOM      5  C   UNL A   1      34.035  25.935  24.265  1.00  0.00     0.224 C 
ATOM      6  O   UNL A   1      33.685  26.868  23.538  1.00  0.00    -0.275 OA
ATOM      7  H   UNL A   1      34.414  24.745  22.700  1.00  0.00     0.163 HD
BRANCH   5   8
ATOM      8  C   UNL A   1      34.173  26.103  25.769  1.00  0.00     0.137 C 
BRANCH   8   9
ATOM      9  C   UNL A   1      33.428  27.292  26.344  1.00  0.00    -0.015 A 
ATOM     10  C   UNL A   1      32.051  27.267  26.656  1.00  0.00     0.042 A 
ATOM     11  C   UNL A   1      31.440  28.454  27.099  1.00  0.00     0.026 A 
ATOM     12  C   UNL A   1      32.167  29.633  27.266  1.00  0.00     0.002 A 
ATOM     13  C   UNL A   1      34.154  28.484  26.546  1.00  0.00     0.006 A 
ATOM     14  C   UNL A   1      33.529  29.644  27.001  1.00  0.00     0.000 A 
BRANCH  10  15
ATOM     15  N   UNL A   1      31.236  26.115  26.605  1.00  0.00    -0.354 N 
ATOM     16  H   UNL A   1      30.700  25.974  27.418  1.00  0.00     0.167 HD
BRANCH  15  17
ATOM     17  C   UNL A   1      31.037  25.124  25.613  1.00  0.00     0.060 A 
ATOM     18  C   UNL A   1      30.135  26.963  24.078  1.00  0.00     0.046 C 
ATOM     19  C   UNL A   1      30.523  25.533  24.353  1.00  0.00    -0.026 A 
ATOM     20  C   UNL A   1      30.399  24.602  23.305  1.00  0.00     0.005 A 
ATOM     21  C   UNL A   1      30.766  23.272  23.485  1.00  0.00     0.002 A 
ATOM     22  C   UNL A   1      31.371  23.760  25.779  1.00  0.00     0.064 A 
ATOM     23  C   UNL A   1      31.244  22.852  24.721  1.00  0.00     0.023 A 
ATOM     24  Cl  UNL A   1      31.850  23.081  27.300  1.00  0.00    -0.082 Cl
ENDBRANCH  15  17
ENDBRANCH  10  15
ENDBRANCH   8   9
ENDBRANCH   5   8
ENDBRANCH   3   4
ENDBRANCH   2   3
ENDBRANCH   1   2
BRANCH   1  25
ATOM     25  C   UNL A   1      36.507  20.529  24.754  1.00  0.00     0.002 C 
BRANCH  25  26
ATOM     26  C   UNL A   1      37.790  19.692  24.763  1.00  0.00     0.021 C 
BRANCH  26  27
ATOM     27  C   UNL A   1      38.850  20.171  25.749  1.00  0.00     0.116 C 
BRANCH  27  28
ATOM     28  N   UNL A   1      39.973  19.251  25.829  1.00  0.00    -0.352 N 
ATOM     29  C   UNL A   1      41.294  19.505  26.087  1.00  0.00     0.251 C 
ATOM     30  H   UNL A   1      39.751  18.304  25.674  1.00  0.00     0.163 HD
ATOM     31  O   UNL A   1      42.137  18.628  25.903  1.00  0.00    -0.269 OA
BRANCH  29  32
ATOM     32  C   UNL A   1      41.716  20.836  26.571  1.00  0.00     0.039 A 
ATOM     33  C   UNL A   1      42.109  21.798  25.638  1.00  0.00     0.014 A 
ATOM     34  C   UNL A   1      41.756  21.127  27.939  1.00  0.00     0.014 A 
ATOM     35  C   UNL A   1      42.497  23.067  26.072  1.00  0.00     0.010 A 
ATOM     36  C   UNL A   1      42.075  22.413  28.367  1.00  0.00     0.010 A 
ATOM     37  C   UNL A   1      42.457  23.393  27.438  1.00  0.00    -0.014 A 
BRANCH  37  38
ATOM     38  C   UNL A   1      42.813  24.756  27.904  1.00  0.00     0.031 A 
ATOM     39  C   UNL A   1      44.253  25.149  28.082  1.00  0.00     0.074 A 
ATOM     40  C   UNL A   1      41.833  25.627  28.213  1.00  0.00     0.049 A 
ATOM     41  N   UNL A   1      44.754  26.286  28.498  1.00  0.00    -0.248 NA
ATOM     42  C   UNL A   1      45.264  24.124  27.780  1.00  0.00     0.031 C 
ATOM     43  C   UNL A   1      40.398  25.345  28.138  1.00  0.00     0.029 A 
ATOM     44  N   UNL A   1      41.894  26.923  28.656  1.00  0.00    -0.354 N 
ATOM     45  C   UNL A   1      46.132  26.107  28.517  1.00  0.00     0.074 A 
ATOM     46  C   UNL A   1      46.386  24.739  28.124  1.00  0.00     0.031 C 
ATOM     47  C   UNL A   1      39.716  26.444  28.495  1.00  0.00     0.029 A 
ATOM     48  C   UNL A   1      40.661  27.496  28.853  1.00  0.00     0.049 A 
ATOM     49  H   UNL A   1      42.741  27.398  28.816  1.00  0.00     0.167 HD
ATOM     50  C   UNL A   1      47.098  27.010  28.813  1.00  0.00     0.037 A 
ATOM     51  C   UNL A   1      40.332  28.731  29.274  1.00  0.00     0.037 A 
ATOM     52  C   UNL A   1      46.842  28.378  29.180  1.00  0.00     0.049 A 
ATOM     53  C   UNL A   1      41.423  29.719  29.580  1.00  0.00     0.074 A 
ATOM     54  C   UNL A   1      47.756  29.388  29.434  1.00  0.00     0.029 A 
ATOM     55  N   UNL A   1      45.581  28.928  29.348  1.00  0.00    -0.354 N 
ATOM     56  N   UNL A   1      42.722  29.560  29.519  1.00  0.00    -0.248 NA
ATOM     57  C   UNL A   1      40.999  31.062  30.002  1.00  0.00     0.031 C 
ATOM     58  C   UNL A   1      47.045  30.538  29.798  1.00  0.00     0.029 A 
ATOM     59  C   UNL A   1      45.690  30.258  29.723  1.00  0.00     0.049 A 
ATOM     60  H   UNL A   1      44.732  28.446  29.220  1.00  0.00     0.167 HD
ATOM     61  C   UNL A   1      43.272  30.786  29.870  1.00  0.00     0.074 A 
ATOM     62  C   UNL A   1      42.163  31.683  30.124  1.00  0.00     0.031 C 
ATOM     63  C   UNL A   1      44.577  31.137  29.974  1.00  0.00     0.037 A 
BRANCH  50  64
ATOM     64  C   UNL A   1      48.524  26.543  28.745  1.00  0.00     0.057 A 
ATOM     65  C   UNL A   1      49.169  25.975  29.853  1.00  0.00     0.134 A 
ATOM     66  C   UNL A   1      49.251  26.633  27.552  1.00  0.00     0.134 A 
ATOM     67  F   UNL A   1      48.533  25.870  31.030  1.00  0.00    -0.206 F 
ATOM     68  C   UNL A   1      50.493  25.540  29.784  1.00  0.00     0.040 A 
ATOM     69  C   UNL A   1      50.567  26.176  27.463  1.00  0.00     0.040 A 
ATOM     70  F   UNL A   1      48.693  27.159  26.452  1.00  0.00    -0.206 F 
ATOM     71  C   UNL A   1      51.193  25.634  28.583  1.00  0.00     0.006 A 
ENDBRANCH  50  64
BRANCH  51  72
ATOM     72  C   UNL A   1      38.902  29.114  29.400  1.00  0.00     0.057 A 
ATOM     73  C   UNL A   1      38.227  28.989  30.620  1.00  0.00     0.134 A 
ATOM     74  C   UNL A   1      38.179  29.608  28.309  1.00  0.00     0.134 A 
ATOM     75  F   UNL A   1      38.863  28.504  31.697  1.00  0.00    -0.206 F 
ATOM     76  C   UNL A   1      36.878  29.323  30.746  1.00  0.00     0.040 A 
ATOM     77  C   UNL A   1      36.836  29.970  28.427  1.00  0.00     0.040 A 
ATOM     78  F   UNL A   1      38.773  29.761  27.116  1.00  0.00    -0.206 F 
ATOM     79  C   UNL A   1      36.181  29.820  29.646  1.00  0.00     0.006 A 
ENDBRANCH  51  72
BRANCH  63  80
ATOM     80  C   UNL A   1      44.872  32.559  30.355  1.00  0.00     0.057 A 
ATOM     81  C   UNL A   1      44.982  33.574  29.397  1.00  0.00     0.134 A 
ATOM     82  C   UNL A   1      45.030  32.918  31.700  1.00  0.00     0.134 A 
ATOM     83  F   UNL A   1      44.855  33.293  28.091  1.00  0.00    -0.206 F 
ATOM     84  C   UNL A   1      45.267  34.891  29.759  1.00  0.00     0.040 A 
ATOM     85  C   UNL A   1      45.288  34.237  32.077  1.00  0.00     0.040 A 
ATOM     86  F   UNL A   1      44.929  31.996  32.668  1.00  0.00    -0.206 F 
ATOM     87  C   UNL A   1      45.416  35.226  31.104  1.00  0.00     0.006 A 
ENDBRANCH  63  80
ENDBRANCH  37  38
ENDBRANCH  29  32
ENDBRANCH  27  28
ENDBRANCH  26  27
ENDBRANCH  25  26
ENDBRANCH   1  25
TORSDOF 16
ENDMDL
