MODEL 1
REMARK VINA RESULT:     -11.9      0.000      0.000
REMARK SMILES COc1ccc(S(=O)(=O)N2CCC[C@H](C(=O)N3CCC[C@H](C(=O)NCCCCCCNC(=O)c4ccc(-c5c6nc(c(-c7c(F)cccc7F)c7ccc([nH]7)c(-c7c(F)cccc7F)c7nc(c(-c8c(F)cccc8F)c8ccc5[nH]8)C=C7)C=C6)cc4)C3)C2)cc1
REMARK SMILES IDX 26 1 25 2 24 3 22 4 23 5 21 7 17 8 18 9 88 10 19 11 20 12
REMARK SMILES IDX 15 13 16 14 14 15 10 16 11 17 89 18 12 19 13 20 7 21 8 22
REMARK SMILES IDX 9 23 6 24 3 25 4 26 91 27 5 28 90 29 2 30 1 31 27 32 28 33
REMARK SMILES IDX 29 34 30 35 31 36 32 37 33 39 34 40 35 41 87 42 36 43 86 44
REMARK SMILES IDX 37 45 38 46 39 47 80 48 40 49 85 50 79 51 81 52 41 53 84 54
REMARK SMILES IDX 78 55 77 56 42 58 68 59 51 60 67 61 52 62 55 63 66 64 82 65
REMARK SMILES IDX 53 66 54 67 65 69 83 70 56 71 43 72 44 73 49 74 45 75 46 76
REMARK SMILES IDX 48 77 50 78 47 79 69 80 70 81 75 82 71 83 72 84 74 85 76 86
REMARK SMILES IDX 73 87 57 88 58 89 63 90 59 91 60 92 62 93 64 94 61 95
REMARK H PARENT 24 6 31 38 81 57 55 68
REMARK Flexibility Score: inf
ROOT
ATOM      1  C   UNL A   1      34.802  31.919  27.997  1.00  0.00     0.021 C 
ENDROOT
BRANCH   1   2
ATOM      2  C   UNL A   1      33.592  31.112  27.541  1.00  0.00     0.116 C 
BRANCH   2   3
ATOM      3  N   UNL A   1      33.862  29.700  27.410  1.00  0.00    -0.356 N 
ATOM      4  C   UNL A   1      33.655  28.862  26.364  1.00  0.00     0.224 C 
ATOM      5  O   UNL A   1      34.148  27.731  26.458  1.00  0.00    -0.275 OA
ATOM      6  H   UNL A   1      34.260  29.279  28.206  1.00  0.00     0.163 HD
BRANCH   4   7
ATOM      7  C   UNL A   1      32.871  29.233  25.100  1.00  0.00     0.098 C 
ATOM      8  N   UNL A   1      31.275  27.495  24.247  1.00  0.00    -0.342 N 
ATOM      9  C   UNL A   1      31.859  27.533  22.910  1.00  0.00     0.119 C 
ATOM     10  C   UNL A   1      31.442  28.687  25.061  1.00  0.00     0.133 C 
ATOM     11  C   UNL A   1      33.334  27.920  22.907  1.00  0.00     0.022 C 
ATOM     12  C   UNL A   1      33.642  29.135  23.779  1.00  0.00     0.017 C 
BRANCH   8  13
ATOM     13  C   UNL A   1      30.736  26.310  24.702  1.00  0.00     0.227 C 
ATOM     14  O   UNL A   1      29.572  26.005  24.416  1.00  0.00    -0.275 OA
BRANCH  13  15
ATOM     15  C   UNL A   1      31.457  25.473  25.761  1.00  0.00     0.094 C 
ATOM     16  N   UNL A   1      32.274  23.747  24.203  1.00  0.00    -0.197 NA
ATOM     17  C   UNL A   1      31.332  22.723  24.686  1.00  0.00     0.102 C 
ATOM     18  C   UNL A   1      32.676  24.856  25.087  1.00  0.00     0.116 C 
ATOM     19  C   UNL A   1      30.545  23.065  25.947  1.00  0.00     0.018 C 
ATOM     20  C   UNL A   1      30.774  24.417  26.611  1.00  0.00     0.016 C 
BRANCH  16  21
ATOM     21  S   UNL A   1      33.352  23.281  22.974  1.00  0.00     0.243 S 
ATOM     22  O   UNL A   1      33.835  24.470  22.313  1.00  0.00    -0.207 OA
ATOM     23  O   UNL A   1      32.711  22.210  22.233  1.00  0.00    -0.207 OA
BRANCH  21  24
ATOM     24  C   UNL A   1      34.753  22.547  23.792  1.00  0.00     0.082 A 
ATOM     25  C   UNL A   1      37.054  21.416  24.908  1.00  0.00     0.118 A 
ATOM     26  C   UNL A   1      37.119  22.657  24.271  1.00  0.00     0.048 A 
ATOM     27  C   UNL A   1      35.827  20.766  25.029  1.00  0.00     0.048 A 
ATOM     28  C   UNL A   1      35.975  23.222  23.703  1.00  0.00     0.025 A 
ATOM     29  C   UNL A   1      34.680  21.327  24.467  1.00  0.00     0.025 A 
BRANCH  25  30
ATOM     30  O   UNL A   1      38.236  20.932  25.395  1.00  0.00    -0.497 OA
ATOM     31  C   UNL A   1      39.060  21.901  26.038  1.00  0.00     0.278 C 
ENDBRANCH  25  30
ENDBRANCH  21  24
ENDBRANCH  16  21
ENDBRANCH  13  15
ENDBRANCH   8  13
ENDBRANCH   4   7
ENDBRANCH   2   3
ENDBRANCH   1   2
BRANCH   1  32
ATOM     32  C   UNL A   1      34.514  32.882  29.150  1.00  0.00     0.002 C 
BRANCH  32  33
ATOM     33  C   UNL A   1      34.533  34.374  28.793  1.00  0.00     0.002 C 
BRANCH  33  34
ATOM     34  C   UNL A   1      33.213  35.131  28.971  1.00  0.00     0.021 C 
BRANCH  34  35
ATOM     35  C   UNL A   1      33.300  36.439  29.752  1.00  0.00     0.116 C 
BRANCH  35  36
ATOM     36  N   UNL A   1      32.442  36.449  30.925  1.00  0.00    -0.352 N 
ATOM     37  C   UNL A   1      32.554  35.775  32.113  1.00  0.00     0.251 C 
ATOM     38  H   UNL A   1      31.653  37.035  30.855  1.00  0.00     0.163 HD
ATOM     39  O   UNL A   1      31.632  35.810  32.923  1.00  0.00    -0.269 OA
BRANCH  37  40
ATOM     40  C   UNL A   1      33.770  34.993  32.423  1.00  0.00     0.039 A 
ATOM     41  C   UNL A   1      35.009  35.641  32.374  1.00  0.00     0.014 A 
ATOM     42  C   UNL A   1      33.705  33.627  32.713  1.00  0.00     0.014 A 
ATOM     43  C   UNL A   1      36.175  34.932  32.666  1.00  0.00     0.010 A 
ATOM     44  C   UNL A   1      34.863  32.935  33.060  1.00  0.00     0.010 A 
ATOM     45  C   UNL A   1      36.109  33.580  33.036  1.00  0.00    -0.014 A 
BRANCH  45  46
ATOM     46  C   UNL A   1      37.334  32.823  33.390  1.00  0.00     0.031 A 
ATOM     47  C   UNL A   1      38.061  33.115  34.672  1.00  0.00     0.074 A 
ATOM     48  C   UNL A   1      37.821  31.907  32.531  1.00  0.00     0.049 A 
ATOM     49  N   UNL A   1      39.181  32.612  35.122  1.00  0.00    -0.248 NA
ATOM     50  C   UNL A   1      37.456  34.124  35.557  1.00  0.00     0.031 C 
ATOM     51  C   UNL A   1      37.226  31.558  31.239  1.00  0.00     0.029 A 
ATOM     52  N   UNL A   1      38.933  31.108  32.612  1.00  0.00    -0.354 N 
ATOM     53  C   UNL A   1      39.424  33.249  36.331  1.00  0.00     0.074 A 
ATOM     54  C   UNL A   1      38.358  34.209  36.525  1.00  0.00     0.031 C 
ATOM     55  C   UNL A   1      37.968  30.602  30.659  1.00  0.00     0.029 A 
ATOM     56  C   UNL A   1      39.105  30.294  31.520  1.00  0.00     0.049 A 
ATOM     57  H   UNL A   1      39.549  31.119  33.380  1.00  0.00     0.167 HD
ATOM     58  C   UNL A   1      40.434  33.041  37.208  1.00  0.00     0.037 A 
ATOM     59  C   UNL A   1      40.077  29.404  31.243  1.00  0.00     0.037 A 
ATOM     60  C   UNL A   1      41.481  32.072  37.025  1.00  0.00     0.049 A 
ATOM     61  C   UNL A   1      41.188  29.194  32.231  1.00  0.00     0.074 A 
ATOM     62  C   UNL A   1      42.527  31.759  37.877  1.00  0.00     0.029 A 
ATOM     63  N   UNL A   1      41.614  31.256  35.911  1.00  0.00    -0.354 N 
ATOM     64  N   UNL A   1      41.383  29.775  33.390  1.00  0.00    -0.248 NA
ATOM     65  C   UNL A   1      42.212  28.202  31.875  1.00  0.00     0.031 C 
ATOM     66  C   UNL A   1      43.309  30.773  37.264  1.00  0.00     0.029 A 
ATOM     67  C   UNL A   1      42.730  30.447  36.049  1.00  0.00     0.049 A 
ATOM     68  H   UNL A   1      41.005  31.254  35.138  1.00  0.00     0.167 HD
ATOM     69  C   UNL A   1      42.535  29.204  33.911  1.00  0.00     0.074 A 
ATOM     70  C   UNL A   1      42.990  28.223  32.948  1.00  0.00     0.031 C 
ATOM     71  C   UNL A   1      43.162  29.470  35.084  1.00  0.00     0.037 A 
BRANCH  58  72
ATOM     72  C   UNL A   1      40.446  33.878  38.455  1.00  0.00     0.057 A 
ATOM     73  C   UNL A   1      39.723  33.506  39.595  1.00  0.00     0.134 A 
ATOM     74  C   UNL A   1      41.207  35.051  38.524  1.00  0.00     0.134 A 
ATOM     75  F   UNL A   1      38.963  32.400  39.589  1.00  0.00    -0.206 F 
ATOM     76  C   UNL A   1      39.738  34.285  40.754  1.00  0.00     0.040 A 
ATOM     77  C   UNL A   1      41.249  35.825  39.685  1.00  0.00     0.040 A 
ATOM     78  F   UNL A   1      41.926  35.460  37.468  1.00  0.00    -0.206 F 
ATOM     79  C   UNL A   1      40.507  35.445  40.802  1.00  0.00     0.006 A 
ENDBRANCH  58  72
BRANCH  59  80
ATOM     80  C   UNL A   1      40.022  28.620  29.985  1.00  0.00     0.057 A 
ATOM     81  C   UNL A   1      40.675  29.069  28.831  1.00  0.00     0.134 A 
ATOM     82  C   UNL A   1      39.325  27.409  29.905  1.00  0.00     0.134 A 
ATOM     83  F   UNL A   1      41.343  30.231  28.843  1.00  0.00    -0.206 F 
ATOM     84  C   UNL A   1      40.628  28.346  27.638  1.00  0.00     0.040 A 
ATOM     85  C   UNL A   1      39.288  26.666  28.724  1.00  0.00     0.040 A 
ATOM     86  F   UNL A   1      38.683  26.925  30.978  1.00  0.00    -0.206 F 
ATOM     87  C   UNL A   1      39.937  27.137  27.585  1.00  0.00     0.006 A 
ENDBRANCH  59  80
BRANCH  71  88
ATOM     88  C   UNL A   1      44.385  28.665  35.403  1.00  0.00     0.057 A 
ATOM     89  C   UNL A   1      44.307  27.446  36.086  1.00  0.00     0.134 A 
ATOM     90  C   UNL A   1      45.651  29.097  34.987  1.00  0.00     0.134 A 
ATOM     91  F   UNL A   1      43.125  26.985  36.521  1.00  0.00    -0.206 F 
ATOM     92  C   UNL A   1      45.450  26.692  36.360  1.00  0.00     0.040 A 
ATOM     93  C   UNL A   1      46.797  28.342  35.237  1.00  0.00     0.040 A 
ATOM     94  F   UNL A   1      45.791  30.254  34.322  1.00  0.00    -0.206 F 
ATOM     95  C   UNL A   1      46.698  27.137  35.930  1.00  0.00     0.006 A 
ENDBRANCH  71  88
ENDBRANCH  45  46
ENDBRANCH  37  40
ENDBRANCH  35  36
ENDBRANCH  34  35
ENDBRANCH  33  34
ENDBRANCH  32  33
ENDBRANCH   1  32
TORSDOF 18
ENDMDL
MODEL 2
REMARK VINA RESULT:     -11.6      1.600      2.548
REMARK SMILES COc1ccc(S(=O)(=O)N2CCC[C@H](C(=O)N3CCC[C@H](C(=O)NCCCCCCNC(=O)c4ccc(-c5c6nc(c(-c7c(F)cccc7F)c7ccc([nH]7)c(-c7c(F)cccc7F)c7nc(c(-c8c(F)cccc8F)c8ccc5[nH]8)C=C7)C=C6)cc4)C3)C2)cc1
REMARK SMILES IDX 26 1 25 2 24 3 22 4 23 5 21 7 17 8 18 9 88 10 19 11 20 12
REMARK SMILES IDX 15 13 16 14 14 15 10 16 11 17 89 18 12 19 13 20 7 21 8 22
REMARK SMILES IDX 9 23 6 24 3 25 4 26 91 27 5 28 90 29 2 30 1 31 27 32 28 33
REMARK SMILES IDX 29 34 30 35 31 36 32 37 33 39 34 40 35 41 87 42 36 43 86 44
REMARK SMILES IDX 37 45 38 46 39 47 80 48 40 49 85 50 79 51 81 52 41 53 84 54
REMARK SMILES IDX 78 55 77 56 42 58 68 59 51 60 67 61 52 62 55 63 66 64 82 65
REMARK SMILES IDX 53 66 54 67 65 69 83 70 56 71 43 72 44 73 49 74 45 75 46 76
REMARK SMILES IDX 48 77 50 78 47 79 69 80 70 81 75 82 71 83 72 84 74 85 76 86
REMARK SMILES IDX 73 87 57 88 58 89 63 90 59 91 60 92 62 93 64 94 61 95
REMARK H PARENT 24 6 31 38 81 57 55 68
REMARK Flexibility Score: inf
ROOT
ATOM      1  C   UNL A   1      34.893  31.492  28.004  1.00  0.00     0.021 C 
ENDROOT
BRANCH   1   2
ATOM      2  C   UNL A   1      33.733  30.750  27.351  1.00  0.00     0.116 C 
BRANCH   2   3
ATOM      3  N   UNL A   1      34.153  29.781  26.368  1.00  0.00    -0.356 N 
ATOM      4  C   UNL A   1      33.422  28.922  25.615  1.00  0.00     0.224 C 
ATOM      5  O   UNL A   1      34.026  28.327  24.715  1.00  0.00    -0.275 OA
ATOM      6  H   UNL A   1      35.125  29.739  26.218  1.00  0.00     0.163 HD
BRANCH   4   7
ATOM      7  C   UNL A   1      31.924  28.662  25.809  1.00  0.00     0.098 C 
ATOM      8  N   UNL A   1      31.205  26.260  25.719  1.00  0.00    -0.342 N 
ATOM      9  C   UNL A   1      30.192  26.542  24.705  1.00  0.00     0.119 C 
ATOM     10  C   UNL A   1      31.600  27.371  26.566  1.00  0.00     0.133 C 
ATOM     11  C   UNL A   1      30.544  27.729  23.816  1.00  0.00     0.022 C 
ATOM     12  C   UNL A   1      31.030  28.947  24.598  1.00  0.00     0.017 C 
BRANCH   8  13
ATOM     13  C   UNL A   1      31.815  25.023  25.720  1.00  0.00     0.227 C 
ATOM     14  O   UNL A   1      32.991  24.910  26.085  1.00  0.00    -0.275 OA
BRANCH  13  15
ATOM     15  C   UNL A   1      31.154  23.818  25.045  1.00  0.00     0.094 C 
ATOM     16  N   UNL A   1      33.192  22.436  24.951  1.00  0.00    -0.197 NA
ATOM     17  C   UNL A   1      33.350  22.592  23.495  1.00  0.00     0.102 C 
ATOM     18  C   UNL A   1      31.860  22.574  25.568  1.00  0.00     0.116 C 
ATOM     19  C   UNL A   1      32.188  23.244  22.751  1.00  0.00     0.018 C 
ATOM     20  C   UNL A   1      30.967  23.689  23.545  1.00  0.00     0.016 C 
BRANCH  16  21
ATOM     21  S   UNL A   1      34.341  21.471  25.749  1.00  0.00     0.243 S 
ATOM     22  O   UNL A   1      34.054  21.493  27.163  1.00  0.00    -0.207 OA
ATOM     23  O   UNL A   1      35.644  21.851  25.234  1.00  0.00    -0.207 OA
BRANCH  21  24
ATOM     24  C   UNL A   1      34.059  19.801  25.197  1.00  0.00     0.082 A 
ATOM     25  C   UNL A   1      33.540  17.141  24.509  1.00  0.00     0.118 A 
ATOM     26  C   UNL A   1      32.525  17.940  25.040  1.00  0.00     0.048 A 
ATOM     27  C   UNL A   1      34.801  17.689  24.278  1.00  0.00     0.048 A 
ATOM     28  C   UNL A   1      32.782  19.267  25.394  1.00  0.00     0.025 A 
ATOM     29  C   UNL A   1      35.062  19.015  24.626  1.00  0.00     0.025 A 
BRANCH  25  30
ATOM     30  O   UNL A   1      33.199  15.847  24.232  1.00  0.00    -0.497 OA
ATOM     31  C   UNL A   1      32.904  15.048  25.376  1.00  0.00     0.278 C 
ENDBRANCH  25  30
ENDBRANCH  21  24
ENDBRANCH  16  21
ENDBRANCH  13  15
ENDBRANCH   8  13
ENDBRANCH   4   7
ENDBRANCH   2   3
ENDBRANCH   1   2
BRANCH   1  32
ATOM     32  C   UNL A   1      34.464  32.582  28.988  1.00  0.00     0.002 C 
BRANCH  32  33
ATOM     33  C   UNL A   1      34.346  33.997  28.406  1.00  0.00     0.002 C 
BRANCH  33  34
ATOM     34  C   UNL A   1      33.071  34.771  28.757  1.00  0.00     0.021 C 
BRANCH  34  35
ATOM     35  C   UNL A   1      33.282  36.128  29.422  1.00  0.00     0.116 C 
BRANCH  35  36
ATOM     36  N   UNL A   1      32.441  36.316  30.592  1.00  0.00    -0.352 N 
ATOM     37  C   UNL A   1      32.568  35.825  31.864  1.00  0.00     0.251 C 
ATOM     38  H   UNL A   1      31.652  36.888  30.446  1.00  0.00     0.163 HD
ATOM     39  O   UNL A   1      31.657  35.983  32.673  1.00  0.00    -0.269 OA
BRANCH  37  40
ATOM     40  C   UNL A   1      33.787  35.092  32.271  1.00  0.00     0.039 A 
ATOM     41  C   UNL A   1      33.648  33.785  32.750  1.00  0.00     0.014 A 
ATOM     42  C   UNL A   1      35.047  35.694  32.231  1.00  0.00     0.014 A 
ATOM     43  C   UNL A   1      34.779  33.064  33.138  1.00  0.00     0.010 A 
ATOM     44  C   UNL A   1      36.181  34.954  32.564  1.00  0.00     0.010 A 
ATOM     45  C   UNL A   1      36.056  33.635  33.024  1.00  0.00    -0.014 A 
BRANCH  45  46
ATOM     46  C   UNL A   1      37.272  32.868  33.393  1.00  0.00     0.031 A 
ATOM     47  C   UNL A   1      37.973  33.141  34.693  1.00  0.00     0.074 A 
ATOM     48  C   UNL A   1      37.772  31.962  32.531  1.00  0.00     0.049 A 
ATOM     49  N   UNL A   1      39.083  32.627  35.158  1.00  0.00    -0.248 NA
ATOM     50  C   UNL A   1      37.355  34.141  35.579  1.00  0.00     0.031 C 
ATOM     51  C   UNL A   1      37.202  31.632  31.224  1.00  0.00     0.029 A 
ATOM     52  N   UNL A   1      38.879  31.158  32.624  1.00  0.00    -0.354 N 
ATOM     53  C   UNL A   1      39.304  33.248  36.379  1.00  0.00     0.074 A 
ATOM     54  C   UNL A   1      38.237  34.209  36.565  1.00  0.00     0.031 C 
ATOM     55  C   UNL A   1      37.952  30.681  30.645  1.00  0.00     0.029 A 
ATOM     56  C   UNL A   1      39.071  30.358  31.525  1.00  0.00     0.049 A 
ATOM     57  H   UNL A   1      39.480  31.156  33.404  1.00  0.00     0.167 HD
ATOM     58  C   UNL A   1      40.295  33.025  37.274  1.00  0.00     0.037 A 
ATOM     59  C   UNL A   1      40.044  29.468  31.255  1.00  0.00     0.037 A 
ATOM     60  C   UNL A   1      41.343  32.055  37.099  1.00  0.00     0.049 A 
ATOM     61  C   UNL A   1      41.135  29.241  32.262  1.00  0.00     0.074 A 
ATOM     62  C   UNL A   1      42.371  31.727  37.967  1.00  0.00     0.029 A 
ATOM     63  N   UNL A   1      41.495  31.253  35.978  1.00  0.00    -0.354 N 
ATOM     64  N   UNL A   1      41.309  29.806  33.433  1.00  0.00    -0.248 NA
ATOM     65  C   UNL A   1      42.162  28.250  31.913  1.00  0.00     0.031 C 
ATOM     66  C   UNL A   1      43.161  30.745  37.357  1.00  0.00     0.029 A 
ATOM     67  C   UNL A   1      42.605  30.438  36.126  1.00  0.00     0.049 A 
ATOM     68  H   UNL A   1      40.902  31.263  35.192  1.00  0.00     0.167 HD
ATOM     69  C   UNL A   1      42.449  29.223  33.969  1.00  0.00     0.074 A 
ATOM     70  C   UNL A   1      42.919  28.254  33.002  1.00  0.00     0.031 C 
ATOM     71  C   UNL A   1      43.053  29.472  35.157  1.00  0.00     0.037 A 
BRANCH  58  72
ATOM     72  C   UNL A   1      40.285  33.845  38.531  1.00  0.00     0.057 A 
ATOM     73  C   UNL A   1      39.530  33.467  39.649  1.00  0.00     0.134 A 
ATOM     74  C   UNL A   1      41.057  35.009  38.636  1.00  0.00     0.134 A 
ATOM     75  F   UNL A   1      38.759  32.369  39.609  1.00  0.00    -0.206 F 
ATOM     76  C   UNL A   1      39.525  34.230  40.818  1.00  0.00     0.040 A 
ATOM     77  C   UNL A   1      41.079  35.767  39.807  1.00  0.00     0.040 A 
ATOM     78  F   UNL A   1      41.807  35.424  37.603  1.00  0.00    -0.206 F 
ATOM     79  C   UNL A   1      40.305  35.381  40.901  1.00  0.00     0.006 A 
ENDBRANCH  58  72
BRANCH  59  80
ATOM     80  C   UNL A   1      40.012  28.701  29.986  1.00  0.00     0.057 A 
ATOM     81  C   UNL A   1      39.280  27.513  29.884  1.00  0.00     0.134 A 
ATOM     82  C   UNL A   1      40.703  29.135  28.850  1.00  0.00     0.134 A 
ATOM     83  F   UNL A   1      38.612  27.039  30.946  1.00  0.00    -0.206 F 
ATOM     84  C   UNL A   1      39.244  26.776  28.699  1.00  0.00     0.040 A 
ATOM     85  C   UNL A   1      40.659  28.419  27.652  1.00  0.00     0.040 A 
ATOM     86  F   UNL A   1      41.419  30.268  28.884  1.00  0.00    -0.206 F 
ATOM     87  C   UNL A   1      39.931  27.233  27.576  1.00  0.00     0.006 A 
ENDBRANCH  59  80
BRANCH  71  88
ATOM     88  C   UNL A   1      44.267  28.658  35.489  1.00  0.00     0.057 A 
ATOM     89  C   UNL A   1      45.556  29.087  35.154  1.00  0.00     0.134 A 
ATOM     90  C   UNL A   1      44.145  27.450  36.187  1.00  0.00     0.134 A 
ATOM     91  F   UNL A   1      45.737  30.230  34.474  1.00  0.00    -0.206 F 
ATOM     92  C   UNL A   1      46.683  28.333  35.486  1.00  0.00     0.040 A 
ATOM     93  C   UNL A   1      45.265  26.698  36.543  1.00  0.00     0.040 A 
ATOM     94  F   UNL A   1      42.937  26.988  36.543  1.00  0.00    -0.206 F 
ATOM     95  C   UNL A   1      46.539  27.137  36.188  1.00  0.00     0.006 A 
ENDBRANCH  71  88
ENDBRANCH  45  46
ENDBRANCH  37  40
ENDBRANCH  35  36
ENDBRANCH  34  35
ENDBRANCH  33  34
ENDBRANCH  32  33
ENDBRANCH   1  32
TORSDOF 18
ENDMDL
MODEL 3
REMARK VINA RESULT:     -11.6      4.772     10.423
REMARK SMILES COc1ccc(S(=O)(=O)N2CCC[C@H](C(=O)N3CCC[C@H](C(=O)NCCCCCCNC(=O)c4ccc(-c5c6nc(c(-c7c(F)cccc7F)c7ccc([nH]7)c(-c7c(F)cccc7F)c7nc(c(-c8c(F)cccc8F)c8ccc5[nH]8)C=C7)C=C6)cc4)C3)C2)cc1
REMARK SMILES IDX 26 1 25 2 24 3 22 4 23 5 21 7 17 8 18 9 88 10 19 11 20 12
REMARK SMILES IDX 15 13 16 14 14 15 10 16 11 17 89 18 12 19 13 20 7 21 8 22
REMARK SMILES IDX 9 23 6 24 3 25 4 26 91 27 5 28 90 29 2 30 1 31 27 32 28 33
REMARK SMILES IDX 29 34 30 35 31 36 32 37 33 39 34 40 35 41 87 42 36 43 86 44
REMARK SMILES IDX 37 45 38 46 39 47 80 48 40 49 85 50 79 51 81 52 41 53 84 54
REMARK SMILES IDX 78 55 77 56 42 58 68 59 51 60 67 61 52 62 55 63 66 64 82 65
REMARK SMILES IDX 53 66 54 67 65 69 83 70 56 71 43 72 44 73 49 74 45 75 46 76
REMARK SMILES IDX 48 77 50 78 47 79 69 80 70 81 75 82 71 83 72 84 74 85 76 86
REMARK SMILES IDX 73 87 57 88 58 89 63 90 59 91 60 92 62 93 64 94 61 95
REMARK H PARENT 24 6 31 38 81 57 55 68
REMARK Flexibility Score: inf
ROOT
ATOM      1  C   UNL A   1      35.192  21.844  26.637  1.00  0.00     0.021 C 
ENDROOT
BRANCH   1   2
ATOM      2  C   UNL A   1      33.847  21.251  26.235  1.00  0.00     0.116 C 
BRANCH   2   3
ATOM      3  N   UNL A   1      32.794  22.234  26.138  1.00  0.00    -0.356 N 
ATOM      4  C   UNL A   1      32.563  23.180  25.195  1.00  0.00     0.224 C 
ATOM      5  O   UNL A   1      31.479  23.773  25.263  1.00  0.00    -0.275 OA
ATOM      6  H   UNL A   1      32.139  22.212  26.872  1.00  0.00     0.163 HD
BRANCH   4   7
ATOM      7  C   UNL A   1      33.543  23.541  24.072  1.00  0.00     0.098 C 
ATOM      8  N   UNL A   1      33.981  25.988  23.739  1.00  0.00    -0.342 N 
ATOM      9  C   UNL A   1      33.653  25.912  22.318  1.00  0.00     0.119 C 
ATOM     10  C   UNL A   1      34.423  24.756  24.369  1.00  0.00     0.133 C 
ATOM     11  C   UNL A   1      32.651  24.811  21.989  1.00  0.00     0.022 C 
ATOM     12  C   UNL A   1      32.984  23.473  22.646  1.00  0.00     0.017 C 
BRANCH   8  13
ATOM     13  C   UNL A   1      33.722  27.161  24.416  1.00  0.00     0.227 C 
ATOM     14  O   UNL A   1      34.443  28.152  24.243  1.00  0.00    -0.275 OA
BRANCH  13  15
ATOM     15  C   UNL A   1      32.715  27.199  25.568  1.00  0.00     0.094 C 
ATOM     16  N   UNL A   1      30.851  28.111  24.240  1.00  0.00    -0.197 NA
ATOM     17  C   UNL A   1      30.927  29.443  24.862  1.00  0.00     0.102 C 
ATOM     18  C   UNL A   1      31.342  26.927  24.967  1.00  0.00     0.116 C 
ATOM     19  C   UNL A   1      31.841  29.574  26.076  1.00  0.00     0.018 C 
ATOM     20  C   UNL A   1      32.605  28.347  26.556  1.00  0.00     0.016 C 
BRANCH  16  21
ATOM     21  S   UNL A   1      29.638  27.878  23.071  1.00  0.00     0.243 S 
ATOM     22  O   UNL A   1      28.557  27.138  23.675  1.00  0.00    -0.207 OA
ATOM     23  O   UNL A   1      30.298  27.408  21.866  1.00  0.00    -0.207 OA
BRANCH  21  24
ATOM     24  C   UNL A   1      28.999  29.495  22.687  1.00  0.00     0.082 A 
ATOM     25  C   UNL A   1      28.182  32.099  22.080  1.00  0.00     0.118 A 
ATOM     26  C   UNL A   1      29.140  31.461  21.289  1.00  0.00     0.048 A 
ATOM     27  C   UNL A   1      27.598  31.414  23.145  1.00  0.00     0.048 A 
ATOM     28  C   UNL A   1      29.558  30.164  21.594  1.00  0.00     0.025 A 
ATOM     29  C   UNL A   1      28.009  30.117  23.451  1.00  0.00     0.025 A 
BRANCH  25  30
ATOM     30  O   UNL A   1      27.869  33.381  21.723  1.00  0.00    -0.497 OA
ATOM     31  C   UNL A   1      27.379  33.529  20.393  1.00  0.00     0.278 C 
ENDBRANCH  25  30
ENDBRANCH  21  24
ENDBRANCH  16  21
ENDBRANCH  13  15
ENDBRANCH   8  13
ENDBRANCH   4   7
ENDBRANCH   2   3
ENDBRANCH   1   2
BRANCH   1  32
ATOM     32  C   UNL A   1      36.318  21.576  25.637  1.00  0.00     0.002 C 
BRANCH  32  33
ATOM     33  C   UNL A   1      36.289  20.205  24.951  1.00  0.00     0.002 C 
BRANCH  33  34
ATOM     34  C   UNL A   1      37.617  19.443  24.900  1.00  0.00     0.021 C 
BRANCH  34  35
ATOM     35  C   UNL A   1      38.797  20.122  25.589  1.00  0.00     0.116 C 
BRANCH  35  36
ATOM     36  N   UNL A   1      39.962  19.258  25.687  1.00  0.00    -0.352 N 
ATOM     37  C   UNL A   1      41.249  19.543  26.058  1.00  0.00     0.251 C 
ATOM     38  H   UNL A   1      39.798  18.316  25.450  1.00  0.00     0.163 HD
ATOM     39  O   UNL A   1      42.124  18.690  25.927  1.00  0.00    -0.269 OA
BRANCH  37  40
ATOM     40  C   UNL A   1      41.601  20.873  26.600  1.00  0.00     0.039 A 
ATOM     41  C   UNL A   1      42.076  21.848  25.717  1.00  0.00     0.014 A 
ATOM     42  C   UNL A   1      41.514  21.149  27.967  1.00  0.00     0.014 A 
ATOM     43  C   UNL A   1      42.412  23.115  26.196  1.00  0.00     0.010 A 
ATOM     44  C   UNL A   1      41.795  22.431  28.436  1.00  0.00     0.010 A 
ATOM     45  C   UNL A   1      42.251  23.424  27.555  1.00  0.00    -0.014 A 
BRANCH  45  46
ATOM     46  C   UNL A   1      42.564  24.778  28.074  1.00  0.00     0.031 A 
ATOM     47  C   UNL A   1      43.971  25.131  28.468  1.00  0.00     0.074 A 
ATOM     48  C   UNL A   1      41.571  25.673  28.238  1.00  0.00     0.049 A 
ATOM     49  N   UNL A   1      44.427  26.233  29.005  1.00  0.00    -0.248 NA
ATOM     50  C   UNL A   1      44.996  24.098  28.248  1.00  0.00     0.031 C 
ATOM     51  C   UNL A   1      40.160  25.438  27.925  1.00  0.00     0.029 A 
ATOM     52  N   UNL A   1      41.597  26.957  28.717  1.00  0.00    -0.354 N 
ATOM     53  C   UNL A   1      45.786  26.023  29.199  1.00  0.00     0.074 A 
ATOM     54  C   UNL A   1      46.072  24.673  28.765  1.00  0.00     0.031 C 
ATOM     55  C   UNL A   1      39.459  26.549  28.201  1.00  0.00     0.029 A 
ATOM     56  C   UNL A   1      40.363  27.560  28.740  1.00  0.00     0.049 A 
ATOM     57  H   UNL A   1      42.421  27.404  29.017  1.00  0.00     0.167 HD
ATOM     58  C   UNL A   1      46.714  26.884  29.680  1.00  0.00     0.037 A 
ATOM     59  C   UNL A   1      40.002  28.789  29.155  1.00  0.00     0.037 A 
ATOM     60  C   UNL A   1      46.432  28.234  30.092  1.00  0.00     0.049 A 
ATOM     61  C   UNL A   1      41.049  29.724  29.687  1.00  0.00     0.074 A 
ATOM     62  C   UNL A   1      47.312  29.197  30.555  1.00  0.00     0.029 A 
ATOM     63  N   UNL A   1      45.171  28.813  30.086  1.00  0.00    -0.354 N 
ATOM     64  N   UNL A   1      42.338  29.527  29.828  1.00  0.00    -0.248 NA
ATOM     65  C   UNL A   1      40.594  31.054  30.114  1.00  0.00     0.031 C 
ATOM     66  C   UNL A   1      46.578  30.350  30.857  1.00  0.00     0.029 A 
ATOM     67  C   UNL A   1      45.248  30.116  30.548  1.00  0.00     0.049 A 
ATOM     68  H   UNL A   1      44.345  28.363  29.798  1.00  0.00     0.167 HD
ATOM     69  C   UNL A   1      42.850  30.713  30.336  1.00  0.00     0.074 A 
ATOM     70  C   UNL A   1      41.735  31.627  30.470  1.00  0.00     0.031 C 
ATOM     71  C   UNL A   1      44.130  31.015  30.666  1.00  0.00     0.037 A 
BRANCH  58  72
ATOM     72  C   UNL A   1      48.127  26.389  29.777  1.00  0.00     0.057 A 
ATOM     73  C   UNL A   1      48.605  25.754  30.931  1.00  0.00     0.134 A 
ATOM     74  C   UNL A   1      49.011  26.525  28.699  1.00  0.00     0.134 A 
ATOM     75  F   UNL A   1      47.813  25.605  32.003  1.00  0.00    -0.206 F 
ATOM     76  C   UNL A   1      49.920  25.292  31.017  1.00  0.00     0.040 A 
ATOM     77  C   UNL A   1      50.320  26.045  28.765  1.00  0.00     0.040 A 
ATOM     78  F   UNL A   1      48.614  27.119  27.564  1.00  0.00    -0.206 F 
ATOM     79  C   UNL A   1      50.779  25.433  29.930  1.00  0.00     0.006 A 
ENDBRANCH  58  72
BRANCH  59  80
ATOM     80  C   UNL A   1      38.585  29.216  29.052  1.00  0.00     0.057 A 
ATOM     81  C   UNL A   1      37.737  29.157  30.163  1.00  0.00     0.134 A 
ATOM     82  C   UNL A   1      38.049  29.694  27.852  1.00  0.00     0.134 A 
ATOM     83  F   UNL A   1      38.191  28.690  31.336  1.00  0.00    -0.206 F 
ATOM     84  C   UNL A   1      36.400  29.549  30.082  1.00  0.00     0.040 A 
ATOM     85  C   UNL A   1      36.718  30.109  27.762  1.00  0.00     0.040 A 
ATOM     86  F   UNL A   1      38.813  29.777  26.754  1.00  0.00    -0.206 F 
ATOM     87  C   UNL A   1      35.889  30.033  28.879  1.00  0.00     0.006 A 
ENDBRANCH  59  80
BRANCH  71  88
ATOM     88  C   UNL A   1      44.396  32.402  31.168  1.00  0.00     0.057 A 
ATOM     89  C   UNL A   1      44.726  33.449  30.300  1.00  0.00     0.134 A 
ATOM     90  C   UNL A   1      44.284  32.699  32.532  1.00  0.00     0.134 A 
ATOM     91  F   UNL A   1      44.860  33.225  28.984  1.00  0.00    -0.206 F 
ATOM     92  C   UNL A   1      44.951  34.743  30.774  1.00  0.00     0.040 A 
ATOM     93  C   UNL A   1      44.486  33.993  33.015  1.00  0.00     0.040 A 
ATOM     94  F   UNL A   1      43.965  31.740  33.414  1.00  0.00    -0.206 F 
ATOM     95  C   UNL A   1      44.826  35.018  32.134  1.00  0.00     0.006 A 
ENDBRANCH  71  88
ENDBRANCH  45  46
ENDBRANCH  37  40
ENDBRANCH  35  36
ENDBRANCH  34  35
ENDBRANCH  33  34
ENDBRANCH  32  33
ENDBRANCH   1  32
TORSDOF 18
ENDMDL
