MODEL 1
REMARK VINA RESULT:     -10.8      0.000      0.000
REMARK SMILES CC1(C)CCC[C@H]1NS(=O)(=O)c1cccc(C(=O)NCCCCCCNC(=O)c2ccc(-c3c4nc(c(-c5c(F)cccc5F)c5ccc([nH]5)c(-c5c(F)cccc5F)c5nc(c(-c6c(F)cccc6F)c6ccc3[nH]6)C=C5)C=C4)cc2)c1
REMARK SMILES IDX 22 1 21 2 20 3 19 4 17 5 18 6 16 8 12 9 13 10 83 11 14 12
REMARK SMILES IDX 15 13 9 14 10 15 11 16 8 17 7 19 1 20 2 21 3 22 4 23 5 24
REMARK SMILES IDX 6 25 23 26 24 27 25 28 26 29 27 30 28 32 29 33 30 34 82 35
REMARK SMILES IDX 31 36 81 37 32 38 33 39 34 40 75 41 35 42 80 43 74 44 76 45
REMARK SMILES IDX 36 46 79 47 73 48 72 49 37 51 63 52 46 53 62 54 47 55 50 56
REMARK SMILES IDX 61 57 77 58 48 59 49 60 60 62 78 63 51 64 38 65 39 66 44 67
REMARK SMILES IDX 40 68 41 69 43 70 45 71 42 72 64 73 65 74 70 75 66 76 67 77
REMARK SMILES IDX 69 78 71 79 68 80 52 81 53 82 58 83 54 84 55 85 57 86 59 87
REMARK SMILES IDX 56 88
REMARK H PARENT 19 7 8 18 26 31 76 50 50 61
REMARK Flexibility Score: inf
ROOT
ATOM      1  C   UNL A   1      37.604  23.685  25.654  1.00  0.00     0.002 C 
ENDROOT
BRANCH   1   2
ATOM      2  C   UNL A   1      36.237  23.239  25.142  1.00  0.00     0.021 C 
BRANCH   2   3
ATOM      3  C   UNL A   1      35.431  22.317  26.047  1.00  0.00     0.116 C 
BRANCH   3   4
ATOM      4  N   UNL A   1      35.028  21.055  25.445  1.00  0.00    -0.352 N 
ATOM      5  C   UNL A   1      33.885  20.740  24.735  1.00  0.00     0.251 C 
ATOM      6  O   UNL A   1      33.716  19.599  24.318  1.00  0.00    -0.269 OA
ATOM      7  H   UNL A   1      35.666  20.313  25.559  1.00  0.00     0.163 HD
BRANCH   5   8
ATOM      8  C   UNL A   1      32.823  21.759  24.530  1.00  0.00     0.041 A 
ATOM      9  C   UNL A   1      32.102  23.830  23.535  1.00  0.00     0.083 A 
ATOM     10  C   UNL A   1      31.063  23.944  24.455  1.00  0.00     0.022 A 
ATOM     11  C   UNL A   1      32.914  22.695  23.509  1.00  0.00     0.035 A 
ATOM     12  C   UNL A   1      30.861  22.910  25.375  1.00  0.00     0.002 A 
ATOM     13  C   UNL A   1      31.754  21.831  25.430  1.00  0.00     0.014 A 
BRANCH   9  14
ATOM     14  S   UNL A   1      32.593  25.134  22.449  1.00  0.00     0.240 S 
ATOM     15  O   UNL A   1      31.396  25.619  21.800  1.00  0.00    -0.207 OA
ATOM     16  O   UNL A   1      33.698  24.613  21.675  1.00  0.00    -0.207 OA
BRANCH  14  17
ATOM     17  N   UNL A   1      33.239  26.349  23.394  1.00  0.00    -0.208 NA
ATOM     18  H   UNL A   1      33.955  25.907  23.970  1.00  0.00     0.141 HD
BRANCH  17  19
ATOM     19  C   UNL A   1      32.426  27.161  24.307  1.00  0.00     0.075 C 
ATOM     20  C   UNL A   1      33.686  25.746  26.119  1.00  0.00     0.013 C 
ATOM     21  C   UNL A   1      32.968  27.057  25.764  1.00  0.00    -0.019 C 
ATOM     22  C   UNL A   1      31.804  27.237  26.761  1.00  0.00     0.013 C 
ATOM     23  C   UNL A   1      33.945  28.242  25.845  1.00  0.00     0.008 C 
ATOM     24  C   UNL A   1      33.247  29.357  25.088  1.00  0.00     0.002 C 
ATOM     25  C   UNL A   1      32.498  28.658  23.959  1.00  0.00     0.020 C 
ENDBRANCH  17  19
ENDBRANCH  14  17
ENDBRANCH   9  14
ENDBRANCH   5   8
ENDBRANCH   3   4
ENDBRANCH   2   3
ENDBRANCH   1   2
BRANCH   1  26
ATOM     26  C   UNL A   1      38.532  22.593  26.191  1.00  0.00     0.002 C 
BRANCH  26  27
ATOM     27  C   UNL A   1      38.745  21.361  25.308  1.00  0.00     0.021 C 
BRANCH  27  28
ATOM     28  C   UNL A   1      38.734  20.005  26.007  1.00  0.00     0.116 C 
BRANCH  28  29
ATOM     29  N   UNL A   1      39.945  19.236  25.790  1.00  0.00    -0.352 N 
ATOM     30  C   UNL A   1      41.261  19.576  25.981  1.00  0.00     0.251 C 
ATOM     31  H   UNL A   1      39.799  18.323  25.450  1.00  0.00     0.163 HD
ATOM     32  O   UNL A   1      42.142  18.793  25.634  1.00  0.00    -0.269 OA
BRANCH  30  33
ATOM     33  C   UNL A   1      41.643  20.880  26.572  1.00  0.00     0.039 A 
ATOM     34  C   UNL A   1      42.194  21.852  25.728  1.00  0.00     0.014 A 
ATOM     35  C   UNL A   1      41.520  21.145  27.939  1.00  0.00     0.014 A 
ATOM     36  C   UNL A   1      42.571  23.095  26.241  1.00  0.00     0.010 A 
ATOM     37  C   UNL A   1      41.839  22.409  28.440  1.00  0.00     0.010 A 
ATOM     38  C   UNL A   1      42.376  23.394  27.598  1.00  0.00    -0.014 A 
BRANCH  38  39
ATOM     39  C   UNL A   1      42.740  24.729  28.140  1.00  0.00     0.031 A 
ATOM     40  C   UNL A   1      41.688  25.784  28.346  1.00  0.00     0.074 A 
ATOM     41  C   UNL A   1      44.029  25.006  28.417  1.00  0.00     0.049 A 
ATOM     42  N   UNL A   1      41.819  27.005  28.799  1.00  0.00    -0.248 NA
ATOM     43  C   UNL A   1      40.312  25.426  27.971  1.00  0.00     0.031 C 
ATOM     44  C   UNL A   1      45.154  24.093  28.214  1.00  0.00     0.029 A 
ATOM     45  N   UNL A   1      44.609  26.142  28.925  1.00  0.00    -0.354 N 
ATOM     46  C   UNL A   1      40.550  27.565  28.750  1.00  0.00     0.074 A 
ATOM     47  C   UNL A   1      39.670  26.566  28.182  1.00  0.00     0.031 C 
ATOM     48  C   UNL A   1      46.285  24.695  28.614  1.00  0.00     0.029 A 
ATOM     49  C   UNL A   1      45.970  26.041  29.082  1.00  0.00     0.049 A 
ATOM     50  H   UNL A   1      44.098  26.951  29.154  1.00  0.00     0.167 HD
ATOM     51  C   UNL A   1      40.146  28.793  29.160  1.00  0.00     0.037 A 
ATOM     52  C   UNL A   1      46.862  26.931  29.555  1.00  0.00     0.037 A 
ATOM     53  C   UNL A   1      41.012  29.780  29.752  1.00  0.00     0.049 A 
ATOM     54  C   UNL A   1      46.387  28.274  30.033  1.00  0.00     0.074 A 
ATOM     55  C   UNL A   1      40.684  31.026  30.256  1.00  0.00     0.029 A 
ATOM     56  N   UNL A   1      42.380  29.628  29.921  1.00  0.00    -0.354 N 
ATOM     57  N   UNL A   1      45.172  28.764  30.044  1.00  0.00    -0.248 NA
ATOM     58  C   UNL A   1      47.407  29.181  30.577  1.00  0.00     0.031 C 
ATOM     59  C   UNL A   1      41.859  31.642  30.702  1.00  0.00     0.029 A 
ATOM     60  C   UNL A   1      42.913  30.764  30.509  1.00  0.00     0.049 A 
ATOM     61  H   UNL A   1      42.896  28.831  29.662  1.00  0.00     0.167 HD
ATOM     62  C   UNL A   1      45.276  30.026  30.613  1.00  0.00     0.074 A 
ATOM     63  C   UNL A   1      46.672  30.219  30.949  1.00  0.00     0.031 C 
ATOM     64  C   UNL A   1      44.304  30.943  30.837  1.00  0.00     0.037 A 
BRANCH  51  65
ATOM     65  C   UNL A   1      38.696  29.133  28.982  1.00  0.00     0.057 A 
ATOM     66  C   UNL A   1      37.782  29.039  30.040  1.00  0.00     0.134 A 
ATOM     67  C   UNL A   1      38.211  29.579  27.746  1.00  0.00     0.134 A 
ATOM     68  F   UNL A   1      38.181  28.608  31.246  1.00  0.00    -0.206 F 
ATOM     69  C   UNL A   1      36.433  29.349  29.868  1.00  0.00     0.040 A 
ATOM     70  C   UNL A   1      36.868  29.915  27.568  1.00  0.00     0.040 A 
ATOM     71  F   UNL A   1      39.034  29.698  26.694  1.00  0.00    -0.206 F 
ATOM     72  C   UNL A   1      35.973  29.793  28.630  1.00  0.00     0.006 A 
ENDBRANCH  51  65
BRANCH  52  73
ATOM     73  C   UNL A   1      48.297  26.565  29.637  1.00  0.00     0.057 A 
ATOM     74  C   UNL A   1      48.797  25.859  30.738  1.00  0.00     0.134 A 
ATOM     75  C   UNL A   1      49.198  26.905  28.623  1.00  0.00     0.134 A 
ATOM     76  F   UNL A   1      47.983  25.522  31.749  1.00  0.00    -0.206 F 
ATOM     77  C   UNL A   1      50.146  25.518  30.835  1.00  0.00     0.040 A 
ATOM     78  C   UNL A   1      50.546  26.554  28.697  1.00  0.00     0.040 A 
ATOM     79  F   UNL A   1      48.777  27.577  27.541  1.00  0.00    -0.206 F 
ATOM     80  C   UNL A   1      51.024  25.862  29.809  1.00  0.00     0.006 A 
ENDBRANCH  52  73
BRANCH  64  81
ATOM     81  C   UNL A   1      44.716  32.226  31.494  1.00  0.00     0.057 A 
ATOM     82  C   UNL A   1      44.724  32.371  32.887  1.00  0.00     0.134 A 
ATOM     83  C   UNL A   1      45.124  33.323  30.725  1.00  0.00     0.134 A 
ATOM     84  F   UNL A   1      44.331  31.361  33.678  1.00  0.00    -0.206 F 
ATOM     85  C   UNL A   1      45.101  33.571  33.492  1.00  0.00     0.040 A 
ATOM     86  C   UNL A   1      45.523  34.521  31.320  1.00  0.00     0.040 A 
ATOM     87  F   UNL A   1      45.144  33.247  29.387  1.00  0.00    -0.206 F 
ATOM     88  C   UNL A   1      45.506  34.649  32.707  1.00  0.00     0.006 A 
ENDBRANCH  64  81
ENDBRANCH  38  39
ENDBRANCH  30  33
ENDBRANCH  28  29
ENDBRANCH  27  28
ENDBRANCH  26  27
ENDBRANCH   1  26
TORSDOF 16
ENDMDL
MODEL 2
REMARK VINA RESULT:     -10.8      5.355     10.044
REMARK SMILES CC1(C)CCC[C@H]1NS(=O)(=O)c1cccc(C(=O)NCCCCCCNC(=O)c2ccc(-c3c4nc(c(-c5c(F)cccc5F)c5ccc([nH]5)c(-c5c(F)cccc5F)c5nc(c(-c6c(F)cccc6F)c6ccc3[nH]6)C=C5)C=C4)cc2)c1
REMARK SMILES IDX 22 1 21 2 20 3 19 4 17 5 18 6 16 8 12 9 13 10 83 11 14 12
REMARK SMILES IDX 15 13 9 14 10 15 11 16 8 17 7 19 1 20 2 21 3 22 4 23 5 24
REMARK SMILES IDX 6 25 23 26 24 27 25 28 26 29 27 30 28 32 29 33 30 34 82 35
REMARK SMILES IDX 31 36 81 37 32 38 33 39 34 40 75 41 35 42 80 43 74 44 76 45
REMARK SMILES IDX 36 46 79 47 73 48 72 49 37 51 63 52 46 53 62 54 47 55 50 56
REMARK SMILES IDX 61 57 77 58 48 59 49 60 60 62 78 63 51 64 38 65 39 66 44 67
REMARK SMILES IDX 40 68 41 69 43 70 45 71 42 72 64 73 65 74 70 75 66 76 67 77
REMARK SMILES IDX 69 78 71 79 68 80 52 81 53 82 58 83 54 84 55 85 57 86 59 87
REMARK SMILES IDX 56 88
REMARK H PARENT 19 7 8 18 26 31 76 50 50 61
REMARK Flexibility Score: inf
ROOT
ATOM      1  C   UNL A   1      34.910  32.798  27.920  1.00  0.00     0.002 C 
ENDROOT
BRANCH   1   2
ATOM      2  C   UNL A   1      34.871  31.297  28.197  1.00  0.00     0.021 C 
BRANCH   2   3
ATOM      3  C   UNL A   1      34.023  30.447  27.260  1.00  0.00     0.116 C 
BRANCH   3   4
ATOM      4  N   UNL A   1      33.012  29.628  27.912  1.00  0.00    -0.352 N 
ATOM      5  C   UNL A   1      32.350  28.507  27.450  1.00  0.00     0.251 C 
ATOM      6  O   UNL A   1      31.505  27.960  28.152  1.00  0.00    -0.269 OA
ATOM      7  H   UNL A   1      32.762  29.916  28.821  1.00  0.00     0.163 HD
BRANCH   5   8
ATOM      8  C   UNL A   1      32.604  27.996  26.079  1.00  0.00     0.041 A 
ATOM      9  C   UNL A   1      31.809  27.572  23.844  1.00  0.00     0.083 A 
ATOM     10  C   UNL A   1      32.829  26.650  23.625  1.00  0.00     0.022 A 
ATOM     11  C   UNL A   1      31.756  28.315  25.026  1.00  0.00     0.035 A 
ATOM     12  C   UNL A   1      33.790  26.458  24.624  1.00  0.00     0.002 A 
ATOM     13  C   UNL A   1      33.664  27.110  25.858  1.00  0.00     0.014 A 
BRANCH   9  14
ATOM     14  S   UNL A   1      30.427  27.777  22.762  1.00  0.00     0.240 S 
ATOM     15  O   UNL A   1      29.316  27.067  23.355  1.00  0.00    -0.207 OA
ATOM     16  O   UNL A   1      30.904  27.440  21.439  1.00  0.00    -0.207 OA
BRANCH  14  17
ATOM     17  N   UNL A   1      30.076  29.408  22.712  1.00  0.00    -0.208 NA
ATOM     18  H   UNL A   1      30.508  29.814  23.542  1.00  0.00     0.141 HD
BRANCH  17  19
ATOM     19  C   UNL A   1      28.703  29.923  22.676  1.00  0.00     0.075 C 
ATOM     20  C   UNL A   1      29.683  31.651  24.387  1.00  0.00     0.013 C 
ATOM     21  C   UNL A   1      28.633  31.346  23.307  1.00  0.00    -0.019 C 
ATOM     22  C   UNL A   1      27.240  31.564  23.935  1.00  0.00     0.013 C 
ATOM     23  C   UNL A   1      28.833  32.264  22.090  1.00  0.00     0.008 C 
ATOM     24  C   UNL A   1      28.043  31.595  20.981  1.00  0.00     0.002 C 
ATOM     25  C   UNL A   1      28.196  30.100  21.234  1.00  0.00     0.020 C 
ENDBRANCH  17  19
ENDBRANCH  14  17
ENDBRANCH   9  14
ENDBRANCH   5   8
ENDBRANCH   3   4
ENDBRANCH   2   3
ENDBRANCH   1   2
BRANCH   1  26
ATOM     26  C   UNL A   1      34.574  33.726  29.089  1.00  0.00     0.002 C 
BRANCH  26  27
ATOM     27  C   UNL A   1      33.266  34.516  29.000  1.00  0.00     0.021 C 
BRANCH  27  28
ATOM     28  C   UNL A   1      33.293  35.950  29.524  1.00  0.00     0.116 C 
BRANCH  28  29
ATOM     29  N   UNL A   1      32.473  36.146  30.705  1.00  0.00    -0.352 N 
ATOM     30  C   UNL A   1      32.645  35.699  31.991  1.00  0.00     0.251 C 
ATOM     31  H   UNL A   1      31.663  36.687  30.560  1.00  0.00     0.163 HD
ATOM     32  O   UNL A   1      31.764  35.904  32.823  1.00  0.00    -0.269 OA
BRANCH  30  33
ATOM     33  C   UNL A   1      33.859  34.949  32.392  1.00  0.00     0.039 A 
ATOM     34  C   UNL A   1      35.099  35.584  32.263  1.00  0.00     0.014 A 
ATOM     35  C   UNL A   1      33.805  33.626  32.840  1.00  0.00     0.014 A 
ATOM     36  C   UNL A   1      36.271  34.916  32.627  1.00  0.00     0.010 A 
ATOM     37  C   UNL A   1      34.969  32.980  33.261  1.00  0.00     0.010 A 
ATOM     38  C   UNL A   1      36.215  33.615  33.151  1.00  0.00    -0.014 A 
BRANCH  38  39
ATOM     39  C   UNL A   1      37.455  32.915  33.575  1.00  0.00     0.031 A 
ATOM     40  C   UNL A   1      38.085  31.873  32.692  1.00  0.00     0.074 A 
ATOM     41  C   UNL A   1      37.999  33.191  34.776  1.00  0.00     0.049 A 
ATOM     42  N   UNL A   1      39.160  31.154  32.898  1.00  0.00    -0.248 NA
ATOM     43  C   UNL A   1      37.406  31.587  31.420  1.00  0.00     0.031 C 
ATOM     44  C   UNL A   1      37.459  34.139  35.752  1.00  0.00     0.029 A 
ATOM     45  N   UNL A   1      39.126  32.695  35.382  1.00  0.00    -0.354 N 
ATOM     46  C   UNL A   1      39.277  30.322  31.793  1.00  0.00     0.074 A 
ATOM     47  C   UNL A   1      38.140  30.594  30.939  1.00  0.00     0.031 C 
ATOM     48  C   UNL A   1      38.266  34.172  36.823  1.00  0.00     0.029 A 
ATOM     49  C   UNL A   1      39.367  33.236  36.621  1.00  0.00     0.049 A 
ATOM     50  H   UNL A   1      39.705  32.015  34.968  1.00  0.00     0.167 HD
ATOM     51  C   UNL A   1      40.253  29.427  31.502  1.00  0.00     0.037 A 
ATOM     52  C   UNL A   1      40.367  33.007  37.494  1.00  0.00     0.037 A 
ATOM     53  C   UNL A   1      41.401  29.175  32.334  1.00  0.00     0.049 A 
ATOM     54  C   UNL A   1      41.454  32.034  37.136  1.00  0.00     0.074 A 
ATOM     55  C   UNL A   1      42.473  28.333  32.094  1.00  0.00     0.029 A 
ATOM     56  N   UNL A   1      41.624  29.765  33.569  1.00  0.00    -0.354 N 
ATOM     57  N   UNL A   1      41.588  31.305  36.056  1.00  0.00    -0.248 NA
ATOM     58  C   UNL A   1      42.537  31.863  38.115  1.00  0.00     0.031 C 
ATOM     59  C   UNL A   1      43.332  28.392  33.198  1.00  0.00     0.029 A 
ATOM     60  C   UNL A   1      42.811  29.297  34.109  1.00  0.00     0.049 A 
ATOM     61  H   UNL A   1      41.028  30.421  33.997  1.00  0.00     0.167 HD
ATOM     62  C   UNL A   1      42.776  30.605  36.213  1.00  0.00     0.074 A 
ATOM     63  C   UNL A   1      43.335  31.011  37.487  1.00  0.00     0.031 C 
ATOM     64  C   UNL A   1      43.354  29.708  35.378  1.00  0.00     0.037 A 
BRANCH  51  65
ATOM     65  C   UNL A   1      40.118  28.657  30.222  1.00  0.00     0.057 A 
ATOM     66  C   UNL A   1      39.369  27.474  30.149  1.00  0.00     0.134 A 
ATOM     67  C   UNL A   1      40.725  29.111  29.045  1.00  0.00     0.134 A 
ATOM     68  F   UNL A   1      38.773  26.979  31.244  1.00  0.00    -0.206 F 
ATOM     69  C   UNL A   1      39.253  26.757  28.958  1.00  0.00     0.040 A 
ATOM     70  C   UNL A   1      40.596  28.415  27.842  1.00  0.00     0.040 A 
ATOM     71  F   UNL A   1      41.450  30.239  29.044  1.00  0.00    -0.206 F 
ATOM     72  C   UNL A   1      39.864  27.229  27.799  1.00  0.00     0.006 A 
ENDBRANCH  51  65
BRANCH  52  73
ATOM     73  C   UNL A   1      40.407  33.745  38.779  1.00  0.00     0.057 A 
ATOM     74  C   UNL A   1      39.650  33.319  39.877  1.00  0.00     0.134 A 
ATOM     75  C   UNL A   1      41.199  34.886  38.943  1.00  0.00     0.134 A 
ATOM     76  F   UNL A   1      38.857  32.242  39.772  1.00  0.00    -0.206 F 
ATOM     77  C   UNL A   1      39.668  34.010  41.089  1.00  0.00     0.040 A 
ATOM     78  C   UNL A   1      41.242  35.576  40.155  1.00  0.00     0.040 A 
ATOM     79  F   UNL A   1      41.950  35.341  37.928  1.00  0.00    -0.206 F 
ATOM     80  C   UNL A   1      40.470  35.140  41.231  1.00  0.00     0.006 A 
ENDBRANCH  52  73
BRANCH  64  81
ATOM     81  C   UNL A   1      44.665  29.122  35.810  1.00  0.00     0.057 A 
ATOM     82  C   UNL A   1      44.734  27.943  36.562  1.00  0.00     0.134 A 
ATOM     83  C   UNL A   1      45.873  29.737  35.456  1.00  0.00     0.134 A 
ATOM     84  F   UNL A   1      43.612  27.315  36.945  1.00  0.00    -0.206 F 
ATOM     85  C   UNL A   1      45.958  27.408  36.969  1.00  0.00     0.040 A 
ATOM     86  C   UNL A   1      47.103  29.200  35.837  1.00  0.00     0.040 A 
ATOM     87  F   UNL A   1      45.876  30.866  34.732  1.00  0.00    -0.206 F 
ATOM     88  C   UNL A   1      47.147  28.036  36.602  1.00  0.00     0.006 A 
ENDBRANCH  64  81
ENDBRANCH  38  39
ENDBRANCH  30  33
ENDBRANCH  28  29
ENDBRANCH  27  28
ENDBRANCH  26  27
ENDBRANCH   1  26
TORSDOF 16
ENDMDL
MODEL 3
REMARK VINA RESULT:     -10.8      3.449      8.680
REMARK SMILES CC1(C)CCC[C@H]1NS(=O)(=O)c1cccc(C(=O)NCCCCCCNC(=O)c2ccc(-c3c4nc(c(-c5c(F)cccc5F)c5ccc([nH]5)c(-c5c(F)cccc5F)c5nc(c(-c6c(F)cccc6F)c6ccc3[nH]6)C=C5)C=C4)cc2)c1
REMARK SMILES IDX 22 1 21 2 20 3 19 4 17 5 18 6 16 8 12 9 13 10 83 11 14 12
REMARK SMILES IDX 15 13 9 14 10 15 11 16 8 17 7 19 1 20 2 21 3 22 4 23 5 24
REMARK SMILES IDX 6 25 23 26 24 27 25 28 26 29 27 30 28 32 29 33 30 34 82 35
REMARK SMILES IDX 31 36 81 37 32 38 33 39 34 40 75 41 35 42 80 43 74 44 76 45
REMARK SMILES IDX 36 46 79 47 73 48 72 49 37 51 63 52 46 53 62 54 47 55 50 56
REMARK SMILES IDX 61 57 77 58 48 59 49 60 60 62 78 63 51 64 38 65 39 66 44 67
REMARK SMILES IDX 40 68 41 69 43 70 45 71 42 72 64 73 65 74 70 75 66 76 67 77
REMARK SMILES IDX 69 78 71 79 68 80 52 81 53 82 58 83 54 84 55 85 57 86 59 87
REMARK SMILES IDX 56 88
REMARK H PARENT 19 7 8 18 26 31 76 50 50 61
REMARK Flexibility Score: inf
ROOT
ATOM      1  C   UNL A   1      30.373  29.563  24.162  1.00  0.00     0.002 C 
ENDROOT
BRANCH   1   2
ATOM      2  C   UNL A   1      30.874  29.152  22.780  1.00  0.00     0.021 C 
BRANCH   2   3
ATOM      3  C   UNL A   1      30.630  27.708  22.362  1.00  0.00     0.116 C 
BRANCH   3   4
ATOM      4  N   UNL A   1      31.730  27.075  21.649  1.00  0.00    -0.352 N 
ATOM      5  C   UNL A   1      32.807  26.363  22.141  1.00  0.00     0.251 C 
ATOM      6  O   UNL A   1      33.652  25.918  21.370  1.00  0.00    -0.269 OA
ATOM      7  H   UNL A   1      31.704  27.169  20.669  1.00  0.00     0.163 HD
BRANCH   5   8
ATOM      8  C   UNL A   1      32.989  26.187  23.605  1.00  0.00     0.041 A 
ATOM      9  C   UNL A   1      32.324  25.127  25.663  1.00  0.00     0.083 A 
ATOM     10  C   UNL A   1      32.941  26.127  26.411  1.00  0.00     0.022 A 
ATOM     11  C   UNL A   1      32.434  25.103  24.271  1.00  0.00     0.035 A 
ATOM     12  C   UNL A   1      33.654  27.127  25.741  1.00  0.00     0.002 A 
ATOM     13  C   UNL A   1      33.657  27.173  24.341  1.00  0.00     0.014 A 
BRANCH   9  14
ATOM     14  S   UNL A   1      31.236  23.919  26.355  1.00  0.00     0.240 S 
ATOM     15  O   UNL A   1      29.898  24.461  26.279  1.00  0.00    -0.207 OA
ATOM     16  O   UNL A   1      31.814  23.544  27.627  1.00  0.00    -0.207 OA
BRANCH  14  17
ATOM     17  N   UNL A   1      31.336  22.557  25.396  1.00  0.00    -0.208 NA
ATOM     18  H   UNL A   1      30.415  22.121  25.430  1.00  0.00     0.141 HD
BRANCH  17  19
ATOM     19  C   UNL A   1      32.304  21.482  25.641  1.00  0.00     0.075 C 
ATOM     20  C   UNL A   1      32.153  21.233  23.036  1.00  0.00     0.013 C 
ATOM     21  C   UNL A   1      32.989  21.046  24.312  1.00  0.00    -0.019 C 
ATOM     22  C   UNL A   1      33.381  19.556  24.399  1.00  0.00     0.013 C 
ATOM     23  C   UNL A   1      34.240  21.938  24.269  1.00  0.00     0.008 C 
ATOM     24  C   UNL A   1      34.724  21.976  25.707  1.00  0.00     0.002 C 
ATOM     25  C   UNL A   1      33.455  21.946  26.551  1.00  0.00     0.020 C 
ENDBRANCH  17  19
ENDBRANCH  14  17
ENDBRANCH   9  14
ENDBRANCH   5   8
ENDBRANCH   3   4
ENDBRANCH   2   3
ENDBRANCH   1   2
BRANCH   1  26
ATOM     26  C   UNL A   1      31.426  30.034  25.167  1.00  0.00     0.002 C 
BRANCH  26  27
ATOM     27  C   UNL A   1      31.147  31.345  25.908  1.00  0.00     0.021 C 
BRANCH  27  28
ATOM     28  C   UNL A   1      32.216  31.821  26.888  1.00  0.00     0.116 C 
BRANCH  28  29
ATOM     29  N   UNL A   1      32.081  33.219  27.251  1.00  0.00    -0.352 N 
ATOM     30  C   UNL A   1      32.891  34.022  28.014  1.00  0.00     0.251 C 
ATOM     31  H   UNL A   1      31.279  33.663  26.892  1.00  0.00     0.163 HD
ATOM     32  O   UNL A   1      32.529  35.166  28.277  1.00  0.00    -0.269 OA
BRANCH  30  33
ATOM     33  C   UNL A   1      34.181  33.529  28.551  1.00  0.00     0.039 A 
ATOM     34  C   UNL A   1      34.156  32.727  29.698  1.00  0.00     0.014 A 
ATOM     35  C   UNL A   1      35.409  33.882  27.984  1.00  0.00     0.014 A 
ATOM     36  C   UNL A   1      35.347  32.241  30.241  1.00  0.00     0.010 A 
ATOM     37  C   UNL A   1      36.595  33.347  28.491  1.00  0.00     0.010 A 
ATOM     38  C   UNL A   1      36.578  32.528  29.629  1.00  0.00    -0.014 A 
BRANCH  38  39
ATOM     39  C   UNL A   1      37.844  31.982  30.182  1.00  0.00     0.031 A 
ATOM     40  C   UNL A   1      38.432  30.710  29.635  1.00  0.00     0.074 A 
ATOM     41  C   UNL A   1      38.452  32.613  31.205  1.00  0.00     0.049 A 
ATOM     42  N   UNL A   1      39.521  30.080  29.996  1.00  0.00    -0.248 NA
ATOM     43  C   UNL A   1      37.685  30.048  28.555  1.00  0.00     0.031 C 
ATOM     44  C   UNL A   1      37.960  33.824  31.864  1.00  0.00     0.029 A 
ATOM     45  N   UNL A   1      39.614  32.319  31.873  1.00  0.00    -0.354 N 
ATOM     46  C   UNL A   1      39.583  28.943  29.201  1.00  0.00     0.074 A 
ATOM     47  C   UNL A   1      38.398  28.947  28.368  1.00  0.00     0.031 C 
ATOM     48  C   UNL A   1      38.826  34.182  32.825  1.00  0.00     0.029 A 
ATOM     49  C   UNL A   1      39.920  33.217  32.866  1.00  0.00     0.049 A 
ATOM     50  H   UNL A   1      40.175  31.538  31.660  1.00  0.00     0.167 HD
ATOM     51  C   UNL A   1      40.547  27.992  29.151  1.00  0.00     0.037 A 
ATOM     52  C   UNL A   1      40.968  33.261  33.710  1.00  0.00     0.037 A 
ATOM     53  C   UNL A   1      41.741  27.999  29.956  1.00  0.00     0.049 A 
ATOM     54  C   UNL A   1      42.041  32.213  33.614  1.00  0.00     0.074 A 
ATOM     55  C   UNL A   1      42.804  27.114  29.932  1.00  0.00     0.029 A 
ATOM     56  N   UNL A   1      42.028  28.943  30.931  1.00  0.00    -0.354 N 
ATOM     57  N   UNL A   1      42.119  31.182  32.811  1.00  0.00    -0.248 NA
ATOM     58  C   UNL A   1      43.177  32.345  34.537  1.00  0.00     0.031 C 
ATOM     59  C   UNL A   1      43.723  27.504  30.914  1.00  0.00     0.029 A 
ATOM     60  C   UNL A   1      43.247  28.654  31.524  1.00  0.00     0.049 A 
ATOM     61  H   UNL A   1      41.453  29.706  31.165  1.00  0.00     0.167 HD
ATOM     62  C   UNL A   1      43.319  30.554  33.113  1.00  0.00     0.074 A 
ATOM     63  C   UNL A   1      43.945  31.331  34.165  1.00  0.00     0.031 C 
ATOM     64  C   UNL A   1      43.856  29.435  32.570  1.00  0.00     0.037 A 
BRANCH  51  65
ATOM     65  C   UNL A   1      40.347  26.862  28.185  1.00  0.00     0.057 A 
ATOM     66  C   UNL A   1      40.977  26.841  26.934  1.00  0.00     0.134 A 
ATOM     67  C   UNL A   1      39.532  25.772  28.516  1.00  0.00     0.134 A 
ATOM     68  F   UNL A   1      41.761  27.861  26.552  1.00  0.00    -0.206 F 
ATOM     69  C   UNL A   1      40.782  25.792  26.035  1.00  0.00     0.040 A 
ATOM     70  C   UNL A   1      39.348  24.705  27.635  1.00  0.00     0.040 A 
ATOM     71  F   UNL A   1      38.904  25.725  29.700  1.00  0.00    -0.206 F 
ATOM     72  C   UNL A   1      39.968  24.717  26.387  1.00  0.00     0.006 A 
ENDBRANCH  51  65
BRANCH  52  73
ATOM     73  C   UNL A   1      41.074  34.363  34.697  1.00  0.00     0.057 A 
ATOM     74  C   UNL A   1      40.499  34.247  35.968  1.00  0.00     0.134 A 
ATOM     75  C   UNL A   1      41.750  35.550  34.397  1.00  0.00     0.134 A 
ATOM     76  F   UNL A   1      39.823  33.139  36.304  1.00  0.00    -0.206 F 
ATOM     77  C   UNL A   1      40.581  35.281  36.902  1.00  0.00     0.040 A 
ATOM     78  C   UNL A   1      41.856  36.584  35.328  1.00  0.00     0.040 A 
ATOM     79  F   UNL A   1      42.325  35.718  33.197  1.00  0.00    -0.206 F 
ATOM     80  C   UNL A   1      41.265  36.452  36.584  1.00  0.00     0.006 A 
ENDBRANCH  52  73
BRANCH  64  81
ATOM     81  C   UNL A   1      45.193  28.999  33.090  1.00  0.00     0.057 A 
ATOM     82  C   UNL A   1      45.312  28.100  34.157  1.00  0.00     0.134 A 
ATOM     83  C   UNL A   1      46.375  29.473  32.507  1.00  0.00     0.134 A 
ATOM     84  F   UNL A   1      44.217  27.621  34.767  1.00  0.00    -0.206 F 
ATOM     85  C   UNL A   1      46.560  27.706  34.643  1.00  0.00     0.040 A 
ATOM     86  C   UNL A   1      47.629  29.069  32.969  1.00  0.00     0.040 A 
ATOM     87  F   UNL A   1      46.330  30.332  31.478  1.00  0.00    -0.206 F 
ATOM     88  C   UNL A   1      47.723  28.188  34.044  1.00  0.00     0.006 A 
ENDBRANCH  64  81
ENDBRANCH  38  39
ENDBRANCH  30  33
ENDBRANCH  28  29
ENDBRANCH  27  28
ENDBRANCH  26  27
ENDBRANCH   1  26
TORSDOF 16
ENDMDL
