MODEL 1
REMARK VINA RESULT:     -11.8      0.000      0.000
REMARK SMILES Cc1cccc(NC(=O)C[C@H]([NH2+]C(C)C)C(=O)NCCCCCCNC(=O)c2ccc(-c3c4nc(c(-c5c(F)cccc5F)c5ccc([nH]5)c(-c5c(F)cccc5F)c5nc(c(-c6c(F)cccc6F)c6ccc3[nH]6)C=C5)C=C4)cc2)c1
REMARK SMILES IDX 21 1 20 2 19 3 18 4 16 5 17 6 11 8 10 9 8 10 7 11 9 13 6 14
REMARK SMILES IDX 1 15 2 16 3 17 82 18 4 19 5 20 12 21 13 24 14 25 15 26 22 27
REMARK SMILES IDX 23 28 24 29 25 30 26 31 27 33 28 34 29 35 81 36 30 37 80 38
REMARK SMILES IDX 31 39 32 40 33 41 74 42 34 43 79 44 73 45 75 46 35 47 78 48
REMARK SMILES IDX 72 49 71 50 36 52 62 53 45 54 61 55 46 56 49 57 60 58 76 59
REMARK SMILES IDX 47 60 48 61 59 63 77 64 50 65 37 66 38 67 43 68 39 69 40 70
REMARK SMILES IDX 42 71 44 72 41 73 63 74 64 75 69 76 65 77 66 78 68 79 70 80
REMARK SMILES IDX 67 81 51 82 52 83 57 84 53 85 54 86 56 87 58 88 55 89
REMARK H PARENT 18 7 7 12 12 22 12 23 25 32 75 51 49 62
REMARK Flexibility Score: inf
ROOT
ATOM      1  C   UNL A   1      40.050  24.110  26.612  1.00  0.00     0.002 C 
ENDROOT
BRANCH   1   2
ATOM      2  C   UNL A   1      38.626  24.489  27.023  1.00  0.00     0.021 C 
BRANCH   2   3
ATOM      3  C   UNL A   1      37.398  23.546  26.246  1.00  0.00     0.116 C 
BRANCH   3   4
ATOM      4  N   UNL A   1      35.520  22.947  26.894  1.00  0.00    -0.351 N 
ATOM      5  C   UNL A   1      34.122  22.886  26.869  1.00  0.00     0.278 C 
ATOM      6  O   UNL A   1      33.682  21.898  27.490  1.00  0.00    -0.268 OA
ATOM      7  H   UNL A   1      35.739  22.376  27.666  1.00  0.00     0.163 HD
BRANCH   5   8
ATOM      8  C   UNL A   1      33.081  23.864  26.287  1.00  0.00     0.282 C 
BRANCH   8   9
ATOM      9  C   UNL A   1      31.676  23.305  25.937  1.00  0.00     0.175 C 
BRANCH   9  10
ATOM     10  C   UNL A   1      30.455  23.842  26.694  1.00  0.00     0.230 C 
ATOM     11  N   UNL A   1      30.010  25.129  26.556  1.00  0.00    -0.326 N 
ATOM     12  H   UNL A   1      29.337  25.450  27.198  1.00  0.00     0.169 HD
ATOM     13  O   UNL A   1      29.845  23.110  27.480  1.00  0.00    -0.274 OA
BRANCH  11  14
ATOM     14  C   UNL A   1      30.441  26.020  25.571  1.00  0.00     0.041 A 
ATOM     15  C   UNL A   1      32.189  30.166  25.816  1.00  0.00     0.044 C 
ATOM     16  C   UNL A   1      31.471  28.969  25.270  1.00  0.00    -0.049 A 
ATOM     17  C   UNL A   1      30.412  29.166  23.808  1.00  0.00     0.003 A 
ATOM     18  C   UNL A   1      31.436  27.408  26.190  1.00  0.00     0.029 A 
ATOM     19  C   UNL A   1      29.473  27.749  23.159  1.00  0.00     0.002 A 
ATOM     20  C   UNL A   1      29.482  26.171  24.031  1.00  0.00     0.026 A 
ENDBRANCH  11  14
ENDBRANCH   9  10
ENDBRANCH   8   9
BRANCH   8  21
ATOM     21  N   UNL A   1      33.676  24.790  25.250  1.00  0.00    -0.334 N 
ATOM     22  H   UNL A   1      34.673  24.877  25.442  1.00  0.00     0.347 HD
ATOM     23  H   UNL A   1      33.160  25.665  25.331  1.00  0.00     0.347 HD
BRANCH  21  24
ATOM     24  C   UNL A   1      33.522  24.363  23.837  1.00  0.00     0.176 C 
ATOM     25  C   UNL A   1      33.152  25.572  22.965  1.00  0.00     0.075 C 
ATOM     26  C   UNL A   1      34.660  23.567  23.214  1.00  0.00     0.075 C 
ENDBRANCH  21  24
ENDBRANCH   8  21
ENDBRANCH   5   8
ENDBRANCH   3   4
ENDBRANCH   2   3
ENDBRANCH   1   2
BRANCH   1  27
ATOM     27  C   UNL A   1      40.849  23.404  27.707  1.00  0.00     0.002 C 
BRANCH  27  28
ATOM     28  C   UNL A   1      41.948  22.449  27.208  1.00  0.00     0.021 C 
BRANCH  28  29
ATOM     29  C   UNL A   1      41.846  22.077  25.735  1.00  0.00     0.116 C 
BRANCH  29  30
ATOM     30  N   UNL A   1      43.179  21.907  25.167  1.00  0.00    -0.352 N 
ATOM     31  C   UNL A   1      44.009  22.803  24.547  1.00  0.00     0.251 C 
ATOM     32  H   UNL A   1      43.543  20.996  25.243  1.00  0.00     0.163 HD
ATOM     33  O   UNL A   1      44.590  22.488  23.512  1.00  0.00    -0.269 OA
BRANCH  31  34
ATOM     34  C   UNL A   1      44.487  23.956  25.335  1.00  0.00     0.039 A 
ATOM     35  C   UNL A   1      45.061  23.741  26.599  1.00  0.00     0.014 A 
ATOM     36  C   UNL A   1      44.057  25.222  24.977  1.00  0.00     0.014 A 
ATOM     37  C   UNL A   1      45.046  24.769  27.536  1.00  0.00     0.010 A 
ATOM     38  C   UNL A   1      43.996  26.217  25.887  1.00  0.00     0.010 A 
ATOM     39  C   UNL A   1      44.429  25.961  27.173  1.00  0.00    -0.014 A 
BRANCH  39  40
ATOM     40  C   UNL A   1      44.271  27.138  27.979  1.00  0.00     0.031 A 
ATOM     41  C   UNL A   1      42.876  27.518  28.195  1.00  0.00     0.074 A 
ATOM     42  C   UNL A   1      45.377  27.521  28.654  1.00  0.00     0.049 A 
ATOM     43  N   UNL A   1      42.428  28.715  28.202  1.00  0.00    -0.248 NA
ATOM     44  C   UNL A   1      41.808  26.511  28.291  1.00  0.00     0.031 C 
ATOM     45  C   UNL A   1      45.558  28.412  29.786  1.00  0.00     0.029 A 
ATOM     46  N   UNL A   1      46.690  27.188  28.291  1.00  0.00    -0.354 N 
ATOM     47  C   UNL A   1      41.184  28.626  28.792  1.00  0.00     0.074 A 
ATOM     48  C   UNL A   1      40.746  27.277  28.551  1.00  0.00     0.031 C 
ATOM     49  C   UNL A   1      46.836  28.849  29.783  1.00  0.00     0.029 A 
ATOM     50  C   UNL A   1      47.491  28.299  28.602  1.00  0.00     0.049 A 
ATOM     51  H   UNL A   1      46.991  26.339  27.894  1.00  0.00     0.167 HD
ATOM     52  C   UNL A   1      40.835  29.581  29.700  1.00  0.00     0.037 A 
ATOM     53  C   UNL A   1      48.000  29.019  27.555  1.00  0.00     0.037 A 
ATOM     54  C   UNL A   1      41.978  30.484  29.893  1.00  0.00     0.049 A 
ATOM     55  C   UNL A   1      47.264  30.332  27.417  1.00  0.00     0.074 A 
ATOM     56  C   UNL A   1      42.946  30.549  30.883  1.00  0.00     0.029 A 
ATOM     57  N   UNL A   1      42.483  31.186  28.805  1.00  0.00    -0.354 N 
ATOM     58  N   UNL A   1      46.031  30.524  27.806  1.00  0.00    -0.248 NA
ATOM     59  C   UNL A   1      47.897  31.549  26.922  1.00  0.00     0.031 C 
ATOM     60  C   UNL A   1      44.060  31.259  30.356  1.00  0.00     0.029 A 
ATOM     61  C   UNL A   1      43.774  31.610  29.047  1.00  0.00     0.049 A 
ATOM     62  H   UNL A   1      41.986  31.358  27.973  1.00  0.00     0.167 HD
ATOM     63  C   UNL A   1      45.712  31.849  27.663  1.00  0.00     0.074 A 
ATOM     64  C   UNL A   1      46.912  32.444  27.103  1.00  0.00     0.031 C 
ATOM     65  C   UNL A   1      44.501  32.363  28.035  1.00  0.00     0.037 A 
BRANCH  52  66
ATOM     66  C   UNL A   1      39.660  29.538  30.654  1.00  0.00     0.057 A 
ATOM     67  C   UNL A   1      38.520  30.330  30.399  1.00  0.00     0.134 A 
ATOM     68  C   UNL A   1      39.553  28.741  31.809  1.00  0.00     0.134 A 
ATOM     69  F   UNL A   1      38.422  31.091  29.301  1.00  0.00    -0.206 F 
ATOM     70  C   UNL A   1      37.404  30.369  31.243  1.00  0.00     0.040 A 
ATOM     71  C   UNL A   1      38.451  28.788  32.677  1.00  0.00     0.040 A 
ATOM     72  F   UNL A   1      40.472  27.829  32.138  1.00  0.00    -0.206 F 
ATOM     73  C   UNL A   1      37.369  29.604  32.396  1.00  0.00     0.006 A 
ENDBRANCH  52  66
BRANCH  53  74
ATOM     74  C   UNL A   1      48.420  28.108  26.436  1.00  0.00     0.057 A 
ATOM     75  C   UNL A   1      49.534  27.276  26.682  1.00  0.00     0.134 A 
ATOM     76  C   UNL A   1      47.513  27.669  25.465  1.00  0.00     0.134 A 
ATOM     77  F   UNL A   1      50.465  27.650  27.575  1.00  0.00    -0.206 F 
ATOM     78  C   UNL A   1      49.627  25.984  26.154  1.00  0.00     0.040 A 
ATOM     79  C   UNL A   1      47.614  26.385  24.909  1.00  0.00     0.040 A 
ATOM     80  F   UNL A   1      46.438  28.405  25.148  1.00  0.00    -0.206 F 
ATOM     81  C   UNL A   1      48.632  25.516  25.305  1.00  0.00     0.006 A 
ENDBRANCH  53  74
BRANCH  65  82
ATOM     82  C   UNL A   1      43.926  33.679  27.558  1.00  0.00     0.057 A 
ATOM     83  C   UNL A   1      43.630  33.968  26.219  1.00  0.00     0.134 A 
ATOM     84  C   UNL A   1      43.497  34.666  28.481  1.00  0.00     0.134 A 
ATOM     85  F   UNL A   1      43.821  33.074  25.241  1.00  0.00    -0.206 F 
ATOM     86  C   UNL A   1      43.060  35.182  25.819  1.00  0.00     0.040 A 
ATOM     87  C   UNL A   1      42.846  35.839  28.100  1.00  0.00     0.040 A 
ATOM     88  F   UNL A   1      43.661  34.532  29.805  1.00  0.00    -0.206 F 
ATOM     89  C   UNL A   1      42.657  36.118  26.760  1.00  0.00     0.006 A 
ENDBRANCH  65  82
ENDBRANCH  39  40
ENDBRANCH  31  34
ENDBRANCH  29  30
ENDBRANCH  28  29
ENDBRANCH  27  28
ENDBRANCH   1  27
TORSDOF 18
ENDMDL
MODEL 2
REMARK VINA RESULT:     -11.8      4.216      9.613
REMARK SMILES Cc1cccc(NC(=O)C[C@H]([NH2+]C(C)C)C(=O)NCCCCCCNC(=O)c2ccc(-c3c4nc(c(-c5c(F)cccc5F)c5ccc([nH]5)c(-c5c(F)cccc5F)c5nc(c(-c6c(F)cccc6F)c6ccc3[nH]6)C=C5)C=C4)cc2)c1
REMARK SMILES IDX 21 1 20 2 19 3 18 4 16 5 17 6 11 8 10 9 8 10 7 11 9 13 6 14
REMARK SMILES IDX 1 15 2 16 3 17 82 18 4 19 5 20 12 21 13 24 14 25 15 26 22 27
REMARK SMILES IDX 23 28 24 29 25 30 26 31 27 33 28 34 29 35 81 36 30 37 80 38
REMARK SMILES IDX 31 39 32 40 33 41 74 42 34 43 79 44 73 45 75 46 35 47 78 48
REMARK SMILES IDX 72 49 71 50 36 52 62 53 45 54 61 55 46 56 49 57 60 58 76 59
REMARK SMILES IDX 47 60 48 61 59 63 77 64 50 65 37 66 38 67 43 68 39 69 40 70
REMARK SMILES IDX 42 71 44 72 41 73 63 74 64 75 69 76 65 77 66 78 68 79 70 80
REMARK SMILES IDX 67 81 51 82 52 83 57 84 53 85 54 86 56 87 58 88 55 89
REMARK H PARENT 18 7 7 12 12 22 12 23 25 32 75 51 49 62
REMARK Flexibility Score: inf
ROOT
ATOM      1  C   UNL A   1      35.775  30.210  27.701  1.00  0.00     0.002 C 
ENDROOT
BRANCH   1   2
ATOM      2  C   UNL A   1      34.527  29.382  28.013  1.00  0.00     0.021 C 
BRANCH   2   3
ATOM      3  C   UNL A   1      33.815  28.635  26.622  1.00  0.00     0.116 C 
BRANCH   3   4
ATOM      4  N   UNL A   1      32.119  27.456  26.422  1.00  0.00    -0.351 N 
ATOM      5  C   UNL A   1      31.147  26.729  25.724  1.00  0.00     0.278 C 
ATOM      6  O   UNL A   1      30.554  25.911  26.457  1.00  0.00    -0.268 OA
ATOM      7  H   UNL A   1      31.832  27.343  27.356  1.00  0.00     0.163 HD
BRANCH   5   8
ATOM      8  C   UNL A   1      30.657  26.841  24.266  1.00  0.00     0.282 C 
BRANCH   8   9
ATOM      9  C   UNL A   1      30.913  25.639  23.319  1.00  0.00     0.175 C 
BRANCH   9  10
ATOM     10  C   UNL A   1      31.791  25.847  22.079  1.00  0.00     0.230 C 
ATOM     11  N   UNL A   1      33.083  25.400  22.007  1.00  0.00    -0.326 N 
ATOM     12  H   UNL A   1      33.636  25.721  21.258  1.00  0.00     0.169 HD
ATOM     13  O   UNL A   1      31.345  26.457  21.102  1.00  0.00    -0.274 OA
BRANCH  11  14
ATOM     14  C   UNL A   1      33.675  24.523  22.917  1.00  0.00     0.041 A 
ATOM     15  C   UNL A   1      32.703  20.280  24.079  1.00  0.00     0.044 C 
ATOM     16  C   UNL A   1      33.224  21.681  24.171  1.00  0.00    -0.049 A 
ATOM     17  C   UNL A   1      33.673  22.352  25.797  1.00  0.00     0.003 A 
ATOM     18  C   UNL A   1      33.165  22.789  22.737  1.00  0.00     0.029 A 
ATOM     19  C   UNL A   1      34.246  24.072  25.953  1.00  0.00     0.002 A 
ATOM     20  C   UNL A   1      34.253  25.166  24.520  1.00  0.00     0.026 A 
ENDBRANCH  11  14
ENDBRANCH   9  10
ENDBRANCH   8   9
BRANCH   8  21
ATOM     21  N   UNL A   1      30.941  28.199  23.666  1.00  0.00    -0.334 N 
ATOM     22  H   UNL A   1      31.519  28.061  22.838  1.00  0.00     0.347 HD
ATOM     23  H   UNL A   1      31.394  28.739  24.403  1.00  0.00     0.347 HD
BRANCH  21  24
ATOM     24  C   UNL A   1      29.752  28.989  23.263  1.00  0.00     0.176 C 
ATOM     25  C   UNL A   1      30.069  29.803  22.000  1.00  0.00     0.075 C 
ATOM     26  C   UNL A   1      28.430  28.247  23.118  1.00  0.00     0.075 C 
ENDBRANCH  21  24
ENDBRANCH   8  21
ENDBRANCH   5   8
ENDBRANCH   3   4
ENDBRANCH   2   3
ENDBRANCH   1   2
BRANCH   1  27
ATOM     27  C   UNL A   1      35.578  31.717  27.852  1.00  0.00     0.002 C 
BRANCH  27  28
ATOM     28  C   UNL A   1      34.421  32.141  28.775  1.00  0.00     0.021 C 
BRANCH  28  29
ATOM     29  C   UNL A   1      34.386  33.626  29.109  1.00  0.00     0.116 C 
BRANCH  29  30
ATOM     30  N   UNL A   1      34.155  33.813  30.538  1.00  0.00    -0.352 N 
ATOM     31  C   UNL A   1      34.529  33.051  31.612  1.00  0.00     0.251 C 
ATOM     32  H   UNL A   1      33.645  34.623  30.767  1.00  0.00     0.163 HD
ATOM     33  O   UNL A   1      33.720  32.809  32.505  1.00  0.00    -0.269 OA
BRANCH  31  34
ATOM     34  C   UNL A   1      35.973  32.881  31.865  1.00  0.00     0.039 A 
ATOM     35  C   UNL A   1      36.899  33.643  31.134  1.00  0.00     0.014 A 
ATOM     36  C   UNL A   1      36.393  31.754  32.551  1.00  0.00     0.014 A 
ATOM     37  C   UNL A   1      38.197  33.169  30.978  1.00  0.00     0.010 A 
ATOM     38  C   UNL A   1      37.636  31.258  32.376  1.00  0.00     0.010 A 
ATOM     39  C   UNL A   1      38.502  31.934  31.539  1.00  0.00    -0.014 A 
BRANCH  39  40
ATOM     40  C   UNL A   1      39.758  31.240  31.482  1.00  0.00     0.031 A 
ATOM     41  C   UNL A   1      39.768  30.125  30.537  1.00  0.00     0.074 A 
ATOM     42  C   UNL A   1      40.796  31.890  32.051  1.00  0.00     0.049 A 
ATOM     43  N   UNL A   1      40.337  28.996  30.731  1.00  0.00    -0.248 NA
ATOM     44  C   UNL A   1      38.982  30.159  29.294  1.00  0.00     0.031 C 
ATOM     45  C   UNL A   1      42.231  31.712  31.929  1.00  0.00     0.029 A 
ATOM     46  N   UNL A   1      40.676  32.876  33.041  1.00  0.00    -0.354 N 
ATOM     47  C   UNL A   1      40.411  28.416  29.482  1.00  0.00     0.074 A 
ATOM     48  C   UNL A   1      39.337  29.003  28.727  1.00  0.00     0.031 C 
ATOM     49  C   UNL A   1      42.821  32.241  33.023  1.00  0.00     0.029 A 
ATOM     50  C   UNL A   1      41.765  32.713  33.911  1.00  0.00     0.049 A 
ATOM     51  H   UNL A   1      39.964  33.553  33.111  1.00  0.00     0.167 HD
ATOM     52  C   UNL A   1      41.568  27.782  29.136  1.00  0.00     0.037 A 
ATOM     53  C   UNL A   1      41.500  32.239  35.168  1.00  0.00     0.037 A 
ATOM     54  C   UNL A   1      42.538  27.953  30.226  1.00  0.00     0.049 A 
ATOM     55  C   UNL A   1      41.945  30.801  35.289  1.00  0.00     0.074 A 
ATOM     56  C   UNL A   1      43.603  28.826  30.385  1.00  0.00     0.029 A 
ATOM     57  N   UNL A   1      42.230  27.479  31.495  1.00  0.00    -0.354 N 
ATOM     58  N   UNL A   1      42.027  29.972  34.282  1.00  0.00    -0.248 NA
ATOM     59  C   UNL A   1      42.424  30.220  36.539  1.00  0.00     0.031 C 
ATOM     60  C   UNL A   1      43.897  28.906  31.774  1.00  0.00     0.029 A 
ATOM     61  C   UNL A   1      43.006  28.096  32.456  1.00  0.00     0.049 A 
ATOM     62  H   UNL A   1      41.549  26.792  31.683  1.00  0.00     0.167 HD
ATOM     63  C   UNL A   1      42.585  28.795  34.706  1.00  0.00     0.074 A 
ATOM     64  C   UNL A   1      42.812  29.002  36.125  1.00  0.00     0.031 C 
ATOM     65  C   UNL A   1      42.844  27.751  33.862  1.00  0.00     0.037 A 
BRANCH  52  66
ATOM     66  C   UNL A   1      41.969  27.319  27.752  1.00  0.00     0.057 A 
ATOM     67  C   UNL A   1      42.044  25.939  27.469  1.00  0.00     0.134 A 
ATOM     68  C   UNL A   1      42.265  28.144  26.651  1.00  0.00     0.134 A 
ATOM     69  F   UNL A   1      41.720  25.013  28.381  1.00  0.00    -0.206 F 
ATOM     70  C   UNL A   1      42.433  25.428  26.224  1.00  0.00     0.040 A 
ATOM     71  C   UNL A   1      42.679  27.646  25.406  1.00  0.00     0.040 A 
ATOM     72  F   UNL A   1      42.117  29.471  26.689  1.00  0.00    -0.206 F 
ATOM     73  C   UNL A   1      42.764  26.282  25.187  1.00  0.00     0.006 A 
ENDBRANCH  52  66
BRANCH  53  74
ATOM     74  C   UNL A   1      40.224  32.828  35.700  1.00  0.00     0.057 A 
ATOM     75  C   UNL A   1      39.146  31.936  35.891  1.00  0.00     0.134 A 
ATOM     76  C   UNL A   1      40.218  33.991  36.479  1.00  0.00     0.134 A 
ATOM     77  F   UNL A   1      39.064  30.817  35.154  1.00  0.00    -0.206 F 
ATOM     78  C   UNL A   1      38.238  32.084  36.944  1.00  0.00     0.040 A 
ATOM     79  C   UNL A   1      39.293  34.161  37.520  1.00  0.00     0.040 A 
ATOM     80  F   UNL A   1      41.189  34.907  36.349  1.00  0.00    -0.206 F 
ATOM     81  C   UNL A   1      38.346  33.175  37.798  1.00  0.00     0.006 A 
ENDBRANCH  53  74
BRANCH  65  82
ATOM     82  C   UNL A   1      43.071  26.318  34.287  1.00  0.00     0.057 A 
ATOM     83  C   UNL A   1      42.115  25.533  34.948  1.00  0.00     0.134 A 
ATOM     84  C   UNL A   1      44.238  25.615  33.896  1.00  0.00     0.134 A 
ATOM     85  F   UNL A   1      40.895  26.000  35.241  1.00  0.00    -0.206 F 
ATOM     86  C   UNL A   1      42.345  24.196  35.292  1.00  0.00     0.040 A 
ATOM     87  C   UNL A   1      44.438  24.259  34.154  1.00  0.00     0.040 A 
ATOM     88  F   UNL A   1      45.236  26.200  33.218  1.00  0.00    -0.206 F 
ATOM     89  C   UNL A   1      43.504  23.552  34.886  1.00  0.00     0.006 A 
ENDBRANCH  65  82
ENDBRANCH  39  40
ENDBRANCH  31  34
ENDBRANCH  29  30
ENDBRANCH  28  29
ENDBRANCH  27  28
ENDBRANCH   1  27
TORSDOF 18
ENDMDL
MODEL 3
REMARK VINA RESULT:     -11.7      3.474      8.904
REMARK SMILES Cc1cccc(NC(=O)C[C@H]([NH2+]C(C)C)C(=O)NCCCCCCNC(=O)c2ccc(-c3c4nc(c(-c5c(F)cccc5F)c5ccc([nH]5)c(-c5c(F)cccc5F)c5nc(c(-c6c(F)cccc6F)c6ccc3[nH]6)C=C5)C=C4)cc2)c1
REMARK SMILES IDX 21 1 20 2 19 3 18 4 16 5 17 6 11 8 10 9 8 10 7 11 9 13 6 14
REMARK SMILES IDX 1 15 2 16 3 17 82 18 4 19 5 20 12 21 13 24 14 25 15 26 22 27
REMARK SMILES IDX 23 28 24 29 25 30 26 31 27 33 28 34 29 35 81 36 30 37 80 38
REMARK SMILES IDX 31 39 32 40 33 41 74 42 34 43 79 44 73 45 75 46 35 47 78 48
REMARK SMILES IDX 72 49 71 50 36 52 62 53 45 54 61 55 46 56 49 57 60 58 76 59
REMARK SMILES IDX 47 60 48 61 59 63 77 64 50 65 37 66 38 67 43 68 39 69 40 70
REMARK SMILES IDX 42 71 44 72 41 73 63 74 64 75 69 76 65 77 66 78 68 79 70 80
REMARK SMILES IDX 67 81 51 82 52 83 57 84 53 85 54 86 56 87 58 88 55 89
REMARK H PARENT 18 7 7 12 12 22 12 23 25 32 75 51 49 62
REMARK Flexibility Score: inf
ROOT
ATOM      1  C   UNL A   1      31.188  28.960  23.564  1.00  0.00     0.002 C 
ENDROOT
BRANCH   1   2
ATOM      2  C   UNL A   1      29.712  28.909  23.163  1.00  0.00     0.021 C 
BRANCH   2   3
ATOM      3  C   UNL A   1      28.944  27.395  23.507  1.00  0.00     0.116 C 
BRANCH   3   4
ATOM      4  N   UNL A   1      29.338  25.960  24.953  1.00  0.00    -0.351 N 
ATOM      5  C   UNL A   1      30.146  25.125  25.734  1.00  0.00     0.278 C 
ATOM      6  O   UNL A   1      29.563  24.734  26.765  1.00  0.00    -0.268 OA
ATOM      7  H   UNL A   1      28.435  25.737  25.276  1.00  0.00     0.163 HD
BRANCH   5   8
ATOM      8  C   UNL A   1      31.561  24.567  25.480  1.00  0.00     0.282 C 
BRANCH   8   9
ATOM      9  C   UNL A   1      31.776  23.037  25.627  1.00  0.00     0.175 C 
BRANCH   9  10
ATOM     10  C   UNL A   1      32.306  22.488  26.958  1.00  0.00     0.230 C 
ATOM     11  N   UNL A   1      33.078  21.361  27.035  1.00  0.00    -0.326 N 
ATOM     12  H   UNL A   1      33.232  20.973  27.927  1.00  0.00     0.169 HD
ATOM     13  O   UNL A   1      32.021  23.056  28.017  1.00  0.00    -0.274 OA
BRANCH  11  14
ATOM     14  C   UNL A   1      33.663  20.720  25.941  1.00  0.00     0.041 A 
ATOM     15  C   UNL A   1      33.168  16.566  24.267  1.00  0.00     0.044 C 
ATOM     16  C   UNL A   1      33.790  17.890  24.589  1.00  0.00    -0.049 A 
ATOM     17  C   UNL A   1      35.579  18.104  24.360  1.00  0.00     0.003 A 
ATOM     18  C   UNL A   1      32.841  19.179  25.440  1.00  0.00     0.029 A 
ATOM     19  C   UNL A   1      36.378  19.678  24.804  1.00  0.00     0.002 A 
ATOM     20  C   UNL A   1      35.429  20.993  25.593  1.00  0.00     0.026 A 
ENDBRANCH  11  14
ENDBRANCH   9  10
ENDBRANCH   8   9
BRANCH   8  21
ATOM     21  N   UNL A   1      32.640  25.426  26.101  1.00  0.00    -0.334 N 
ATOM     22  H   UNL A   1      33.026  24.918  26.896  1.00  0.00     0.347 HD
ATOM     23  H   UNL A   1      32.185  26.304  26.350  1.00  0.00     0.347 HD
BRANCH  21  24
ATOM     24  C   UNL A   1      33.765  25.796  25.208  1.00  0.00     0.176 C 
ATOM     25  C   UNL A   1      34.915  24.791  25.375  1.00  0.00     0.075 C 
ATOM     26  C   UNL A   1      33.450  26.026  23.736  1.00  0.00     0.075 C 
ENDBRANCH  21  24
ENDBRANCH   8  21
ENDBRANCH   5   8
ENDBRANCH   3   4
ENDBRANCH   2   3
ENDBRANCH   1   2
BRANCH   1  27
ATOM     27  C   UNL A   1      31.433  29.480  24.979  1.00  0.00     0.002 C 
BRANCH  27  28
ATOM     28  C   UNL A   1      32.909  29.703  25.351  1.00  0.00     0.021 C 
BRANCH  28  29
ATOM     29  C   UNL A   1      33.187  29.748  26.848  1.00  0.00     0.116 C 
BRANCH  29  30
ATOM     30  N   UNL A   1      34.088  30.852  27.158  1.00  0.00    -0.352 N 
ATOM     31  C   UNL A   1      34.966  31.027  28.194  1.00  0.00     0.251 C 
ATOM     32  H   UNL A   1      34.062  31.596  26.514  1.00  0.00     0.163 HD
ATOM     33  O   UNL A   1      35.016  32.104  28.782  1.00  0.00    -0.269 OA
BRANCH  31  34
ATOM     34  C   UNL A   1      36.086  30.074  28.314  1.00  0.00     0.039 A 
ATOM     35  C   UNL A   1      36.315  29.422  29.538  1.00  0.00     0.014 A 
ATOM     36  C   UNL A   1      37.079  30.099  27.348  1.00  0.00     0.014 A 
ATOM     37  C   UNL A   1      37.590  28.948  29.827  1.00  0.00     0.010 A 
ATOM     38  C   UNL A   1      38.331  29.681  27.628  1.00  0.00     0.010 A 
ATOM     39  C   UNL A   1      38.588  29.172  28.886  1.00  0.00    -0.014 A 
BRANCH  39  40
ATOM     40  C   UNL A   1      39.972  28.799  28.982  1.00  0.00     0.031 A 
ATOM     41  C   UNL A   1      40.234  27.416  28.589  1.00  0.00     0.074 A 
ATOM     42  C   UNL A   1      40.834  29.831  29.110  1.00  0.00     0.049 A 
ATOM     43  N   UNL A   1      41.056  26.626  29.168  1.00  0.00    -0.248 NA
ATOM     44  C   UNL A   1      39.448  26.748  27.541  1.00  0.00     0.031 C 
ATOM     45  C   UNL A   1      42.269  29.922  28.913  1.00  0.00     0.029 A 
ATOM     46  N   UNL A   1      40.496  31.098  29.609  1.00  0.00    -0.354 N 
ATOM     47  C   UNL A   1      41.250  25.595  28.272  1.00  0.00     0.074 A 
ATOM     48  C   UNL A   1      40.059  25.564  27.467  1.00  0.00     0.031 C 
ATOM     49  C   UNL A   1      42.730  30.979  29.616  1.00  0.00     0.029 A 
ATOM     50  C   UNL A   1      41.603  31.555  30.341  1.00  0.00     0.049 A 
ATOM     51  H   UNL A   1      39.645  31.574  29.472  1.00  0.00     0.167 HD
ATOM     52  C   UNL A   1      42.520  25.131  28.093  1.00  0.00     0.037 A 
ATOM     53  C   UNL A   1      41.472  31.622  31.702  1.00  0.00     0.037 A 
ATOM     54  C   UNL A   1      43.436  25.952  28.899  1.00  0.00     0.049 A 
ATOM     55  C   UNL A   1      42.246  30.503  32.358  1.00  0.00     0.074 A 
ATOM     56  C   UNL A   1      44.266  27.009  28.561  1.00  0.00     0.029 A 
ATOM     57  N   UNL A   1      43.264  26.015  30.276  1.00  0.00    -0.354 N 
ATOM     58  N   UNL A   1      42.509  29.359  31.782  1.00  0.00    -0.248 NA
ATOM     59  C   UNL A   1      42.864  30.628  33.673  1.00  0.00     0.031 C 
ATOM     60  C   UNL A   1      44.549  27.736  29.749  1.00  0.00     0.029 A 
ATOM     61  C   UNL A   1      43.883  27.131  30.801  1.00  0.00     0.049 A 
ATOM     62  H   UNL A   1      42.767  25.350  30.806  1.00  0.00     0.167 HD
ATOM     63  C   UNL A   1      43.336  28.623  32.590  1.00  0.00     0.074 A 
ATOM     64  C   UNL A   1      43.524  29.461  33.761  1.00  0.00     0.031 C 
ATOM     65  C   UNL A   1      43.824  27.398  32.231  1.00  0.00     0.037 A 
BRANCH  52  66
ATOM     66  C   UNL A   1      43.003  24.214  26.990  1.00  0.00     0.057 A 
ATOM     67  C   UNL A   1      43.080  22.823  27.217  1.00  0.00     0.134 A 
ATOM     68  C   UNL A   1      43.377  24.601  25.690  1.00  0.00     0.134 A 
ATOM     69  F   UNL A   1      42.688  22.275  28.375  1.00  0.00    -0.206 F 
ATOM     70  C   UNL A   1      43.541  21.911  26.260  1.00  0.00     0.040 A 
ATOM     71  C   UNL A   1      43.864  23.700  24.729  1.00  0.00     0.040 A 
ATOM     72  F   UNL A   1      43.242  25.854  25.248  1.00  0.00    -0.206 F 
ATOM     73  C   UNL A   1      43.947  22.348  25.012  1.00  0.00     0.006 A 
ENDBRANCH  52  66
BRANCH  53  74
ATOM     74  C   UNL A   1      40.100  32.102  32.082  1.00  0.00     0.057 A 
ATOM     75  C   UNL A   1      39.781  33.437  31.749  1.00  0.00     0.134 A 
ATOM     76  C   UNL A   1      39.023  31.218  32.221  1.00  0.00     0.134 A 
ATOM     77  F   UNL A   1      40.759  34.350  31.633  1.00  0.00    -0.206 F 
ATOM     78  C   UNL A   1      38.492  33.818  31.363  1.00  0.00     0.040 A 
ATOM     79  C   UNL A   1      37.722  31.601  31.864  1.00  0.00     0.040 A 
ATOM     80  F   UNL A   1      39.228  29.937  32.559  1.00  0.00    -0.206 F 
ATOM     81  C   UNL A   1      37.467  32.880  31.369  1.00  0.00     0.006 A 
ENDBRANCH  53  74
BRANCH  65  82
ATOM     82  C   UNL A   1      44.388  26.368  33.185  1.00  0.00     0.057 A 
ATOM     83  C   UNL A   1      45.726  25.950  33.189  1.00  0.00     0.134 A 
ATOM     84  C   UNL A   1      43.612  25.863  34.258  1.00  0.00     0.134 A 
ATOM     85  F   UNL A   1      46.630  26.458  32.342  1.00  0.00    -0.206 F 
ATOM     86  C   UNL A   1      46.223  25.024  34.112  1.00  0.00     0.040 A 
ATOM     87  C   UNL A   1      44.122  25.010  35.237  1.00  0.00     0.040 A 
ATOM     88  F   UNL A   1      42.324  26.194  34.432  1.00  0.00    -0.206 F 
ATOM     89  C   UNL A   1      45.425  24.558  35.146  1.00  0.00     0.006 A 
ENDBRANCH  65  82
ENDBRANCH  39  40
ENDBRANCH  31  34
ENDBRANCH  29  30
ENDBRANCH  28  29
ENDBRANCH  27  28
ENDBRANCH   1  27
TORSDOF 18
ENDMDL
