MODEL 1
REMARK VINA RESULT:     -12.5      0.000      0.000
REMARK SMILES NS(=O)(=O)c1ccc(-n2nc(C(F)F)cc2-c2ccc(C(=O)NCCCCCCNC(=O)c3ccc(-c4c5nc(c(-c6c(F)cccc6F)c6ccc([nH]6)c(-c6c(F)cccc6F)c6nc(c(-c7c(F)cccc7F)c7ccc4[nH]7)C=C6)C=C5)cc3)cc2)cc1
REMARK SMILES IDX 25 1 24 2 23 3 21 4 22 5 20 7 17 8 18 9 88 10 19 11 87 12
REMARK SMILES IDX 16 13 9 14 10 15 11 16 15 17 8 18 5 19 6 20 90 21 7 22 89 23
REMARK SMILES IDX 2 24 3 25 4 26 1 27 12 30 13 31 14 32 26 33 27 34 28 35
REMARK SMILES IDX 29 36 30 37 31 38 32 40 33 41 34 42 86 43 35 44 85 45 36 46
REMARK SMILES IDX 37 47 38 48 79 49 39 50 84 51 78 52 80 53 40 54 83 55 77 56
REMARK SMILES IDX 76 57 41 59 67 60 50 61 66 62 51 63 54 64 65 65 81 66 52 67
REMARK SMILES IDX 53 68 64 70 82 71 55 72 42 73 43 74 48 75 44 76 45 77 47 78
REMARK SMILES IDX 49 79 46 80 68 81 69 82 74 83 70 84 71 85 73 86 75 87 72 88
REMARK SMILES IDX 56 89 57 90 62 91 58 92 59 93 61 94 63 95 60 96
REMARK H PARENT 23 6 1 28 1 29 30 39 80 58 54 69
REMARK Flexibility Score: inf
ROOT
ATOM      1  C   UNL A   1      39.470  19.924  25.740  1.00  0.00     0.021 C 
ENDROOT
BRANCH   1   2
ATOM      2  C   UNL A   1      38.351  20.902  25.376  1.00  0.00     0.116 C 
BRANCH   2   3
ATOM      3  N   UNL A   1      38.750  22.248  25.734  1.00  0.00    -0.352 N 
ATOM      4  C   UNL A   1      38.083  23.443  25.727  1.00  0.00     0.251 C 
ATOM      5  O   UNL A   1      38.708  24.455  26.041  1.00  0.00    -0.269 OA
ATOM      6  H   UNL A   1      39.683  22.317  26.042  1.00  0.00     0.163 HD
BRANCH   4   7
ATOM      7  C   UNL A   1      36.625  23.541  25.452  1.00  0.00     0.039 A 
ATOM      8  C   UNL A   1      33.945  23.996  24.768  1.00  0.00     0.000 A 
ATOM      9  C   UNL A   1      34.910  23.860  23.765  1.00  0.00     0.011 A 
ATOM     10  C   UNL A   1      34.311  23.846  26.105  1.00  0.00     0.011 A 
ATOM     11  C   UNL A   1      36.246  23.646  24.107  1.00  0.00     0.014 A 
ATOM     12  C   UNL A   1      35.634  23.555  26.436  1.00  0.00     0.014 A 
BRANCH   8  13
ATOM     13  C   UNL A   1      32.550  24.210  24.420  1.00  0.00     0.075 A 
ATOM     14  N   UNL A   1      31.700  23.218  23.953  1.00  0.00    -0.233 N 
ATOM     15  N   UNL A   1      30.546  23.733  23.465  1.00  0.00    -0.166 NA
ATOM     16  C   UNL A   1      30.572  25.031  23.825  1.00  0.00     0.129 A 
ATOM     17  C   UNL A   1      31.822  25.379  24.388  1.00  0.00     0.060 A 
BRANCH  14  18
ATOM     18  C   UNL A   1      31.954  21.824  23.948  1.00  0.00     0.065 A 
ATOM     19  C   UNL A   1      32.752  19.162  23.962  1.00  0.00     0.082 A 
ATOM     20  C   UNL A   1      32.558  19.824  25.176  1.00  0.00     0.024 A 
ATOM     21  C   UNL A   1      32.511  19.808  22.743  1.00  0.00     0.024 A 
ATOM     22  C   UNL A   1      32.158  21.156  25.167  1.00  0.00     0.030 A 
ATOM     23  C   UNL A   1      32.084  21.141  22.735  1.00  0.00     0.030 A 
BRANCH  19  24
ATOM     24  S   UNL A   1      33.359  17.504  24.011  1.00  0.00     0.238 S 
ATOM     25  O   UNL A   1      33.506  17.023  22.663  1.00  0.00    -0.207 OA
ATOM     26  O   UNL A   1      32.658  16.762  25.038  1.00  0.00    -0.207 OA
BRANCH  24  27
ATOM     27  N   UNL A   1      34.920  17.719  24.597  1.00  0.00    -0.225 NA
ATOM     28  H   UNL A   1      35.114  17.017  25.312  1.00  0.00     0.137 HD
ATOM     29  H   UNL A   1      35.006  18.651  25.004  1.00  0.00     0.137 HD
ENDBRANCH  24  27
ENDBRANCH  19  24
ENDBRANCH  14  18
BRANCH  16  30
ATOM     30  C   UNL A   1      29.410  25.959  23.626  1.00  0.00     0.393 C 
ATOM     31  F   UNL A   1      28.845  26.352  24.798  1.00  0.00    -0.203 F 
ATOM     32  F   UNL A   1      29.785  27.093  22.970  1.00  0.00    -0.203 F 
ENDBRANCH  16  30
ENDBRANCH   8  13
ENDBRANCH   4   7
ENDBRANCH   2   3
ENDBRANCH   1   2
BRANCH   1  33
ATOM     33  C   UNL A   1      40.681  20.622  26.372  1.00  0.00     0.002 C 
BRANCH  33  34
ATOM     34  C   UNL A   1      41.770  19.677  26.910  1.00  0.00     0.002 C 
BRANCH  34  35
ATOM     35  C   UNL A   1      42.462  18.781  25.870  1.00  0.00     0.021 C 
BRANCH  35  36
ATOM     36  C   UNL A   1      43.926  18.525  26.184  1.00  0.00     0.116 C 
BRANCH  36  37
ATOM     37  N   UNL A   1      44.785  18.674  24.998  1.00  0.00    -0.352 N 
ATOM     38  C   UNL A   1      44.986  19.784  24.191  1.00  0.00     0.251 C 
ATOM     39  H   UNL A   1      45.290  17.869  24.741  1.00  0.00     0.163 HD
ATOM     40  O   UNL A   1      45.417  19.671  23.050  1.00  0.00    -0.269 OA
BRANCH  38  41
ATOM     41  C   UNL A   1      44.699  21.112  24.751  1.00  0.00     0.039 A 
ATOM     42  C   UNL A   1      43.619  21.915  24.368  1.00  0.00     0.014 A 
ATOM     43  C   UNL A   1      45.544  21.517  25.767  1.00  0.00     0.014 A 
ATOM     44  C   UNL A   1      43.434  23.124  25.038  1.00  0.00     0.010 A 
ATOM     45  C   UNL A   1      45.079  22.420  26.660  1.00  0.00     0.010 A 
ATOM     46  C   UNL A   1      44.207  23.370  26.181  1.00  0.00    -0.014 A 
BRANCH  46  47
ATOM     47  C   UNL A   1      44.129  24.565  26.998  1.00  0.00     0.031 A 
ATOM     48  C   UNL A   1      45.227  25.513  26.735  1.00  0.00     0.074 A 
ATOM     49  C   UNL A   1      43.001  24.895  27.675  1.00  0.00     0.049 A 
ATOM     50  N   UNL A   1      46.243  25.762  27.488  1.00  0.00    -0.248 NA
ATOM     51  C   UNL A   1      45.323  26.099  25.387  1.00  0.00     0.031 C 
ATOM     52  C   UNL A   1      41.705  24.196  27.719  1.00  0.00     0.029 A 
ATOM     53  N   UNL A   1      42.752  26.009  28.416  1.00  0.00    -0.354 N 
ATOM     54  C   UNL A   1      46.967  26.737  26.814  1.00  0.00     0.074 A 
ATOM     55  C   UNL A   1      46.511  26.702  25.451  1.00  0.00     0.031 C 
ATOM     56  C   UNL A   1      40.764  25.001  28.264  1.00  0.00     0.029 A 
ATOM     57  C   UNL A   1      41.411  26.201  28.754  1.00  0.00     0.049 A 
ATOM     58  H   UNL A   1      43.463  26.631  28.692  1.00  0.00     0.167 HD
ATOM     59  C   UNL A   1      47.638  27.698  27.507  1.00  0.00     0.037 A 
ATOM     60  C   UNL A   1      40.896  27.296  29.373  1.00  0.00     0.037 A 
ATOM     61  C   UNL A   1      47.762  27.329  28.900  1.00  0.00     0.049 A 
ATOM     62  C   UNL A   1      42.035  27.996  30.024  1.00  0.00     0.074 A 
ATOM     63  C   UNL A   1      48.317  26.261  29.579  1.00  0.00     0.029 A 
ATOM     64  N   UNL A   1      46.892  27.919  29.786  1.00  0.00    -0.354 N 
ATOM     65  N   UNL A   1      42.715  27.490  31.017  1.00  0.00    -0.248 NA
ATOM     66  C   UNL A   1      42.734  29.001  29.237  1.00  0.00     0.031 C 
ATOM     67  C   UNL A   1      47.398  25.977  30.634  1.00  0.00     0.029 A 
ATOM     68  C   UNL A   1      46.384  26.935  30.596  1.00  0.00     0.049 A 
ATOM     69  H   UNL A   1      46.672  28.878  29.832  1.00  0.00     0.167 HD
ATOM     70  C   UNL A   1      44.042  27.777  30.724  1.00  0.00     0.074 A 
ATOM     71  C   UNL A   1      43.985  28.761  29.641  1.00  0.00     0.031 C 
ATOM     72  C   UNL A   1      45.054  26.971  31.163  1.00  0.00     0.037 A 
BRANCH  59  73
ATOM     73  C   UNL A   1      47.793  29.129  27.046  1.00  0.00     0.057 A 
ATOM     74  C   UNL A   1      49.063  29.727  27.141  1.00  0.00     0.134 A 
ATOM     75  C   UNL A   1      46.730  30.025  26.803  1.00  0.00     0.134 A 
ATOM     76  F   UNL A   1      50.158  28.985  27.365  1.00  0.00    -0.206 F 
ATOM     77  C   UNL A   1      49.244  31.115  27.104  1.00  0.00     0.040 A 
ATOM     78  C   UNL A   1      46.909  31.407  26.711  1.00  0.00     0.040 A 
ATOM     79  F   UNL A   1      45.452  29.640  26.738  1.00  0.00    -0.206 F 
ATOM     80  C   UNL A   1      48.162  31.960  26.902  1.00  0.00     0.006 A 
ENDBRANCH  59  73
BRANCH  60  81
ATOM     81  C   UNL A   1      39.587  27.956  29.150  1.00  0.00     0.057 A 
ATOM     82  C   UNL A   1      38.638  28.075  30.177  1.00  0.00     0.134 A 
ATOM     83  C   UNL A   1      39.353  28.741  28.007  1.00  0.00     0.134 A 
ATOM     84  F   UNL A   1      38.794  27.404  31.328  1.00  0.00    -0.206 F 
ATOM     85  C   UNL A   1      37.537  28.941  30.084  1.00  0.00     0.040 A 
ATOM     86  C   UNL A   1      38.256  29.606  27.899  1.00  0.00     0.040 A 
ATOM     87  F   UNL A   1      40.232  28.766  26.994  1.00  0.00    -0.206 F 
ATOM     88  C   UNL A   1      37.351  29.719  28.945  1.00  0.00     0.006 A 
ENDBRANCH  60  81
BRANCH  72  89
ATOM     89  C   UNL A   1      44.711  25.888  32.153  1.00  0.00     0.057 A 
ATOM     90  C   UNL A   1      44.428  24.556  31.806  1.00  0.00     0.134 A 
ATOM     91  C   UNL A   1      44.820  26.166  33.518  1.00  0.00     0.134 A 
ATOM     92  F   UNL A   1      44.396  24.166  30.527  1.00  0.00    -0.206 F 
ATOM     93  C   UNL A   1      44.226  23.562  32.770  1.00  0.00     0.040 A 
ATOM     94  C   UNL A   1      44.652  25.178  34.492  1.00  0.00     0.040 A 
ATOM     95  F   UNL A   1      45.145  27.402  33.929  1.00  0.00    -0.206 F 
ATOM     96  C   UNL A   1      44.344  23.871  34.119  1.00  0.00     0.006 A 
ENDBRANCH  72  89
ENDBRANCH  46  47
ENDBRANCH  38  41
ENDBRANCH  36  37
ENDBRANCH  35  36
ENDBRANCH  34  35
ENDBRANCH  33  34
ENDBRANCH   1  33
TORSDOF 18
ENDMDL
MODEL 2
REMARK VINA RESULT:     -11.8      5.748     10.830
REMARK SMILES NS(=O)(=O)c1ccc(-n2nc(C(F)F)cc2-c2ccc(C(=O)NCCCCCCNC(=O)c3ccc(-c4c5nc(c(-c6c(F)cccc6F)c6ccc([nH]6)c(-c6c(F)cccc6F)c6nc(c(-c7c(F)cccc7F)c7ccc4[nH]7)C=C6)C=C5)cc3)cc2)cc1
REMARK SMILES IDX 25 1 24 2 23 3 21 4 22 5 20 7 17 8 18 9 88 10 19 11 87 12
REMARK SMILES IDX 16 13 9 14 10 15 11 16 15 17 8 18 5 19 6 20 90 21 7 22 89 23
REMARK SMILES IDX 2 24 3 25 4 26 1 27 12 30 13 31 14 32 26 33 27 34 28 35
REMARK SMILES IDX 29 36 30 37 31 38 32 40 33 41 34 42 86 43 35 44 85 45 36 46
REMARK SMILES IDX 37 47 38 48 79 49 39 50 84 51 78 52 80 53 40 54 83 55 77 56
REMARK SMILES IDX 76 57 41 59 67 60 50 61 66 62 51 63 54 64 65 65 81 66 52 67
REMARK SMILES IDX 53 68 64 70 82 71 55 72 42 73 43 74 48 75 44 76 45 77 47 78
REMARK SMILES IDX 49 79 46 80 68 81 69 82 74 83 70 84 71 85 73 86 75 87 72 88
REMARK SMILES IDX 56 89 57 90 62 91 58 92 59 93 61 94 63 95 60 96
REMARK H PARENT 23 6 1 28 1 29 30 39 80 58 54 69
REMARK Flexibility Score: inf
ROOT
ATOM      1  C   UNL A   1      32.195  32.845  27.271  1.00  0.00     0.021 C 
ENDROOT
BRANCH   1   2
ATOM      2  C   UNL A   1      32.319  31.356  26.944  1.00  0.00     0.116 C 
BRANCH   2   3
ATOM      3  N   UNL A   1      33.497  30.816  27.593  1.00  0.00    -0.352 N 
ATOM      4  C   UNL A   1      34.061  29.568  27.595  1.00  0.00     0.251 C 
ATOM      5  O   UNL A   1      35.054  29.385  28.296  1.00  0.00    -0.269 OA
ATOM      6  H   UNL A   1      33.986  31.472  28.138  1.00  0.00     0.163 HD
BRANCH   4   7
ATOM      7  C   UNL A   1      33.577  28.472  26.714  1.00  0.00     0.039 A 
ATOM      8  C   UNL A   1      32.729  26.206  25.300  1.00  0.00     0.000 A 
ATOM      9  C   UNL A   1      32.126  26.538  26.518  1.00  0.00     0.011 A 
ATOM     10  C   UNL A   1      33.710  27.038  24.764  1.00  0.00     0.011 A 
ATOM     11  C   UNL A   1      32.557  27.659  27.227  1.00  0.00     0.014 A 
ATOM     12  C   UNL A   1      34.082  28.200  25.441  1.00  0.00     0.014 A 
BRANCH   8  13
ATOM     13  C   UNL A   1      32.278  25.044  24.551  1.00  0.00     0.075 A 
ATOM     14  N   UNL A   1      31.146  25.022  23.749  1.00  0.00    -0.233 N 
ATOM     15  N   UNL A   1      30.816  23.761  23.379  1.00  0.00    -0.166 NA
ATOM     16  C   UNL A   1      31.865  23.007  23.763  1.00  0.00     0.129 A 
ATOM     17  C   UNL A   1      32.781  23.762  24.533  1.00  0.00     0.060 A 
BRANCH  14  18
ATOM     18  C   UNL A   1      30.380  26.142  23.341  1.00  0.00     0.065 A 
ATOM     19  C   UNL A   1      29.013  28.494  22.774  1.00  0.00     0.082 A 
ATOM     20  C   UNL A   1      30.283  28.293  22.230  1.00  0.00     0.024 A 
ATOM     21  C   UNL A   1      28.405  27.513  23.566  1.00  0.00     0.024 A 
ATOM     22  C   UNL A   1      30.964  27.115  22.514  1.00  0.00     0.030 A 
ATOM     23  C   UNL A   1      29.081  26.316  23.832  1.00  0.00     0.030 A 
BRANCH  19  24
ATOM     24  S   UNL A   1      28.221  30.045  22.474  1.00  0.00     0.238 S 
ATOM     25  O   UNL A   1      27.123  30.190  23.393  1.00  0.00    -0.207 OA
ATOM     26  O   UNL A   1      28.085  30.251  21.048  1.00  0.00    -0.207 OA
BRANCH  24  27
ATOM     27  N   UNL A   1      29.392  31.141  22.978  1.00  0.00    -0.225 NA
ATOM     28  H   UNL A   1      28.988  32.076  23.015  1.00  0.00     0.137 HD
ATOM     29  H   UNL A   1      30.171  31.132  22.320  1.00  0.00     0.137 HD
ENDBRANCH  24  27
ENDBRANCH  19  24
ENDBRANCH  14  18
BRANCH  16  30
ATOM     30  C   UNL A   1      32.001  21.555  23.411  1.00  0.00     0.393 C 
ATOM     31  F   UNL A   1      31.664  21.294  22.121  1.00  0.00    -0.203 F 
ATOM     32  F   UNL A   1      33.281  21.120  23.580  1.00  0.00    -0.203 F 
ENDBRANCH  16  30
ENDBRANCH   8  13
ENDBRANCH   4   7
ENDBRANCH   2   3
ENDBRANCH   1   2
BRANCH   1  33
ATOM     33  C   UNL A   1      33.538  33.479  27.654  1.00  0.00     0.002 C 
BRANCH  33  34
ATOM     34  C   UNL A   1      33.555  34.195  29.017  1.00  0.00     0.002 C 
BRANCH  34  35
ATOM     35  C   UNL A   1      32.742  35.497  29.107  1.00  0.00     0.021 C 
BRANCH  35  36
ATOM     36  C   UNL A   1      33.374  36.531  30.022  1.00  0.00     0.116 C 
BRANCH  36  37
ATOM     37  N   UNL A   1      32.781  36.522  31.369  1.00  0.00    -0.352 N 
ATOM     38  C   UNL A   1      32.903  35.579  32.378  1.00  0.00     0.251 C 
ATOM     39  H   UNL A   1      32.215  37.298  31.584  1.00  0.00     0.163 HD
ATOM     40  O   UNL A   1      32.080  35.503  33.281  1.00  0.00    -0.269 OA
BRANCH  38  41
ATOM     41  C   UNL A   1      34.070  34.686  32.357  1.00  0.00     0.039 A 
ATOM     42  C   UNL A   1      33.998  33.289  32.380  1.00  0.00     0.014 A 
ATOM     43  C   UNL A   1      35.293  35.319  32.237  1.00  0.00     0.014 A 
ATOM     44  C   UNL A   1      35.190  32.571  32.285  1.00  0.00     0.010 A 
ATOM     45  C   UNL A   1      36.321  34.623  31.702  1.00  0.00     0.010 A 
ATOM     46  C   UNL A   1      36.360  33.274  31.969  1.00  0.00    -0.014 A 
BRANCH  46  47
ATOM     47  C   UNL A   1      37.674  32.680  31.819  1.00  0.00     0.031 A 
ATOM     48  C   UNL A   1      38.401  32.564  33.096  1.00  0.00     0.074 A 
ATOM     49  C   UNL A   1      38.036  32.023  30.689  1.00  0.00     0.049 A 
ATOM     50  N   UNL A   1      39.401  33.272  33.494  1.00  0.00    -0.248 NA
ATOM     51  C   UNL A   1      37.821  31.704  34.143  1.00  0.00     0.031 C 
ATOM     52  C   UNL A   1      37.248  31.763  29.472  1.00  0.00     0.029 A 
ATOM     53  N   UNL A   1      39.193  31.356  30.430  1.00  0.00    -0.354 N 
ATOM     54  C   UNL A   1      39.737  32.761  34.741  1.00  0.00     0.074 A 
ATOM     55  C   UNL A   1      38.596  32.008  35.185  1.00  0.00     0.031 C 
ATOM     56  C   UNL A   1      37.865  30.830  28.711  1.00  0.00     0.029 A 
ATOM     57  C   UNL A   1      39.161  30.544  29.294  1.00  0.00     0.049 A 
ATOM     58  H   UNL A   1      39.992  31.440  30.998  1.00  0.00     0.167 HD
ATOM     59  C   UNL A   1      41.036  32.735  35.146  1.00  0.00     0.037 A 
ATOM     60  C   UNL A   1      40.139  29.687  28.901  1.00  0.00     0.037 A 
ATOM     61  C   UNL A   1      41.849  33.587  34.308  1.00  0.00     0.049 A 
ATOM     62  C   UNL A   1      41.384  30.110  29.596  1.00  0.00     0.074 A 
ATOM     63  C   UNL A   1      41.837  34.930  33.982  1.00  0.00     0.029 A 
ATOM     64  N   UNL A   1      42.601  32.976  33.332  1.00  0.00    -0.354 N 
ATOM     65  N   UNL A   1      41.987  31.244  29.360  1.00  0.00    -0.248 NA
ATOM     66  C   UNL A   1      41.650  29.521  30.900  1.00  0.00     0.031 C 
ATOM     67  C   UNL A   1      42.151  34.974  32.589  1.00  0.00     0.029 A 
ATOM     68  C   UNL A   1      42.422  33.673  32.164  1.00  0.00     0.049 A 
ATOM     69  H   UNL A   1      43.168  32.180  33.449  1.00  0.00     0.167 HD
ATOM     70  C   UNL A   1      42.347  31.723  30.613  1.00  0.00     0.074 A 
ATOM     71  C   UNL A   1      42.162  30.588  31.519  1.00  0.00     0.031 C 
ATOM     72  C   UNL A   1      42.460  33.064  30.853  1.00  0.00     0.037 A 
BRANCH  59  73
ATOM     73  C   UNL A   1      41.644  31.638  35.991  1.00  0.00     0.057 A 
ATOM     74  C   UNL A   1      42.451  32.006  37.084  1.00  0.00     0.134 A 
ATOM     75  C   UNL A   1      41.725  30.278  35.624  1.00  0.00     0.134 A 
ATOM     76  F   UNL A   1      42.461  33.269  37.536  1.00  0.00    -0.206 F 
ATOM     77  C   UNL A   1      43.345  31.116  37.690  1.00  0.00     0.040 A 
ATOM     78  C   UNL A   1      42.575  29.370  36.258  1.00  0.00     0.040 A 
ATOM     79  F   UNL A   1      41.070  29.766  34.577  1.00  0.00    -0.206 F 
ATOM     80  C   UNL A   1      43.418  29.796  37.269  1.00  0.00     0.006 A 
ENDBRANCH  59  73
BRANCH  60  81
ATOM     81  C   UNL A   1      40.003  28.353  28.267  1.00  0.00     0.057 A 
ATOM     82  C   UNL A   1      40.624  28.052  27.045  1.00  0.00     0.134 A 
ATOM     83  C   UNL A   1      39.503  27.253  28.987  1.00  0.00     0.134 A 
ATOM     84  F   UNL A   1      41.175  29.025  26.305  1.00  0.00    -0.206 F 
ATOM     85  C   UNL A   1      40.760  26.735  26.578  1.00  0.00     0.040 A 
ATOM     86  C   UNL A   1      39.628  25.934  28.531  1.00  0.00     0.040 A 
ATOM     87  F   UNL A   1      38.958  27.413  30.202  1.00  0.00    -0.206 F 
ATOM     88  C   UNL A   1      40.271  25.670  27.329  1.00  0.00     0.006 A 
ENDBRANCH  60  81
BRANCH  72  89
ATOM     89  C   UNL A   1      42.398  33.997  29.670  1.00  0.00     0.057 A 
ATOM     90  C   UNL A   1      41.250  34.708  29.280  1.00  0.00     0.134 A 
ATOM     91  C   UNL A   1      43.581  34.304  28.994  1.00  0.00     0.134 A 
ATOM     92  F   UNL A   1      40.090  34.556  29.927  1.00  0.00    -0.206 F 
ATOM     93  C   UNL A   1      41.273  35.648  28.244  1.00  0.00     0.040 A 
ATOM     94  C   UNL A   1      43.626  35.263  27.978  1.00  0.00     0.040 A 
ATOM     95  F   UNL A   1      44.732  33.710  29.347  1.00  0.00    -0.206 F 
ATOM     96  C   UNL A   1      42.467  35.932  27.593  1.00  0.00     0.006 A 
ENDBRANCH  72  89
ENDBRANCH  46  47
ENDBRANCH  38  41
ENDBRANCH  36  37
ENDBRANCH  35  36
ENDBRANCH  34  35
ENDBRANCH  33  34
ENDBRANCH   1  33
TORSDOF 18
ENDMDL
MODEL 3
REMARK VINA RESULT:     -11.3      1.268      2.004
REMARK SMILES NS(=O)(=O)c1ccc(-n2nc(C(F)F)cc2-c2ccc(C(=O)NCCCCCCNC(=O)c3ccc(-c4c5nc(c(-c6c(F)cccc6F)c6ccc([nH]6)c(-c6c(F)cccc6F)c6nc(c(-c7c(F)cccc7F)c7ccc4[nH]7)C=C6)C=C5)cc3)cc2)cc1
REMARK SMILES IDX 25 1 24 2 23 3 21 4 22 5 20 7 17 8 18 9 88 10 19 11 87 12
REMARK SMILES IDX 16 13 9 14 10 15 11 16 15 17 8 18 5 19 6 20 90 21 7 22 89 23
REMARK SMILES IDX 2 24 3 25 4 26 1 27 12 30 13 31 14 32 26 33 27 34 28 35
REMARK SMILES IDX 29 36 30 37 31 38 32 40 33 41 34 42 86 43 35 44 85 45 36 46
REMARK SMILES IDX 37 47 38 48 79 49 39 50 84 51 78 52 80 53 40 54 83 55 77 56
REMARK SMILES IDX 76 57 41 59 67 60 50 61 66 62 51 63 54 64 65 65 81 66 52 67
REMARK SMILES IDX 53 68 64 70 82 71 55 72 42 73 43 74 48 75 44 76 45 77 47 78
REMARK SMILES IDX 49 79 46 80 68 81 69 82 74 83 70 84 71 85 73 86 75 87 72 88
REMARK SMILES IDX 56 89 57 90 62 91 58 92 59 93 61 94 63 95 60 96
REMARK H PARENT 23 6 1 28 1 29 30 39 80 58 54 69
REMARK Flexibility Score: inf
ROOT
ATOM      1  C   UNL A   1      39.485  19.767  25.792  1.00  0.00     0.021 C 
ENDROOT
BRANCH   1   2
ATOM      2  C   UNL A   1      38.427  20.794  25.385  1.00  0.00     0.116 C 
BRANCH   2   3
ATOM      3  N   UNL A   1      38.868  22.120  25.768  1.00  0.00    -0.352 N 
ATOM      4  C   UNL A   1      38.237  23.335  25.787  1.00  0.00     0.251 C 
ATOM      5  O   UNL A   1      38.893  24.321  26.118  1.00  0.00    -0.269 OA
ATOM      6  H   UNL A   1      39.803  22.155  26.074  1.00  0.00     0.163 HD
BRANCH   4   7
ATOM      7  C   UNL A   1      36.782  23.482  25.519  1.00  0.00     0.039 A 
ATOM      8  C   UNL A   1      34.116  24.028  24.849  1.00  0.00     0.000 A 
ATOM      9  C   UNL A   1      35.071  23.862  23.841  1.00  0.00     0.011 A 
ATOM     10  C   UNL A   1      34.482  23.863  26.184  1.00  0.00     0.011 A 
ATOM     11  C   UNL A   1      36.400  23.602  24.176  1.00  0.00     0.014 A 
ATOM     12  C   UNL A   1      35.797  23.528  26.508  1.00  0.00     0.014 A 
BRANCH   8  13
ATOM     13  C   UNL A   1      32.727  24.290  24.508  1.00  0.00     0.075 A 
ATOM     14  N   UNL A   1      31.833  23.321  24.074  1.00  0.00    -0.233 N 
ATOM     15  N   UNL A   1      30.695  23.870  23.583  1.00  0.00    -0.166 NA
ATOM     16  C   UNL A   1      30.778  25.175  23.910  1.00  0.00     0.129 A 
ATOM     17  C   UNL A   1      32.046  25.486  24.452  1.00  0.00     0.060 A 
BRANCH  14  18
ATOM     18  C   UNL A   1      32.030  21.918  24.103  1.00  0.00     0.065 A 
ATOM     19  C   UNL A   1      32.721  19.228  24.157  1.00  0.00     0.082 A 
ATOM     20  C   UNL A   1      32.651  19.939  25.355  1.00  0.00     0.024 A 
ATOM     21  C   UNL A   1      32.409  19.839  22.936  1.00  0.00     0.024 A 
ATOM     22  C   UNL A   1      32.304  21.285  25.327  1.00  0.00     0.030 A 
ATOM     23  C   UNL A   1      32.036  21.188  22.910  1.00  0.00     0.030 A 
BRANCH  19  24
ATOM     24  S   UNL A   1      33.264  17.548  24.222  1.00  0.00     0.238 S 
ATOM     25  O   UNL A   1      32.384  16.809  25.087  1.00  0.00    -0.207 OA
ATOM     26  O   UNL A   1      34.706  17.509  24.347  1.00  0.00    -0.207 OA
BRANCH  24  27
ATOM     27  N   UNL A   1      32.933  17.011  22.662  1.00  0.00    -0.225 NA
ATOM     28  H   UNL A   1      31.939  16.801  22.579  1.00  0.00     0.137 HD
ATOM     29  H   UNL A   1      33.476  16.169  22.470  1.00  0.00     0.137 HD
ENDBRANCH  24  27
ENDBRANCH  19  24
ENDBRANCH  14  18
BRANCH  16  30
ATOM     30  C   UNL A   1      29.652  26.144  23.697  1.00  0.00     0.393 C 
ATOM     31  F   UNL A   1      28.784  26.178  24.743  1.00  0.00    -0.203 F 
ATOM     32  F   UNL A   1      30.114  27.414  23.527  1.00  0.00    -0.203 F 
ENDBRANCH  16  30
ENDBRANCH   8  13
ENDBRANCH   4   7
ENDBRANCH   2   3
ENDBRANCH   1   2
BRANCH   1  33
ATOM     33  C   UNL A   1      40.834  20.413  26.130  1.00  0.00     0.002 C 
BRANCH  33  34
ATOM     34  C   UNL A   1      41.918  19.438  26.624  1.00  0.00     0.002 C 
BRANCH  34  35
ATOM     35  C   UNL A   1      42.936  18.969  25.572  1.00  0.00     0.021 C 
BRANCH  35  36
ATOM     36  C   UNL A   1      44.246  19.734  25.629  1.00  0.00     0.116 C 
BRANCH  36  37
ATOM     37  N   UNL A   1      44.569  20.383  24.348  1.00  0.00    -0.352 N 
ATOM     38  C   UNL A   1      44.432  21.713  23.976  1.00  0.00     0.251 C 
ATOM     39  H   UNL A   1      44.935  19.788  23.655  1.00  0.00     0.163 HD
ATOM     40  O   UNL A   1      44.379  22.042  22.798  1.00  0.00    -0.269 OA
BRANCH  38  41
ATOM     41  C   UNL A   1      44.384  22.729  25.037  1.00  0.00     0.039 A 
ATOM     42  C   UNL A   1      45.392  22.933  25.985  1.00  0.00     0.014 A 
ATOM     43  C   UNL A   1      43.277  23.556  25.007  1.00  0.00     0.014 A 
ATOM     44  C   UNL A   1      45.237  23.983  26.889  1.00  0.00     0.010 A 
ATOM     45  C   UNL A   1      43.384  24.784  25.564  1.00  0.00     0.010 A 
ATOM     46  C   UNL A   1      44.193  24.892  26.671  1.00  0.00    -0.014 A 
BRANCH  46  47
ATOM     47  C   UNL A   1      43.903  26.043  27.504  1.00  0.00     0.031 A 
ATOM     48  C   UNL A   1      44.826  27.169  27.268  1.00  0.00     0.074 A 
ATOM     49  C   UNL A   1      42.729  26.164  28.172  1.00  0.00     0.049 A 
ATOM     50  N   UNL A   1      45.776  27.575  28.038  1.00  0.00    -0.248 NA
ATOM     51  C   UNL A   1      44.833  27.784  25.930  1.00  0.00     0.031 C 
ATOM     52  C   UNL A   1      41.572  25.254  28.190  1.00  0.00     0.029 A 
ATOM     53  N   UNL A   1      42.286  27.207  28.925  1.00  0.00    -0.354 N 
ATOM     54  C   UNL A   1      46.330  28.670  27.387  1.00  0.00     0.074 A 
ATOM     55  C   UNL A   1      45.900  28.580  26.018  1.00  0.00     0.031 C 
ATOM     56  C   UNL A   1      40.501  25.877  28.734  1.00  0.00     0.029 A 
ATOM     57  C   UNL A   1      40.928  27.162  29.249  1.00  0.00     0.049 A 
ATOM     58  H   UNL A   1      42.877  27.937  29.219  1.00  0.00     0.167 HD
ATOM     59  C   UNL A   1      46.820  29.720  28.102  1.00  0.00     0.037 A 
ATOM     60  C   UNL A   1      40.228  28.142  29.877  1.00  0.00     0.037 A 
ATOM     61  C   UNL A   1      46.991  29.356  29.490  1.00  0.00     0.049 A 
ATOM     62  C   UNL A   1      41.224  29.016  30.552  1.00  0.00     0.074 A 
ATOM     63  C   UNL A   1      47.714  28.388  30.161  1.00  0.00     0.029 A 
ATOM     64  N   UNL A   1      46.024  29.775  30.374  1.00  0.00    -0.354 N 
ATOM     65  N   UNL A   1      41.970  28.618  31.546  1.00  0.00    -0.248 NA
ATOM     66  C   UNL A   1      41.748  30.138  29.788  1.00  0.00     0.031 C 
ATOM     67  C   UNL A   1      46.846  27.934  31.201  1.00  0.00     0.029 A 
ATOM     68  C   UNL A   1      45.683  28.705  31.163  1.00  0.00     0.049 A 
ATOM     69  H   UNL A   1      45.643  30.680  30.430  1.00  0.00     0.167 HD
ATOM     70  C   UNL A   1      43.231  29.133  31.274  1.00  0.00     0.074 A 
ATOM     71  C   UNL A   1      43.017  30.109  30.204  1.00  0.00     0.031 C 
ATOM     72  C   UNL A   1      44.362  28.504  31.714  1.00  0.00     0.037 A 
BRANCH  59  73
ATOM     73  C   UNL A   1      46.732  31.164  27.663  1.00  0.00     0.057 A 
ATOM     74  C   UNL A   1      45.469  31.688  27.335  1.00  0.00     0.134 A 
ATOM     75  C   UNL A   1      47.827  31.961  27.266  1.00  0.00     0.134 A 
ATOM     76  F   UNL A   1      44.346  31.029  27.662  1.00  0.00    -0.206 F 
ATOM     77  C   UNL A   1      45.312  32.855  26.579  1.00  0.00     0.040 A 
ATOM     78  C   UNL A   1      47.678  33.156  26.558  1.00  0.00     0.040 A 
ATOM     79  F   UNL A   1      49.100  31.594  27.446  1.00  0.00    -0.206 F 
ATOM     80  C   UNL A   1      46.421  33.587  26.177  1.00  0.00     0.006 A 
ENDBRANCH  59  73
BRANCH  60  81
ATOM     81  C   UNL A   1      38.827  28.573  29.646  1.00  0.00     0.057 A 
ATOM     82  C   UNL A   1      37.918  28.718  30.706  1.00  0.00     0.134 A 
ATOM     83  C   UNL A   1      38.429  29.131  28.418  1.00  0.00     0.134 A 
ATOM     84  F   UNL A   1      38.222  28.261  31.929  1.00  0.00    -0.206 F 
ATOM     85  C   UNL A   1      36.698  29.397  30.559  1.00  0.00     0.040 A 
ATOM     86  C   UNL A   1      37.214  29.809  28.257  1.00  0.00     0.040 A 
ATOM     87  F   UNL A   1      39.249  29.120  27.357  1.00  0.00    -0.206 F 
ATOM     88  C   UNL A   1      36.349  29.956  29.333  1.00  0.00     0.006 A 
ENDBRANCH  60  81
BRANCH  72  89
ATOM     89  C   UNL A   1      44.199  27.362  32.685  1.00  0.00     0.057 A 
ATOM     90  C   UNL A   1      43.915  27.518  34.052  1.00  0.00     0.134 A 
ATOM     91  C   UNL A   1      44.176  26.056  32.188  1.00  0.00     0.134 A 
ATOM     92  F   UNL A   1      43.820  28.733  34.604  1.00  0.00    -0.206 F 
ATOM     93  C   UNL A   1      43.661  26.427  34.889  1.00  0.00     0.040 A 
ATOM     94  C   UNL A   1      43.893  24.958  33.006  1.00  0.00     0.040 A 
ATOM     95  F   UNL A   1      44.379  25.829  30.881  1.00  0.00    -0.206 F 
ATOM     96  C   UNL A   1      43.643  25.140  34.364  1.00  0.00     0.006 A 
ENDBRANCH  72  89
ENDBRANCH  46  47
ENDBRANCH  38  41
ENDBRANCH  36  37
ENDBRANCH  35  36
ENDBRANCH  34  35
ENDBRANCH  33  34
ENDBRANCH   1  33
TORSDOF 18
ENDMDL
