MODEL 1
REMARK VINA RESULT:     -10.7      0.000      0.000
REMARK SMILES CC[C@@H](Oc1ccccc1/C=C1/SC(=O)N(c2ccc(C)c(C)c2)C1=O)C(=O)NCCCCCCNC(=O)c1ccc(-c2c3nc(c(-c4c(F)cccc4F)c4ccc([nH]4)c(-c4c(F)cccc4F)c4nc(c(-c5c(F)cccc5F)c5ccc2[nH]5)C=C4)C=C3)cc1
REMARK SMILES IDX 31 1 30 2 29 3 27 4 28 5 3 7 2 8 1 9 4 10 5 11 6 12 10 13
REMARK SMILES IDX 7 14 9 15 8 16 11 17 12 18 13 19 25 20 14 21 16 22 26 23
REMARK SMILES IDX 15 24 17 25 18 26 24 27 19 28 22 29 20 30 23 31 21 32 32 33
REMARK SMILES IDX 33 34 34 35 35 36 36 37 37 38 38 40 39 41 40 42 92 43 41 44
REMARK SMILES IDX 91 45 42 46 43 47 44 48 85 49 45 50 90 51 84 52 86 53 46 54
REMARK SMILES IDX 89 55 83 56 82 57 47 59 73 60 56 61 72 62 57 63 60 64 71 65
REMARK SMILES IDX 87 66 58 67 59 68 70 70 88 71 61 72 48 73 49 74 54 75 50 76
REMARK SMILES IDX 51 77 53 78 55 79 52 80 74 81 75 82 80 83 76 84 77 85 79 86
REMARK SMILES IDX 81 87 78 88 62 89 63 90 68 91 64 92 65 93 67 94 69 95 66 96
REMARK H PARENT 29 6 36 39 86 58 60 69
REMARK Flexibility Score: inf
ROOT
ATOM      1  C   UNL A   1      34.476  23.521  23.100  1.00  0.00     0.021 C 
ENDROOT
BRANCH   1   2
ATOM      2  C   UNL A   1      33.339  23.361  22.086  1.00  0.00     0.116 C 
BRANCH   2   3
ATOM      3  N   UNL A   1      32.018  23.572  22.649  1.00  0.00    -0.353 N 
ATOM      4  C   UNL A   1      31.285  24.719  22.792  1.00  0.00     0.261 C 
ATOM      5  O   UNL A   1      30.098  24.583  23.114  1.00  0.00    -0.271 OA
ATOM      6  H   UNL A   1      31.578  22.757  22.983  1.00  0.00     0.163 HD
BRANCH   4   7
ATOM      7  C   UNL A   1      31.906  26.139  22.707  1.00  0.00     0.261 C 
BRANCH   7   8
ATOM      8  C   UNL A   1      31.732  26.621  21.253  1.00  0.00     0.052 C 
ATOM      9  C   UNL A   1      32.443  25.732  20.236  1.00  0.00     0.008 C 
ENDBRANCH   7   8
BRANCH   7  10
ATOM     10  O   UNL A   1      31.315  27.042  23.649  1.00  0.00    -0.480 OA
BRANCH  10  11
ATOM     11  C   UNL A   1      32.192  27.583  24.560  1.00  0.00     0.127 A 
ATOM     12  C   UNL A   1      33.371  28.174  24.108  1.00  0.00     0.047 A 
ATOM     13  C   UNL A   1      31.989  27.387  25.941  1.00  0.00     0.018 A 
ATOM     14  C   UNL A   1      34.319  28.625  25.031  1.00  0.00     0.004 A 
ATOM     15  C   UNL A   1      32.923  27.884  26.857  1.00  0.00     0.012 A 
ATOM     16  C   UNL A   1      34.087  28.498  26.401  1.00  0.00     0.001 A 
BRANCH  13  17
ATOM     17  C   UNL A   1      30.857  26.616  26.458  1.00  0.00     0.033 C 
ATOM     18  C   UNL A   1      30.847  25.277  26.493  1.00  0.00     0.084 C 
ATOM     19  S   UNL A   1      29.461  24.355  26.937  1.00  0.00    -0.022 SA
ATOM     20  C   UNL A   1      31.970  24.369  26.110  1.00  0.00     0.272 C 
ATOM     21  C   UNL A   1      30.222  22.841  26.464  1.00  0.00     0.298 C 
ATOM     22  N   UNL A   1      31.497  23.079  26.018  1.00  0.00    -0.236 N 
ATOM     23  O   UNL A   1      33.131  24.721  25.959  1.00  0.00    -0.268 OA
ATOM     24  O   UNL A   1      29.622  21.776  26.544  1.00  0.00    -0.260 OA
BRANCH  22  25
ATOM     25  C   UNL A   1      32.362  22.030  25.658  1.00  0.00     0.053 A 
ATOM     26  C   UNL A   1      33.558  21.858  26.345  1.00  0.00     0.027 A 
ATOM     27  C   UNL A   1      32.033  21.171  24.608  1.00  0.00     0.030 A 
ATOM     28  C   UNL A   1      34.388  20.789  26.017  1.00  0.00     0.006 A 
ATOM     29  C   UNL A   1      32.834  20.061  24.298  1.00  0.00    -0.046 A 
ATOM     30  C   UNL A   1      34.022  19.863  25.024  1.00  0.00    -0.048 A 
ATOM     31  C   UNL A   1      32.373  19.094  23.241  1.00  0.00     0.044 C 
ATOM     32  C   UNL A   1      34.959  18.723  24.737  1.00  0.00     0.044 C 
ENDBRANCH  22  25
ENDBRANCH  13  17
ENDBRANCH  10  11
ENDBRANCH   7  10
ENDBRANCH   4   7
ENDBRANCH   2   3
ENDBRANCH   1   2
BRANCH   1  33
ATOM     33  C   UNL A   1      35.850  22.972  22.682  1.00  0.00     0.002 C 
BRANCH  33  34
ATOM     34  C   UNL A   1      36.815  22.564  23.809  1.00  0.00     0.002 C 
BRANCH  34  35
ATOM     35  C   UNL A   1      36.964  23.551  24.971  1.00  0.00     0.021 C 
BRANCH  35  36
ATOM     36  C   UNL A   1      37.297  22.968  26.339  1.00  0.00     0.116 C 
BRANCH  36  37
ATOM     37  N   UNL A   1      38.542  22.217  26.324  1.00  0.00    -0.352 N 
ATOM     38  C   UNL A   1      39.851  22.612  26.468  1.00  0.00     0.251 C 
ATOM     39  H   UNL A   1      38.427  21.249  26.185  1.00  0.00     0.163 HD
ATOM     40  O   UNL A   1      40.737  21.808  26.179  1.00  0.00    -0.269 OA
BRANCH  38  41
ATOM     41  C   UNL A   1      40.244  23.968  26.945  1.00  0.00     0.039 A 
ATOM     42  C   UNL A   1      40.271  25.016  26.013  1.00  0.00     0.014 A 
ATOM     43  C   UNL A   1      40.677  24.221  28.248  1.00  0.00     0.014 A 
ATOM     44  C   UNL A   1      40.673  26.304  26.394  1.00  0.00     0.010 A 
ATOM     45  C   UNL A   1      40.998  25.523  28.649  1.00  0.00     0.010 A 
ATOM     46  C   UNL A   1      41.008  26.580  27.727  1.00  0.00    -0.014 A 
BRANCH  46  47
ATOM     47  C   UNL A   1      41.364  27.959  28.172  1.00  0.00     0.031 A 
ATOM     48  C   UNL A   1      42.803  28.407  28.213  1.00  0.00     0.074 A 
ATOM     49  C   UNL A   1      40.396  28.794  28.605  1.00  0.00     0.049 A 
ATOM     50  N   UNL A   1      43.310  29.531  28.657  1.00  0.00    -0.248 NA
ATOM     51  C   UNL A   1      43.809  27.460  27.705  1.00  0.00     0.031 C 
ATOM     52  C   UNL A   1      38.967  28.479  28.655  1.00  0.00     0.029 A 
ATOM     53  N   UNL A   1      40.470  30.073  29.104  1.00  0.00    -0.354 N 
ATOM     54  C   UNL A   1      44.688  29.415  28.509  1.00  0.00     0.074 A 
ATOM     55  C   UNL A   1      44.942  28.099  27.965  1.00  0.00     0.031 C 
ATOM     56  C   UNL A   1      38.301  29.536  29.143  1.00  0.00     0.029 A 
ATOM     57  C   UNL A   1      39.254  30.584  29.492  1.00  0.00     0.049 A 
ATOM     58  H   UNL A   1      41.314  30.575  29.178  1.00  0.00     0.167 HD
ATOM     59  C   UNL A   1      45.652  30.325  28.791  1.00  0.00     0.037 A 
ATOM     60  C   UNL A   1      38.942  31.754  30.086  1.00  0.00     0.037 A 
ATOM     61  C   UNL A   1      45.397  31.648  29.300  1.00  0.00     0.049 A 
ATOM     62  C   UNL A   1      40.036  32.738  30.405  1.00  0.00     0.074 A 
ATOM     63  C   UNL A   1      46.304  32.670  29.530  1.00  0.00     0.029 A 
ATOM     64  N   UNL A   1      44.151  32.128  29.670  1.00  0.00    -0.354 N 
ATOM     65  N   UNL A   1      41.323  32.645  30.179  1.00  0.00    -0.248 NA
ATOM     66  C   UNL A   1      39.633  33.989  31.066  1.00  0.00     0.031 C 
ATOM     67  C   UNL A   1      45.615  33.745  30.099  1.00  0.00     0.029 A 
ATOM     68  C   UNL A   1      44.272  33.416  30.167  1.00  0.00     0.049 A 
ATOM     69  H   UNL A   1      43.306  31.630  29.591  1.00  0.00     0.167 HD
ATOM     70  C   UNL A   1      41.879  33.829  30.648  1.00  0.00     0.074 A 
ATOM     71  C   UNL A   1      40.788  34.635  31.151  1.00  0.00     0.031 C 
ATOM     72  C   UNL A   1      43.178  34.213  30.662  1.00  0.00     0.037 A 
BRANCH  59  73
ATOM     73  C   UNL A   1      47.084  29.929  28.566  1.00  0.00     0.057 A 
ATOM     74  C   UNL A   1      47.879  29.398  29.590  1.00  0.00     0.134 A 
ATOM     75  C   UNL A   1      47.651  30.009  27.287  1.00  0.00     0.134 A 
ATOM     76  F   UNL A   1      47.400  29.297  30.839  1.00  0.00    -0.206 F 
ATOM     77  C   UNL A   1      49.190  28.980  29.355  1.00  0.00     0.040 A 
ATOM     78  C   UNL A   1      48.951  29.568  27.033  1.00  0.00     0.040 A 
ATOM     79  F   UNL A   1      46.942  30.495  26.257  1.00  0.00    -0.206 F 
ATOM     80  C   UNL A   1      49.727  29.056  28.070  1.00  0.00     0.006 A 
ENDBRANCH  59  73
BRANCH  60  81
ATOM     81  C   UNL A   1      37.530  32.057  30.441  1.00  0.00     0.057 A 
ATOM     82  C   UNL A   1      36.987  31.652  31.666  1.00  0.00     0.134 A 
ATOM     83  C   UNL A   1      36.681  32.731  29.554  1.00  0.00     0.134 A 
ATOM     84  F   UNL A   1      37.741  30.984  32.552  1.00  0.00    -0.206 F 
ATOM     85  C   UNL A   1      35.647  31.881  31.985  1.00  0.00     0.040 A 
ATOM     86  C   UNL A   1      35.348  32.994  29.872  1.00  0.00     0.040 A 
ATOM     87  F   UNL A   1      37.139  33.154  28.366  1.00  0.00    -0.206 F 
ATOM     88  C   UNL A   1      34.824  32.557  31.087  1.00  0.00     0.006 A 
ENDBRANCH  60  81
BRANCH  72  89
ATOM     89  C   UNL A   1      43.496  35.570  31.218  1.00  0.00     0.057 A 
ATOM     90  C   UNL A   1      43.690  35.780  32.590  1.00  0.00     0.134 A 
ATOM     91  C   UNL A   1      43.669  36.669  30.366  1.00  0.00     0.134 A 
ATOM     92  F   UNL A   1      43.527  34.773  33.461  1.00  0.00    -0.206 F 
ATOM     93  C   UNL A   1      44.030  37.037  33.095  1.00  0.00     0.040 A 
ATOM     94  C   UNL A   1      44.036  37.923  30.856  1.00  0.00     0.040 A 
ATOM     95  F   UNL A   1      43.507  36.536  29.041  1.00  0.00    -0.206 F 
ATOM     96  C   UNL A   1      44.214  38.110  32.225  1.00  0.00     0.006 A 
ENDBRANCH  72  89
ENDBRANCH  46  47
ENDBRANCH  38  41
ENDBRANCH  36  37
ENDBRANCH  35  36
ENDBRANCH  34  35
ENDBRANCH  33  34
ENDBRANCH   1  33
TORSDOF 18
ENDMDL
MODEL 2
REMARK VINA RESULT:     -10.4      5.015      9.070
REMARK SMILES CC[C@@H](Oc1ccccc1/C=C1/SC(=O)N(c2ccc(C)c(C)c2)C1=O)C(=O)NCCCCCCNC(=O)c1ccc(-c2c3nc(c(-c4c(F)cccc4F)c4ccc([nH]4)c(-c4c(F)cccc4F)c4nc(c(-c5c(F)cccc5F)c5ccc2[nH]5)C=C4)C=C3)cc1
REMARK SMILES IDX 31 1 30 2 29 3 27 4 28 5 3 7 2 8 1 9 4 10 5 11 6 12 10 13
REMARK SMILES IDX 7 14 9 15 8 16 11 17 12 18 13 19 25 20 14 21 16 22 26 23
REMARK SMILES IDX 15 24 17 25 18 26 24 27 19 28 22 29 20 30 23 31 21 32 32 33
REMARK SMILES IDX 33 34 34 35 35 36 36 37 37 38 38 40 39 41 40 42 92 43 41 44
REMARK SMILES IDX 91 45 42 46 43 47 44 48 85 49 45 50 90 51 84 52 86 53 46 54
REMARK SMILES IDX 89 55 83 56 82 57 47 59 73 60 56 61 72 62 57 63 60 64 71 65
REMARK SMILES IDX 87 66 58 67 59 68 70 70 88 71 61 72 48 73 49 74 54 75 50 76
REMARK SMILES IDX 51 77 53 78 55 79 52 80 74 81 75 82 80 83 76 84 77 85 79 86
REMARK SMILES IDX 81 87 78 88 62 89 63 90 68 91 64 92 65 93 67 94 69 95 66 96
REMARK H PARENT 29 6 36 39 86 58 60 69
REMARK Flexibility Score: inf
ROOT
ATOM      1  C   UNL A   1      37.731  20.124  25.231  1.00  0.00     0.021 C 
ENDROOT
BRANCH   1   2
ATOM      2  C   UNL A   1      39.137  20.725  25.299  1.00  0.00     0.116 C 
BRANCH   2   3
ATOM      3  N   UNL A   1      40.059  19.968  26.126  1.00  0.00    -0.353 N 
ATOM      4  C   UNL A   1      41.156  20.373  26.836  1.00  0.00     0.261 C 
ATOM      5  O   UNL A   1      41.641  19.555  27.627  1.00  0.00    -0.271 OA
ATOM      6  H   UNL A   1      39.862  19.005  26.186  1.00  0.00     0.163 HD
BRANCH   4   7
ATOM      7  C   UNL A   1      41.875  21.727  26.587  1.00  0.00     0.261 C 
BRANCH   7   8
ATOM      8  C   UNL A   1      42.989  21.847  27.646  1.00  0.00     0.052 C 
ATOM      9  C   UNL A   1      42.624  22.775  28.801  1.00  0.00     0.008 C 
ENDBRANCH   7   8
BRANCH   7  10
ATOM     10  O   UNL A   1      42.386  21.828  25.253  1.00  0.00    -0.480 OA
BRANCH  10  11
ATOM     11  C   UNL A   1      43.683  21.399  25.096  1.00  0.00     0.127 A 
ATOM     12  C   UNL A   1      44.011  20.082  25.412  1.00  0.00     0.047 A 
ATOM     13  C   UNL A   1      44.703  22.323  24.790  1.00  0.00     0.018 A 
ATOM     14  C   UNL A   1      45.346  19.669  25.363  1.00  0.00     0.004 A 
ATOM     15  C   UNL A   1      46.029  21.888  24.699  1.00  0.00     0.012 A 
ATOM     16  C   UNL A   1      46.349  20.563  24.989  1.00  0.00     0.001 A 
BRANCH  13  17
ATOM     17  C   UNL A   1      44.432  23.752  24.625  1.00  0.00     0.033 C 
ATOM     18  C   UNL A   1      44.678  24.652  25.586  1.00  0.00     0.084 C 
ATOM     19  S   UNL A   1      44.209  26.305  25.474  1.00  0.00    -0.022 SA
ATOM     20  C   UNL A   1      45.324  24.388  26.907  1.00  0.00     0.272 C 
ATOM     21  C   UNL A   1      44.647  26.624  27.147  1.00  0.00     0.298 C 
ATOM     22  N   UNL A   1      45.156  25.487  27.721  1.00  0.00    -0.236 N 
ATOM     23  O   UNL A   1      45.946  23.374  27.190  1.00  0.00    -0.268 OA
ATOM     24  O   UNL A   1      44.477  27.728  27.650  1.00  0.00    -0.260 OA
BRANCH  22  25
ATOM     25  C   UNL A   1      45.667  25.485  29.031  1.00  0.00     0.053 A 
ATOM     26  C   UNL A   1      46.969  25.913  29.263  1.00  0.00     0.027 A 
ATOM     27  C   UNL A   1      44.880  25.043  30.096  1.00  0.00     0.030 A 
ATOM     28  C   UNL A   1      47.454  25.954  30.568  1.00  0.00     0.006 A 
ATOM     29  C   UNL A   1      45.337  25.124  31.421  1.00  0.00    -0.046 A 
ATOM     30  C   UNL A   1      46.639  25.599  31.657  1.00  0.00    -0.048 A 
ATOM     31  C   UNL A   1      44.406  24.753  32.544  1.00  0.00     0.044 C 
ATOM     32  C   UNL A   1      47.224  25.687  33.039  1.00  0.00     0.044 C 
ENDBRANCH  22  25
ENDBRANCH  13  17
ENDBRANCH  10  11
ENDBRANCH   7  10
ENDBRANCH   4   7
ENDBRANCH   2   3
ENDBRANCH   1   2
BRANCH   1  33
ATOM     33  C   UNL A   1      36.578  21.104  24.961  1.00  0.00     0.002 C 
BRANCH  33  34
ATOM     34  C   UNL A   1      36.938  22.450  24.310  1.00  0.00     0.002 C 
BRANCH  34  35
ATOM     35  C   UNL A   1      36.654  23.707  25.138  1.00  0.00     0.021 C 
BRANCH  35  36
ATOM     36  C   UNL A   1      37.618  24.023  26.275  1.00  0.00     0.116 C 
BRANCH  36  37
ATOM     37  N   UNL A   1      39.002  24.032  25.831  1.00  0.00    -0.352 N 
ATOM     38  C   UNL A   1      40.052  24.871  26.125  1.00  0.00     0.251 C 
ATOM     39  H   UNL A   1      39.230  23.307  25.205  1.00  0.00     0.163 HD
ATOM     40  O   UNL A   1      41.065  24.802  25.430  1.00  0.00    -0.269 OA
BRANCH  38  41
ATOM     41  C   UNL A   1      40.013  25.865  27.235  1.00  0.00     0.039 A 
ATOM     42  C   UNL A   1      40.779  27.033  27.105  1.00  0.00     0.014 A 
ATOM     43  C   UNL A   1      39.330  25.644  28.432  1.00  0.00     0.014 A 
ATOM     44  C   UNL A   1      40.816  27.984  28.134  1.00  0.00     0.010 A 
ATOM     45  C   UNL A   1      39.298  26.630  29.424  1.00  0.00     0.010 A 
ATOM     46  C   UNL A   1      40.046  27.810  29.293  1.00  0.00    -0.014 A 
BRANCH  46  47
ATOM     47  C   UNL A   1      40.009  28.844  30.368  1.00  0.00     0.031 A 
ATOM     48  C   UNL A   1      40.900  28.729  31.578  1.00  0.00     0.074 A 
ATOM     49  C   UNL A   1      39.123  29.858  30.290  1.00  0.00     0.049 A 
ATOM     50  N   UNL A   1      40.940  29.478  32.653  1.00  0.00    -0.248 NA
ATOM     51  C   UNL A   1      41.861  27.614  31.593  1.00  0.00     0.031 C 
ATOM     52  C   UNL A   1      38.175  30.072  29.194  1.00  0.00     0.029 A 
ATOM     53  N   UNL A   1      38.860  30.892  31.158  1.00  0.00    -0.354 N 
ATOM     54  C   UNL A   1      41.905  28.911  33.479  1.00  0.00     0.074 A 
ATOM     55  C   UNL A   1      42.403  27.737  32.797  1.00  0.00     0.031 C 
ATOM     56  C   UNL A   1      37.447  31.170  29.449  1.00  0.00     0.029 A 
ATOM     57  C   UNL A   1      37.835  31.710  30.748  1.00  0.00     0.049 A 
ATOM     58  H   UNL A   1      39.360  31.031  31.995  1.00  0.00     0.167 HD
ATOM     59  C   UNL A   1      42.342  29.336  34.690  1.00  0.00     0.037 A 
ATOM     60  C   UNL A   1      37.252  32.762  31.359  1.00  0.00     0.037 A 
ATOM     61  C   UNL A   1      41.871  30.524  35.353  1.00  0.00     0.049 A 
ATOM     62  C   UNL A   1      37.746  33.199  32.712  1.00  0.00     0.074 A 
ATOM     63  C   UNL A   1      42.320  31.082  36.539  1.00  0.00     0.029 A 
ATOM     64  N   UNL A   1      40.838  31.329  34.899  1.00  0.00    -0.354 N 
ATOM     65  N   UNL A   1      38.716  32.703  33.438  1.00  0.00    -0.248 NA
ATOM     66  C   UNL A   1      37.060  34.344  33.332  1.00  0.00     0.031 C 
ATOM     67  C   UNL A   1      41.518  32.188  36.833  1.00  0.00     0.029 A 
ATOM     68  C   UNL A   1      40.608  32.354  35.803  1.00  0.00     0.049 A 
ATOM     69  H   UNL A   1      40.343  31.193  34.059  1.00  0.00     0.167 HD
ATOM     70  C   UNL A   1      38.772  33.484  34.586  1.00  0.00     0.074 A 
ATOM     71  C   UNL A   1      37.752  34.501  34.452  1.00  0.00     0.031 C 
ATOM     72  C   UNL A   1      39.594  33.366  35.657  1.00  0.00     0.037 A 
BRANCH  59  73
ATOM     73  C   UNL A   1      43.383  28.511  35.394  1.00  0.00     0.057 A 
ATOM     74  C   UNL A   1      43.042  27.482  36.281  1.00  0.00     0.134 A 
ATOM     75  C   UNL A   1      44.744  28.699  35.119  1.00  0.00     0.134 A 
ATOM     76  F   UNL A   1      41.757  27.250  36.591  1.00  0.00    -0.206 F 
ATOM     77  C   UNL A   1      44.016  26.684  36.884  1.00  0.00     0.040 A 
ATOM     78  C   UNL A   1      45.726  27.891  35.694  1.00  0.00     0.040 A 
ATOM     79  F   UNL A   1      45.142  29.658  34.269  1.00  0.00    -0.206 F 
ATOM     80  C   UNL A   1      45.363  26.882  36.584  1.00  0.00     0.006 A 
ENDBRANCH  59  73
BRANCH  60  81
ATOM     81  C   UNL A   1      36.116  33.467  30.708  1.00  0.00     0.057 A 
ATOM     82  C   UNL A   1      34.802  33.294  31.155  1.00  0.00     0.134 A 
ATOM     83  C   UNL A   1      36.314  34.308  29.604  1.00  0.00     0.134 A 
ATOM     84  F   UNL A   1      34.543  32.486  32.194  1.00  0.00    -0.206 F 
ATOM     85  C   UNL A   1      33.723  33.906  30.514  1.00  0.00     0.040 A 
ATOM     86  C   UNL A   1      35.248  34.951  28.973  1.00  0.00     0.040 A 
ATOM     87  F   UNL A   1      37.549  34.525  29.129  1.00  0.00    -0.206 F 
ATOM     88  C   UNL A   1      33.946  34.741  29.421  1.00  0.00     0.006 A 
ENDBRANCH  60  81
BRANCH  72  89
ATOM     89  C   UNL A   1      39.444  34.371  36.762  1.00  0.00     0.057 A 
ATOM     90  C   UNL A   1      38.709  34.090  37.922  1.00  0.00     0.134 A 
ATOM     91  C   UNL A   1      40.090  35.612  36.692  1.00  0.00     0.134 A 
ATOM     92  F   UNL A   1      38.055  32.927  38.047  1.00  0.00    -0.206 F 
ATOM     93  C   UNL A   1      38.612  35.014  38.965  1.00  0.00     0.040 A 
ATOM     94  C   UNL A   1      40.024  36.531  37.739  1.00  0.00     0.040 A 
ATOM     95  F   UNL A   1      40.817  35.941  35.613  1.00  0.00    -0.206 F 
ATOM     96  C   UNL A   1      39.279  36.235  38.879  1.00  0.00     0.006 A 
ENDBRANCH  72  89
ENDBRANCH  46  47
ENDBRANCH  38  41
ENDBRANCH  36  37
ENDBRANCH  35  36
ENDBRANCH  34  35
ENDBRANCH  33  34
ENDBRANCH   1  33
TORSDOF 18
ENDMDL
MODEL 3
REMARK VINA RESULT:     -10.2      5.028     10.278
REMARK SMILES CC[C@@H](Oc1ccccc1/C=C1/SC(=O)N(c2ccc(C)c(C)c2)C1=O)C(=O)NCCCCCCNC(=O)c1ccc(-c2c3nc(c(-c4c(F)cccc4F)c4ccc([nH]4)c(-c4c(F)cccc4F)c4nc(c(-c5c(F)cccc5F)c5ccc2[nH]5)C=C4)C=C3)cc1
REMARK SMILES IDX 31 1 30 2 29 3 27 4 28 5 3 7 2 8 1 9 4 10 5 11 6 12 10 13
REMARK SMILES IDX 7 14 9 15 8 16 11 17 12 18 13 19 25 20 14 21 16 22 26 23
REMARK SMILES IDX 15 24 17 25 18 26 24 27 19 28 22 29 20 30 23 31 21 32 32 33
REMARK SMILES IDX 33 34 34 35 35 36 36 37 37 38 38 40 39 41 40 42 92 43 41 44
REMARK SMILES IDX 91 45 42 46 43 47 44 48 85 49 45 50 90 51 84 52 86 53 46 54
REMARK SMILES IDX 89 55 83 56 82 57 47 59 73 60 56 61 72 62 57 63 60 64 71 65
REMARK SMILES IDX 87 66 58 67 59 68 70 70 88 71 61 72 48 73 49 74 54 75 50 76
REMARK SMILES IDX 51 77 53 78 55 79 52 80 74 81 75 82 80 83 76 84 77 85 79 86
REMARK SMILES IDX 81 87 78 88 62 89 63 90 68 91 64 92 65 93 67 94 69 95 66 96
REMARK H PARENT 29 6 36 39 86 58 60 69
REMARK Flexibility Score: inf
ROOT
ATOM      1  C   UNL A   1      37.768  20.190  25.211  1.00  0.00     0.021 C 
ENDROOT
BRANCH   1   2
ATOM      2  C   UNL A   1      39.168  20.802  25.308  1.00  0.00     0.116 C 
BRANCH   2   3
ATOM      3  N   UNL A   1      40.091  20.030  26.119  1.00  0.00    -0.353 N 
ATOM      4  C   UNL A   1      41.181  20.424  26.848  1.00  0.00     0.261 C 
ATOM      5  O   UNL A   1      41.667  19.588  27.618  1.00  0.00    -0.271 OA
ATOM      6  H   UNL A   1      39.901  19.064  26.152  1.00  0.00     0.163 HD
BRANCH   4   7
ATOM      7  C   UNL A   1      41.890  21.790  26.640  1.00  0.00     0.261 C 
BRANCH   7   8
ATOM      8  C   UNL A   1      43.016  21.876  27.690  1.00  0.00     0.052 C 
ATOM      9  C   UNL A   1      42.666  22.770  28.876  1.00  0.00     0.008 C 
ENDBRANCH   7   8
BRANCH   7  10
ATOM     10  O   UNL A   1      42.385  21.942  25.305  1.00  0.00    -0.480 OA
BRANCH  10  11
ATOM     11  C   UNL A   1      43.674  21.505  25.112  1.00  0.00     0.127 A 
ATOM     12  C   UNL A   1      44.005  20.188  25.429  1.00  0.00     0.047 A 
ATOM     13  C   UNL A   1      44.689  22.419  24.766  1.00  0.00     0.018 A 
ATOM     14  C   UNL A   1      45.335  19.767  25.343  1.00  0.00     0.004 A 
ATOM     15  C   UNL A   1      46.009  21.976  24.638  1.00  0.00     0.012 A 
ATOM     16  C   UNL A   1      46.331  20.652  24.929  1.00  0.00     0.001 A 
BRANCH  13  17
ATOM     17  C   UNL A   1      44.421  23.849  24.597  1.00  0.00     0.033 C 
ATOM     18  C   UNL A   1      44.668  24.751  25.557  1.00  0.00     0.084 C 
ATOM     19  S   UNL A   1      44.201  26.405  25.439  1.00  0.00    -0.022 SA
ATOM     20  C   UNL A   1      45.311  24.489  26.879  1.00  0.00     0.272 C 
ATOM     21  C   UNL A   1      44.638  26.727  27.112  1.00  0.00     0.298 C 
ATOM     22  N   UNL A   1      45.144  25.590  27.689  1.00  0.00    -0.236 N 
ATOM     23  O   UNL A   1      45.931  23.475  27.165  1.00  0.00    -0.268 OA
ATOM     24  O   UNL A   1      44.469  27.833  27.612  1.00  0.00    -0.260 OA
BRANCH  22  25
ATOM     25  C   UNL A   1      45.653  25.591  29.000  1.00  0.00     0.053 A 
ATOM     26  C   UNL A   1      46.938  26.063  29.240  1.00  0.00     0.027 A 
ATOM     27  C   UNL A   1      44.881  25.107  30.059  1.00  0.00     0.030 A 
ATOM     28  C   UNL A   1      47.420  26.106  30.546  1.00  0.00     0.006 A 
ATOM     29  C   UNL A   1      45.333  25.189  31.385  1.00  0.00    -0.046 A 
ATOM     30  C   UNL A   1      46.617  25.708  31.629  1.00  0.00    -0.048 A 
ATOM     31  C   UNL A   1      44.415  24.771  32.502  1.00  0.00     0.044 C 
ATOM     32  C   UNL A   1      47.197  25.801  33.013  1.00  0.00     0.044 C 
ENDBRANCH  22  25
ENDBRANCH  13  17
ENDBRANCH  10  11
ENDBRANCH   7  10
ENDBRANCH   4   7
ENDBRANCH   2   3
ENDBRANCH   1   2
BRANCH   1  33
ATOM     33  C   UNL A   1      36.611  21.164  24.937  1.00  0.00     0.002 C 
BRANCH  33  34
ATOM     34  C   UNL A   1      36.969  22.520  24.306  1.00  0.00     0.002 C 
BRANCH  34  35
ATOM     35  C   UNL A   1      36.793  23.755  25.196  1.00  0.00     0.021 C 
BRANCH  35  36
ATOM     36  C   UNL A   1      37.779  23.929  26.346  1.00  0.00     0.116 C 
BRANCH  36  37
ATOM     37  N   UNL A   1      39.152  24.024  25.878  1.00  0.00    -0.352 N 
ATOM     38  C   UNL A   1      40.148  24.934  26.146  1.00  0.00     0.251 C 
ATOM     39  H   UNL A   1      39.417  23.309  25.256  1.00  0.00     0.163 HD
ATOM     40  O   UNL A   1      41.153  24.923  25.435  1.00  0.00    -0.269 OA
BRANCH  38  41
ATOM     41  C   UNL A   1      40.062  25.935  27.246  1.00  0.00     0.039 A 
ATOM     42  C   UNL A   1      39.392  25.570  28.423  1.00  0.00     0.014 A 
ATOM     43  C   UNL A   1      40.531  27.244  27.123  1.00  0.00     0.014 A 
ATOM     44  C   UNL A   1      39.243  26.483  29.476  1.00  0.00     0.010 A 
ATOM     45  C   UNL A   1      40.457  28.130  28.204  1.00  0.00     0.010 A 
ATOM     46  C   UNL A   1      39.806  27.765  29.392  1.00  0.00    -0.014 A 
BRANCH  46  47
ATOM     47  C   UNL A   1      39.727  28.728  30.529  1.00  0.00     0.031 A 
ATOM     48  C   UNL A   1      38.740  29.868  30.505  1.00  0.00     0.074 A 
ATOM     49  C   UNL A   1      40.590  28.618  31.560  1.00  0.00     0.049 A 
ATOM     50  N   UNL A   1      38.591  30.854  31.355  1.00  0.00    -0.248 NA
ATOM     51  C   UNL A   1      37.811  29.919  29.365  1.00  0.00     0.031 C 
ATOM     52  C   UNL A   1      41.620  27.586  31.695  1.00  0.00     0.029 A 
ATOM     53  N   UNL A   1      40.752  29.394  32.683  1.00  0.00    -0.354 N 
ATOM     54  C   UNL A   1      37.576  31.653  30.841  1.00  0.00     0.074 A 
ATOM     55  C   UNL A   1      37.166  31.057  29.589  1.00  0.00     0.031 C 
ATOM     56  C   UNL A   1      42.296  27.786  32.837  1.00  0.00     0.029 A 
ATOM     57  C   UNL A   1      41.787  28.987  33.491  1.00  0.00     0.049 A 
ATOM     58  H   UNL A   1      40.181  30.170  32.889  1.00  0.00     0.167 HD
ATOM     59  C   UNL A   1      37.028  32.774  31.370  1.00  0.00     0.037 A 
ATOM     60  C   UNL A   1      42.290  29.532  34.617  1.00  0.00     0.037 A 
ATOM     61  C   UNL A   1      37.411  33.349  32.634  1.00  0.00     0.049 A 
ATOM     62  C   UNL A   1      41.673  30.789  35.171  1.00  0.00     0.074 A 
ATOM     63  C   UNL A   1      36.850  34.431  33.292  1.00  0.00     0.029 A 
ATOM     64  N   UNL A   1      38.458  32.899  33.424  1.00  0.00    -0.354 N 
ATOM     65  N   UNL A   1      40.659  31.482  34.716  1.00  0.00    -0.248 NA
ATOM     66  C   UNL A   1      42.276  31.342  36.394  1.00  0.00     0.031 C 
ATOM     67  C   UNL A   1      37.597  34.675  34.448  1.00  0.00     0.029 A 
ATOM     68  C   UNL A   1      38.585  33.709  34.541  1.00  0.00     0.049 A 
ATOM     69  H   UNL A   1      39.025  32.120  33.222  1.00  0.00     0.167 HD
ATOM     70  C   UNL A   1      40.487  32.536  35.605  1.00  0.00     0.074 A 
ATOM     71  C   UNL A   1      41.488  32.381  36.639  1.00  0.00     0.031 C 
ATOM     72  C   UNL A   1      39.582  33.543  35.567  1.00  0.00     0.037 A 
BRANCH  59  73
ATOM     73  C   UNL A   1      35.953  33.473  30.585  1.00  0.00     0.057 A 
ATOM     74  C   UNL A   1      34.613  33.470  30.992  1.00  0.00     0.134 A 
ATOM     75  C   UNL A   1      36.279  34.223  29.447  1.00  0.00     0.134 A 
ATOM     76  F   UNL A   1      34.232  32.770  32.071  1.00  0.00    -0.206 F 
ATOM     77  C   UNL A   1      33.634  34.172  30.286  1.00  0.00     0.040 A 
ATOM     78  C   UNL A   1      35.314  34.951  28.749  1.00  0.00     0.040 A 
ATOM     79  F   UNL A   1      37.545  34.280  29.008  1.00  0.00    -0.206 F 
ATOM     80  C   UNL A   1      33.985  34.923  29.165  1.00  0.00     0.006 A 
ENDBRANCH  59  73
BRANCH  60  81
ATOM     81  C   UNL A   1      43.457  28.906  35.292  1.00  0.00     0.057 A 
ATOM     82  C   UNL A   1      43.290  27.880  36.229  1.00  0.00     0.134 A 
ATOM     83  C   UNL A   1      44.766  29.339  35.040  1.00  0.00     0.134 A 
ATOM     84  F   UNL A   1      42.062  27.433  36.530  1.00  0.00    -0.206 F 
ATOM     85  C   UNL A   1      44.376  27.326  36.910  1.00  0.00     0.040 A 
ATOM     86  C   UNL A   1      45.863  28.773  35.692  1.00  0.00     0.040 A 
ATOM     87  F   UNL A   1      44.999  30.313  34.148  1.00  0.00    -0.206 F 
ATOM     88  C   UNL A   1      45.668  27.771  36.639  1.00  0.00     0.006 A 
ENDBRANCH  60  81
BRANCH  72  89
ATOM     89  C   UNL A   1      39.613  34.548  36.682  1.00  0.00     0.057 A 
ATOM     90  C   UNL A   1      38.992  34.304  37.914  1.00  0.00     0.134 A 
ATOM     91  C   UNL A   1      40.323  35.748  36.543  1.00  0.00     0.134 A 
ATOM     92  F   UNL A   1      38.286  33.181  38.109  1.00  0.00    -0.206 F 
ATOM     93  C   UNL A   1      39.064  35.225  38.962  1.00  0.00     0.040 A 
ATOM     94  C   UNL A   1      40.425  36.663  37.592  1.00  0.00     0.040 A 
ATOM     95  F   UNL A   1      40.947  36.041  35.392  1.00  0.00    -0.206 F 
ATOM     96  C   UNL A   1      39.791  36.404  38.805  1.00  0.00     0.006 A 
ENDBRANCH  72  89
ENDBRANCH  46  47
ENDBRANCH  38  41
ENDBRANCH  36  37
ENDBRANCH  35  36
ENDBRANCH  34  35
ENDBRANCH  33  34
ENDBRANCH   1  33
TORSDOF 18
ENDMDL
