MODEL 1
REMARK VINA RESULT:     -13.2      0.000      0.000
REMARK SMILES Cc1ccc(-c2cc(Cl)cc3c2O[C@@H](C(F)(F)F)C(C(=O)NCCCCCCNC(=O)c2ccc(-c4c5nc(c(-c6c(F)cccc6F)c6ccc([nH]6)c(-c6c(F)cccc6F)c6nc(c(-c7c(F)cccc7F)c7ccc4[nH]7)C=C6)C=C5)cc2)=C3)cc1
REMARK SMILES IDX 26 1 25 2 24 3 23 4 22 5 20 6 21 7 19 9 6 10 7 11 12 12 8 13
REMARK SMILES IDX 11 14 13 15 9 16 10 17 86 18 14 19 5 20 1 21 2 22 3 23 88 24
REMARK SMILES IDX 4 25 87 26 15 27 16 28 17 29 18 30 27 31 28 32 29 33 30 34
REMARK SMILES IDX 31 36 32 37 33 38 85 39 34 40 84 41 35 42 36 43 37 44 78 45
REMARK SMILES IDX 38 46 83 47 77 48 79 49 39 50 82 51 76 52 75 53 40 55 66 56
REMARK SMILES IDX 49 57 65 58 50 59 53 60 64 61 80 62 51 63 52 64 63 66 81 67
REMARK SMILES IDX 54 68 41 69 42 70 47 71 43 72 44 73 46 74 48 75 45 76 67 77
REMARK SMILES IDX 68 78 73 79 69 80 70 81 72 82 74 83 71 84 55 85 56 86 61 87
REMARK SMILES IDX 57 88 58 89 60 90 62 91 59 92
REMARK H PARENT 22 8 29 35 79 54 53 65
REMARK Flexibility Score: inf
ROOT
ATOM      1  C   UNL A   1      31.781  29.677  26.418  1.00  0.00     0.002 C 
ENDROOT
BRANCH   1   2
ATOM      2  C   UNL A   1      31.920  29.472  24.909  1.00  0.00     0.002 C 
BRANCH   2   3
ATOM      3  C   UNL A   1      33.027  28.563  24.382  1.00  0.00     0.021 C 
BRANCH   3   4
ATOM      4  C   UNL A   1      33.524  27.365  25.188  1.00  0.00     0.116 C 
BRANCH   4   5
ATOM      5  N   UNL A   1      34.201  26.276  24.523  1.00  0.00    -0.352 N 
ATOM      6  C   UNL A   1      33.729  25.276  23.707  1.00  0.00     0.251 C 
ATOM      7  O   UNL A   1      34.563  24.736  22.972  1.00  0.00    -0.270 OA
ATOM      8  H   UNL A   1      35.172  26.246  24.680  1.00  0.00     0.163 HD
BRANCH   6   9
ATOM      9  C   UNL A   1      32.280  24.752  23.695  1.00  0.00     0.067 C 
ATOM     10  C   UNL A   1      33.896  21.516  25.356  1.00  0.00     0.026 A 
ATOM     11  C   UNL A   1      33.525  20.216  24.955  1.00  0.00     0.033 A 
ATOM     12  C   UNL A   1      33.064  22.534  24.895  1.00  0.00     0.135 A 
ATOM     13  C   UNL A   1      32.653  20.031  23.876  1.00  0.00     0.042 A 
ATOM     14  C   UNL A   1      32.471  22.407  23.614  1.00  0.00     0.019 A 
ATOM     15  O   UNL A   1      32.717  23.627  25.722  1.00  0.00    -0.475 OA
ATOM     16  Cl  UNL A   1      32.275  18.436  23.355  1.00  0.00    -0.084 Cl
ATOM     17  C   UNL A   1      32.208  21.128  23.135  1.00  0.00     0.032 A 
ATOM     18  C   UNL A   1      32.126  23.676  22.875  1.00  0.00     0.025 C 
ATOM     19  C   UNL A   1      31.671  24.387  25.035  1.00  0.00     0.314 C 
BRANCH  10  20
ATOM     20  C   UNL A   1      35.373  21.739  25.346  1.00  0.00    -0.015 A 
ATOM     21  C   UNL A   1      39.679  21.880  25.887  1.00  0.00     0.044 C 
ATOM     22  C   UNL A   1      38.198  21.846  25.643  1.00  0.00    -0.051 A 
ATOM     23  C   UNL A   1      37.401  22.988  25.832  1.00  0.00     0.004 A 
ATOM     24  C   UNL A   1      37.587  20.664  25.237  1.00  0.00     0.004 A 
ATOM     25  C   UNL A   1      35.999  22.936  25.690  1.00  0.00     0.009 A 
ATOM     26  C   UNL A   1      36.202  20.620  25.083  1.00  0.00     0.009 A 
ENDBRANCH  10  20
BRANCH  19  27
ATOM     27  C   UNL A   1      30.828  25.495  25.696  1.00  0.00     0.429 C 
ATOM     28  F   UNL A   1      29.684  24.962  26.211  1.00  0.00    -0.167 F 
ATOM     29  F   UNL A   1      31.467  26.100  26.718  1.00  0.00    -0.167 F 
ATOM     30  F   UNL A   1      30.417  26.452  24.832  1.00  0.00    -0.167 F 
ENDBRANCH  19  27
ENDBRANCH   6   9
ENDBRANCH   4   5
ENDBRANCH   3   4
ENDBRANCH   2   3
ENDBRANCH   1   2
BRANCH   1  31
ATOM     31  C   UNL A   1      32.614  30.781  27.064  1.00  0.00     0.021 C 
BRANCH  31  32
ATOM     32  C   UNL A   1      33.998  30.378  27.553  1.00  0.00     0.116 C 
BRANCH  32  33
ATOM     33  N   UNL A   1      34.572  31.271  28.550  1.00  0.00    -0.352 N 
ATOM     34  C   UNL A   1      35.757  31.153  29.263  1.00  0.00     0.251 C 
ATOM     35  H   UNL A   1      34.041  32.076  28.749  1.00  0.00     0.163 HD
ATOM     36  O   UNL A   1      36.077  32.011  30.063  1.00  0.00    -0.269 OA
BRANCH  34  37
ATOM     37  C   UNL A   1      36.698  30.044  28.944  1.00  0.00     0.039 A 
ATOM     38  C   UNL A   1      36.978  29.115  29.952  1.00  0.00     0.014 A 
ATOM     39  C   UNL A   1      37.426  30.020  27.758  1.00  0.00     0.014 A 
ATOM     40  C   UNL A   1      38.144  28.355  29.879  1.00  0.00     0.010 A 
ATOM     41  C   UNL A   1      38.629  29.340  27.720  1.00  0.00     0.010 A 
ATOM     42  C   UNL A   1      39.020  28.565  28.814  1.00  0.00    -0.014 A 
BRANCH  42  43
ATOM     43  C   UNL A   1      40.416  28.149  28.846  1.00  0.00     0.031 A 
ATOM     44  C   UNL A   1      40.848  26.859  28.281  1.00  0.00     0.074 A 
ATOM     45  C   UNL A   1      41.341  28.985  29.369  1.00  0.00     0.049 A 
ATOM     46  N   UNL A   1      41.843  26.176  28.742  1.00  0.00    -0.248 NA
ATOM     47  C   UNL A   1      40.179  26.226  27.151  1.00  0.00     0.031 C 
ATOM     48  C   UNL A   1      42.793  28.851  29.299  1.00  0.00     0.029 A 
ATOM     49  N   UNL A   1      41.129  30.041  30.262  1.00  0.00    -0.354 N 
ATOM     50  C   UNL A   1      42.116  25.185  27.830  1.00  0.00     0.074 A 
ATOM     51  C   UNL A   1      41.012  25.211  26.896  1.00  0.00     0.031 C 
ATOM     52  C   UNL A   1      43.341  29.568  30.293  1.00  0.00     0.029 A 
ATOM     53  C   UNL A   1      42.254  30.080  31.109  1.00  0.00     0.049 A 
ATOM     54  H   UNL A   1      40.348  30.640  30.292  1.00  0.00     0.167 HD
ATOM     55  C   UNL A   1      43.316  24.540  27.860  1.00  0.00     0.037 A 
ATOM     56  C   UNL A   1      42.136  29.907  32.456  1.00  0.00     0.037 A 
ATOM     57  C   UNL A   1      44.184  25.051  28.914  1.00  0.00     0.049 A 
ATOM     58  C   UNL A   1      42.905  28.722  32.992  1.00  0.00     0.074 A 
ATOM     59  C   UNL A   1      45.207  25.986  28.901  1.00  0.00     0.029 A 
ATOM     60  N   UNL A   1      43.854  24.851  30.250  1.00  0.00    -0.354 N 
ATOM     61  N   UNL A   1      43.351  27.750  32.247  1.00  0.00    -0.248 NA
ATOM     62  C   UNL A   1      43.207  28.522  34.407  1.00  0.00     0.031 C 
ATOM     63  C   UNL A   1      45.470  26.377  30.233  1.00  0.00     0.029 A 
ATOM     64  C   UNL A   1      44.616  25.670  31.062  1.00  0.00     0.049 A 
ATOM     65  H   UNL A   1      43.173  24.216  30.572  1.00  0.00     0.167 HD
ATOM     66  C   UNL A   1      43.953  26.803  33.037  1.00  0.00     0.074 A 
ATOM     67  C   UNL A   1      43.860  27.347  34.378  1.00  0.00     0.031 C 
ATOM     68  C   UNL A   1      44.465  25.652  32.509  1.00  0.00     0.037 A 
BRANCH  55  69
ATOM     69  C   UNL A   1      43.783  23.681  26.714  1.00  0.00     0.057 A 
ATOM     70  C   UNL A   1      43.476  22.310  26.643  1.00  0.00     0.134 A 
ATOM     71  C   UNL A   1      44.590  24.160  25.668  1.00  0.00     0.134 A 
ATOM     72  F   UNL A   1      42.645  21.724  27.513  1.00  0.00    -0.206 F 
ATOM     73  C   UNL A   1      44.026  21.459  25.676  1.00  0.00     0.040 A 
ATOM     74  C   UNL A   1      45.185  23.314  24.723  1.00  0.00     0.040 A 
ATOM     75  F   UNL A   1      44.822  25.473  25.522  1.00  0.00    -0.206 F 
ATOM     76  C   UNL A   1      44.915  21.952  24.735  1.00  0.00     0.006 A 
ENDBRANCH  55  69
BRANCH  56  77
ATOM     77  C   UNL A   1      40.854  30.415  33.004  1.00  0.00     0.057 A 
ATOM     78  C   UNL A   1      40.687  31.805  33.136  1.00  0.00     0.134 A 
ATOM     79  C   UNL A   1      39.698  29.630  33.028  1.00  0.00     0.134 A 
ATOM     80  F   UNL A   1      41.757  32.616  33.118  1.00  0.00    -0.206 F 
ATOM     81  C   UNL A   1      39.423  32.399  33.173  1.00  0.00     0.040 A 
ATOM     82  C   UNL A   1      38.426  30.212  33.076  1.00  0.00     0.040 A 
ATOM     83  F   UNL A   1      39.775  28.299  32.886  1.00  0.00    -0.206 F 
ATOM     84  C   UNL A   1      38.285  31.600  33.107  1.00  0.00     0.006 A 
ENDBRANCH  56  77
BRANCH  68  85
ATOM     85  C   UNL A   1      44.969  24.448  33.272  1.00  0.00     0.057 A 
ATOM     86  C   UNL A   1      44.299  23.220  33.352  1.00  0.00     0.134 A 
ATOM     87  C   UNL A   1      46.262  24.459  33.851  1.00  0.00     0.134 A 
ATOM     88  F   UNL A   1      43.116  23.023  32.755  1.00  0.00    -0.206 F 
ATOM     89  C   UNL A   1      44.847  22.104  34.003  1.00  0.00     0.040 A 
ATOM     90  C   UNL A   1      46.839  23.338  34.455  1.00  0.00     0.040 A 
ATOM     91  F   UNL A   1      47.034  25.555  33.835  1.00  0.00    -0.206 F 
ATOM     92  C   UNL A   1      46.124  22.156  34.547  1.00  0.00     0.006 A 
ENDBRANCH  68  85
ENDBRANCH  42  43
ENDBRANCH  34  37
ENDBRANCH  32  33
ENDBRANCH  31  32
ENDBRANCH   1  31
TORSDOF 15
ENDMDL
MODEL 2
REMARK VINA RESULT:     -13.1      3.472      8.891
REMARK SMILES Cc1ccc(-c2cc(Cl)cc3c2O[C@@H](C(F)(F)F)C(C(=O)NCCCCCCNC(=O)c2ccc(-c4c5nc(c(-c6c(F)cccc6F)c6ccc([nH]6)c(-c6c(F)cccc6F)c6nc(c(-c7c(F)cccc7F)c7ccc4[nH]7)C=C6)C=C5)cc2)=C3)cc1
REMARK SMILES IDX 26 1 25 2 24 3 23 4 22 5 20 6 21 7 19 9 6 10 7 11 12 12 8 13
REMARK SMILES IDX 11 14 13 15 9 16 10 17 86 18 14 19 5 20 1 21 2 22 3 23 88 24
REMARK SMILES IDX 4 25 87 26 15 27 16 28 17 29 18 30 27 31 28 32 29 33 30 34
REMARK SMILES IDX 31 36 32 37 33 38 85 39 34 40 84 41 35 42 36 43 37 44 78 45
REMARK SMILES IDX 38 46 83 47 77 48 79 49 39 50 82 51 76 52 75 53 40 55 66 56
REMARK SMILES IDX 49 57 65 58 50 59 53 60 64 61 80 62 51 63 52 64 63 66 81 67
REMARK SMILES IDX 54 68 41 69 42 70 47 71 43 72 44 73 46 74 48 75 45 76 67 77
REMARK SMILES IDX 68 78 73 79 69 80 70 81 72 82 74 83 71 84 55 85 56 86 61 87
REMARK SMILES IDX 57 88 58 89 60 90 62 91 59 92
REMARK H PARENT 22 8 29 35 79 54 53 65
REMARK Flexibility Score: inf
ROOT
ATOM      1  C   UNL A   1      36.417  21.211  24.516  1.00  0.00     0.002 C 
ENDROOT
BRANCH   1   2
ATOM      2  C   UNL A   1      35.211  20.873  25.393  1.00  0.00     0.002 C 
BRANCH   2   3
ATOM      3  C   UNL A   1      34.457  22.004  26.088  1.00  0.00     0.021 C 
BRANCH   3   4
ATOM      4  C   UNL A   1      34.721  23.468  25.740  1.00  0.00     0.116 C 
BRANCH   4   5
ATOM      5  N   UNL A   1      33.835  24.498  26.227  1.00  0.00    -0.352 N 
ATOM      6  C   UNL A   1      32.512  24.760  25.961  1.00  0.00     0.251 C 
ATOM      7  O   UNL A   1      31.914  25.440  26.802  1.00  0.00    -0.270 OA
ATOM      8  H   UNL A   1      34.252  25.123  26.864  1.00  0.00     0.163 HD
BRANCH   6   9
ATOM      9  C   UNL A   1      31.762  24.328  24.686  1.00  0.00     0.067 C 
ATOM     10  C   UNL A   1      31.740  28.230  23.901  1.00  0.00     0.026 A 
ATOM     11  C   UNL A   1      30.592  28.876  23.398  1.00  0.00     0.033 A 
ATOM     12  C   UNL A   1      31.695  26.838  23.868  1.00  0.00     0.135 A 
ATOM     13  C   UNL A   1      29.388  28.175  23.266  1.00  0.00     0.042 A 
ATOM     14  C   UNL A   1      30.453  26.188  24.080  1.00  0.00     0.019 A 
ATOM     15  O   UNL A   1      32.834  26.076  23.519  1.00  0.00    -0.475 OA
ATOM     16  Cl  UNL A   1      27.980  29.002  22.724  1.00  0.00    -0.084 Cl
ATOM     17  C   UNL A   1      29.290  26.854  23.709  1.00  0.00     0.032 A 
ATOM     18  C   UNL A   1      30.483  24.794  24.656  1.00  0.00     0.025 C 
ATOM     19  C   UNL A   1      32.403  24.685  23.359  1.00  0.00     0.314 C 
BRANCH  10  20
ATOM     20  C   UNL A   1      32.314  28.898  25.107  1.00  0.00    -0.015 A 
ATOM     21  C   UNL A   1      34.059  31.449  28.157  1.00  0.00     0.044 C 
ATOM     22  C   UNL A   1      33.427  30.537  27.146  1.00  0.00    -0.051 A 
ATOM     23  C   UNL A   1      34.062  29.353  26.733  1.00  0.00     0.004 A 
ATOM     24  C   UNL A   1      32.197  30.866  26.585  1.00  0.00     0.004 A 
ATOM     25  C   UNL A   1      33.514  28.541  25.719  1.00  0.00     0.009 A 
ATOM     26  C   UNL A   1      31.651  30.054  25.593  1.00  0.00     0.009 A 
ENDBRANCH  10  20
BRANCH  19  27
ATOM     27  C   UNL A   1      33.269  23.577  22.729  1.00  0.00     0.429 C 
ATOM     28  F   UNL A   1      33.046  23.522  21.386  1.00  0.00    -0.167 F 
ATOM     29  F   UNL A   1      34.591  23.788  22.894  1.00  0.00    -0.167 F 
ATOM     30  F   UNL A   1      32.981  22.336  23.189  1.00  0.00    -0.167 F 
ENDBRANCH  19  27
ENDBRANCH   6   9
ENDBRANCH   4   5
ENDBRANCH   3   4
ENDBRANCH   2   3
ENDBRANCH   1   2
BRANCH   1  31
ATOM     31  C   UNL A   1      37.805  21.068  25.132  1.00  0.00     0.021 C 
BRANCH  31  32
ATOM     32  C   UNL A   1      38.401  22.329  25.744  1.00  0.00     0.116 C 
BRANCH  32  33
ATOM     33  N   UNL A   1      39.837  22.265  25.984  1.00  0.00    -0.352 N 
ATOM     34  C   UNL A   1      40.698  23.251  26.447  1.00  0.00     0.251 C 
ATOM     35  H   UNL A   1      40.257  21.397  25.789  1.00  0.00     0.163 HD
ATOM     36  O   UNL A   1      41.882  23.010  26.589  1.00  0.00    -0.269 OA
BRANCH  34  37
ATOM     37  C   UNL A   1      40.145  24.557  26.899  1.00  0.00     0.039 A 
ATOM     38  C   UNL A   1      40.586  25.713  26.246  1.00  0.00     0.014 A 
ATOM     39  C   UNL A   1      39.362  24.664  28.045  1.00  0.00     0.014 A 
ATOM     40  C   UNL A   1      40.471  26.947  26.885  1.00  0.00     0.010 A 
ATOM     41  C   UNL A   1      39.326  25.866  28.725  1.00  0.00     0.010 A 
ATOM     42  C   UNL A   1      39.946  26.991  28.176  1.00  0.00    -0.014 A 
BRANCH  42  43
ATOM     43  C   UNL A   1      40.153  28.119  29.074  1.00  0.00     0.031 A 
ATOM     44  C   UNL A   1      39.142  29.179  29.225  1.00  0.00     0.074 A 
ATOM     45  C   UNL A   1      41.281  28.171  29.818  1.00  0.00     0.049 A 
ATOM     46  N   UNL A   1      39.432  30.409  29.492  1.00  0.00    -0.248 NA
ATOM     47  C   UNL A   1      37.712  28.937  29.071  1.00  0.00     0.031 C 
ATOM     48  C   UNL A   1      41.574  29.086  30.917  1.00  0.00     0.029 A 
ATOM     49  N   UNL A   1      42.493  27.514  29.577  1.00  0.00    -0.354 N 
ATOM     50  C   UNL A   1      38.258  31.046  29.813  1.00  0.00     0.074 A 
ATOM     51  C   UNL A   1      37.209  30.111  29.468  1.00  0.00     0.031 C 
ATOM     52  C   UNL A   1      42.904  29.154  31.079  1.00  0.00     0.029 A 
ATOM     53  C   UNL A   1      43.512  28.385  30.008  1.00  0.00     0.049 A 
ATOM     54  H   UNL A   1      42.610  26.619  29.185  1.00  0.00     0.167 HD
ATOM     55  C   UNL A   1      38.284  32.236  30.478  1.00  0.00     0.037 A 
ATOM     56  C   UNL A   1      44.458  28.855  29.146  1.00  0.00     0.037 A 
ATOM     57  C   UNL A   1      39.646  32.662  30.778  1.00  0.00     0.049 A 
ATOM     58  C   UNL A   1      44.475  30.360  29.015  1.00  0.00     0.074 A 
ATOM     59  C   UNL A   1      40.428  32.534  31.915  1.00  0.00     0.029 A 
ATOM     60  N   UNL A   1      40.507  33.027  29.749  1.00  0.00    -0.354 N 
ATOM     61  N   UNL A   1      43.494  31.132  29.387  1.00  0.00    -0.248 NA
ATOM     62  C   UNL A   1      45.582  31.111  28.429  1.00  0.00     0.031 C 
ATOM     63  C   UNL A   1      41.773  32.788  31.561  1.00  0.00     0.029 A 
ATOM     64  C   UNL A   1      41.809  33.085  30.210  1.00  0.00     0.049 A 
ATOM     65  H   UNL A   1      40.229  33.216  28.823  1.00  0.00     0.167 HD
ATOM     66  C   UNL A   1      43.793  32.436  29.083  1.00  0.00     0.074 A 
ATOM     67  C   UNL A   1      45.123  32.372  28.508  1.00  0.00     0.031 C 
ATOM     68  C   UNL A   1      42.907  33.447  29.327  1.00  0.00     0.037 A 
BRANCH  55  69
ATOM     69  C   UNL A   1      37.050  32.813  31.120  1.00  0.00     0.057 A 
ATOM     70  C   UNL A   1      36.671  32.475  32.433  1.00  0.00     0.134 A 
ATOM     71  C   UNL A   1      36.167  33.679  30.456  1.00  0.00     0.134 A 
ATOM     72  F   UNL A   1      37.452  31.733  33.227  1.00  0.00    -0.206 F 
ATOM     73  C   UNL A   1      35.451  32.872  32.995  1.00  0.00     0.040 A 
ATOM     74  C   UNL A   1      34.922  34.046  30.987  1.00  0.00     0.040 A 
ATOM     75  F   UNL A   1      36.485  34.211  29.266  1.00  0.00    -0.206 F 
ATOM     76  C   UNL A   1      34.554  33.626  32.258  1.00  0.00     0.006 A 
ENDBRANCH  55  69
BRANCH  56  77
ATOM     77  C   UNL A   1      44.794  27.896  28.063  1.00  0.00     0.057 A 
ATOM     78  C   UNL A   1      44.211  28.083  26.798  1.00  0.00     0.134 A 
ATOM     79  C   UNL A   1      45.924  27.077  28.128  1.00  0.00     0.134 A 
ATOM     80  F   UNL A   1      43.123  28.862  26.667  1.00  0.00    -0.206 F 
ATOM     81  C   UNL A   1      44.789  27.575  25.633  1.00  0.00     0.040 A 
ATOM     82  C   UNL A   1      46.507  26.552  26.969  1.00  0.00     0.040 A 
ATOM     83  F   UNL A   1      46.550  26.868  29.296  1.00  0.00    -0.206 F 
ATOM     84  C   UNL A   1      45.964  26.833  25.715  1.00  0.00     0.006 A 
ENDBRANCH  56  77
BRANCH  68  85
ATOM     85  C   UNL A   1      43.020  34.883  28.866  1.00  0.00     0.057 A 
ATOM     86  C   UNL A   1      43.137  35.986  29.722  1.00  0.00     0.134 A 
ATOM     87  C   UNL A   1      43.159  35.182  27.488  1.00  0.00     0.134 A 
ATOM     88  F   UNL A   1      43.137  35.847  31.054  1.00  0.00    -0.206 F 
ATOM     89  C   UNL A   1      43.322  37.293  29.245  1.00  0.00     0.040 A 
ATOM     90  C   UNL A   1      43.398  36.472  27.006  1.00  0.00     0.040 A 
ATOM     91  F   UNL A   1      43.092  34.229  26.548  1.00  0.00    -0.206 F 
ATOM     92  C   UNL A   1      43.465  37.539  27.886  1.00  0.00     0.006 A 
ENDBRANCH  68  85
ENDBRANCH  42  43
ENDBRANCH  34  37
ENDBRANCH  32  33
ENDBRANCH  31  32
ENDBRANCH   1  31
TORSDOF 15
ENDMDL
MODEL 3
REMARK VINA RESULT:     -12.3      1.866      2.996
REMARK SMILES Cc1ccc(-c2cc(Cl)cc3c2O[C@@H](C(F)(F)F)C(C(=O)NCCCCCCNC(=O)c2ccc(-c4c5nc(c(-c6c(F)cccc6F)c6ccc([nH]6)c(-c6c(F)cccc6F)c6nc(c(-c7c(F)cccc7F)c7ccc4[nH]7)C=C6)C=C5)cc2)=C3)cc1
REMARK SMILES IDX 26 1 25 2 24 3 23 4 22 5 20 6 21 7 19 9 6 10 7 11 12 12 8 13
REMARK SMILES IDX 11 14 13 15 9 16 10 17 86 18 14 19 5 20 1 21 2 22 3 23 88 24
REMARK SMILES IDX 4 25 87 26 15 27 16 28 17 29 18 30 27 31 28 32 29 33 30 34
REMARK SMILES IDX 31 36 32 37 33 38 85 39 34 40 84 41 35 42 36 43 37 44 78 45
REMARK SMILES IDX 38 46 83 47 77 48 79 49 39 50 82 51 76 52 75 53 40 55 66 56
REMARK SMILES IDX 49 57 65 58 50 59 53 60 64 61 80 62 51 63 52 64 63 66 81 67
REMARK SMILES IDX 54 68 41 69 42 70 47 71 43 72 44 73 46 74 48 75 45 76 67 77
REMARK SMILES IDX 68 78 73 79 69 80 70 81 72 82 74 83 71 84 55 85 56 86 61 87
REMARK SMILES IDX 57 88 58 89 60 90 62 91 59 92
REMARK H PARENT 22 8 29 35 79 54 53 65
REMARK Flexibility Score: inf
ROOT
ATOM      1  C   UNL A   1      32.503  29.760  26.836  1.00  0.00     0.002 C 
ENDROOT
BRANCH   1   2
ATOM      2  C   UNL A   1      32.247  29.600  25.337  1.00  0.00     0.002 C 
BRANCH   2   3
ATOM      3  C   UNL A   1      33.310  28.932  24.468  1.00  0.00     0.021 C 
BRANCH   3   4
ATOM      4  C   UNL A   1      32.968  27.753  23.559  1.00  0.00     0.116 C 
BRANCH   4   5
ATOM      5  N   UNL A   1      33.762  26.548  23.608  1.00  0.00    -0.352 N 
ATOM      6  C   UNL A   1      33.448  25.241  23.327  1.00  0.00     0.251 C 
ATOM      7  O   UNL A   1      34.400  24.496  23.070  1.00  0.00    -0.270 OA
ATOM      8  H   UNL A   1      34.695  26.689  23.891  1.00  0.00     0.163 HD
BRANCH   6   9
ATOM      9  C   UNL A   1      32.029  24.640  23.373  1.00  0.00     0.067 C 
ATOM     10  C   UNL A   1      33.763  21.823  25.586  1.00  0.00     0.026 A 
ATOM     11  C   UNL A   1      33.474  20.455  25.402  1.00  0.00     0.033 A 
ATOM     12  C   UNL A   1      32.894  22.702  24.944  1.00  0.00     0.135 A 
ATOM     13  C   UNL A   1      32.644  20.045  24.351  1.00  0.00     0.042 A 
ATOM     14  C   UNL A   1      32.346  22.329  23.691  1.00  0.00     0.019 A 
ATOM     15  O   UNL A   1      32.466  23.895  25.569  1.00  0.00    -0.475 OA
ATOM     16  Cl  UNL A   1      32.366  18.367  24.097  1.00  0.00    -0.084 Cl
ATOM     17  C   UNL A   1      32.164  20.976  23.427  1.00  0.00     0.032 A 
ATOM     18  C   UNL A   1      31.956  23.436  22.742  1.00  0.00     0.025 C 
ATOM     19  C   UNL A   1      31.401  24.470  24.743  1.00  0.00     0.314 C 
BRANCH  10  20
ATOM     20  C   UNL A   1      35.226  22.125  25.568  1.00  0.00    -0.015 A 
ATOM     21  C   UNL A   1      39.531  22.447  26.039  1.00  0.00     0.044 C 
ATOM     22  C   UNL A   1      38.049  22.356  25.821  1.00  0.00    -0.051 A 
ATOM     23  C   UNL A   1      37.198  23.431  26.128  1.00  0.00     0.004 A 
ATOM     24  C   UNL A   1      37.490  21.184  25.321  1.00  0.00     0.004 A 
ATOM     25  C   UNL A   1      35.798  23.318  26.007  1.00  0.00     0.009 A 
ATOM     26  C   UNL A   1      36.106  21.079  25.190  1.00  0.00     0.009 A 
ENDBRANCH  10  20
BRANCH  19  27
ATOM     27  C   UNL A   1      30.482  25.622  25.192  1.00  0.00     0.429 C 
ATOM     28  F   UNL A   1      31.175  26.484  25.988  1.00  0.00    -0.167 F 
ATOM     29  F   UNL A   1      30.007  26.347  24.158  1.00  0.00    -0.167 F 
ATOM     30  F   UNL A   1      29.429  25.216  25.940  1.00  0.00    -0.167 F 
ENDBRANCH  19  27
ENDBRANCH   6   9
ENDBRANCH   4   5
ENDBRANCH   3   4
ENDBRANCH   2   3
ENDBRANCH   1   2
BRANCH   1  31
ATOM     31  C   UNL A   1      33.920  29.508  27.345  1.00  0.00     0.021 C 
BRANCH  31  32
ATOM     32  C   UNL A   1      34.761  30.744  27.628  1.00  0.00     0.116 C 
BRANCH  32  33
ATOM     33  N   UNL A   1      34.003  31.900  28.088  1.00  0.00    -0.352 N 
ATOM     34  C   UNL A   1      34.317  32.824  29.076  1.00  0.00     0.251 C 
ATOM     35  H   UNL A   1      33.143  32.047  27.632  1.00  0.00     0.163 HD
ATOM     36  O   UNL A   1      33.551  33.737  29.323  1.00  0.00    -0.269 OA
BRANCH  34  37
ATOM     37  C   UNL A   1      35.651  32.772  29.734  1.00  0.00     0.039 A 
ATOM     38  C   UNL A   1      36.685  33.531  29.174  1.00  0.00     0.014 A 
ATOM     39  C   UNL A   1      35.929  31.868  30.755  1.00  0.00     0.014 A 
ATOM     40  C   UNL A   1      38.009  33.191  29.445  1.00  0.00     0.010 A 
ATOM     41  C   UNL A   1      37.235  31.465  30.959  1.00  0.00     0.010 A 
ATOM     42  C   UNL A   1      38.268  32.079  30.247  1.00  0.00    -0.014 A 
BRANCH  42  43
ATOM     43  C   UNL A   1      39.557  31.400  30.262  1.00  0.00     0.031 A 
ATOM     44  C   UNL A   1      39.779  30.154  29.508  1.00  0.00     0.074 A 
ATOM     45  C   UNL A   1      40.584  31.949  30.949  1.00  0.00     0.049 A 
ATOM     46  N   UNL A   1      40.597  29.228  29.886  1.00  0.00    -0.248 NA
ATOM     47  C   UNL A   1      39.082  29.845  28.265  1.00  0.00     0.031 C 
ATOM     48  C   UNL A   1      41.987  31.549  30.911  1.00  0.00     0.029 A 
ATOM     49  N   UNL A   1      40.512  32.876  31.996  1.00  0.00    -0.354 N 
ATOM     50  C   UNL A   1      40.742  28.357  28.834  1.00  0.00     0.074 A 
ATOM     51  C   UNL A   1      39.728  28.741  27.877  1.00  0.00     0.031 C 
ATOM     52  C   UNL A   1      42.590  31.983  32.029  1.00  0.00     0.029 A 
ATOM     53  C   UNL A   1      41.565  32.564  32.878  1.00  0.00     0.049 A 
ATOM     54  H   UNL A   1      39.855  33.602  32.095  1.00  0.00     0.167 HD
ATOM     55  C   UNL A   1      41.797  27.494  28.801  1.00  0.00     0.037 A 
ATOM     56  C   UNL A   1      41.326  32.210  34.173  1.00  0.00     0.037 A 
ATOM     57  C   UNL A   1      42.671  27.657  29.956  1.00  0.00     0.049 A 
ATOM     58  C   UNL A   1      41.824  30.830  34.533  1.00  0.00     0.074 A 
ATOM     59  C   UNL A   1      43.849  28.367  30.134  1.00  0.00     0.029 A 
ATOM     60  N   UNL A   1      42.221  27.321  31.227  1.00  0.00    -0.354 N 
ATOM     61  N   UNL A   1      42.131  29.917  33.656  1.00  0.00    -0.248 NA
ATOM     62  C   UNL A   1      41.987  30.359  35.906  1.00  0.00     0.031 C 
ATOM     63  C   UNL A   1      44.089  28.488  31.522  1.00  0.00     0.029 A 
ATOM     64  C   UNL A   1      43.065  27.841  32.190  1.00  0.00     0.049 A 
ATOM     65  H   UNL A   1      41.414  26.788  31.415  1.00  0.00     0.167 HD
ATOM     66  C   UNL A   1      42.492  28.760  34.300  1.00  0.00     0.074 A 
ATOM     67  C   UNL A   1      42.411  29.098  35.708  1.00  0.00     0.031 C 
ATOM     68  C   UNL A   1      42.816  27.629  33.608  1.00  0.00     0.037 A 
BRANCH  55  69
ATOM     69  C   UNL A   1      42.173  26.749  27.547  1.00  0.00     0.057 A 
ATOM     70  C   UNL A   1      42.016  25.355  27.438  1.00  0.00     0.134 A 
ATOM     71  C   UNL A   1      42.745  27.368  26.423  1.00  0.00     0.134 A 
ATOM     72  F   UNL A   1      41.405  24.635  28.387  1.00  0.00    -0.206 F 
ATOM     73  C   UNL A   1      42.502  24.620  26.349  1.00  0.00     0.040 A 
ATOM     74  C   UNL A   1      43.277  26.642  25.348  1.00  0.00     0.040 A 
ATOM     75  F   UNL A   1      42.800  28.704  26.324  1.00  0.00    -0.206 F 
ATOM     76  C   UNL A   1      43.170  25.258  25.317  1.00  0.00     0.006 A 
ENDBRANCH  55  69
BRANCH  56  77
ATOM     77  C   UNL A   1      40.126  32.866  34.750  1.00  0.00     0.057 A 
ATOM     78  C   UNL A   1      38.912  32.157  34.754  1.00  0.00     0.134 A 
ATOM     79  C   UNL A   1      40.226  33.961  35.612  1.00  0.00     0.134 A 
ATOM     80  F   UNL A   1      38.752  31.093  33.950  1.00  0.00    -0.206 F 
ATOM     81  C   UNL A   1      37.886  32.450  35.655  1.00  0.00     0.040 A 
ATOM     82  C   UNL A   1      39.201  34.272  36.513  1.00  0.00     0.040 A 
ATOM     83  F   UNL A   1      41.360  34.674  35.681  1.00  0.00    -0.206 F 
ATOM     84  C   UNL A   1      38.046  33.491  36.565  1.00  0.00     0.006 A 
ENDBRANCH  56  77
BRANCH  68  85
ATOM     85  C   UNL A   1      43.035  26.247  34.180  1.00  0.00     0.057 A 
ATOM     86  C   UNL A   1      44.263  25.571  34.181  1.00  0.00     0.134 A 
ATOM     87  C   UNL A   1      42.000  25.598  34.898  1.00  0.00     0.134 A 
ATOM     88  F   UNL A   1      45.363  26.110  33.639  1.00  0.00    -0.206 F 
ATOM     89  C   UNL A   1      44.436  24.323  34.800  1.00  0.00     0.040 A 
ATOM     90  C   UNL A   1      42.176  24.381  35.563  1.00  0.00     0.040 A 
ATOM     91  F   UNL A   1      40.774  26.130  35.006  1.00  0.00    -0.206 F 
ATOM     92  C   UNL A   1      43.396  23.729  35.503  1.00  0.00     0.006 A 
ENDBRANCH  68  85
ENDBRANCH  42  43
ENDBRANCH  34  37
ENDBRANCH  32  33
ENDBRANCH  31  32
ENDBRANCH   1  31
TORSDOF 15
ENDMDL
