MODEL 1
REMARK VINA RESULT:     -11.9      0.000      0.000
REMARK SMILES CC(C)CSc1cc2c(cc1Cl)C=C(C(=O)NCCCCCCNC(=O)c1ccc(-c3c4nc(c(-c5c(F)cccc5F)c5ccc([nH]5)c(-c5c(F)cccc5F)c5nc(c(-c6c(F)cccc6F)c6ccc3[nH]6)C=C5)C=C4)cc1)[C@@H](C(F)(F)F)O2
REMARK SMILES IDX 20 1 19 2 18 3 17 4 15 5 16 6 14 8 6 9 7 10 11 11 8 12 10 13
REMARK SMILES IDX 12 14 9 15 86 16 13 17 81 18 5 19 4 20 2 21 1 22 3 23 82 24
REMARK SMILES IDX 83 25 84 26 85 27 21 28 22 29 23 30 24 31 25 32 26 34 27 35
REMARK SMILES IDX 28 36 80 37 29 38 79 39 30 40 31 41 32 42 73 43 33 44 78 45
REMARK SMILES IDX 72 46 74 47 34 48 77 49 71 50 70 51 35 53 61 54 44 55 60 56
REMARK SMILES IDX 45 57 48 58 59 59 75 60 46 61 47 62 58 64 76 65 49 66 36 67
REMARK SMILES IDX 37 68 42 69 38 70 39 71 41 72 43 73 40 74 62 75 63 76 68 77
REMARK SMILES IDX 64 78 65 79 67 80 69 81 66 82 50 83 51 84 56 85 52 86 53 87
REMARK SMILES IDX 55 88 57 89 54 90
REMARK H PARENT 17 7 24 33 74 52 48 63
REMARK Flexibility Score: inf
ROOT
ATOM      1  C   UNL A   1      32.166  29.598  27.060  1.00  0.00     0.002 C 
ENDROOT
BRANCH   1   2
ATOM      2  C   UNL A   1      33.665  29.555  27.367  1.00  0.00     0.021 C 
BRANCH   2   3
ATOM      3  C   UNL A   1      34.474  28.567  26.535  1.00  0.00     0.116 C 
BRANCH   3   4
ATOM      4  N   UNL A   1      34.204  28.663  25.115  1.00  0.00    -0.352 N 
ATOM      5  C   UNL A   1      33.657  27.850  24.180  1.00  0.00     0.251 C 
ATOM      6  O   UNL A   1      33.541  28.329  23.048  1.00  0.00    -0.270 OA
ATOM      7  H   UNL A   1      34.485  29.528  24.738  1.00  0.00     0.163 HD
BRANCH   5   8
ATOM      8  C   UNL A   1      33.228  26.438  24.427  1.00  0.00     0.067 C 
ATOM      9  C   UNL A   1      33.375  21.406  25.075  1.00  0.00     0.030 A 
ATOM     10  C   UNL A   1      32.373  22.392  25.134  1.00  0.00     0.063 A 
ATOM     11  C   UNL A   1      34.679  21.825  24.764  1.00  0.00     0.055 A 
ATOM     12  C   UNL A   1      32.647  23.734  24.865  1.00  0.00     0.129 A 
ATOM     13  C   UNL A   1      34.940  23.169  24.449  1.00  0.00     0.033 A 
ATOM     14  Cl  UNL A   1      36.064  20.796  24.819  1.00  0.00    -0.083 Cl
ATOM     15  C   UNL A   1      33.928  24.129  24.509  1.00  0.00     0.019 A 
ATOM     16  O   UNL A   1      31.600  24.594  24.983  1.00  0.00    -0.475 OA
ATOM     17  C   UNL A   1      34.207  25.532  24.256  1.00  0.00     0.025 C 
ATOM     18  C   UNL A   1      31.830  26.021  24.804  1.00  0.00     0.314 C 
BRANCH   9  19
ATOM     19  S   UNL A   1      32.794  19.768  25.512  1.00  0.00    -0.124 SA
BRANCH  19  20
ATOM     20  C   UNL A   1      33.090  18.702  24.057  1.00  0.00     0.078 C 
BRANCH  20  21
ATOM     21  C   UNL A   1      34.103  17.548  24.172  1.00  0.00    -0.007 C 
ATOM     22  C   UNL A   1      33.815  16.526  25.269  1.00  0.00     0.008 C 
ATOM     23  C   UNL A   1      34.151  16.821  22.819  1.00  0.00     0.008 C 
ENDBRANCH  20  21
ENDBRANCH  19  20
ENDBRANCH   9  19
BRANCH  18  24
ATOM     24  C   UNL A   1      30.740  26.521  23.840  1.00  0.00     0.429 C 
ATOM     25  F   UNL A   1      30.457  27.825  24.095  1.00  0.00    -0.167 F 
ATOM     26  F   UNL A   1      31.102  26.462  22.541  1.00  0.00    -0.167 F 
ATOM     27  F   UNL A   1      29.588  25.824  23.965  1.00  0.00    -0.167 F 
ENDBRANCH  18  24
ENDBRANCH   5   8
ENDBRANCH   3   4
ENDBRANCH   2   3
ENDBRANCH   1   2
BRANCH   1  28
ATOM     28  C   UNL A   1      31.696  30.719  26.124  1.00  0.00     0.002 C 
BRANCH  28  29
ATOM     29  C   UNL A   1      31.404  32.070  26.779  1.00  0.00     0.021 C 
BRANCH  29  30
ATOM     30  C   UNL A   1      32.624  32.837  27.274  1.00  0.00     0.116 C 
BRANCH  30  31
ATOM     31  N   UNL A   1      32.321  34.212  27.637  1.00  0.00    -0.352 N 
ATOM     32  C   UNL A   1      32.942  35.021  28.558  1.00  0.00     0.251 C 
ATOM     33  H   UNL A   1      31.566  34.620  27.155  1.00  0.00     0.163 HD
ATOM     34  O   UNL A   1      32.474  36.121  28.834  1.00  0.00    -0.269 OA
BRANCH  32  35
ATOM     35  C   UNL A   1      34.160  34.543  29.250  1.00  0.00     0.039 A 
ATOM     36  C   UNL A   1      35.415  34.661  28.650  1.00  0.00     0.014 A 
ATOM     37  C   UNL A   1      34.034  33.941  30.505  1.00  0.00     0.014 A 
ATOM     38  C   UNL A   1      36.516  34.037  29.228  1.00  0.00     0.010 A 
ATOM     39  C   UNL A   1      35.157  33.383  31.122  1.00  0.00     0.010 A 
ATOM     40  C   UNL A   1      36.398  33.383  30.464  1.00  0.00    -0.014 A 
BRANCH  40  41
ATOM     41  C   UNL A   1      37.576  32.689  31.044  1.00  0.00     0.031 A 
ATOM     42  C   UNL A   1      38.156  33.130  32.361  1.00  0.00     0.074 A 
ATOM     43  C   UNL A   1      38.097  31.624  30.405  1.00  0.00     0.049 A 
ATOM     44  N   UNL A   1      39.181  32.647  33.018  1.00  0.00    -0.248 NA
ATOM     45  C   UNL A   1      37.501  34.267  33.029  1.00  0.00     0.031 C 
ATOM     46  C   UNL A   1      37.616  31.088  29.129  1.00  0.00     0.029 A 
ATOM     47  N   UNL A   1      39.131  30.792  30.747  1.00  0.00    -0.354 N 
ATOM     48  C   UNL A   1      39.305  33.427  34.160  1.00  0.00     0.074 A 
ATOM     49  C   UNL A   1      38.269  34.436  34.096  1.00  0.00     0.031 C 
ATOM     50  C   UNL A   1      38.326  29.993  28.819  1.00  0.00     0.029 A 
ATOM     51  C   UNL A   1      39.346  29.783  29.840  1.00  0.00     0.049 A 
ATOM     52  H   UNL A   1      39.667  30.905  31.565  1.00  0.00     0.167 HD
ATOM     53  C   UNL A   1      40.194  33.310  35.177  1.00  0.00     0.037 A 
ATOM     54  C   UNL A   1      40.274  28.809  29.823  1.00  0.00     0.037 A 
ATOM     55  C   UNL A   1      41.214  32.295  35.251  1.00  0.00     0.049 A 
ATOM     56  C   UNL A   1      41.280  28.734  30.935  1.00  0.00     0.074 A 
ATOM     57  C   UNL A   1      42.148  32.080  36.250  1.00  0.00     0.029 A 
ATOM     58  N   UNL A   1      41.434  31.326  34.283  1.00  0.00    -0.354 N 
ATOM     59  N   UNL A   1      41.379  29.475  32.011  1.00  0.00    -0.248 NA
ATOM     60  C   UNL A   1      42.310  27.692  30.821  1.00  0.00     0.031 C 
ATOM     61  C   UNL A   1      42.957  31.003  35.869  1.00  0.00     0.029 A 
ATOM     62  C   UNL A   1      42.502  30.524  34.653  1.00  0.00     0.049 A 
ATOM     63  H   UNL A   1      40.910  31.224  33.457  1.00  0.00     0.167 HD
ATOM     64  C   UNL A   1      42.473  28.983  32.710  1.00  0.00     0.074 A 
ATOM     65  C   UNL A   1      42.990  27.865  31.946  1.00  0.00     0.031 C 
ATOM     66  C   UNL A   1      43.006  29.419  33.878  1.00  0.00     0.037 A 
BRANCH  53  67
ATOM     67  C   UNL A   1      40.111  34.316  36.287  1.00  0.00     0.057 A 
ATOM     68  C   UNL A   1      39.314  34.073  37.413  1.00  0.00     0.134 A 
ATOM     69  C   UNL A   1      40.795  35.537  36.233  1.00  0.00     0.134 A 
ATOM     70  F   UNL A   1      38.627  32.926  37.526  1.00  0.00    -0.206 F 
ATOM     71  C   UNL A   1      39.203  35.006  38.446  1.00  0.00     0.040 A 
ATOM     72  C   UNL A   1      40.710  36.469  37.269  1.00  0.00     0.040 A 
ATOM     73  F   UNL A   1      41.587  35.826  35.189  1.00  0.00    -0.206 F 
ATOM     74  C   UNL A   1      39.907  36.206  38.377  1.00  0.00     0.006 A 
ENDBRANCH  53  67
BRANCH  54  75
ATOM     75  C   UNL A   1      40.306  27.834  28.705  1.00  0.00     0.057 A 
ATOM     76  C   UNL A   1      39.630  26.610  28.785  1.00  0.00     0.134 A 
ATOM     77  C   UNL A   1      41.005  28.111  27.525  1.00  0.00     0.134 A 
ATOM     78  F   UNL A   1      38.945  26.286  29.891  1.00  0.00    -0.206 F 
ATOM     79  C   UNL A   1      39.655  25.692  27.736  1.00  0.00     0.040 A 
ATOM     80  C   UNL A   1      41.017  27.213  26.457  1.00  0.00     0.040 A 
ATOM     81  F   UNL A   1      41.653  29.276  27.382  1.00  0.00    -0.206 F 
ATOM     82  C   UNL A   1      40.346  25.996  26.564  1.00  0.00     0.006 A 
ENDBRANCH  54  75
BRANCH  66  83
ATOM     83  C   UNL A   1      44.194  28.670  34.400  1.00  0.00     0.057 A 
ATOM     84  C   UNL A   1      45.493  29.052  34.045  1.00  0.00     0.134 A 
ATOM     85  C   UNL A   1      44.051  27.564  35.248  1.00  0.00     0.134 A 
ATOM     86  F   UNL A   1      45.697  30.100  33.233  1.00  0.00    -0.206 F 
ATOM     87  C   UNL A   1      46.610  28.360  34.516  1.00  0.00     0.040 A 
ATOM     88  C   UNL A   1      45.161  26.879  35.745  1.00  0.00     0.040 A 
ATOM     89  F   UNL A   1      42.833  27.160  35.638  1.00  0.00    -0.206 F 
ATOM     90  C   UNL A   1      46.445  27.275  35.375  1.00  0.00     0.006 A 
ENDBRANCH  66  83
ENDBRANCH  40  41
ENDBRANCH  32  35
ENDBRANCH  30  31
ENDBRANCH  29  30
ENDBRANCH  28  29
ENDBRANCH   1  28
TORSDOF 17
ENDMDL
MODEL 2
REMARK VINA RESULT:     -11.9      4.559      9.713
REMARK SMILES CC(C)CSc1cc2c(cc1Cl)C=C(C(=O)NCCCCCCNC(=O)c1ccc(-c3c4nc(c(-c5c(F)cccc5F)c5ccc([nH]5)c(-c5c(F)cccc5F)c5nc(c(-c6c(F)cccc6F)c6ccc3[nH]6)C=C5)C=C4)cc1)[C@@H](C(F)(F)F)O2
REMARK SMILES IDX 20 1 19 2 18 3 17 4 15 5 16 6 14 8 6 9 7 10 11 11 8 12 10 13
REMARK SMILES IDX 12 14 9 15 86 16 13 17 81 18 5 19 4 20 2 21 1 22 3 23 82 24
REMARK SMILES IDX 83 25 84 26 85 27 21 28 22 29 23 30 24 31 25 32 26 34 27 35
REMARK SMILES IDX 28 36 80 37 29 38 79 39 30 40 31 41 32 42 73 43 33 44 78 45
REMARK SMILES IDX 72 46 74 47 34 48 77 49 71 50 70 51 35 53 61 54 44 55 60 56
REMARK SMILES IDX 45 57 48 58 59 59 75 60 46 61 47 62 58 64 76 65 49 66 36 67
REMARK SMILES IDX 37 68 42 69 38 70 39 71 41 72 43 73 40 74 62 75 63 76 68 77
REMARK SMILES IDX 64 78 65 79 67 80 69 81 66 82 50 83 51 84 56 85 52 86 53 87
REMARK SMILES IDX 55 88 57 89 54 90
REMARK H PARENT 17 7 24 33 74 52 48 63
REMARK Flexibility Score: inf
ROOT
ATOM      1  C   UNL A   1      38.651  22.024  26.101  1.00  0.00     0.002 C 
ENDROOT
BRANCH   1   2
ATOM      2  C   UNL A   1      38.062  23.437  26.102  1.00  0.00     0.021 C 
BRANCH   2   3
ATOM      3  C   UNL A   1      36.663  23.562  25.509  1.00  0.00     0.116 C 
BRANCH   3   4
ATOM      4  N   UNL A   1      35.616  23.190  26.438  1.00  0.00    -0.352 N 
ATOM      5  C   UNL A   1      34.282  23.408  26.526  1.00  0.00     0.251 C 
ATOM      6  O   UNL A   1      33.705  22.856  27.467  1.00  0.00    -0.270 OA
ATOM      7  H   UNL A   1      35.955  22.648  27.187  1.00  0.00     0.163 HD
BRANCH   5   8
ATOM      8  C   UNL A   1      33.500  24.277  25.593  1.00  0.00     0.067 C 
ATOM      9  C   UNL A   1      31.114  28.302  23.625  1.00  0.00     0.030 A 
ATOM     10  C   UNL A   1      31.384  26.990  23.192  1.00  0.00     0.063 A 
ATOM     11  C   UNL A   1      31.575  28.672  24.899  1.00  0.00     0.055 A 
ATOM     12  C   UNL A   1      32.057  26.074  24.003  1.00  0.00     0.129 A 
ATOM     13  C   UNL A   1      32.210  27.732  25.728  1.00  0.00     0.033 A 
ATOM     14  Cl  UNL A   1      31.496  30.278  25.528  1.00  0.00    -0.083 Cl
ATOM     15  C   UNL A   1      32.463  26.435  25.278  1.00  0.00     0.019 A 
ATOM     16  O   UNL A   1      32.283  24.849  23.459  1.00  0.00    -0.475 OA
ATOM     17  C   UNL A   1      33.185  25.481  26.103  1.00  0.00     0.025 C 
ATOM     18  C   UNL A   1      33.056  23.871  24.211  1.00  0.00     0.314 C 
BRANCH   9  19
ATOM     19  S   UNL A   1      30.288  29.307  22.392  1.00  0.00    -0.124 SA
BRANCH  19  20
ATOM     20  C   UNL A   1      28.494  29.145  22.700  1.00  0.00     0.078 C 
BRANCH  20  21
ATOM     21  C   UNL A   1      27.588  30.372  22.490  1.00  0.00    -0.007 C 
ATOM     22  C   UNL A   1      27.646  31.429  23.590  1.00  0.00     0.008 C 
ATOM     23  C   UNL A   1      27.976  31.026  21.155  1.00  0.00     0.008 C 
ENDBRANCH  20  21
ENDBRANCH  19  20
ENDBRANCH   9  19
BRANCH  18  24
ATOM     24  C   UNL A   1      32.259  22.555  24.165  1.00  0.00     0.429 C 
ATOM     25  F   UNL A   1      31.505  22.507  23.037  1.00  0.00    -0.167 F 
ATOM     26  F   UNL A   1      33.040  21.454  24.142  1.00  0.00    -0.167 F 
ATOM     27  F   UNL A   1      31.421  22.427  25.219  1.00  0.00    -0.167 F 
ENDBRANCH  18  24
ENDBRANCH   5   8
ENDBRANCH   3   4
ENDBRANCH   2   3
ENDBRANCH   1   2
BRANCH   1  28
ATOM     28  C   UNL A   1      38.155  21.083  24.997  1.00  0.00     0.002 C 
BRANCH  28  29
ATOM     29  C   UNL A   1      38.736  19.667  25.003  1.00  0.00     0.021 C 
BRANCH  29  30
ATOM     30  C   UNL A   1      39.631  19.330  26.190  1.00  0.00     0.116 C 
BRANCH  30  31
ATOM     31  N   UNL A   1      40.964  18.907  25.793  1.00  0.00    -0.352 N 
ATOM     32  C   UNL A   1      42.143  19.611  25.833  1.00  0.00     0.251 C 
ATOM     33  H   UNL A   1      41.031  17.987  25.449  1.00  0.00     0.163 HD
ATOM     34  O   UNL A   1      43.163  19.143  25.335  1.00  0.00    -0.269 OA
BRANCH  32  35
ATOM     35  C   UNL A   1      42.171  20.959  26.442  1.00  0.00     0.039 A 
ATOM     36  C   UNL A   1      42.226  22.103  25.642  1.00  0.00     0.014 A 
ATOM     37  C   UNL A   1      42.172  21.074  27.835  1.00  0.00     0.014 A 
ATOM     38  C   UNL A   1      42.444  23.344  26.230  1.00  0.00     0.010 A 
ATOM     39  C   UNL A   1      42.312  22.333  28.426  1.00  0.00     0.010 A 
ATOM     40  C   UNL A   1      42.499  23.472  27.627  1.00  0.00    -0.014 A 
BRANCH  40  41
ATOM     41  C   UNL A   1      42.774  24.801  28.233  1.00  0.00     0.031 A 
ATOM     42  C   UNL A   1      44.174  25.190  28.625  1.00  0.00     0.074 A 
ATOM     43  C   UNL A   1      41.765  25.679  28.385  1.00  0.00     0.049 A 
ATOM     44  N   UNL A   1      44.603  26.302  29.169  1.00  0.00    -0.248 NA
ATOM     45  C   UNL A   1      45.234  24.199  28.379  1.00  0.00     0.031 C 
ATOM     46  C   UNL A   1      40.366  25.428  28.030  1.00  0.00     0.029 A 
ATOM     47  N   UNL A   1      41.762  26.965  28.861  1.00  0.00    -0.354 N 
ATOM     48  C   UNL A   1      45.971  26.139  29.345  1.00  0.00     0.074 A 
ATOM     49  C   UNL A   1      46.300  24.809  28.879  1.00  0.00     0.031 C 
ATOM     50  C   UNL A   1      39.650  26.539  28.260  1.00  0.00     0.029 A 
ATOM     51  C   UNL A   1      40.523  27.557  28.832  1.00  0.00     0.049 A 
ATOM     52  H   UNL A   1      42.570  27.421  29.191  1.00  0.00     0.167 HD
ATOM     53  C   UNL A   1      46.874  27.019  29.841  1.00  0.00     0.037 A 
ATOM     54  C   UNL A   1      40.131  28.779  29.237  1.00  0.00     0.037 A 
ATOM     55  C   UNL A   1      46.550  28.350  30.290  1.00  0.00     0.049 A 
ATOM     56  C   UNL A   1      41.143  29.715  29.832  1.00  0.00     0.074 A 
ATOM     57  C   UNL A   1      47.398  29.324  30.789  1.00  0.00     0.029 A 
ATOM     58  N   UNL A   1      45.273  28.891  30.295  1.00  0.00    -0.354 N 
ATOM     59  N   UNL A   1      42.434  29.548  29.985  1.00  0.00    -0.248 NA
ATOM     60  C   UNL A   1      40.638  31.005  30.320  1.00  0.00     0.031 C 
ATOM     61  C   UNL A   1      46.629  30.442  31.129  1.00  0.00     0.029 A 
ATOM     62  C   UNL A   1      45.308  30.179  30.807  1.00  0.00     0.049 A 
ATOM     63  H   UNL A   1      44.463  28.429  29.982  1.00  0.00     0.167 HD
ATOM     64  C   UNL A   1      42.899  30.715  30.575  1.00  0.00     0.074 A 
ATOM     65  C   UNL A   1      41.754  31.591  30.731  1.00  0.00     0.031 C 
ATOM     66  C   UNL A   1      44.159  31.034  30.959  1.00  0.00     0.037 A 
BRANCH  53  67
ATOM     67  C   UNL A   1      48.300  26.564  29.940  1.00  0.00     0.057 A 
ATOM     68  C   UNL A   1      49.202  26.811  28.897  1.00  0.00     0.134 A 
ATOM     69  C   UNL A   1      48.778  25.857  31.051  1.00  0.00     0.134 A 
ATOM     70  F   UNL A   1      48.809  27.477  27.800  1.00  0.00    -0.206 F 
ATOM     71  C   UNL A   1      50.527  26.374  28.956  1.00  0.00     0.040 A 
ATOM     72  C   UNL A   1      50.106  25.435  31.133  1.00  0.00     0.040 A 
ATOM     73  F   UNL A   1      47.969  25.600  32.091  1.00  0.00    -0.206 F 
ATOM     74  C   UNL A   1      50.983  25.689  30.080  1.00  0.00     0.006 A 
ENDBRANCH  53  67
BRANCH  54  75
ATOM     75  C   UNL A   1      38.709  29.182  29.109  1.00  0.00     0.057 A 
ATOM     76  C   UNL A   1      38.182  29.618  27.887  1.00  0.00     0.134 A 
ATOM     77  C   UNL A   1      37.842  29.128  30.205  1.00  0.00     0.134 A 
ATOM     78  F   UNL A   1      38.964  29.695  26.801  1.00  0.00    -0.206 F 
ATOM     79  C   UNL A   1      36.845  29.996  27.762  1.00  0.00     0.040 A 
ATOM     80  C   UNL A   1      36.495  29.478  30.089  1.00  0.00     0.040 A 
ATOM     81  F   UNL A   1      38.284  28.698  31.395  1.00  0.00    -0.206 F 
ATOM     82  C   UNL A   1      35.996  29.919  28.864  1.00  0.00     0.006 A 
ENDBRANCH  54  75
BRANCH  66  83
ATOM     83  C   UNL A   1      44.360  32.390  31.564  1.00  0.00     0.057 A 
ATOM     84  C   UNL A   1      44.643  33.498  30.756  1.00  0.00     0.134 A 
ATOM     85  C   UNL A   1      44.281  32.597  32.947  1.00  0.00     0.134 A 
ATOM     86  F   UNL A   1      44.736  33.365  29.425  1.00  0.00    -0.206 F 
ATOM     87  C   UNL A   1      44.841  34.767  31.304  1.00  0.00     0.040 A 
ATOM     88  C   UNL A   1      44.453  33.866  33.504  1.00  0.00     0.040 A 
ATOM     89  F   UNL A   1      43.995  31.579  33.772  1.00  0.00    -0.206 F 
ATOM     90  C   UNL A   1      44.738  34.953  32.681  1.00  0.00     0.006 A 
ENDBRANCH  66  83
ENDBRANCH  40  41
ENDBRANCH  32  35
ENDBRANCH  30  31
ENDBRANCH  29  30
ENDBRANCH  28  29
ENDBRANCH   1  28
TORSDOF 17
ENDMDL
MODEL 3
REMARK VINA RESULT:     -11.7      0.849      6.078
REMARK SMILES CC(C)CSc1cc2c(cc1Cl)C=C(C(=O)NCCCCCCNC(=O)c1ccc(-c3c4nc(c(-c5c(F)cccc5F)c5ccc([nH]5)c(-c5c(F)cccc5F)c5nc(c(-c6c(F)cccc6F)c6ccc3[nH]6)C=C5)C=C4)cc1)[C@@H](C(F)(F)F)O2
REMARK SMILES IDX 20 1 19 2 18 3 17 4 15 5 16 6 14 8 6 9 7 10 11 11 8 12 10 13
REMARK SMILES IDX 12 14 9 15 86 16 13 17 81 18 5 19 4 20 2 21 1 22 3 23 82 24
REMARK SMILES IDX 83 25 84 26 85 27 21 28 22 29 23 30 24 31 25 32 26 34 27 35
REMARK SMILES IDX 28 36 80 37 29 38 79 39 30 40 31 41 32 42 73 43 33 44 78 45
REMARK SMILES IDX 72 46 74 47 34 48 77 49 71 50 70 51 35 53 61 54 44 55 60 56
REMARK SMILES IDX 45 57 48 58 59 59 75 60 46 61 47 62 58 64 76 65 49 66 36 67
REMARK SMILES IDX 37 68 42 69 38 70 39 71 41 72 43 73 40 74 62 75 63 76 68 77
REMARK SMILES IDX 64 78 65 79 67 80 69 81 66 82 50 83 51 84 56 85 52 86 53 87
REMARK SMILES IDX 55 88 57 89 54 90
REMARK H PARENT 17 7 24 33 74 52 48 63
REMARK Flexibility Score: inf
ROOT
ATOM      1  C   UNL A   1      31.871  29.517  26.773  1.00  0.00     0.002 C 
ENDROOT
BRANCH   1   2
ATOM      2  C   UNL A   1      33.283  29.522  27.365  1.00  0.00     0.021 C 
BRANCH   2   3
ATOM      3  C   UNL A   1      34.339  28.791  26.543  1.00  0.00     0.116 C 
BRANCH   3   4
ATOM      4  N   UNL A   1      34.128  28.905  25.115  1.00  0.00    -0.352 N 
ATOM      5  C   UNL A   1      33.624  28.102  24.147  1.00  0.00     0.251 C 
ATOM      6  O   UNL A   1      33.553  28.596  23.018  1.00  0.00    -0.270 OA
ATOM      7  H   UNL A   1      34.421  29.776  24.761  1.00  0.00     0.163 HD
BRANCH   5   8
ATOM      8  C   UNL A   1      33.192  26.686  24.357  1.00  0.00     0.067 C 
ATOM      9  C   UNL A   1      33.332  21.643  24.919  1.00  0.00     0.030 A 
ATOM     10  C   UNL A   1      32.327  22.627  24.969  1.00  0.00     0.063 A 
ATOM     11  C   UNL A   1      34.643  22.069  24.651  1.00  0.00     0.055 A 
ATOM     12  C   UNL A   1      32.606  23.973  24.731  1.00  0.00     0.129 A 
ATOM     13  C   UNL A   1      34.910  23.420  24.367  1.00  0.00     0.033 A 
ATOM     14  Cl  UNL A   1      36.029  21.042  24.724  1.00  0.00    -0.083 Cl
ATOM     15  C   UNL A   1      33.894  24.376  24.417  1.00  0.00     0.019 A 
ATOM     16  O   UNL A   1      31.554  24.829  24.837  1.00  0.00    -0.475 OA
ATOM     17  C   UNL A   1      34.177  25.784  24.197  1.00  0.00     0.025 C 
ATOM     18  C   UNL A   1      31.786  26.259  24.689  1.00  0.00     0.314 C 
BRANCH   9  19
ATOM     19  S   UNL A   1      32.743  19.996  25.312  1.00  0.00    -0.124 SA
BRANCH  19  20
ATOM     20  C   UNL A   1      32.715  19.062  23.741  1.00  0.00     0.078 C 
BRANCH  20  21
ATOM     21  C   UNL A   1      32.776  17.524  23.787  1.00  0.00    -0.007 C 
ATOM     22  C   UNL A   1      34.017  16.895  23.160  1.00  0.00     0.008 C 
ATOM     23  C   UNL A   1      32.690  17.090  25.259  1.00  0.00     0.008 C 
ENDBRANCH  20  21
ENDBRANCH  19  20
ENDBRANCH   9  19
BRANCH  18  24
ATOM     24  C   UNL A   1      30.720  26.775  23.706  1.00  0.00     0.429 C 
ATOM     25  F   UNL A   1      31.161  26.638  22.429  1.00  0.00    -0.167 F 
ATOM     26  F   UNL A   1      29.553  26.099  23.774  1.00  0.00    -0.167 F 
ATOM     27  F   UNL A   1      30.435  28.083  23.900  1.00  0.00    -0.167 F 
ENDBRANCH  18  24
ENDBRANCH   5   8
ENDBRANCH   3   4
ENDBRANCH   2   3
ENDBRANCH   1   2
BRANCH   1  28
ATOM     28  C   UNL A   1      31.439  30.793  26.040  1.00  0.00     0.002 C 
BRANCH  28  29
ATOM     29  C   UNL A   1      31.331  32.059  26.892  1.00  0.00     0.021 C 
BRANCH  29  30
ATOM     30  C   UNL A   1      32.524  33.004  26.818  1.00  0.00     0.116 C 
BRANCH  30  31
ATOM     31  N   UNL A   1      32.357  34.194  27.636  1.00  0.00    -0.352 N 
ATOM     32  C   UNL A   1      33.105  34.619  28.708  1.00  0.00     0.251 C 
ATOM     33  H   UNL A   1      31.604  34.777  27.387  1.00  0.00     0.163 HD
ATOM     34  O   UNL A   1      32.745  35.588  29.371  1.00  0.00    -0.269 OA
BRANCH  32  35
ATOM     35  C   UNL A   1      34.327  33.877  29.089  1.00  0.00     0.039 A 
ATOM     36  C   UNL A   1      34.254  32.770  29.938  1.00  0.00     0.014 A 
ATOM     37  C   UNL A   1      35.564  34.318  28.612  1.00  0.00     0.014 A 
ATOM     38  C   UNL A   1      35.425  32.206  30.435  1.00  0.00     0.010 A 
ATOM     39  C   UNL A   1      36.737  33.699  29.052  1.00  0.00     0.010 A 
ATOM     40  C   UNL A   1      36.678  32.669  30.006  1.00  0.00    -0.014 A 
BRANCH  40  41
ATOM     41  C   UNL A   1      37.915  32.081  30.581  1.00  0.00     0.031 A 
ATOM     42  C   UNL A   1      38.551  30.869  29.954  1.00  0.00     0.074 A 
ATOM     43  C   UNL A   1      38.496  32.670  31.643  1.00  0.00     0.049 A 
ATOM     44  N   UNL A   1      39.627  30.217  30.318  1.00  0.00    -0.248 NA
ATOM     45  C   UNL A   1      37.890  30.311  28.763  1.00  0.00     0.031 C 
ATOM     46  C   UNL A   1      37.987  33.858  32.332  1.00  0.00     0.029 A 
ATOM     47  N   UNL A   1      39.649  32.362  32.318  1.00  0.00    -0.354 N 
ATOM     48  C   UNL A   1      39.761  29.168  29.417  1.00  0.00     0.074 A 
ATOM     49  C   UNL A   1      38.641  29.250  28.505  1.00  0.00     0.031 C 
ATOM     50  C   UNL A   1      38.846  34.203  33.303  1.00  0.00     0.029 A 
ATOM     51  C   UNL A   1      39.932  33.230  33.344  1.00  0.00     0.049 A 
ATOM     52  H   UNL A   1      40.220  31.593  32.089  1.00  0.00     0.167 HD
ATOM     53  C   UNL A   1      40.735  28.227  29.349  1.00  0.00     0.037 A 
ATOM     54  C   UNL A   1      40.945  33.232  34.231  1.00  0.00     0.037 A 
ATOM     55  C   UNL A   1      41.860  28.154  30.246  1.00  0.00     0.049 A 
ATOM     56  C   UNL A   1      41.979  32.147  34.165  1.00  0.00     0.074 A 
ATOM     57  C   UNL A   1      42.909  27.252  30.245  1.00  0.00     0.029 A 
ATOM     58  N   UNL A   1      42.080  29.020  31.307  1.00  0.00    -0.354 N 
ATOM     59  N   UNL A   1      42.096  31.167  33.303  1.00  0.00    -0.248 NA
ATOM     60  C   UNL A   1      43.018  32.164  35.204  1.00  0.00     0.031 C 
ATOM     61  C   UNL A   1      43.745  27.549  31.327  1.00  0.00     0.029 A 
ATOM     62  C   UNL A   1      43.237  28.660  31.978  1.00  0.00     0.049 A 
ATOM     63  H   UNL A   1      41.499  29.778  31.547  1.00  0.00     0.167 HD
ATOM     64  C   UNL A   1      43.226  30.457  33.687  1.00  0.00     0.074 A 
ATOM     65  C   UNL A   1      43.772  31.134  34.846  1.00  0.00     0.031 C 
ATOM     66  C   UNL A   1      43.762  29.342  33.133  1.00  0.00     0.037 A 
BRANCH  53  67
ATOM     67  C   UNL A   1      40.615  27.187  28.273  1.00  0.00     0.057 A 
ATOM     68  C   UNL A   1      39.861  26.026  28.483  1.00  0.00     0.134 A 
ATOM     69  C   UNL A   1      41.266  27.319  27.040  1.00  0.00     0.134 A 
ATOM     70  F   UNL A   1      39.217  25.833  29.645  1.00  0.00    -0.206 F 
ATOM     71  C   UNL A   1      39.757  25.034  27.506  1.00  0.00     0.040 A 
ATOM     72  C   UNL A   1      41.152  26.346  26.045  1.00  0.00     0.040 A 
ATOM     73  F   UNL A   1      41.993  28.414  26.769  1.00  0.00    -0.206 F 
ATOM     74  C   UNL A   1      40.400  25.196  26.280  1.00  0.00     0.006 A 
ENDBRANCH  53  67
BRANCH  54  75
ATOM     75  C   UNL A   1      41.019  34.289  35.269  1.00  0.00     0.057 A 
ATOM     76  C   UNL A   1      41.671  35.504  35.027  1.00  0.00     0.134 A 
ATOM     77  C   UNL A   1      40.428  34.111  36.525  1.00  0.00     0.134 A 
ATOM     78  F   UNL A   1      42.260  35.733  33.844  1.00  0.00    -0.206 F 
ATOM     79  C   UNL A   1      41.742  36.502  35.999  1.00  0.00     0.040 A 
ATOM     80  C   UNL A   1      40.468  35.110  37.498  1.00  0.00     0.040 A 
ATOM     81  F   UNL A   1      39.771  32.977  36.807  1.00  0.00    -0.206 F 
ATOM     82  C   UNL A   1      41.133  36.308  37.238  1.00  0.00     0.006 A 
ENDBRANCH  54  75
BRANCH  66  83
ATOM     83  C   UNL A   1      45.009  28.805  33.768  1.00  0.00     0.057 A 
ATOM     84  C   UNL A   1      46.270  29.256  33.359  1.00  0.00     0.134 A 
ATOM     85  C   UNL A   1      44.962  27.835  34.777  1.00  0.00     0.134 A 
ATOM     86  F   UNL A   1      46.384  30.181  32.394  1.00  0.00    -0.206 F 
ATOM     87  C   UNL A   1      47.442  28.760  33.934  1.00  0.00     0.040 A 
ATOM     88  C   UNL A   1      46.125  27.349  35.375  1.00  0.00     0.040 A 
ATOM     89  F   UNL A   1      43.783  27.376  35.223  1.00  0.00    -0.206 F 
ATOM     90  C   UNL A   1      47.370  27.810  34.950  1.00  0.00     0.006 A 
ENDBRANCH  66  83
ENDBRANCH  40  41
ENDBRANCH  32  35
ENDBRANCH  30  31
ENDBRANCH  29  30
ENDBRANCH  28  29
ENDBRANCH   1  28
TORSDOF 17
ENDMDL
