MODEL 1
REMARK VINA RESULT:     -11.2      0.000      0.000
REMARK SMILES O=C(NCCCCCCNC(=O)c1ccc(C[NH+]2CC[NH2+]CC2)c(Br)c1)c1ccc(-c2c3nc(c(-c4c(F)cccc4F)c4ccc([nH]4)c(-c4c(F)cccc4F)c4nc(c(-c5c(F)cccc5F)c5ccc2[nH]5)C=C4)C=C3)cc1
REMARK SMILES IDX 6 1 5 2 4 3 3 4 1 5 2 6 27 8 28 9 80 10 29 11 79 12 30 13
REMARK SMILES IDX 31 14 32 15 73 16 33 17 78 18 72 19 74 20 34 21 77 22 71 23
REMARK SMILES IDX 70 24 35 26 61 27 44 28 60 29 45 30 48 31 59 32 75 33 46 34
REMARK SMILES IDX 47 35 58 37 76 38 49 39 36 40 37 41 42 42 38 43 39 44 41 45
REMARK SMILES IDX 43 46 40 47 62 48 63 49 68 50 64 51 65 52 67 53 69 54 66 55
REMARK SMILES IDX 50 56 51 57 56 58 52 59 53 60 55 61 57 62 54 63 7 64 8 65
REMARK SMILES IDX 9 66 10 67 11 68 12 70 13 71 14 72 26 73 15 74 24 75 16 76
REMARK SMILES IDX 25 77 17 78 18 79 19 80 23 81 20 83 22 84 21 85
REMARK H PARENT 3 7 74 25 48 36 10 69 18 82 21 86 21 87
REMARK Flexibility Score: inf
ROOT
ATOM      1  C   UNL A   1      37.485  21.019  24.624  1.00  0.00     0.002 C 
ENDROOT
BRANCH   1   2
ATOM      2  C   UNL A   1      38.311  19.754  24.863  1.00  0.00     0.021 C 
BRANCH   2   3
ATOM      3  C   UNL A   1      39.199  19.789  26.103  1.00  0.00     0.116 C 
BRANCH   3   4
ATOM      4  N   UNL A   1      40.360  18.922  25.977  1.00  0.00    -0.352 N 
ATOM      5  O   UNL A   1      42.536  18.395  25.709  1.00  0.00    -0.269 OA
ATOM      6  C   UNL A   1      41.696  19.236  26.016  1.00  0.00     0.251 C 
ATOM      7  H   UNL A   1      40.158  17.968  25.844  1.00  0.00     0.163 HD
BRANCH   6   8
ATOM      8  C   UNL A   1      42.127  20.593  26.409  1.00  0.00     0.039 A 
ATOM      9  C   UNL A   1      42.387  21.574  25.446  1.00  0.00     0.014 A 
ATOM     10  C   UNL A   1      42.242  20.897  27.768  1.00  0.00     0.014 A 
ATOM     11  C   UNL A   1      42.878  22.816  25.836  1.00  0.00     0.010 A 
ATOM     12  C   UNL A   1      42.665  22.167  28.160  1.00  0.00     0.010 A 
ATOM     13  C   UNL A   1      43.011  23.129  27.197  1.00  0.00    -0.014 A 
BRANCH  13  14
ATOM     14  C   UNL A   1      43.465  24.477  27.619  1.00  0.00     0.031 A 
ATOM     15  C   UNL A   1      42.475  25.511  28.070  1.00  0.00     0.074 A 
ATOM     16  C   UNL A   1      44.773  24.782  27.547  1.00  0.00     0.049 A 
ATOM     17  N   UNL A   1      42.671  26.771  28.367  1.00  0.00    -0.248 NA
ATOM     18  C   UNL A   1      41.076  25.074  28.191  1.00  0.00     0.031 C 
ATOM     19  C   UNL A   1      45.830  23.861  27.126  1.00  0.00     0.029 A 
ATOM     20  N   UNL A   1      45.435  25.955  27.807  1.00  0.00    -0.354 N 
ATOM     21  C   UNL A   1      41.420  27.284  28.686  1.00  0.00     0.074 A 
ATOM     22  C   UNL A   1      40.469  26.206  28.521  1.00  0.00     0.031 C 
ATOM     23  C   UNL A   1      47.007  24.503  27.153  1.00  0.00     0.029 A 
ATOM     24  C   UNL A   1      46.780  25.894  27.532  1.00  0.00     0.049 A 
ATOM     25  H   UNL A   1      44.991  26.761  28.154  1.00  0.00     0.167 HD
ATOM     26  C   UNL A   1      41.098  28.540  29.082  1.00  0.00     0.037 A 
ATOM     27  C   UNL A   1      47.720  26.856  27.542  1.00  0.00     0.037 A 
ATOM     28  C   UNL A   1      42.055  29.607  29.239  1.00  0.00     0.049 A 
ATOM     29  C   UNL A   1      47.335  28.254  27.931  1.00  0.00     0.074 A 
ATOM     30  C   UNL A   1      41.838  30.904  29.670  1.00  0.00     0.029 A 
ATOM     31  N   UNL A   1      43.410  29.504  28.950  1.00  0.00    -0.354 N 
ATOM     32  N   UNL A   1      46.158  28.721  28.268  1.00  0.00    -0.248 NA
ATOM     33  C   UNL A   1      48.407  29.259  27.945  1.00  0.00     0.031 C 
ATOM     34  C   UNL A   1      43.047  31.602  29.582  1.00  0.00     0.029 A 
ATOM     35  C   UNL A   1      44.033  30.723  29.165  1.00  0.00     0.049 A 
ATOM     36  H   UNL A   1      43.861  28.686  28.640  1.00  0.00     0.167 HD
ATOM     37  C   UNL A   1      46.350  30.064  28.564  1.00  0.00     0.074 A 
ATOM     38  C   UNL A   1      47.759  30.337  28.366  1.00  0.00     0.031 C 
ATOM     39  C   UNL A   1      45.440  30.981  28.975  1.00  0.00     0.037 A 
BRANCH  26  40
ATOM     40  C   UNL A   1      39.646  28.836  29.329  1.00  0.00     0.057 A 
ATOM     41  C   UNL A   1      39.056  28.686  30.592  1.00  0.00     0.134 A 
ATOM     42  C   UNL A   1      38.824  29.288  28.287  1.00  0.00     0.134 A 
ATOM     43  F   UNL A   1      39.780  28.251  31.634  1.00  0.00    -0.206 F 
ATOM     44  C   UNL A   1      37.697  28.930  30.798  1.00  0.00     0.040 A 
ATOM     45  C   UNL A   1      37.472  29.566  28.489  1.00  0.00     0.040 A 
ATOM     46  F   UNL A   1      39.323  29.468  27.055  1.00  0.00    -0.206 F 
ATOM     47  C   UNL A   1      36.900  29.375  29.745  1.00  0.00     0.006 A 
ENDBRANCH  26  40
BRANCH  27  48
ATOM     48  C   UNL A   1      49.109  26.513  27.156  1.00  0.00     0.057 A 
ATOM     49  C   UNL A   1      49.992  25.927  28.069  1.00  0.00     0.134 A 
ATOM     50  C   UNL A   1      49.571  26.714  25.848  1.00  0.00     0.134 A 
ATOM     51  F   UNL A   1      49.612  25.722  29.338  1.00  0.00    -0.206 F 
ATOM     52  C   UNL A   1      51.285  25.554  27.697  1.00  0.00     0.040 A 
ATOM     53  C   UNL A   1      50.851  26.322  25.456  1.00  0.00     0.040 A 
ATOM     54  F   UNL A   1      48.768  27.261  24.923  1.00  0.00    -0.206 F 
ATOM     55  C   UNL A   1      51.713  25.742  26.384  1.00  0.00     0.006 A 
ENDBRANCH  27  48
BRANCH  39  56
ATOM     56  C   UNL A   1      45.938  32.361  29.294  1.00  0.00     0.057 A 
ATOM     57  C   UNL A   1      45.925  33.396  28.353  1.00  0.00     0.134 A 
ATOM     58  C   UNL A   1      46.366  32.671  30.592  1.00  0.00     0.134 A 
ATOM     59  F   UNL A   1      45.541  33.163  27.089  1.00  0.00    -0.206 F 
ATOM     60  C   UNL A   1      46.324  34.691  28.691  1.00  0.00     0.040 A 
ATOM     61  C   UNL A   1      46.741  33.966  30.948  1.00  0.00     0.040 A 
ATOM     62  F   UNL A   1      46.397  31.725  31.543  1.00  0.00    -0.206 F 
ATOM     63  C   UNL A   1      46.722  34.981  29.995  1.00  0.00     0.006 A 
ENDBRANCH  39  56
ENDBRANCH  13  14
ENDBRANCH   6   8
ENDBRANCH   3   4
ENDBRANCH   2   3
ENDBRANCH   1   2
BRANCH   1  64
ATOM     64  C   UNL A   1      36.016  20.931  25.051  1.00  0.00     0.002 C 
BRANCH  64  65
ATOM     65  C   UNL A   1      35.592  21.900  26.162  1.00  0.00     0.021 C 
BRANCH  65  66
ATOM     66  C   UNL A   1      34.377  21.457  26.978  1.00  0.00     0.116 C 
BRANCH  66  67
ATOM     67  N   UNL A   1      33.576  20.464  26.272  1.00  0.00    -0.352 N 
ATOM     68  C   UNL A   1      32.491  20.648  25.454  1.00  0.00     0.251 C 
ATOM     69  H   UNL A   1      33.855  19.529  26.400  1.00  0.00     0.163 HD
ATOM     70  O   UNL A   1      31.817  19.697  25.068  1.00  0.00    -0.269 OA
BRANCH  68  71
ATOM     71  C   UNL A   1      32.125  22.014  25.051  1.00  0.00     0.040 A 
ATOM     72  C   UNL A   1      31.226  22.750  25.819  1.00  0.00     0.014 A 
ATOM     73  C   UNL A   1      32.665  22.545  23.882  1.00  0.00     0.030 A 
ATOM     74  C   UNL A   1      30.752  23.965  25.333  1.00  0.00     0.011 A 
ATOM     75  C   UNL A   1      32.180  23.761  23.393  1.00  0.00     0.027 A 
ATOM     76  C   UNL A   1      31.143  24.438  24.065  1.00  0.00     0.020 A 
ATOM     77  Br  UNL A   1      32.967  24.401  21.786  1.00  0.00    -0.050 Br
BRANCH  76  78
ATOM     78  C   UNL A   1      30.359  25.587  23.465  1.00  0.00     0.300 C 
BRANCH  78  79
ATOM     79  N   UNL A   1      30.647  26.933  23.990  1.00  0.00    -0.322 N 
ATOM     80  C   UNL A   1      32.062  27.324  24.018  1.00  0.00     0.324 C 
ATOM     81  C   UNL A   1      29.796  28.028  23.508  1.00  0.00     0.324 C 
ATOM     82  H   UNL A   1      30.374  26.790  24.962  1.00  0.00     0.348 HD
ATOM     83  C   UNL A   1      32.565  28.079  22.766  1.00  0.00     0.322 C 
ATOM     84  C   UNL A   1      30.337  28.853  22.312  1.00  0.00     0.322 C 
ATOM     85  N   UNL A   1      31.746  29.259  22.436  1.00  0.00    -0.337 N 
ATOM     86  H   UNL A   1      32.065  29.659  21.553  1.00  0.00     0.346 HD
ATOM     87  H   UNL A   1      31.838  29.956  23.174  1.00  0.00     0.346 HD
ENDBRANCH  78  79
ENDBRANCH  76  78
ENDBRANCH  68  71
ENDBRANCH  66  67
ENDBRANCH  65  66
ENDBRANCH  64  65
ENDBRANCH   1  64
TORSDOF 15
ENDMDL
MODEL 2
REMARK VINA RESULT:     -11.2      4.903     10.066
REMARK SMILES O=C(NCCCCCCNC(=O)c1ccc(C[NH+]2CC[NH2+]CC2)c(Br)c1)c1ccc(-c2c3nc(c(-c4c(F)cccc4F)c4ccc([nH]4)c(-c4c(F)cccc4F)c4nc(c(-c5c(F)cccc5F)c5ccc2[nH]5)C=C4)C=C3)cc1
REMARK SMILES IDX 6 1 5 2 4 3 3 4 1 5 2 6 27 8 28 9 80 10 29 11 79 12 30 13
REMARK SMILES IDX 31 14 32 15 73 16 33 17 78 18 72 19 74 20 34 21 77 22 71 23
REMARK SMILES IDX 70 24 35 26 61 27 44 28 60 29 45 30 48 31 59 32 75 33 46 34
REMARK SMILES IDX 47 35 58 37 76 38 49 39 36 40 37 41 42 42 38 43 39 44 41 45
REMARK SMILES IDX 43 46 40 47 62 48 63 49 68 50 64 51 65 52 67 53 69 54 66 55
REMARK SMILES IDX 50 56 51 57 56 58 52 59 53 60 55 61 57 62 54 63 7 64 8 65
REMARK SMILES IDX 9 66 10 67 11 68 12 70 13 71 14 72 26 73 15 74 24 75 16 76
REMARK SMILES IDX 25 77 17 78 18 79 19 80 23 81 20 83 22 84 21 85
REMARK H PARENT 3 7 74 25 48 36 10 69 18 82 21 86 21 87
REMARK Flexibility Score: inf
ROOT
ATOM      1  C   UNL A   1      41.417  19.863  27.345  1.00  0.00     0.002 C 
ENDROOT
BRANCH   1   2
ATOM      2  C   UNL A   1      41.681  21.367  27.434  1.00  0.00     0.021 C 
BRANCH   2   3
ATOM      3  C   UNL A   1      41.449  22.139  26.139  1.00  0.00     0.116 C 
BRANCH   3   4
ATOM      4  N   UNL A   1      40.040  22.214  25.785  1.00  0.00    -0.352 N 
ATOM      5  O   UNL A   1      37.906  22.933  25.907  1.00  0.00    -0.269 OA
ATOM      6  C   UNL A   1      39.091  23.133  26.159  1.00  0.00     0.251 C 
ATOM      7  H   UNL A   1      39.719  21.500  25.188  1.00  0.00     0.163 HD
BRANCH   6   8
ATOM      8  C   UNL A   1      39.490  24.357  26.884  1.00  0.00     0.039 A 
ATOM      9  C   UNL A   1      39.170  24.532  28.234  1.00  0.00     0.014 A 
ATOM     10  C   UNL A   1      40.225  25.333  26.205  1.00  0.00     0.014 A 
ATOM     11  C   UNL A   1      39.478  25.731  28.870  1.00  0.00     0.010 A 
ATOM     12  C   UNL A   1      40.596  26.503  26.865  1.00  0.00     0.010 A 
ATOM     13  C   UNL A   1      40.204  26.724  28.196  1.00  0.00    -0.014 A 
BRANCH  13  14
ATOM     14  C   UNL A   1      40.597  27.974  28.892  1.00  0.00     0.031 A 
ATOM     15  C   UNL A   1      41.961  28.112  29.503  1.00  0.00     0.074 A 
ATOM     16  C   UNL A   1      39.699  28.968  29.015  1.00  0.00     0.049 A 
ATOM     17  N   UNL A   1      42.443  29.078  30.243  1.00  0.00    -0.248 NA
ATOM     18  C   UNL A   1      42.906  27.012  29.259  1.00  0.00     0.031 C 
ATOM     19  C   UNL A   1      38.343  28.950  28.464  1.00  0.00     0.029 A 
ATOM     20  N   UNL A   1      39.782  30.176  29.660  1.00  0.00    -0.354 N 
ATOM     21  C   UNL A   1      43.735  28.694  30.574  1.00  0.00     0.074 A 
ATOM     22  C   UNL A   1      43.954  27.394  29.976  1.00  0.00     0.031 C 
ATOM     23  C   UNL A   1      37.721  30.091  28.794  1.00  0.00     0.029 A 
ATOM     24  C   UNL A   1      38.609  30.890  29.632  1.00  0.00     0.049 A 
ATOM     25  H   UNL A   1      40.602  30.498  30.099  1.00  0.00     0.167 HD
ATOM     26  C   UNL A   1      44.655  29.367  31.309  1.00  0.00     0.037 A 
ATOM     27  C   UNL A   1      38.270  32.040  30.243  1.00  0.00     0.037 A 
ATOM     28  C   UNL A   1      44.423  30.659  31.904  1.00  0.00     0.049 A 
ATOM     29  C   UNL A   1      39.283  32.744  31.097  1.00  0.00     0.074 A 
ATOM     30  C   UNL A   1      45.299  31.442  32.635  1.00  0.00     0.029 A 
ATOM     31  N   UNL A   1      43.220  31.351  31.853  1.00  0.00    -0.354 N 
ATOM     32  N   UNL A   1      40.515  32.392  31.373  1.00  0.00    -0.248 NA
ATOM     33  C   UNL A   1      38.863  34.005  31.724  1.00  0.00     0.031 C 
ATOM     34  C   UNL A   1      44.609  32.575  33.079  1.00  0.00     0.029 A 
ATOM     35  C   UNL A   1      43.323  32.535  32.565  1.00  0.00     0.049 A 
ATOM     36  H   UNL A   1      42.413  31.045  31.379  1.00  0.00     0.167 HD
ATOM     37  C   UNL A   1      41.029  33.400  32.178  1.00  0.00     0.074 A 
ATOM     38  C   UNL A   1      39.973  34.378  32.346  1.00  0.00     0.031 C 
ATOM     39  C   UNL A   1      42.269  33.507  32.716  1.00  0.00     0.037 A 
BRANCH  26  40
ATOM     40  C   UNL A   1      45.978  28.694  31.546  1.00  0.00     0.057 A 
ATOM     41  C   UNL A   1      46.222  27.903  32.677  1.00  0.00     0.134 A 
ATOM     42  C   UNL A   1      47.022  28.833  30.622  1.00  0.00     0.134 A 
ATOM     43  F   UNL A   1      45.271  27.731  33.607  1.00  0.00    -0.206 F 
ATOM     44  C   UNL A   1      47.468  27.313  32.902  1.00  0.00     0.040 A 
ATOM     45  C   UNL A   1      48.261  28.222  30.820  1.00  0.00     0.040 A 
ATOM     46  F   UNL A   1      46.856  29.564  29.510  1.00  0.00    -0.206 F 
ATOM     47  C   UNL A   1      48.492  27.469  31.969  1.00  0.00     0.006 A 
ENDBRANCH  26  40
BRANCH  27  48
ATOM     48  C   UNL A   1      36.898  32.573  30.068  1.00  0.00     0.057 A 
ATOM     49  C   UNL A   1      35.862  32.208  30.934  1.00  0.00     0.134 A 
ATOM     50  C   UNL A   1      36.602  33.503  29.061  1.00  0.00     0.134 A 
ATOM     51  F   UNL A   1      36.081  31.313  31.908  1.00  0.00    -0.206 F 
ATOM     52  C   UNL A   1      34.580  32.747  30.806  1.00  0.00     0.040 A 
ATOM     53  C   UNL A   1      35.333  34.068  28.938  1.00  0.00     0.040 A 
ATOM     54  F   UNL A   1      37.555  33.901  28.207  1.00  0.00    -0.206 F 
ATOM     55  C   UNL A   1      34.316  33.687  29.812  1.00  0.00     0.006 A 
ENDBRANCH  27  48
BRANCH  39  56
ATOM     56  C   UNL A   1      42.583  34.750  33.497  1.00  0.00     0.057 A 
ATOM     57  C   UNL A   1      43.106  35.899  32.893  1.00  0.00     0.134 A 
ATOM     58  C   UNL A   1      42.281  34.818  34.864  1.00  0.00     0.134 A 
ATOM     59  F   UNL A   1      43.431  35.897  31.592  1.00  0.00    -0.206 F 
ATOM     60  C   UNL A   1      43.323  37.070  33.623  1.00  0.00     0.040 A 
ATOM     61  C   UNL A   1      42.468  35.990  35.597  1.00  0.00     0.040 A 
ATOM     62  F   UNL A   1      41.772  33.753  35.502  1.00  0.00    -0.206 F 
ATOM     63  C   UNL A   1      42.992  37.121  34.976  1.00  0.00     0.006 A 
ENDBRANCH  39  56
ENDBRANCH  13  14
ENDBRANCH   6   8
ENDBRANCH   3   4
ENDBRANCH   2   3
ENDBRANCH   1   2
BRANCH   1  64
ATOM     64  C   UNL A   1      42.630  18.969  27.622  1.00  0.00     0.002 C 
BRANCH  64  65
ATOM     65  C   UNL A   1      43.055  18.056  26.464  1.00  0.00     0.021 C 
BRANCH  65  66
ATOM     66  C   UNL A   1      43.538  18.784  25.209  1.00  0.00     0.116 C 
BRANCH  66  67
ATOM     67  N   UNL A   1      44.993  18.793  25.109  1.00  0.00    -0.352 N 
ATOM     68  C   UNL A   1      45.848  19.860  24.997  1.00  0.00     0.251 C 
ATOM     69  H   UNL A   1      45.422  17.907  25.124  1.00  0.00     0.163 HD
ATOM     70  O   UNL A   1      47.039  19.696  24.750  1.00  0.00    -0.269 OA
BRANCH  68  71
ATOM     71  C   UNL A   1      45.315  21.220  25.161  1.00  0.00     0.040 A 
ATOM     72  C   UNL A   1      44.912  21.950  24.045  1.00  0.00     0.014 A 
ATOM     73  C   UNL A   1      45.249  21.774  26.438  1.00  0.00     0.030 A 
ATOM     74  C   UNL A   1      44.582  23.294  24.196  1.00  0.00     0.011 A 
ATOM     75  C   UNL A   1      44.926  23.127  26.583  1.00  0.00     0.027 A 
ATOM     76  C   UNL A   1      44.685  23.928  25.450  1.00  0.00     0.020 A 
ATOM     77  Br  UNL A   1      44.872  23.798  28.359  1.00  0.00    -0.050 Br
BRANCH  76  78
ATOM     78  C   UNL A   1      44.623  25.441  25.485  1.00  0.00     0.300 C 
BRANCH  78  79
ATOM     79  N   UNL A   1      45.859  26.147  25.867  1.00  0.00    -0.322 N 
ATOM     80  C   UNL A   1      46.745  26.536  24.763  1.00  0.00     0.324 C 
ATOM     81  C   UNL A   1      45.727  27.224  26.857  1.00  0.00     0.324 C 
ATOM     82  H   UNL A   1      46.333  25.389  26.358  1.00  0.00     0.348 HD
ATOM     83  C   UNL A   1      46.517  27.956  24.199  1.00  0.00     0.322 C 
ATOM     84  C   UNL A   1      45.593  28.665  26.300  1.00  0.00     0.322 C 
ATOM     85  N   UNL A   1      46.552  29.002  25.237  1.00  0.00    -0.337 N 
ATOM     86  H   UNL A   1      46.302  29.901  24.824  1.00  0.00     0.346 HD
ATOM     87  H   UNL A   1      47.492  29.062  25.629  1.00  0.00     0.346 HD
ENDBRANCH  78  79
ENDBRANCH  76  78
ENDBRANCH  68  71
ENDBRANCH  66  67
ENDBRANCH  65  66
ENDBRANCH  64  65
ENDBRANCH   1  64
TORSDOF 15
ENDMDL
MODEL 3
REMARK VINA RESULT:     -11.2      5.102     10.193
REMARK SMILES O=C(NCCCCCCNC(=O)c1ccc(C[NH+]2CC[NH2+]CC2)c(Br)c1)c1ccc(-c2c3nc(c(-c4c(F)cccc4F)c4ccc([nH]4)c(-c4c(F)cccc4F)c4nc(c(-c5c(F)cccc5F)c5ccc2[nH]5)C=C4)C=C3)cc1
REMARK SMILES IDX 6 1 5 2 4 3 3 4 1 5 2 6 27 8 28 9 80 10 29 11 79 12 30 13
REMARK SMILES IDX 31 14 32 15 73 16 33 17 78 18 72 19 74 20 34 21 77 22 71 23
REMARK SMILES IDX 70 24 35 26 61 27 44 28 60 29 45 30 48 31 59 32 75 33 46 34
REMARK SMILES IDX 47 35 58 37 76 38 49 39 36 40 37 41 42 42 38 43 39 44 41 45
REMARK SMILES IDX 43 46 40 47 62 48 63 49 68 50 64 51 65 52 67 53 69 54 66 55
REMARK SMILES IDX 50 56 51 57 56 58 52 59 53 60 55 61 57 62 54 63 7 64 8 65
REMARK SMILES IDX 9 66 10 67 11 68 12 70 13 71 14 72 26 73 15 74 24 75 16 76
REMARK SMILES IDX 25 77 17 78 18 79 19 80 23 81 20 83 22 84 21 85
REMARK H PARENT 3 7 74 25 48 36 10 69 18 82 21 86 21 87
REMARK Flexibility Score: inf
ROOT
ATOM      1  C   UNL A   1      31.396  30.708  25.932  1.00  0.00     0.002 C 
ENDROOT
BRANCH   1   2
ATOM      2  C   UNL A   1      31.297  32.090  26.580  1.00  0.00     0.021 C 
BRANCH   2   3
ATOM      3  C   UNL A   1      32.628  32.689  27.025  1.00  0.00     0.116 C 
BRANCH   3   4
ATOM      4  N   UNL A   1      32.473  34.017  27.597  1.00  0.00    -0.352 N 
ATOM      5  O   UNL A   1      32.755  35.674  29.101  1.00  0.00    -0.269 OA
ATOM      6  C   UNL A   1      33.147  34.607  28.637  1.00  0.00     0.251 C 
ATOM      7  H   UNL A   1      31.782  34.577  27.175  1.00  0.00     0.163 HD
BRANCH   6   8
ATOM      8  C   UNL A   1      34.337  33.950  29.217  1.00  0.00     0.039 A 
ATOM      9  C   UNL A   1      34.206  32.921  30.156  1.00  0.00     0.014 A 
ATOM     10  C   UNL A   1      35.604  34.352  28.789  1.00  0.00     0.014 A 
ATOM     11  C   UNL A   1      35.340  32.379  30.754  1.00  0.00     0.010 A 
ATOM     12  C   UNL A   1      36.740  33.756  29.337  1.00  0.00     0.010 A 
ATOM     13  C   UNL A   1      36.619  32.783  30.342  1.00  0.00    -0.014 A 
BRANCH  13  14
ATOM     14  C   UNL A   1      37.831  32.157  30.925  1.00  0.00     0.031 A 
ATOM     15  C   UNL A   1      38.556  31.067  30.191  1.00  0.00     0.074 A 
ATOM     16  C   UNL A   1      38.247  32.541  32.145  1.00  0.00     0.049 A 
ATOM     17  N   UNL A   1      39.561  30.328  30.589  1.00  0.00    -0.248 NA
ATOM     18  C   UNL A   1      38.082  30.759  28.834  1.00  0.00     0.031 C 
ATOM     19  C   UNL A   1      37.624  33.590  32.955  1.00  0.00     0.029 A 
ATOM     20  N   UNL A   1      39.277  32.083  32.926  1.00  0.00    -0.354 N 
ATOM     21  C   UNL A   1      39.824  29.452  29.544  1.00  0.00     0.074 A 
ATOM     22  C   UNL A   1      38.856  29.734  28.505  1.00  0.00     0.031 C 
ATOM     23  C   UNL A   1      38.283  33.694  34.118  1.00  0.00     0.029 A 
ATOM     24  C   UNL A   1      39.331  32.680  34.162  1.00  0.00     0.049 A 
ATOM     25  H   UNL A   1      39.914  31.394  32.630  1.00  0.00     0.167 HD
ATOM     26  C   UNL A   1      40.787  28.500  29.461  1.00  0.00     0.037 A 
ATOM     27  C   UNL A   1      40.108  32.416  35.228  1.00  0.00     0.037 A 
ATOM     28  C   UNL A   1      41.742  28.226  30.505  1.00  0.00     0.049 A 
ATOM     29  C   UNL A   1      41.132  31.323  35.137  1.00  0.00     0.074 A 
ATOM     30  C   UNL A   1      42.779  27.311  30.506  1.00  0.00     0.029 A 
ATOM     31  N   UNL A   1      41.763  28.854  31.744  1.00  0.00    -0.354 N 
ATOM     32  N   UNL A   1      41.399  30.525  34.132  1.00  0.00    -0.248 NA
ATOM     33  C   UNL A   1      41.966  31.092  36.325  1.00  0.00     0.031 C 
ATOM     34  C   UNL A   1      43.387  27.339  31.766  1.00  0.00     0.029 A 
ATOM     35  C   UNL A   1      42.776  28.323  32.526  1.00  0.00     0.049 A 
ATOM     36  H   UNL A   1      41.149  29.571  32.024  1.00  0.00     0.167 HD
ATOM     37  C   UNL A   1      42.450  29.720  34.552  1.00  0.00     0.074 A 
ATOM     38  C   UNL A   1      42.771  30.126  35.905  1.00  0.00     0.031 C 
ATOM     39  C   UNL A   1      43.095  28.742  33.869  1.00  0.00     0.037 A 
BRANCH  26  40
ATOM     40  C   UNL A   1      40.822  27.659  28.216  1.00  0.00     0.057 A 
ATOM     41  C   UNL A   1      40.122  26.450  28.111  1.00  0.00     0.134 A 
ATOM     42  C   UNL A   1      41.563  28.071  27.100  1.00  0.00     0.134 A 
ATOM     43  F   UNL A   1      39.398  25.990  29.142  1.00  0.00    -0.206 F 
ATOM     44  C   UNL A   1      40.194  25.661  26.960  1.00  0.00     0.040 A 
ATOM     45  C   UNL A   1      41.616  27.308  25.933  1.00  0.00     0.040 A 
ATOM     46  F   UNL A   1      42.247  29.225  27.124  1.00  0.00    -0.206 F 
ATOM     47  C   UNL A   1      40.940  26.091  25.865  1.00  0.00     0.006 A 
ENDBRANCH  26  40
BRANCH  27  48
ATOM     48  C   UNL A   1      39.921  33.203  36.471  1.00  0.00     0.057 A 
ATOM     49  C   UNL A   1      40.639  34.382  36.695  1.00  0.00     0.134 A 
ATOM     50  C   UNL A   1      38.981  32.824  37.438  1.00  0.00     0.134 A 
ATOM     51  F   UNL A   1      41.561  34.790  35.813  1.00  0.00    -0.206 F 
ATOM     52  C   UNL A   1      40.431  35.156  37.839  1.00  0.00     0.040 A 
ATOM     53  C   UNL A   1      38.744  33.600  38.572  1.00  0.00     0.040 A 
ATOM     54  F   UNL A   1      38.253  31.710  37.274  1.00  0.00    -0.206 F 
ATOM     55  C   UNL A   1      39.474  34.770  38.776  1.00  0.00     0.006 A 
ENDBRANCH  27  48
BRANCH  39  56
ATOM     56  C   UNL A   1      44.255  28.071  34.545  1.00  0.00     0.057 A 
ATOM     57  C   UNL A   1      45.553  28.593  34.494  1.00  0.00     0.134 A 
ATOM     58  C   UNL A   1      44.049  26.925  35.324  1.00  0.00     0.134 A 
ATOM     59  F   UNL A   1      45.821  29.679  33.755  1.00  0.00    -0.206 F 
ATOM     60  C   UNL A   1      46.605  27.994  35.190  1.00  0.00     0.040 A 
ATOM     61  C   UNL A   1      45.086  26.334  36.046  1.00  0.00     0.040 A 
ATOM     62  F   UNL A   1      42.827  26.377  35.420  1.00  0.00    -0.206 F 
ATOM     63  C   UNL A   1      46.370  26.868  35.978  1.00  0.00     0.006 A 
ENDBRANCH  39  56
ENDBRANCH  13  14
ENDBRANCH   6   8
ENDBRANCH   3   4
ENDBRANCH   2   3
ENDBRANCH   1   2
BRANCH   1  64
ATOM     64  C   UNL A   1      32.794  30.081  25.941  1.00  0.00     0.002 C 
BRANCH  64  65
ATOM     65  C   UNL A   1      32.951  28.808  25.100  1.00  0.00     0.021 C 
BRANCH  65  66
ATOM     66  C   UNL A   1      33.108  29.040  23.596  1.00  0.00     0.116 C 
BRANCH  66  67
ATOM     67  N   UNL A   1      31.827  29.288  22.946  1.00  0.00    -0.352 N 
ATOM     68  C   UNL A   1      30.854  28.394  22.575  1.00  0.00     0.251 C 
ATOM     69  H   UNL A   1      31.631  30.232  22.745  1.00  0.00     0.163 HD
ATOM     70  O   UNL A   1      29.903  28.741  21.881  1.00  0.00    -0.269 OA
BRANCH  68  71
ATOM     71  C   UNL A   1      30.971  26.994  23.009  1.00  0.00     0.040 A 
ATOM     72  C   UNL A   1      30.311  26.564  24.158  1.00  0.00     0.014 A 
ATOM     73  C   UNL A   1      31.769  26.119  22.275  1.00  0.00     0.030 A 
ATOM     74  C   UNL A   1      30.573  25.290  24.656  1.00  0.00     0.011 A 
ATOM     75  C   UNL A   1      32.036  24.844  22.784  1.00  0.00     0.027 A 
ATOM     76  C   UNL A   1      31.518  24.452  24.033  1.00  0.00     0.020 A 
ATOM     77  Br  UNL A   1      33.144  23.726  21.721  1.00  0.00    -0.050 Br
BRANCH  76  78
ATOM     78  C   UNL A   1      31.988  23.227  24.793  1.00  0.00     0.300 C 
BRANCH  78  79
ATOM     79  N   UNL A   1      33.283  23.333  25.487  1.00  0.00    -0.322 N 
ATOM     80  C   UNL A   1      33.221  23.493  26.945  1.00  0.00     0.324 C 
ATOM     81  C   UNL A   1      34.324  22.375  25.094  1.00  0.00     0.324 C 
ATOM     82  H   UNL A   1      33.593  24.231  25.116  1.00  0.00     0.348 HD
ATOM     83  C   UNL A   1      33.282  22.180  27.759  1.00  0.00     0.322 C 
ATOM     84  C   UNL A   1      34.456  21.098  25.964  1.00  0.00     0.322 C 
ATOM     85  N   UNL A   1      34.444  21.342  27.415  1.00  0.00    -0.337 N 
ATOM     86  H   UNL A   1      34.381  20.451  27.910  1.00  0.00     0.346 HD
ATOM     87  H   UNL A   1      35.303  21.819  27.689  1.00  0.00     0.346 HD
ENDBRANCH  78  79
ENDBRANCH  76  78
ENDBRANCH  68  71
ENDBRANCH  66  67
ENDBRANCH  65  66
ENDBRANCH  64  65
ENDBRANCH   1  64
TORSDOF 15
ENDMDL
