MODEL 1
REMARK VINA RESULT:     -11.8      0.000      0.000
REMARK SMILES O=C(NCCCCCCNC(=O)c1ccc(-c2c3nc(c(-c4c(F)cccc4F)c4ccc([nH]4)c(-c4c(F)cccc4F)c4nc(c(-c5c(F)cccc5F)c5ccc2[nH]5)C=C4)C=C3)cc1)C1=Cc2cc(OC(F)(F)F)ccc2O[C@@H]1C(F)(F)F
REMARK SMILES IDX 6 1 5 2 4 3 3 4 1 5 2 6 67 8 68 9 81 10 69 11 80 12 70 13
REMARK SMILES IDX 79 14 71 15 78 16 77 17 82 18 83 19 84 20 85 21 72 22 73 23
REMARK SMILES IDX 74 24 75 25 76 26 7 27 8 28 9 29 10 30 11 31 12 33 13 34
REMARK SMILES IDX 14 35 66 36 15 37 65 38 16 39 17 40 18 41 59 42 19 43 64 44
REMARK SMILES IDX 58 45 60 46 20 47 63 48 57 49 56 50 21 52 47 53 30 54 46 55
REMARK SMILES IDX 31 56 34 57 45 58 61 59 32 60 33 61 44 63 62 64 35 65 22 66
REMARK SMILES IDX 23 67 28 68 24 69 25 70 27 71 29 72 26 73 48 74 49 75 54 76
REMARK SMILES IDX 50 77 51 78 53 79 55 80 52 81 36 82 37 83 42 84 38 85 39 86
REMARK SMILES IDX 41 87 43 88 40 89
REMARK H PARENT 3 7 10 32 60 51 34 62
REMARK Flexibility Score: inf
ROOT
ATOM      1  C   UNL A   1      31.442  28.337  25.497  1.00  0.00     0.002 C 
ENDROOT
BRANCH   1   2
ATOM      2  C   UNL A   1      31.006  26.885  25.319  1.00  0.00     0.021 C 
BRANCH   2   3
ATOM      3  C   UNL A   1      31.249  25.955  26.502  1.00  0.00     0.116 C 
BRANCH   3   4
ATOM      4  N   UNL A   1      30.511  24.707  26.478  1.00  0.00    -0.352 N 
ATOM      5  O   UNL A   1      30.177  22.496  26.284  1.00  0.00    -0.270 OA
ATOM      6  C   UNL A   1      30.916  23.460  26.087  1.00  0.00     0.251 C 
ATOM      7  H   UNL A   1      29.578  24.765  26.787  1.00  0.00     0.163 HD
BRANCH   6   8
ATOM      8  C   UNL A   1      32.270  23.198  25.512  1.00  0.00     0.067 C 
ATOM      9  C   UNL A   1      33.022  22.143  25.878  1.00  0.00     0.025 C 
ATOM     10  C   UNL A   1      32.408  23.730  24.102  1.00  0.00     0.314 C 
ATOM     11  C   UNL A   1      33.049  21.110  24.807  1.00  0.00     0.021 A 
ATOM     12  O   UNL A   1      32.210  22.671  23.124  1.00  0.00    -0.475 OA
ATOM     13  C   UNL A   1      33.326  19.784  25.161  1.00  0.00     0.058 A 
ATOM     14  C   UNL A   1      32.527  21.400  23.539  1.00  0.00     0.128 A 
ATOM     15  C   UNL A   1      32.965  18.734  24.310  1.00  0.00     0.130 A 
ATOM     16  C   UNL A   1      32.185  20.359  22.682  1.00  0.00     0.051 A 
ATOM     17  C   UNL A   1      32.371  19.028  23.081  1.00  0.00     0.050 A 
BRANCH  10  18
ATOM     18  C   UNL A   1      33.736  24.474  23.881  1.00  0.00     0.429 C 
ATOM     19  F   UNL A   1      33.618  25.417  22.917  1.00  0.00    -0.167 F 
ATOM     20  F   UNL A   1      34.145  25.110  25.005  1.00  0.00    -0.167 F 
ATOM     21  F   UNL A   1      34.740  23.644  23.509  1.00  0.00    -0.167 F 
ENDBRANCH  10  18
BRANCH  15  22
ATOM     22  O   UNL A   1      33.238  17.493  24.808  1.00  0.00    -0.406 OA
BRANCH  22  23
ATOM     23  C   UNL A   1      34.396  16.820  24.342  1.00  0.00     0.573 C 
ATOM     24  F   UNL A   1      35.411  17.694  24.170  1.00  0.00    -0.132 F 
ATOM     25  F   UNL A   1      34.781  15.841  25.184  1.00  0.00    -0.132 F 
ATOM     26  F   UNL A   1      34.119  16.264  23.144  1.00  0.00    -0.132 F 
ENDBRANCH  22  23
ENDBRANCH  15  22
ENDBRANCH   6   8
ENDBRANCH   3   4
ENDBRANCH   2   3
ENDBRANCH   1   2
BRANCH   1  27
ATOM     27  C   UNL A   1      32.768  28.745  24.844  1.00  0.00     0.002 C 
BRANCH  27  28
ATOM     28  C   UNL A   1      34.037  28.562  25.681  1.00  0.00     0.021 C 
BRANCH  28  29
ATOM     29  C   UNL A   1      33.862  28.598  27.196  1.00  0.00     0.116 C 
BRANCH  29  30
ATOM     30  N   UNL A   1      33.776  29.942  27.736  1.00  0.00    -0.352 N 
ATOM     31  C   UNL A   1      34.713  30.683  28.417  1.00  0.00     0.251 C 
ATOM     32  H   UNL A   1      32.912  30.394  27.593  1.00  0.00     0.163 HD
ATOM     33  O   UNL A   1      34.396  31.763  28.901  1.00  0.00    -0.269 OA
BRANCH  31  34
ATOM     34  C   UNL A   1      36.096  30.178  28.599  1.00  0.00     0.039 A 
ATOM     35  C   UNL A   1      36.975  30.240  27.513  1.00  0.00     0.014 A 
ATOM     36  C   UNL A   1      36.527  29.617  29.804  1.00  0.00     0.014 A 
ATOM     37  C   UNL A   1      38.292  29.792  27.651  1.00  0.00     0.010 A 
ATOM     38  C   UNL A   1      37.861  29.242  29.965  1.00  0.00     0.010 A 
ATOM     39  C   UNL A   1      38.758  29.317  28.888  1.00  0.00    -0.014 A 
BRANCH  39  40
ATOM     40  C   UNL A   1      40.173  28.888  29.060  1.00  0.00     0.031 A 
ATOM     41  C   UNL A   1      41.189  29.826  29.655  1.00  0.00     0.074 A 
ATOM     42  C   UNL A   1      40.557  27.663  28.644  1.00  0.00     0.049 A 
ATOM     43  N   UNL A   1      42.470  29.641  29.854  1.00  0.00    -0.248 NA
ATOM     44  C   UNL A   1      40.707  31.156  30.061  1.00  0.00     0.031 C 
ATOM     45  C   UNL A   1      39.683  26.670  28.017  1.00  0.00     0.029 A 
ATOM     46  N   UNL A   1      41.783  27.047  28.683  1.00  0.00    -0.354 N 
ATOM     47  C   UNL A   1      42.946  30.832  30.391  1.00  0.00     0.074 A 
ATOM     48  C   UNL A   1      41.830  31.749  30.440  1.00  0.00     0.031 C 
ATOM     49  C   UNL A   1      40.393  25.560  27.759  1.00  0.00     0.029 A 
ATOM     50  C   UNL A   1      41.780  25.775  28.161  1.00  0.00     0.049 A 
ATOM     51  H   UNL A   1      42.590  27.476  29.050  1.00  0.00     0.167 HD
ATOM     52  C   UNL A   1      44.196  31.128  30.822  1.00  0.00     0.037 A 
ATOM     53  C   UNL A   1      42.780  24.885  28.017  1.00  0.00     0.037 A 
ATOM     54  C   UNL A   1      45.303  30.206  30.797  1.00  0.00     0.049 A 
ATOM     55  C   UNL A   1      44.162  25.248  28.488  1.00  0.00     0.074 A 
ATOM     56  C   UNL A   1      46.588  30.392  31.277  1.00  0.00     0.029 A 
ATOM     57  N   UNL A   1      45.258  28.930  30.259  1.00  0.00    -0.354 N 
ATOM     58  N   UNL A   1      44.579  26.349  29.065  1.00  0.00    -0.248 NA
ATOM     59  C   UNL A   1      45.215  24.240  28.289  1.00  0.00     0.031 C 
ATOM     60  C   UNL A   1      47.337  29.249  30.976  1.00  0.00     0.029 A 
ATOM     61  C   UNL A   1      46.502  28.329  30.365  1.00  0.00     0.049 A 
ATOM     62  H   UNL A   1      44.461  28.512  29.860  1.00  0.00     0.167 HD
ATOM     63  C   UNL A   1      45.929  26.153  29.329  1.00  0.00     0.074 A 
ATOM     64  C   UNL A   1      46.259  24.823  28.862  1.00  0.00     0.031 C 
ATOM     65  C   UNL A   1      46.816  26.999  29.908  1.00  0.00     0.037 A 
BRANCH  52  66
ATOM     66  C   UNL A   1      44.441  32.510  31.356  1.00  0.00     0.057 A 
ATOM     67  C   UNL A   1      44.272  32.824  32.712  1.00  0.00     0.134 A 
ATOM     68  C   UNL A   1      44.902  33.530  30.513  1.00  0.00     0.134 A 
ATOM     69  F   UNL A   1      43.825  31.897  33.573  1.00  0.00    -0.206 F 
ATOM     70  C   UNL A   1      44.525  34.105  33.203  1.00  0.00     0.040 A 
ATOM     71  C   UNL A   1      45.187  34.808  30.998  1.00  0.00     0.040 A 
ATOM     72  F   UNL A   1      45.095  33.298  29.206  1.00  0.00    -0.206 F 
ATOM     73  C   UNL A   1      44.992  35.100  32.346  1.00  0.00     0.006 A 
ENDBRANCH  52  66
BRANCH  53  74
ATOM     74  C   UNL A   1      42.517  23.551  27.418  1.00  0.00     0.057 A 
ATOM     75  C   UNL A   1      42.190  22.450  28.219  1.00  0.00     0.134 A 
ATOM     76  C   UNL A   1      42.614  23.336  26.038  1.00  0.00     0.134 A 
ATOM     77  F   UNL A   1      42.102  22.587  29.549  1.00  0.00    -0.206 F 
ATOM     78  C   UNL A   1      41.997  21.180  27.674  1.00  0.00     0.040 A 
ATOM     79  C   UNL A   1      42.395  22.077  25.476  1.00  0.00     0.040 A 
ATOM     80  F   UNL A   1      42.917  24.350  25.214  1.00  0.00    -0.206 F 
ATOM     81  C   UNL A   1      42.096  20.991  26.297  1.00  0.00     0.006 A 
ENDBRANCH  53  74
BRANCH  65  82
ATOM     82  C   UNL A   1      48.217  26.498  30.111  1.00  0.00     0.057 A 
ATOM     83  C   UNL A   1      49.224  26.695  29.157  1.00  0.00     0.134 A 
ATOM     84  C   UNL A   1      48.573  25.842  31.297  1.00  0.00     0.134 A 
ATOM     85  F   UNL A   1      48.948  27.305  27.993  1.00  0.00    -0.206 F 
ATOM     86  C   UNL A   1      50.526  26.236  29.364  1.00  0.00     0.040 A 
ATOM     87  C   UNL A   1      49.878  25.406  31.529  1.00  0.00     0.040 A 
ATOM     88  F   UNL A   1      47.661  25.629  32.258  1.00  0.00    -0.206 F 
ATOM     89  C   UNL A   1      50.858  25.595  30.556  1.00  0.00     0.006 A 
ENDBRANCH  65  82
ENDBRANCH  39  40
ENDBRANCH  31  34
ENDBRANCH  29  30
ENDBRANCH  28  29
ENDBRANCH  27  28
ENDBRANCH   1  27
TORSDOF 16
ENDMDL
MODEL 2
REMARK VINA RESULT:     -11.7      3.416      4.655
REMARK SMILES O=C(NCCCCCCNC(=O)c1ccc(-c2c3nc(c(-c4c(F)cccc4F)c4ccc([nH]4)c(-c4c(F)cccc4F)c4nc(c(-c5c(F)cccc5F)c5ccc2[nH]5)C=C4)C=C3)cc1)C1=Cc2cc(OC(F)(F)F)ccc2O[C@@H]1C(F)(F)F
REMARK SMILES IDX 6 1 5 2 4 3 3 4 1 5 2 6 67 8 68 9 81 10 69 11 80 12 70 13
REMARK SMILES IDX 79 14 71 15 78 16 77 17 82 18 83 19 84 20 85 21 72 22 73 23
REMARK SMILES IDX 74 24 75 25 76 26 7 27 8 28 9 29 10 30 11 31 12 33 13 34
REMARK SMILES IDX 14 35 66 36 15 37 65 38 16 39 17 40 18 41 59 42 19 43 64 44
REMARK SMILES IDX 58 45 60 46 20 47 63 48 57 49 56 50 21 52 47 53 30 54 46 55
REMARK SMILES IDX 31 56 34 57 45 58 61 59 32 60 33 61 44 63 62 64 35 65 22 66
REMARK SMILES IDX 23 67 28 68 24 69 25 70 27 71 29 72 26 73 48 74 49 75 54 76
REMARK SMILES IDX 50 77 51 78 53 79 55 80 52 81 36 82 37 83 42 84 38 85 39 86
REMARK SMILES IDX 41 87 43 88 40 89
REMARK H PARENT 3 7 10 32 60 51 34 62
REMARK Flexibility Score: inf
ROOT
ATOM      1  C   UNL A   1      32.243  29.492  26.866  1.00  0.00     0.002 C 
ENDROOT
BRANCH   1   2
ATOM      2  C   UNL A   1      31.592  28.187  27.320  1.00  0.00     0.021 C 
BRANCH   2   3
ATOM      3  C   UNL A   1      31.956  26.938  26.527  1.00  0.00     0.116 C 
BRANCH   3   4
ATOM      4  N   UNL A   1      31.191  25.749  26.848  1.00  0.00    -0.352 N 
ATOM      5  O   UNL A   1      30.792  23.566  27.189  1.00  0.00    -0.270 OA
ATOM      6  C   UNL A   1      31.531  24.430  26.718  1.00  0.00     0.251 C 
ATOM      7  H   UNL A   1      30.291  25.915  27.212  1.00  0.00     0.163 HD
BRANCH   6   8
ATOM      8  C   UNL A   1      32.822  23.989  26.108  1.00  0.00     0.067 C 
ATOM      9  C   UNL A   1      33.424  22.832  26.441  1.00  0.00     0.025 C 
ATOM     10  C   UNL A   1      33.003  24.520  24.702  1.00  0.00     0.314 C 
ATOM     11  C   UNL A   1      33.281  21.824  25.356  1.00  0.00     0.021 A 
ATOM     12  O   UNL A   1      32.636  23.516  23.715  1.00  0.00    -0.475 OA
ATOM     13  C   UNL A   1      33.375  20.466  25.686  1.00  0.00     0.058 A 
ATOM     14  C   UNL A   1      32.778  22.206  24.105  1.00  0.00     0.128 A 
ATOM     15  C   UNL A   1      32.851  19.492  24.829  1.00  0.00     0.130 A 
ATOM     16  C   UNL A   1      32.274  21.239  23.243  1.00  0.00     0.051 A 
ATOM     17  C   UNL A   1      32.278  19.887  23.618  1.00  0.00     0.050 A 
BRANCH  10  18
ATOM     18  C   UNL A   1      34.418  25.072  24.460  1.00  0.00     0.429 C 
ATOM     19  F   UNL A   1      35.113  24.288  23.602  1.00  0.00    -0.167 F 
ATOM     20  F   UNL A   1      34.384  26.313  23.919  1.00  0.00    -0.167 F 
ATOM     21  F   UNL A   1      35.145  25.157  25.601  1.00  0.00    -0.167 F 
ENDBRANCH  10  18
BRANCH  15  22
ATOM     22  O   UNL A   1      32.956  18.217  25.304  1.00  0.00    -0.406 OA
BRANCH  22  23
ATOM     23  C   UNL A   1      33.942  17.368  24.740  1.00  0.00     0.573 C 
ATOM     24  F   UNL A   1      34.992  18.093  24.301  1.00  0.00    -0.132 F 
ATOM     25  F   UNL A   1      34.369  16.440  25.620  1.00  0.00    -0.132 F 
ATOM     26  F   UNL A   1      33.405  16.729  23.679  1.00  0.00    -0.132 F 
ENDBRANCH  22  23
ENDBRANCH  15  22
ENDBRANCH   6   8
ENDBRANCH   3   4
ENDBRANCH   2   3
ENDBRANCH   1   2
BRANCH   1  27
ATOM     27  C   UNL A   1      31.374  30.443  26.033  1.00  0.00     0.002 C 
BRANCH  27  28
ATOM     28  C   UNL A   1      31.304  31.901  26.495  1.00  0.00     0.021 C 
BRANCH  28  29
ATOM     29  C   UNL A   1      32.619  32.537  26.937  1.00  0.00     0.116 C 
BRANCH  29  30
ATOM     30  N   UNL A   1      32.457  33.858  27.515  1.00  0.00    -0.352 N 
ATOM     31  C   UNL A   1      33.161  34.473  28.524  1.00  0.00     0.251 C 
ATOM     32  H   UNL A   1      31.730  34.397  27.126  1.00  0.00     0.163 HD
ATOM     33  O   UNL A   1      32.781  35.557  28.953  1.00  0.00    -0.269 OA
BRANCH  31  34
ATOM     34  C   UNL A   1      34.358  33.830  29.120  1.00  0.00     0.039 A 
ATOM     35  C   UNL A   1      34.167  32.860  30.110  1.00  0.00     0.014 A 
ATOM     36  C   UNL A   1      35.655  34.190  28.746  1.00  0.00     0.014 A 
ATOM     37  C   UNL A   1      35.269  32.218  30.682  1.00  0.00     0.010 A 
ATOM     38  C   UNL A   1      36.750  33.495  29.260  1.00  0.00     0.010 A 
ATOM     39  C   UNL A   1      36.571  32.506  30.241  1.00  0.00    -0.014 A 
BRANCH  39  40
ATOM     40  C   UNL A   1      37.747  31.790  30.806  1.00  0.00     0.031 A 
ATOM     41  C   UNL A   1      38.266  32.134  32.177  1.00  0.00     0.074 A 
ATOM     42  C   UNL A   1      38.377  30.852  30.069  1.00  0.00     0.049 A 
ATOM     43  N   UNL A   1      39.294  31.642  32.821  1.00  0.00    -0.248 NA
ATOM     44  C   UNL A   1      37.547  33.186  32.913  1.00  0.00     0.031 C 
ATOM     45  C   UNL A   1      38.002  30.448  28.713  1.00  0.00     0.029 A 
ATOM     46  N   UNL A   1      39.470  30.071  30.357  1.00  0.00    -0.354 N 
ATOM     47  C   UNL A   1      39.354  32.333  34.026  1.00  0.00     0.074 A 
ATOM     48  C   UNL A   1      38.290  33.312  34.003  1.00  0.00     0.031 C 
ATOM     49  C   UNL A   1      38.829  29.475  28.299  1.00  0.00     0.029 A 
ATOM     50  C   UNL A   1      39.819  29.214  29.340  1.00  0.00     0.049 A 
ATOM     51  H   UNL A   1      39.957  30.120  31.211  1.00  0.00     0.167 HD
ATOM     52  C   UNL A   1      40.204  32.154  35.065  1.00  0.00     0.037 A 
ATOM     53  C   UNL A   1      40.826  28.323  29.253  1.00  0.00     0.037 A 
ATOM     54  C   UNL A   1      41.247  31.161  35.099  1.00  0.00     0.049 A 
ATOM     55  C   UNL A   1      41.767  28.160  30.415  1.00  0.00     0.074 A 
ATOM     56  C   UNL A   1      42.113  30.858  36.136  1.00  0.00     0.029 A 
ATOM     57  N   UNL A   1      41.569  30.315  34.049  1.00  0.00    -0.354 N 
ATOM     58  N   UNL A   1      41.762  28.765  31.577  1.00  0.00    -0.248 NA
ATOM     59  C   UNL A   1      42.855  27.183  30.253  1.00  0.00     0.031 C 
ATOM     60  C   UNL A   1      42.997  29.869  35.692  1.00  0.00     0.029 A 
ATOM     61  C   UNL A   1      42.642  29.513  34.402  1.00  0.00     0.049 A 
ATOM     62  H   UNL A   1      41.104  30.289  33.182  1.00  0.00     0.167 HD
ATOM     63  C   UNL A   1      42.819  28.220  32.296  1.00  0.00     0.074 A 
ATOM     64  C   UNL A   1      43.435  27.225  31.445  1.00  0.00     0.031 C 
ATOM     65  C   UNL A   1      43.241  28.516  33.550  1.00  0.00     0.037 A 
BRANCH  52  66
ATOM     66  C   UNL A   1      40.049  33.056  36.257  1.00  0.00     0.057 A 
ATOM     67  C   UNL A   1      40.766  34.254  36.379  1.00  0.00     0.134 A 
ATOM     68  C   UNL A   1      39.133  32.747  37.271  1.00  0.00     0.134 A 
ATOM     69  F   UNL A   1      41.666  34.606  35.448  1.00  0.00    -0.206 F 
ATOM     70  C   UNL A   1      40.598  35.097  37.479  1.00  0.00     0.040 A 
ATOM     71  C   UNL A   1      38.935  33.596  38.361  1.00  0.00     0.040 A 
ATOM     72  F   UNL A   1      38.407  31.621  37.214  1.00  0.00    -0.206 F 
ATOM     73  C   UNL A   1      39.673  34.773  38.470  1.00  0.00     0.006 A 
ENDBRANCH  52  66
BRANCH  53  74
ATOM     74  C   UNL A   1      40.993  27.497  28.029  1.00  0.00     0.057 A 
ATOM     75  C   UNL A   1      41.760  27.951  26.950  1.00  0.00     0.134 A 
ATOM     76  C   UNL A   1      40.369  26.251  27.895  1.00  0.00     0.134 A 
ATOM     77  F   UNL A   1      42.367  29.145  27.009  1.00  0.00    -0.206 F 
ATOM     78  C   UNL A   1      41.879  27.211  25.773  1.00  0.00     0.040 A 
ATOM     79  C   UNL A   1      40.503  25.486  26.735  1.00  0.00     0.040 A 
ATOM     80  F   UNL A   1      39.625  25.755  28.894  1.00  0.00    -0.206 F 
ATOM     81  C   UNL A   1      41.252  25.972  25.664  1.00  0.00     0.006 A 
ENDBRANCH  53  74
BRANCH  65  82
ATOM     82  C   UNL A   1      44.395  27.726  34.096  1.00  0.00     0.057 A 
ATOM     83  C   UNL A   1      45.716  28.183  34.011  1.00  0.00     0.134 A 
ATOM     84  C   UNL A   1      44.176  26.507  34.751  1.00  0.00     0.134 A 
ATOM     85  F   UNL A   1      45.998  29.337  33.385  1.00  0.00    -0.206 F 
ATOM     86  C   UNL A   1      46.780  27.445  34.534  1.00  0.00     0.040 A 
ATOM     87  C   UNL A   1      45.226  25.774  35.305  1.00  0.00     0.040 A 
ATOM     88  F   UNL A   1      42.934  26.015  34.877  1.00  0.00    -0.206 F 
ATOM     89  C   UNL A   1      46.534  26.240  35.190  1.00  0.00     0.006 A 
ENDBRANCH  65  82
ENDBRANCH  39  40
ENDBRANCH  31  34
ENDBRANCH  29  30
ENDBRANCH  28  29
ENDBRANCH  27  28
ENDBRANCH   1  27
TORSDOF 16
ENDMDL
MODEL 3
REMARK VINA RESULT:     -11.6      2.287      2.959
REMARK SMILES O=C(NCCCCCCNC(=O)c1ccc(-c2c3nc(c(-c4c(F)cccc4F)c4ccc([nH]4)c(-c4c(F)cccc4F)c4nc(c(-c5c(F)cccc5F)c5ccc2[nH]5)C=C4)C=C3)cc1)C1=Cc2cc(OC(F)(F)F)ccc2O[C@@H]1C(F)(F)F
REMARK SMILES IDX 6 1 5 2 4 3 3 4 1 5 2 6 67 8 68 9 81 10 69 11 80 12 70 13
REMARK SMILES IDX 79 14 71 15 78 16 77 17 82 18 83 19 84 20 85 21 72 22 73 23
REMARK SMILES IDX 74 24 75 25 76 26 7 27 8 28 9 29 10 30 11 31 12 33 13 34
REMARK SMILES IDX 14 35 66 36 15 37 65 38 16 39 17 40 18 41 59 42 19 43 64 44
REMARK SMILES IDX 58 45 60 46 20 47 63 48 57 49 56 50 21 52 47 53 30 54 46 55
REMARK SMILES IDX 31 56 34 57 45 58 61 59 32 60 33 61 44 63 62 64 35 65 22 66
REMARK SMILES IDX 23 67 28 68 24 69 25 70 27 71 29 72 26 73 48 74 49 75 54 76
REMARK SMILES IDX 50 77 51 78 53 79 55 80 52 81 36 82 37 83 42 84 38 85 39 86
REMARK SMILES IDX 41 87 43 88 40 89
REMARK H PARENT 3 7 10 32 60 51 34 62
REMARK Flexibility Score: inf
ROOT
ATOM      1  C   UNL A   1      33.241  27.679  22.407  1.00  0.00     0.002 C 
ENDROOT
BRANCH   1   2
ATOM      2  C   UNL A   1      31.734  27.434  22.464  1.00  0.00     0.021 C 
BRANCH   2   3
ATOM      3  C   UNL A   1      31.256  26.057  22.019  1.00  0.00     0.116 C 
BRANCH   3   4
ATOM      4  N   UNL A   1      32.290  25.163  21.533  1.00  0.00    -0.352 N 
ATOM      5  O   UNL A   1      33.657  23.383  21.521  1.00  0.00    -0.270 OA
ATOM      6  C   UNL A   1      32.904  24.115  22.163  1.00  0.00     0.251 C 
ATOM      7  H   UNL A   1      32.596  25.336  20.614  1.00  0.00     0.163 HD
BRANCH   6   8
ATOM      8  C   UNL A   1      32.626  23.757  23.587  1.00  0.00     0.067 C 
ATOM      9  C   UNL A   1      32.003  22.617  23.940  1.00  0.00     0.025 C 
ATOM     10  C   UNL A   1      33.644  24.349  24.537  1.00  0.00     0.314 C 
ATOM     11  C   UNL A   1      32.963  21.646  24.532  1.00  0.00     0.021 A 
ATOM     12  O   UNL A   1      34.659  23.368  24.890  1.00  0.00    -0.475 OA
ATOM     13  C   UNL A   1      32.646  20.283  24.492  1.00  0.00     0.058 A 
ATOM     14  C   UNL A   1      34.265  22.052  24.850  1.00  0.00     0.128 A 
ATOM     15  C   UNL A   1      33.650  19.319  24.639  1.00  0.00     0.130 A 
ATOM     16  C   UNL A   1      35.261  21.096  25.017  1.00  0.00     0.051 A 
ATOM     17  C   UNL A   1      34.962  19.733  24.877  1.00  0.00     0.050 A 
BRANCH  10  18
ATOM     18  C   UNL A   1      32.993  24.975  25.782  1.00  0.00     0.429 C 
ATOM     19  F   UNL A   1      31.812  25.563  25.478  1.00  0.00    -0.167 F 
ATOM     20  F   UNL A   1      32.734  24.043  26.731  1.00  0.00    -0.167 F 
ATOM     21  F   UNL A   1      33.774  25.920  26.358  1.00  0.00    -0.167 F 
ENDBRANCH  10  18
BRANCH  15  22
ATOM     22  O   UNL A   1      33.210  18.033  24.518  1.00  0.00    -0.406 OA
BRANCH  22  23
ATOM     23  C   UNL A   1      33.505  17.330  23.322  1.00  0.00     0.573 C 
ATOM     24  F   UNL A   1      32.885  17.909  22.272  1.00  0.00    -0.132 F 
ATOM     25  F   UNL A   1      34.831  17.271  23.087  1.00  0.00    -0.132 F 
ATOM     26  F   UNL A   1      33.038  16.069  23.437  1.00  0.00    -0.132 F 
ENDBRANCH  22  23
ENDBRANCH  15  22
ENDBRANCH   6   8
ENDBRANCH   3   4
ENDBRANCH   2   3
ENDBRANCH   1   2
BRANCH   1  27
ATOM     27  C   UNL A   1      33.948  27.943  23.742  1.00  0.00     0.002 C 
BRANCH  27  28
ATOM     28  C   UNL A   1      33.331  29.007  24.654  1.00  0.00     0.021 C 
BRANCH  28  29
ATOM     29  C   UNL A   1      33.900  29.103  26.067  1.00  0.00     0.116 C 
BRANCH  29  30
ATOM     30  N   UNL A   1      33.738  30.414  26.667  1.00  0.00    -0.352 N 
ATOM     31  C   UNL A   1      34.476  31.034  27.648  1.00  0.00     0.251 C 
ATOM     32  H   UNL A   1      32.982  30.941  26.319  1.00  0.00     0.163 HD
ATOM     33  O   UNL A   1      34.095  32.105  28.107  1.00  0.00    -0.269 OA
BRANCH  31  34
ATOM     34  C   UNL A   1      35.713  30.410  28.179  1.00  0.00     0.039 A 
ATOM     35  C   UNL A   1      36.888  30.519  27.427  1.00  0.00     0.014 A 
ATOM     36  C   UNL A   1      35.725  29.694  29.379  1.00  0.00     0.014 A 
ATOM     37  C   UNL A   1      38.079  29.961  27.903  1.00  0.00     0.010 A 
ATOM     38  C   UNL A   1      36.928  29.204  29.890  1.00  0.00     0.010 A 
ATOM     39  C   UNL A   1      38.118  29.325  29.155  1.00  0.00    -0.014 A 
BRANCH  39  40
ATOM     40  C   UNL A   1      39.390  28.774  29.695  1.00  0.00     0.031 A 
ATOM     41  C   UNL A   1      40.025  29.377  30.919  1.00  0.00     0.074 A 
ATOM     42  C   UNL A   1      40.000  27.752  29.061  1.00  0.00     0.049 A 
ATOM     43  N   UNL A   1      41.146  29.055  31.516  1.00  0.00    -0.248 NA
ATOM     44  C   UNL A   1      39.320  30.508  31.544  1.00  0.00     0.031 C 
ATOM     45  C   UNL A   1      39.513  27.099  27.844  1.00  0.00     0.029 A 
ATOM     46  N   UNL A   1      41.165  27.085  29.350  1.00  0.00    -0.354 N 
ATOM     47  C   UNL A   1      41.285  29.949  32.571  1.00  0.00     0.074 A 
ATOM     48  C   UNL A   1      40.163  30.858  32.504  1.00  0.00     0.031 C 
ATOM     49  C   UNL A   1      40.354  26.108  27.510  1.00  0.00     0.029 A 
ATOM     50  C   UNL A   1      41.463  26.080  28.460  1.00  0.00     0.049 A 
ATOM     51  H   UNL A   1      41.735  27.306  30.122  1.00  0.00     0.167 HD
ATOM     52  C   UNL A   1      42.249  29.995  33.522  1.00  0.00     0.037 A 
ATOM     53  C   UNL A   1      42.511  25.235  28.411  1.00  0.00     0.037 A 
ATOM     54  C   UNL A   1      43.352  29.073  33.604  1.00  0.00     0.049 A 
ATOM     55  C   UNL A   1      43.577  25.323  29.469  1.00  0.00     0.074 A 
ATOM     56  C   UNL A   1      44.340  28.997  34.572  1.00  0.00     0.029 A 
ATOM     57  N   UNL A   1      43.618  28.072  32.683  1.00  0.00    -0.354 N 
ATOM     58  N   UNL A   1      43.654  26.122  30.505  1.00  0.00    -0.248 NA
ATOM     59  C   UNL A   1      44.704  24.384  29.352  1.00  0.00     0.031 C 
ATOM     60  C   UNL A   1      45.236  27.988  34.204  1.00  0.00     0.029 A 
ATOM     61  C   UNL A   1      44.772  27.395  33.042  1.00  0.00     0.049 A 
ATOM     62  H   UNL A   1      43.068  27.872  31.892  1.00  0.00     0.167 HD
ATOM     63  C   UNL A   1      44.813  25.762  31.180  1.00  0.00     0.074 A 
ATOM     64  C   UNL A   1      45.401  24.662  30.445  1.00  0.00     0.031 C 
ATOM     65  C   UNL A   1      45.343  26.293  32.309  1.00  0.00     0.037 A 
BRANCH  52  66
ATOM     66  C   UNL A   1      42.161  31.084  34.553  1.00  0.00     0.057 A 
ATOM     67  C   UNL A   1      42.802  32.318  34.386  1.00  0.00     0.134 A 
ATOM     68  C   UNL A   1      41.381  30.914  35.705  1.00  0.00     0.134 A 
ATOM     69  F   UNL A   1      43.572  32.545  33.310  1.00  0.00    -0.206 F 
ATOM     70  C   UNL A   1      42.695  33.333  35.339  1.00  0.00     0.040 A 
ATOM     71  C   UNL A   1      41.242  31.932  36.650  1.00  0.00     0.040 A 
ATOM     72  F   UNL A   1      40.732  29.761  35.925  1.00  0.00    -0.206 F 
ATOM     73  C   UNL A   1      41.905  33.144  36.471  1.00  0.00     0.006 A 
ENDBRANCH  52  66
BRANCH  53  74
ATOM     74  C   UNL A   1      42.603  24.216  27.334  1.00  0.00     0.057 A 
ATOM     75  C   UNL A   1      42.139  22.910  27.532  1.00  0.00     0.134 A 
ATOM     76  C   UNL A   1      43.183  24.511  26.094  1.00  0.00     0.134 A 
ATOM     77  F   UNL A   1      41.592  22.560  28.705  1.00  0.00    -0.206 F 
ATOM     78  C   UNL A   1      42.271  21.928  26.549  1.00  0.00     0.040 A 
ATOM     79  C   UNL A   1      43.296  23.546  25.091  1.00  0.00     0.040 A 
ATOM     80  F   UNL A   1      43.642  25.744  25.837  1.00  0.00    -0.206 F 
ATOM     81  C   UNL A   1      42.849  22.247  25.322  1.00  0.00     0.006 A 
ENDBRANCH  53  74
BRANCH  65  82
ATOM     82  C   UNL A   1      46.597  25.665  32.845  1.00  0.00     0.057 A 
ATOM     83  C   UNL A   1      47.871  26.101  32.458  1.00  0.00     0.134 A 
ATOM     84  C   UNL A   1      46.528  24.635  33.793  1.00  0.00     0.134 A 
ATOM     85  F   UNL A   1      48.009  27.075  31.545  1.00  0.00    -0.206 F 
ATOM     86  C   UNL A   1      49.030  25.518  32.975  1.00  0.00     0.040 A 
ATOM     87  C   UNL A   1      47.678  24.065  34.339  1.00  0.00     0.040 A 
ATOM     88  F   UNL A   1      45.340  24.177  34.215  1.00  0.00    -0.206 F 
ATOM     89  C   UNL A   1      48.935  24.501  33.924  1.00  0.00     0.006 A 
ENDBRANCH  65  82
ENDBRANCH  39  40
ENDBRANCH  31  34
ENDBRANCH  29  30
ENDBRANCH  28  29
ENDBRANCH  27  28
ENDBRANCH   1  27
TORSDOF 16
ENDMDL
