MODEL 1
REMARK VINA RESULT:     -12.2      0.000      0.000
REMARK SMILES CCOc1ccc(-c2cc(Cl)cc3c2O[C@H](C(F)(F)F)C(C(=O)NCCCCCCNC(=O)c2ccc(-c4c5nc(c(-c6c(F)cccc6F)c6ccc([nH]6)c(-c6c(F)cccc6F)c6nc(c(-c7c(F)cccc7F)c7ccc4[nH]7)C=C6)C=C5)cc2)=C3)cc1
REMARK SMILES IDX 27 1 26 2 25 3 24 4 22 5 23 6 21 8 8 9 9 10 14 11 10 12
REMARK SMILES IDX 13 13 15 14 11 15 12 16 88 17 16 18 7 19 4 20 5 21 90 22
REMARK SMILES IDX 6 23 89 24 3 25 2 26 1 27 17 28 18 29 19 30 20 31 28 32
REMARK SMILES IDX 29 33 30 34 31 35 32 36 33 38 34 39 35 40 87 41 36 42 86 43
REMARK SMILES IDX 37 44 38 45 39 46 80 47 40 48 85 49 79 50 81 51 41 52 84 53
REMARK SMILES IDX 78 54 77 55 42 57 68 58 51 59 67 60 52 61 55 62 66 63 82 64
REMARK SMILES IDX 53 65 54 66 65 68 83 69 56 70 43 71 44 72 49 73 45 74 46 75
REMARK SMILES IDX 48 76 50 77 47 78 69 79 70 80 75 81 71 82 72 83 74 84 76 85
REMARK SMILES IDX 73 86 57 87 58 88 63 89 59 90 60 91 62 92 64 93 61 94
REMARK H PARENT 24 7 31 37 81 56 55 67
REMARK Flexibility Score: inf
ROOT
ATOM      1  C   UNL A   1      32.738  30.178  25.748  1.00  0.00     0.002 C 
ENDROOT
BRANCH   1   2
ATOM      2  C   UNL A   1      32.477  28.924  24.898  1.00  0.00     0.021 C 
BRANCH   2   3
ATOM      3  C   UNL A   1      33.628  28.529  23.962  1.00  0.00     0.116 C 
BRANCH   3   4
ATOM      4  N   UNL A   1      34.284  27.339  24.466  1.00  0.00    -0.352 N 
ATOM      5  C   UNL A   1      33.627  26.201  24.806  1.00  0.00     0.251 C 
ATOM      6  O   UNL A   1      33.764  25.708  25.918  1.00  0.00    -0.270 OA
ATOM      7  H   UNL A   1      35.263  27.357  24.566  1.00  0.00     0.163 HD
BRANCH   5   8
ATOM      8  C   UNL A   1      32.875  25.529  23.705  1.00  0.00     0.067 C 
ATOM      9  C   UNL A   1      33.801  21.666  24.569  1.00  0.00     0.026 A 
ATOM     10  C   UNL A   1      35.195  21.591  24.819  1.00  0.00     0.033 A 
ATOM     11  C   UNL A   1      33.333  22.848  23.976  1.00  0.00     0.135 A 
ATOM     12  C   UNL A   1      36.085  22.561  24.361  1.00  0.00     0.042 A 
ATOM     13  C   UNL A   1      34.258  23.765  23.420  1.00  0.00     0.019 A 
ATOM     14  O   UNL A   1      31.987  23.184  23.938  1.00  0.00    -0.475 OA
ATOM     15  Cl  UNL A   1      37.761  22.413  24.713  1.00  0.00    -0.084 Cl
ATOM     16  C   UNL A   1      35.629  23.622  23.601  1.00  0.00     0.032 A 
ATOM     17  C   UNL A   1      33.714  24.991  22.796  1.00  0.00     0.025 C 
ATOM     18  C   UNL A   1      31.742  24.630  24.188  1.00  0.00     0.314 C 
BRANCH   9  19
ATOM     19  C   UNL A   1      33.045  20.406  24.753  1.00  0.00    -0.014 A 
ATOM     20  C   UNL A   1      32.529  17.640  25.020  1.00  0.00     0.119 A 
ATOM     21  C   UNL A   1      32.662  18.434  26.155  1.00  0.00     0.047 A 
ATOM     22  C   UNL A   1      32.517  18.234  23.762  1.00  0.00     0.047 A 
ATOM     23  C   UNL A   1      32.911  19.808  26.023  1.00  0.00     0.013 A 
ATOM     24  C   UNL A   1      32.770  19.606  23.631  1.00  0.00     0.013 A 
BRANCH  20  25
ATOM     25  O   UNL A   1      32.338  16.297  25.190  1.00  0.00    -0.494 OA
BRANCH  25  26
ATOM     26  C   UNL A   1      33.404  15.487  24.670  1.00  0.00     0.226 C 
ATOM     27  C   UNL A   1      34.735  15.856  25.308  1.00  0.00     0.049 C 
ENDBRANCH  25  26
ENDBRANCH  20  25
ENDBRANCH   9  19
BRANCH  18  28
ATOM     28  C   UNL A   1      30.425  25.109  23.542  1.00  0.00     0.429 C 
ATOM     29  F   UNL A   1      30.613  26.103  22.646  1.00  0.00    -0.167 F 
ATOM     30  F   UNL A   1      29.794  24.093  22.905  1.00  0.00    -0.167 F 
ATOM     31  F   UNL A   1      29.541  25.581  24.463  1.00  0.00    -0.167 F 
ENDBRANCH  18  28
ENDBRANCH   5   8
ENDBRANCH   3   4
ENDBRANCH   2   3
ENDBRANCH   1   2
BRANCH   1  32
ATOM     32  C   UNL A   1      31.556  30.633  26.608  1.00  0.00     0.002 C 
BRANCH  32  33
ATOM     33  C   UNL A   1      31.429  32.147  26.762  1.00  0.00     0.021 C 
BRANCH  33  34
ATOM     34  C   UNL A   1      32.687  32.839  27.269  1.00  0.00     0.116 C 
BRANCH  34  35
ATOM     35  N   UNL A   1      32.455  34.226  27.645  1.00  0.00    -0.352 N 
ATOM     36  C   UNL A   1      33.068  34.955  28.634  1.00  0.00     0.251 C 
ATOM     37  H   UNL A   1      31.770  34.702  27.122  1.00  0.00     0.163 HD
ATOM     38  O   UNL A   1      32.671  36.078  28.929  1.00  0.00    -0.269 OA
BRANCH  36  39
ATOM     39  C   UNL A   1      34.200  34.352  29.365  1.00  0.00     0.039 A 
ATOM     40  C   UNL A   1      33.949  33.643  30.541  1.00  0.00     0.014 A 
ATOM     41  C   UNL A   1      35.496  34.443  28.850  1.00  0.00     0.014 A 
ATOM     42  C   UNL A   1      34.992  32.956  31.165  1.00  0.00     0.010 A 
ATOM     43  C   UNL A   1      36.518  33.702  29.434  1.00  0.00     0.010 A 
ATOM     44  C   UNL A   1      36.274  32.949  30.593  1.00  0.00    -0.014 A 
BRANCH  44  45
ATOM     45  C   UNL A   1      37.384  32.156  31.179  1.00  0.00     0.031 A 
ATOM     46  C   UNL A   1      37.925  32.520  32.532  1.00  0.00     0.074 A 
ATOM     47  C   UNL A   1      37.962  31.177  30.459  1.00  0.00     0.049 A 
ATOM     48  N   UNL A   1      38.974  32.051  33.158  1.00  0.00    -0.248 NA
ATOM     49  C   UNL A   1      37.207  33.576  33.266  1.00  0.00     0.031 C 
ATOM     50  C   UNL A   1      37.553  30.755  29.118  1.00  0.00     0.029 A 
ATOM     51  N   UNL A   1      39.038  30.374  30.746  1.00  0.00    -0.354 N 
ATOM     52  C   UNL A   1      39.052  32.765  34.346  1.00  0.00     0.074 A 
ATOM     53  C   UNL A   1      37.976  33.732  34.333  1.00  0.00     0.031 C 
ATOM     54  C   UNL A   1      38.360  29.765  28.703  1.00  0.00     0.029 A 
ATOM     55  C   UNL A   1      39.370  29.513  29.727  1.00  0.00     0.049 A 
ATOM     56  H   UNL A   1      39.525  30.410  31.600  1.00  0.00     0.167 HD
ATOM     57  C   UNL A   1      39.930  32.613  35.366  1.00  0.00     0.037 A 
ATOM     58  C   UNL A   1      40.385  28.634  29.623  1.00  0.00     0.037 A 
ATOM     59  C   UNL A   1      40.985  31.635  35.386  1.00  0.00     0.049 A 
ATOM     60  C   UNL A   1      41.357  28.495  30.762  1.00  0.00     0.074 A 
ATOM     61  C   UNL A   1      41.894  31.368  36.394  1.00  0.00     0.029 A 
ATOM     62  N   UNL A   1      41.270  30.762  34.346  1.00  0.00    -0.354 N 
ATOM     63  N   UNL A   1      41.389  29.139  31.904  1.00  0.00    -0.248 NA
ATOM     64  C   UNL A   1      42.432  27.507  30.600  1.00  0.00     0.031 C 
ATOM     65  C   UNL A   1      42.756  30.361  35.949  1.00  0.00     0.029 A 
ATOM     66  C   UNL A   1      42.353  29.968  34.682  1.00  0.00     0.049 A 
ATOM     67  H   UNL A   1      40.775  30.715  33.496  1.00  0.00     0.167 HD
ATOM     68  C   UNL A   1      42.464  28.614  32.607  1.00  0.00     0.074 A 
ATOM     69  C   UNL A   1      43.057  27.594  31.767  1.00  0.00     0.031 C 
ATOM     70  C   UNL A   1      42.920  28.946  33.839  1.00  0.00     0.037 A 
BRANCH  57  71
ATOM     71  C   UNL A   1      39.782  33.529  36.546  1.00  0.00     0.057 A 
ATOM     72  C   UNL A   1      38.937  33.218  37.620  1.00  0.00     0.134 A 
ATOM     73  C   UNL A   1      40.511  34.722  36.623  1.00  0.00     0.134 A 
ATOM     74  F   UNL A   1      38.201  32.096  37.603  1.00  0.00    -0.206 F 
ATOM     75  C   UNL A   1      38.801  34.073  38.714  1.00  0.00     0.040 A 
ATOM     76  C   UNL A   1      40.405  35.573  37.724  1.00  0.00     0.040 A 
ATOM     77  F   UNL A   1      41.342  35.078  35.632  1.00  0.00    -0.206 F 
ATOM     78  C   UNL A   1      39.542  35.253  38.771  1.00  0.00     0.006 A 
ENDBRANCH  57  71
BRANCH  58  79
ATOM     79  C   UNL A   1      40.528  27.808  28.398  1.00  0.00     0.057 A 
ATOM     80  C   UNL A   1      39.925  26.549  28.302  1.00  0.00     0.134 A 
ATOM     81  C   UNL A   1      41.272  28.251  27.298  1.00  0.00     0.134 A 
ATOM     82  F   UNL A   1      39.215  26.062  29.332  1.00  0.00    -0.206 F 
ATOM     83  C   UNL A   1      40.069  25.752  27.166  1.00  0.00     0.040 A 
ATOM     84  C   UNL A   1      41.405  27.476  26.145  1.00  0.00     0.040 A 
ATOM     85  F   UNL A   1      41.870  29.452  27.323  1.00  0.00    -0.206 F 
ATOM     86  C   UNL A   1      40.807  26.218  26.080  1.00  0.00     0.006 A 
ENDBRANCH  58  79
BRANCH  70  87
ATOM     87  C   UNL A   1      44.088  28.173  34.375  1.00  0.00     0.057 A 
ATOM     88  C   UNL A   1      45.405  28.626  34.232  1.00  0.00     0.134 A 
ATOM     89  C   UNL A   1      43.884  26.990  35.100  1.00  0.00     0.134 A 
ATOM     90  F   UNL A   1      45.667  29.744  33.539  1.00  0.00    -0.206 F 
ATOM     91  C   UNL A   1      46.480  27.924  34.779  1.00  0.00     0.040 A 
ATOM     92  C   UNL A   1      44.948  26.293  35.672  1.00  0.00     0.040 A 
ATOM     93  F   UNL A   1      42.646  26.507  35.279  1.00  0.00    -0.206 F 
ATOM     94  C   UNL A   1      46.251  26.759  35.510  1.00  0.00     0.006 A 
ENDBRANCH  70  87
ENDBRANCH  44  45
ENDBRANCH  36  39
ENDBRANCH  34  35
ENDBRANCH  33  34
ENDBRANCH  32  33
ENDBRANCH   1  32
TORSDOF 17
ENDMDL
MODEL 2
REMARK VINA RESULT:     -11.8      4.338      6.185
REMARK SMILES CCOc1ccc(-c2cc(Cl)cc3c2O[C@H](C(F)(F)F)C(C(=O)NCCCCCCNC(=O)c2ccc(-c4c5nc(c(-c6c(F)cccc6F)c6ccc([nH]6)c(-c6c(F)cccc6F)c6nc(c(-c7c(F)cccc7F)c7ccc4[nH]7)C=C6)C=C5)cc2)=C3)cc1
REMARK SMILES IDX 27 1 26 2 25 3 24 4 22 5 23 6 21 8 8 9 9 10 14 11 10 12
REMARK SMILES IDX 13 13 15 14 11 15 12 16 88 17 16 18 7 19 4 20 5 21 90 22
REMARK SMILES IDX 6 23 89 24 3 25 2 26 1 27 17 28 18 29 19 30 20 31 28 32
REMARK SMILES IDX 29 33 30 34 31 35 32 36 33 38 34 39 35 40 87 41 36 42 86 43
REMARK SMILES IDX 37 44 38 45 39 46 80 47 40 48 85 49 79 50 81 51 41 52 84 53
REMARK SMILES IDX 78 54 77 55 42 57 68 58 51 59 67 60 52 61 55 62 66 63 82 64
REMARK SMILES IDX 53 65 54 66 65 68 83 69 56 70 43 71 44 72 49 73 45 74 46 75
REMARK SMILES IDX 48 76 50 77 47 78 69 79 70 80 75 81 71 82 72 83 74 84 76 85
REMARK SMILES IDX 73 86 57 87 58 88 63 89 59 90 60 91 62 92 64 93 61 94
REMARK H PARENT 24 7 31 37 81 56 55 67
REMARK Flexibility Score: inf
ROOT
ATOM      1  C   UNL A   1      31.806  30.367  26.007  1.00  0.00     0.002 C 
ENDROOT
BRANCH   1   2
ATOM      2  C   UNL A   1      31.897  29.182  25.031  1.00  0.00     0.021 C 
BRANCH   2   3
ATOM      3  C   UNL A   1      33.257  29.023  24.337  1.00  0.00     0.116 C 
BRANCH   3   4
ATOM      4  N   UNL A   1      33.941  27.857  24.858  1.00  0.00    -0.352 N 
ATOM      5  C   UNL A   1      33.330  26.670  25.105  1.00  0.00     0.251 C 
ATOM      6  O   UNL A   1      33.404  26.146  26.208  1.00  0.00    -0.270 OA
ATOM      7  H   UNL A   1      34.905  27.930  25.042  1.00  0.00     0.163 HD
BRANCH   5   8
ATOM      8  C   UNL A   1      32.717  25.995  23.923  1.00  0.00     0.067 C 
ATOM      9  C   UNL A   1      33.725  22.154  24.792  1.00  0.00     0.026 A 
ATOM     10  C   UNL A   1      35.090  22.131  25.173  1.00  0.00     0.033 A 
ATOM     11  C   UNL A   1      33.264  23.330  24.181  1.00  0.00     0.135 A 
ATOM     12  C   UNL A   1      35.977  23.148  24.823  1.00  0.00     0.042 A 
ATOM     13  C   UNL A   1      34.196  24.298  23.736  1.00  0.00     0.019 A 
ATOM     14  O   UNL A   1      31.914  23.610  24.021  1.00  0.00    -0.475 OA
ATOM     15  Cl  UNL A   1      37.617  23.061  25.330  1.00  0.00    -0.084 Cl
ATOM     16  C   UNL A   1      35.549  24.207  24.044  1.00  0.00     0.032 A 
ATOM     17  C   UNL A   1      33.660  25.515  23.087  1.00  0.00     0.025 C 
ATOM     18  C   UNL A   1      31.583  25.038  24.276  1.00  0.00     0.314 C 
BRANCH   9  19
ATOM     19  C   UNL A   1      33.011  20.858  24.877  1.00  0.00    -0.014 A 
ATOM     20  C   UNL A   1      32.535  18.078  24.701  1.00  0.00     0.119 A 
ATOM     21  C   UNL A   1      32.903  18.644  25.918  1.00  0.00     0.047 A 
ATOM     22  C   UNL A   1      32.273  18.902  23.611  1.00  0.00     0.047 A 
ATOM     23  C   UNL A   1      33.133  20.025  26.007  1.00  0.00     0.013 A 
ATOM     24  C   UNL A   1      32.507  20.280  23.699  1.00  0.00     0.013 A 
BRANCH  20  25
ATOM     25  O   UNL A   1      32.370  16.723  24.643  1.00  0.00    -0.494 OA
BRANCH  25  26
ATOM     26  C   UNL A   1      33.597  15.995  24.475  1.00  0.00     0.226 C 
ATOM     27  C   UNL A   1      34.393  16.525  23.292  1.00  0.00     0.049 C 
ENDBRANCH  25  26
ENDBRANCH  20  25
ENDBRANCH   9  19
BRANCH  18  28
ATOM     28  C   UNL A   1      30.314  25.476  23.517  1.00  0.00     0.429 C 
ATOM     29  F   UNL A   1      30.565  26.411  22.574  1.00  0.00    -0.167 F 
ATOM     30  F   UNL A   1      29.719  24.423  22.907  1.00  0.00    -0.167 F 
ATOM     31  F   UNL A   1      29.375  26.009  24.347  1.00  0.00    -0.167 F 
ENDBRANCH  18  28
ENDBRANCH   5   8
ENDBRANCH   3   4
ENDBRANCH   2   3
ENDBRANCH   1   2
BRANCH   1  32
ATOM     32  C   UNL A   1      32.680  30.242  27.257  1.00  0.00     0.002 C 
BRANCH  32  33
ATOM     33  C   UNL A   1      33.891  31.174  27.281  1.00  0.00     0.021 C 
BRANCH  33  34
ATOM     34  C   UNL A   1      35.069  30.659  28.098  1.00  0.00     0.116 C 
BRANCH  34  35
ATOM     35  N   UNL A   1      35.098  31.204  29.447  1.00  0.00    -0.352 N 
ATOM     36  C   UNL A   1      36.072  31.056  30.404  1.00  0.00     0.251 C 
ATOM     37  H   UNL A   1      34.320  31.747  29.707  1.00  0.00     0.163 HD
ATOM     38  O   UNL A   1      35.898  31.458  31.551  1.00  0.00    -0.269 OA
BRANCH  36  39
ATOM     39  C   UNL A   1      37.329  30.373  30.042  1.00  0.00     0.039 A 
ATOM     40  C   UNL A   1      37.855  30.551  28.760  1.00  0.00     0.014 A 
ATOM     41  C   UNL A   1      38.011  29.606  30.991  1.00  0.00     0.014 A 
ATOM     42  C   UNL A   1      39.108  30.020  28.452  1.00  0.00     0.010 A 
ATOM     43  C   UNL A   1      39.288  29.138  30.704  1.00  0.00     0.010 A 
ATOM     44  C   UNL A   1      39.851  29.345  29.435  1.00  0.00    -0.014 A 
BRANCH  44  45
ATOM     45  C   UNL A   1      41.223  28.848  29.169  1.00  0.00     0.031 A 
ATOM     46  C   UNL A   1      42.383  29.802  29.215  1.00  0.00     0.074 A 
ATOM     47  C   UNL A   1      41.413  27.568  28.796  1.00  0.00     0.049 A 
ATOM     48  N   UNL A   1      43.632  29.603  28.878  1.00  0.00    -0.248 NA
ATOM     49  C   UNL A   1      42.091  31.171  29.670  1.00  0.00     0.031 C 
ATOM     50  C   UNL A   1      40.362  26.555  28.678  1.00  0.00     0.029 A 
ATOM     51  N   UNL A   1      42.556  26.906  28.424  1.00  0.00    -0.354 N 
ATOM     52  C   UNL A   1      44.268  30.823  29.064  1.00  0.00     0.074 A 
ATOM     53  C   UNL A   1      43.260  31.767  29.494  1.00  0.00     0.031 C 
ATOM     54  C   UNL A   1      40.911  25.398  28.271  1.00  0.00     0.029 A 
ATOM     55  C   UNL A   1      42.342  25.599  28.058  1.00  0.00     0.049 A 
ATOM     56  H   UNL A   1      43.446  27.327  28.420  1.00  0.00     0.167 HD
ATOM     57  C   UNL A   1      45.580  31.123  28.909  1.00  0.00     0.037 A 
ATOM     58  C   UNL A   1      43.198  24.673  27.585  1.00  0.00     0.037 A 
ATOM     59  C   UNL A   1      46.583  30.175  28.504  1.00  0.00     0.049 A 
ATOM     60  C   UNL A   1      44.647  25.035  27.406  1.00  0.00     0.074 A 
ATOM     61  C   UNL A   1      47.946  30.368  28.368  1.00  0.00     0.029 A 
ATOM     62  N   UNL A   1      46.330  28.853  28.169  1.00  0.00    -0.354 N 
ATOM     63  N   UNL A   1      45.247  26.178  27.635  1.00  0.00    -0.248 NA
ATOM     64  C   UNL A   1      45.537  23.979  26.905  1.00  0.00     0.031 C 
ATOM     65  C   UNL A   1      48.513  29.174  27.912  1.00  0.00     0.029 A 
ATOM     66  C   UNL A   1      47.510  28.224  27.809  1.00  0.00     0.049 A 
ATOM     67  H   UNL A   1      45.443  28.426  28.185  1.00  0.00     0.167 HD
ATOM     68  C   UNL A   1      46.587  25.971  27.338  1.00  0.00     0.074 A 
ATOM     69  C   UNL A   1      46.714  24.591  26.916  1.00  0.00     0.031 C 
ATOM     70  C   UNL A   1      47.620  26.844  27.408  1.00  0.00     0.037 A 
BRANCH  57  71
ATOM     71  C   UNL A   1      46.001  32.537  29.183  1.00  0.00     0.057 A 
ATOM     72  C   UNL A   1      46.421  32.949  30.455  1.00  0.00     0.134 A 
ATOM     73  C   UNL A   1      46.012  33.492  28.159  1.00  0.00     0.134 A 
ATOM     74  F   UNL A   1      46.421  32.086  31.483  1.00  0.00    -0.206 F 
ATOM     75  C   UNL A   1      46.809  34.266  30.705  1.00  0.00     0.040 A 
ATOM     76  C   UNL A   1      46.425  34.805  28.390  1.00  0.00     0.040 A 
ATOM     77  F   UNL A   1      45.627  33.164  26.917  1.00  0.00    -0.206 F 
ATOM     78  C   UNL A   1      46.818  35.197  29.668  1.00  0.00     0.006 A 
ENDBRANCH  57  71
BRANCH  58  79
ATOM     79  C   UNL A   1      42.710  23.311  27.256  1.00  0.00     0.057 A 
ATOM     80  C   UNL A   1      42.456  22.935  25.932  1.00  0.00     0.134 A 
ATOM     81  C   UNL A   1      42.481  22.353  28.252  1.00  0.00     0.134 A 
ATOM     82  F   UNL A   1      42.638  23.815  24.936  1.00  0.00    -0.206 F 
ATOM     83  C   UNL A   1      41.976  21.665  25.610  1.00  0.00     0.040 A 
ATOM     84  C   UNL A   1      42.025  21.071  27.943  1.00  0.00     0.040 A 
ATOM     85  F   UNL A   1      42.712  22.648  29.541  1.00  0.00    -0.206 F 
ATOM     86  C   UNL A   1      41.764  20.726  26.618  1.00  0.00     0.006 A 
ENDBRANCH  58  79
BRANCH  70  87
ATOM     87  C   UNL A   1      48.986  26.329  27.065  1.00  0.00     0.057 A 
ATOM     88  C   UNL A   1      49.507  26.419  25.769  1.00  0.00     0.134 A 
ATOM     89  C   UNL A   1      49.813  25.793  28.062  1.00  0.00     0.134 A 
ATOM     90  F   UNL A   1      48.762  26.910  24.769  1.00  0.00    -0.206 F 
ATOM     91  C   UNL A   1      50.799  25.981  25.473  1.00  0.00     0.040 A 
ATOM     92  C   UNL A   1      51.114  25.375  27.783  1.00  0.00     0.040 A 
ATOM     93  F   UNL A   1      49.375  25.687  29.325  1.00  0.00    -0.206 F 
ATOM     94  C   UNL A   1      51.609  25.466  26.484  1.00  0.00     0.006 A 
ENDBRANCH  70  87
ENDBRANCH  44  45
ENDBRANCH  36  39
ENDBRANCH  34  35
ENDBRANCH  33  34
ENDBRANCH  32  33
ENDBRANCH   1  32
TORSDOF 17
ENDMDL
MODEL 3
REMARK VINA RESULT:     -11.7      2.946      8.420
REMARK SMILES CCOc1ccc(-c2cc(Cl)cc3c2O[C@H](C(F)(F)F)C(C(=O)NCCCCCCNC(=O)c2ccc(-c4c5nc(c(-c6c(F)cccc6F)c6ccc([nH]6)c(-c6c(F)cccc6F)c6nc(c(-c7c(F)cccc7F)c7ccc4[nH]7)C=C6)C=C5)cc2)=C3)cc1
REMARK SMILES IDX 27 1 26 2 25 3 24 4 22 5 23 6 21 8 8 9 9 10 14 11 10 12
REMARK SMILES IDX 13 13 15 14 11 15 12 16 88 17 16 18 7 19 4 20 5 21 90 22
REMARK SMILES IDX 6 23 89 24 3 25 2 26 1 27 17 28 18 29 19 30 20 31 28 32
REMARK SMILES IDX 29 33 30 34 31 35 32 36 33 38 34 39 35 40 87 41 36 42 86 43
REMARK SMILES IDX 37 44 38 45 39 46 80 47 40 48 85 49 79 50 81 51 41 52 84 53
REMARK SMILES IDX 78 54 77 55 42 57 68 58 51 59 67 60 52 61 55 62 66 63 82 64
REMARK SMILES IDX 53 65 54 66 65 68 83 69 56 70 43 71 44 72 49 73 45 74 46 75
REMARK SMILES IDX 48 76 50 77 47 78 69 79 70 80 75 81 71 82 72 83 74 84 76 85
REMARK SMILES IDX 73 86 57 87 58 88 63 89 59 90 60 91 62 92 64 93 61 94
REMARK H PARENT 24 7 31 37 81 56 55 67
REMARK Flexibility Score: inf
ROOT
ATOM      1  C   UNL A   1      37.634  22.958  25.317  1.00  0.00     0.002 C 
ENDROOT
BRANCH   1   2
ATOM      2  C   UNL A   1      36.806  21.686  25.567  1.00  0.00     0.021 C 
BRANCH   2   3
ATOM      3  C   UNL A   1      35.311  21.929  25.815  1.00  0.00     0.116 C 
BRANCH   3   4
ATOM      4  N   UNL A   1      35.075  23.338  26.051  1.00  0.00    -0.352 N 
ATOM      5  C   UNL A   1      34.317  24.123  25.243  1.00  0.00     0.251 C 
ATOM      6  O   UNL A   1      34.771  25.156  24.769  1.00  0.00    -0.270 OA
ATOM      7  H   UNL A   1      35.487  23.751  26.844  1.00  0.00     0.163 HD
BRANCH   5   8
ATOM      8  C   UNL A   1      32.883  23.729  25.111  1.00  0.00     0.067 C 
ATOM      9  C   UNL A   1      31.287  27.387  24.340  1.00  0.00     0.026 A 
ATOM     10  C   UNL A   1      31.835  28.312  25.264  1.00  0.00     0.033 A 
ATOM     11  C   UNL A   1      31.488  26.027  24.619  1.00  0.00     0.135 A 
ATOM     12  C   UNL A   1      32.405  27.908  26.470  1.00  0.00     0.042 A 
ATOM     13  C   UNL A   1      31.965  25.639  25.894  1.00  0.00     0.019 A 
ATOM     14  O   UNL A   1      31.272  25.030  23.679  1.00  0.00    -0.475 OA
ATOM     15  Cl  UNL A   1      33.062  29.084  27.538  1.00  0.00    -0.084 Cl
ATOM     16  C   UNL A   1      32.414  26.572  26.823  1.00  0.00     0.032 A 
ATOM     17  C   UNL A   1      32.149  24.192  26.144  1.00  0.00     0.025 C 
ATOM     18  C   UNL A   1      32.303  23.959  23.720  1.00  0.00     0.314 C 
BRANCH   9  19
ATOM     19  C   UNL A   1      30.378  27.959  23.319  1.00  0.00    -0.014 A 
ATOM     20  C   UNL A   1      28.522  29.712  22.106  1.00  0.00     0.119 A 
ATOM     21  C   UNL A   1      29.883  29.855  21.850  1.00  0.00     0.047 A 
ATOM     22  C   UNL A   1      28.074  28.626  22.850  1.00  0.00     0.047 A 
ATOM     23  C   UNL A   1      30.804  28.981  22.446  1.00  0.00     0.013 A 
ATOM     24  C   UNL A   1      28.994  27.755  23.448  1.00  0.00     0.013 A 
BRANCH  20  25
ATOM     25  O   UNL A   1      27.662  30.615  21.547  1.00  0.00    -0.494 OA
BRANCH  25  26
ATOM     26  C   UNL A   1      28.099  31.979  21.657  1.00  0.00     0.226 C 
ATOM     27  C   UNL A   1      27.859  32.738  20.361  1.00  0.00     0.049 C 
ENDBRANCH  25  26
ENDBRANCH  20  25
ENDBRANCH   9  19
BRANCH  18  28
ATOM     28  C   UNL A   1      31.759  22.618  23.186  1.00  0.00     0.429 C 
ATOM     29  F   UNL A   1      30.471  22.699  22.784  1.00  0.00    -0.167 F 
ATOM     30  F   UNL A   1      32.492  22.174  22.137  1.00  0.00    -0.167 F 
ATOM     31  F   UNL A   1      31.809  21.632  24.123  1.00  0.00    -0.167 F 
ENDBRANCH  18  28
ENDBRANCH   5   8
ENDBRANCH   3   4
ENDBRANCH   2   3
ENDBRANCH   1   2
BRANCH   1  32
ATOM     32  C   UNL A   1      38.526  23.386  26.484  1.00  0.00     0.002 C 
BRANCH  32  33
ATOM     33  C   UNL A   1      39.847  22.624  26.587  1.00  0.00     0.021 C 
BRANCH  33  34
ATOM     34  C   UNL A   1      41.033  23.471  27.029  1.00  0.00     0.116 C 
BRANCH  34  35
ATOM     35  N   UNL A   1      41.659  24.183  25.924  1.00  0.00    -0.352 N 
ATOM     36  C   UNL A   1      41.784  25.539  25.747  1.00  0.00     0.251 C 
ATOM     37  H   UNL A   1      42.041  23.620  25.213  1.00  0.00     0.163 HD
ATOM     38  O   UNL A   1      42.215  26.002  24.695  1.00  0.00    -0.269 OA
BRANCH  36  39
ATOM     39  C   UNL A   1      41.360  26.442  26.835  1.00  0.00     0.039 A 
ATOM     40  C   UNL A   1      40.454  25.976  27.791  1.00  0.00     0.014 A 
ATOM     41  C   UNL A   1      41.906  27.724  26.936  1.00  0.00     0.014 A 
ATOM     42  C   UNL A   1      40.151  26.773  28.896  1.00  0.00     0.010 A 
ATOM     43  C   UNL A   1      41.657  28.487  28.072  1.00  0.00     0.010 A 
ATOM     44  C   UNL A   1      40.782  28.016  29.064  1.00  0.00    -0.014 A 
BRANCH  44  45
ATOM     45  C   UNL A   1      40.553  28.848  30.271  1.00  0.00     0.031 A 
ATOM     46  C   UNL A   1      39.470  29.889  30.264  1.00  0.00     0.074 A 
ATOM     47  C   UNL A   1      41.375  28.733  31.331  1.00  0.00     0.049 A 
ATOM     48  N   UNL A   1      39.200  30.809  31.155  1.00  0.00    -0.248 NA
ATOM     49  C   UNL A   1      38.594  29.919  29.082  1.00  0.00     0.031 C 
ATOM     50  C   UNL A   1      42.487  27.787  31.444  1.00  0.00     0.029 A 
ATOM     51  N   UNL A   1      41.418  29.436  32.509  1.00  0.00    -0.354 N 
ATOM     52  C   UNL A   1      38.138  31.536  30.633  1.00  0.00     0.074 A 
ATOM     53  C   UNL A   1      37.845  30.983  29.329  1.00  0.00     0.031 C 
ATOM     54  C   UNL A   1      43.095  27.962  32.629  1.00  0.00     0.029 A 
ATOM     55  C   UNL A   1      42.446  29.059  33.340  1.00  0.00     0.049 A 
ATOM     56  H   UNL A   1      40.772  30.143  32.739  1.00  0.00     0.167 HD
ATOM     57  C   UNL A   1      37.455  32.558  31.200  1.00  0.00     0.037 A 
ATOM     58  C   UNL A   1      42.834  29.556  34.530  1.00  0.00     0.037 A 
ATOM     59  C   UNL A   1      37.734  33.089  32.508  1.00  0.00     0.049 A 
ATOM     60  C   UNL A   1      42.070  30.703  35.132  1.00  0.00     0.074 A 
ATOM     61  C   UNL A   1      37.067  34.090  33.193  1.00  0.00     0.029 A 
ATOM     62  N   UNL A   1      38.767  32.661  33.329  1.00  0.00    -0.354 N 
ATOM     63  N   UNL A   1      41.034  31.347  34.653  1.00  0.00    -0.248 NA
ATOM     64  C   UNL A   1      42.527  31.190  36.441  1.00  0.00     0.031 C 
ATOM     65  C   UNL A   1      37.721  34.295  34.411  1.00  0.00     0.029 A 
ATOM     66  C   UNL A   1      38.766  33.391  34.506  1.00  0.00     0.049 A 
ATOM     67  H   UNL A   1      39.406  31.945  33.108  1.00  0.00     0.167 HD
ATOM     68  C   UNL A   1      40.696  32.293  35.612  1.00  0.00     0.074 A 
ATOM     69  C   UNL A   1      41.633  32.135  36.704  1.00  0.00     0.031 C 
ATOM     70  C   UNL A   1      39.698  33.209  35.591  1.00  0.00     0.037 A 
BRANCH  57  71
ATOM     71  C   UNL A   1      36.336  33.166  30.405  1.00  0.00     0.057 A 
ATOM     72  C   UNL A   1      34.993  32.877  30.681  1.00  0.00     0.134 A 
ATOM     73  C   UNL A   1      36.603  34.070  29.369  1.00  0.00     0.134 A 
ATOM     74  F   UNL A   1      34.670  32.009  31.652  1.00  0.00    -0.206 F 
ATOM     75  C   UNL A   1      33.957  33.443  29.937  1.00  0.00     0.040 A 
ATOM     76  C   UNL A   1      35.575  34.665  28.637  1.00  0.00     0.040 A 
ATOM     77  F   UNL A   1      37.866  34.394  29.056  1.00  0.00    -0.206 F 
ATOM     78  C   UNL A   1      34.247  34.346  28.915  1.00  0.00     0.006 A 
ENDBRANCH  57  71
BRANCH  58  79
ATOM     79  C   UNL A   1      43.997  28.965  35.236  1.00  0.00     0.057 A 
ATOM     80  C   UNL A   1      43.826  27.950  36.185  1.00  0.00     0.134 A 
ATOM     81  C   UNL A   1      45.305  29.400  34.988  1.00  0.00     0.134 A 
ATOM     82  F   UNL A   1      42.595  27.505  36.480  1.00  0.00    -0.206 F 
ATOM     83  C   UNL A   1      44.908  27.400  36.873  1.00  0.00     0.040 A 
ATOM     84  C   UNL A   1      46.400  28.842  35.651  1.00  0.00     0.040 A 
ATOM     85  F   UNL A   1      45.538  30.365  34.086  1.00  0.00    -0.206 F 
ATOM     86  C   UNL A   1      46.201  27.843  36.602  1.00  0.00     0.006 A 
ENDBRANCH  58  79
BRANCH  70  87
ATOM     87  C   UNL A   1      39.536  34.083  36.798  1.00  0.00     0.057 A 
ATOM     88  C   UNL A   1      40.027  35.393  36.834  1.00  0.00     0.134 A 
ATOM     89  C   UNL A   1      38.824  33.626  37.915  1.00  0.00     0.134 A 
ATOM     90  F   UNL A   1      40.728  35.886  35.803  1.00  0.00    -0.206 F 
ATOM     91  C   UNL A   1      39.827  36.215  37.945  1.00  0.00     0.040 A 
ATOM     92  C   UNL A   1      38.596  34.445  39.020  1.00  0.00     0.040 A 
ATOM     93  F   UNL A   1      38.321  32.383  37.939  1.00  0.00    -0.206 F 
ATOM     94  C   UNL A   1      39.101  35.744  39.038  1.00  0.00     0.006 A 
ENDBRANCH  70  87
ENDBRANCH  44  45
ENDBRANCH  36  39
ENDBRANCH  34  35
ENDBRANCH  33  34
ENDBRANCH  32  33
ENDBRANCH   1  32
TORSDOF 17
ENDMDL
