MODEL 1
REMARK VINA RESULT:     -11.5      0.000      0.000
REMARK SMILES C/C(=N\[NH+]=C1/NC(=O)[C@@H](CC(=O)NCCCCCCNC(=O)c2ccc(-c3c4nc(c(-c5c(F)cccc5F)c5ccc([nH]5)c(-c5c(F)cccc5F)c5nc(c(-c6c(F)cccc6F)c6ccc3[nH]6)C=C5)C=C4)cc2)S1)c1ccc(Br)cc1
REMARK SMILES IDX 16 1 15 2 14 3 13 4 11 5 12 6 10 8 9 9 4 10 5 11 6 13 77 14
REMARK SMILES IDX 7 15 8 17 3 18 1 19 2 20 78 21 79 22 84 23 80 24 83 25 81 26
REMARK SMILES IDX 82 27 17 28 18 29 19 30 20 31 21 32 22 34 23 35 24 36 76 37
REMARK SMILES IDX 25 38 75 39 26 40 27 41 28 42 69 43 29 44 74 45 68 46 70 47
REMARK SMILES IDX 30 48 73 49 67 50 66 51 31 53 57 54 40 55 56 56 41 57 44 58
REMARK SMILES IDX 55 59 71 60 42 61 43 62 54 64 72 65 45 66 32 67 33 68 38 69
REMARK SMILES IDX 34 70 35 71 37 72 39 73 36 74 58 75 59 76 64 77 60 78 61 79
REMARK SMILES IDX 63 80 65 81 62 82 46 83 47 84 52 85 48 86 49 87 51 88 53 89
REMARK SMILES IDX 50 90
REMARK H PARENT 13 7 4 12 6 16 20 33 70 52 44 63
REMARK Flexibility Score: inf
ROOT
ATOM      1  C   UNL A   1      35.062  33.117  27.987  1.00  0.00     0.002 C 
ENDROOT
BRANCH   1   2
ATOM      2  C   UNL A   1      35.690  31.720  28.055  1.00  0.00     0.021 C 
BRANCH   2   3
ATOM      3  C   UNL A   1      34.695  30.592  27.789  1.00  0.00     0.116 C 
BRANCH   3   4
ATOM      4  N   UNL A   1      33.504  31.100  27.134  1.00  0.00    -0.356 N 
ATOM      5  C   UNL A   1      32.365  30.443  26.779  1.00  0.00     0.221 C 
ATOM      6  O   UNL A   1      31.489  31.051  26.170  1.00  0.00    -0.275 OA
ATOM      7  H   UNL A   1      33.521  32.060  26.915  1.00  0.00     0.163 HD
BRANCH   5   8
ATOM      8  C   UNL A   1      32.202  28.995  27.167  1.00  0.00     0.127 C 
BRANCH   8   9
ATOM      9  C   UNL A   1      31.923  28.147  25.938  1.00  0.00     0.183 C 
ATOM     10  N   UNL A   1      34.299  25.509  24.478  1.00  0.00    -0.142 N 
ATOM     11  C   UNL A   1      33.502  26.275  25.139  1.00  0.00     0.337 C 
ATOM     12  H   UNL A   1      34.959  25.853  23.833  1.00  0.00     0.343 HD
ATOM     13  N   UNL A   1      32.558  25.853  26.006  1.00  0.00    -0.202 N 
ATOM     14  S   UNL A   1      33.431  27.984  24.905  1.00  0.00    -0.020 SA
ATOM     15  C   UNL A   1      31.582  26.731  26.354  1.00  0.00     0.322 C 
ATOM     16  H   UNL A   1      32.577  24.939  26.374  1.00  0.00     0.316 HD
ATOM     17  O   UNL A   1      30.539  26.394  26.889  1.00  0.00    -0.246 OA
BRANCH  10  18
ATOM     18  N   UNL A   1      34.148  24.148  24.752  1.00  0.00    -0.090 NA
ATOM     19  C   UNL A   1      33.457  23.903  22.364  1.00  0.00     0.071 C 
ATOM     20  C   UNL A   1      33.827  23.382  23.745  1.00  0.00     0.088 C 
BRANCH  20  21
ATOM     21  C   UNL A   1      33.694  21.915  24.006  1.00  0.00    -0.000 A 
ATOM     22  C   UNL A   1      32.532  21.254  23.576  1.00  0.00     0.011 A 
ATOM     23  C   UNL A   1      34.689  21.188  24.669  1.00  0.00     0.011 A 
ATOM     24  C   UNL A   1      32.368  19.886  23.805  1.00  0.00     0.016 A 
ATOM     25  C   UNL A   1      34.521  19.820  24.904  1.00  0.00     0.016 A 
ATOM     26  C   UNL A   1      33.363  19.176  24.471  1.00  0.00     0.018 A 
ATOM     27  Br  UNL A   1      33.141  17.329  24.800  1.00  0.00    -0.051 Br
ENDBRANCH  20  21
ENDBRANCH  10  18
ENDBRANCH   8   9
ENDBRANCH   5   8
ENDBRANCH   3   4
ENDBRANCH   2   3
ENDBRANCH   1   2
BRANCH   1  28
ATOM     28  C   UNL A   1      34.227  33.499  29.213  1.00  0.00     0.002 C 
BRANCH  28  29
ATOM     29  C   UNL A   1      33.177  34.582  28.958  1.00  0.00     0.021 C 
BRANCH  29  30
ATOM     30  C   UNL A   1      33.495  35.922  29.612  1.00  0.00     0.116 C 
BRANCH  30  31
ATOM     31  N   UNL A   1      32.590  36.212  30.713  1.00  0.00    -0.352 N 
ATOM     32  C   UNL A   1      32.620  35.751  32.005  1.00  0.00     0.251 C 
ATOM     33  H   UNL A   1      31.850  36.827  30.501  1.00  0.00     0.163 HD
ATOM     34  O   UNL A   1      31.657  35.916  32.746  1.00  0.00    -0.269 OA
BRANCH  32  35
ATOM     35  C   UNL A   1      33.817  35.036  32.491  1.00  0.00     0.039 A 
ATOM     36  C   UNL A   1      33.684  33.722  32.944  1.00  0.00     0.014 A 
ATOM     37  C   UNL A   1      35.067  35.662  32.491  1.00  0.00     0.014 A 
ATOM     38  C   UNL A   1      34.819  33.012  33.339  1.00  0.00     0.010 A 
ATOM     39  C   UNL A   1      36.205  34.929  32.811  1.00  0.00     0.010 A 
ATOM     40  C   UNL A   1      36.093  33.598  33.240  1.00  0.00    -0.014 A 
BRANCH  40  41
ATOM     41  C   UNL A   1      37.320  32.832  33.572  1.00  0.00     0.031 A 
ATOM     42  C   UNL A   1      38.080  33.132  34.834  1.00  0.00     0.074 A 
ATOM     43  C   UNL A   1      37.786  31.913  32.704  1.00  0.00     0.049 A 
ATOM     44  N   UNL A   1      39.208  32.625  35.260  1.00  0.00    -0.248 NA
ATOM     45  C   UNL A   1      37.509  34.157  35.723  1.00  0.00     0.031 C 
ATOM     46  C   UNL A   1      37.162  31.563  31.426  1.00  0.00     0.029 A 
ATOM     47  N   UNL A   1      38.899  31.114  32.760  1.00  0.00    -0.354 N 
ATOM     48  C   UNL A   1      39.487  33.274  36.455  1.00  0.00     0.074 A 
ATOM     49  C   UNL A   1      38.442  34.253  36.658  1.00  0.00     0.031 C 
ATOM     50  C   UNL A   1      37.889  30.605  30.831  1.00  0.00     0.029 A 
ATOM     51  C   UNL A   1      39.052  30.304  31.660  1.00  0.00     0.049 A 
ATOM     52  H   UNL A   1      39.530  31.119  33.516  1.00  0.00     0.167 HD
ATOM     53  C   UNL A   1      40.510  33.059  37.316  1.00  0.00     0.037 A 
ATOM     54  C   UNL A   1      40.025  29.428  31.349  1.00  0.00     0.037 A 
ATOM     55  C   UNL A   1      41.540  32.074  37.116  1.00  0.00     0.049 A 
ATOM     56  C   UNL A   1      41.165  29.226  32.310  1.00  0.00     0.074 A 
ATOM     57  C   UNL A   1      42.588  31.741  37.956  1.00  0.00     0.029 A 
ATOM     58  N   UNL A   1      41.656  31.269  35.993  1.00  0.00    -0.354 N 
ATOM     59  N   UNL A   1      41.379  29.797  33.471  1.00  0.00    -0.248 NA
ATOM     60  C   UNL A   1      42.196  28.254  31.920  1.00  0.00     0.031 C 
ATOM     61  C   UNL A   1      43.371  30.773  37.317  1.00  0.00     0.029 A 
ATOM     62  C   UNL A   1      42.775  30.459  36.106  1.00  0.00     0.049 A 
ATOM     63  H   UNL A   1      41.035  31.271  35.229  1.00  0.00     0.167 HD
ATOM     64  C   UNL A   1      42.549  29.234  33.963  1.00  0.00     0.074 A 
ATOM     65  C   UNL A   1      42.991  28.265  32.980  1.00  0.00     0.031 C 
ATOM     66  C   UNL A   1      43.199  29.494  35.123  1.00  0.00     0.037 A 
BRANCH  53  67
ATOM     67  C   UNL A   1      40.566  33.908  38.553  1.00  0.00     0.057 A 
ATOM     68  C   UNL A   1      41.312  35.094  38.604  1.00  0.00     0.134 A 
ATOM     69  C   UNL A   1      39.837  33.557  39.697  1.00  0.00     0.134 A 
ATOM     70  F   UNL A   1      42.042  35.484  37.549  1.00  0.00    -0.206 F 
ATOM     71  C   UNL A   1      41.354  35.884  39.755  1.00  0.00     0.040 A 
ATOM     72  C   UNL A   1      39.846  34.355  40.843  1.00  0.00     0.040 A 
ATOM     73  F   UNL A   1      39.097  32.439  39.716  1.00  0.00    -0.206 F 
ATOM     74  C   UNL A   1      40.613  35.517  40.877  1.00  0.00     0.006 A 
ENDBRANCH  53  67
BRANCH  54  75
ATOM     75  C   UNL A   1      39.962  28.664  30.076  1.00  0.00     0.057 A 
ATOM     76  C   UNL A   1      39.250  27.462  29.990  1.00  0.00     0.134 A 
ATOM     77  C   UNL A   1      40.619  29.107  28.923  1.00  0.00     0.134 A 
ATOM     78  F   UNL A   1      38.614  26.975  31.066  1.00  0.00    -0.206 F 
ATOM     79  C   UNL A   1      39.212  26.717  28.810  1.00  0.00     0.040 A 
ATOM     80  C   UNL A   1      40.566  28.387  27.728  1.00  0.00     0.040 A 
ATOM     81  F   UNL A   1      41.311  30.257  28.936  1.00  0.00    -0.206 F 
ATOM     82  C   UNL A   1      39.869  27.182  27.673  1.00  0.00     0.006 A 
ENDBRANCH  54  75
BRANCH  66  83
ATOM     83  C   UNL A   1      44.436  28.693  35.416  1.00  0.00     0.057 A 
ATOM     84  C   UNL A   1      45.712  29.132  35.042  1.00  0.00     0.134 A 
ATOM     85  C   UNL A   1      44.350  27.485  36.121  1.00  0.00     0.134 A 
ATOM     86  F   UNL A   1      45.863  30.274  34.353  1.00  0.00    -0.206 F 
ATOM     87  C   UNL A   1      46.855  28.388  35.339  1.00  0.00     0.040 A 
ATOM     88  C   UNL A   1      45.488  26.749  36.450  1.00  0.00     0.040 A 
ATOM     89  F   UNL A   1      43.159  27.011  36.518  1.00  0.00    -0.206 F 
ATOM     90  C   UNL A   1      46.745  27.197  36.052  1.00  0.00     0.006 A 
ENDBRANCH  66  83
ENDBRANCH  40  41
ENDBRANCH  32  35
ENDBRANCH  30  31
ENDBRANCH  29  30
ENDBRANCH  28  29
ENDBRANCH   1  28
TORSDOF 16
ENDMDL
MODEL 2
REMARK VINA RESULT:     -11.2      6.916     12.168
REMARK SMILES C/C(=N\[NH+]=C1/NC(=O)[C@@H](CC(=O)NCCCCCCNC(=O)c2ccc(-c3c4nc(c(-c5c(F)cccc5F)c5ccc([nH]5)c(-c5c(F)cccc5F)c5nc(c(-c6c(F)cccc6F)c6ccc3[nH]6)C=C5)C=C4)cc2)S1)c1ccc(Br)cc1
REMARK SMILES IDX 16 1 15 2 14 3 13 4 11 5 12 6 10 8 9 9 4 10 5 11 6 13 77 14
REMARK SMILES IDX 7 15 8 17 3 18 1 19 2 20 78 21 79 22 84 23 80 24 83 25 81 26
REMARK SMILES IDX 82 27 17 28 18 29 19 30 20 31 21 32 22 34 23 35 24 36 76 37
REMARK SMILES IDX 25 38 75 39 26 40 27 41 28 42 69 43 29 44 74 45 68 46 70 47
REMARK SMILES IDX 30 48 73 49 67 50 66 51 31 53 57 54 40 55 56 56 41 57 44 58
REMARK SMILES IDX 55 59 71 60 42 61 43 62 54 64 72 65 45 66 32 67 33 68 38 69
REMARK SMILES IDX 34 70 35 71 37 72 39 73 36 74 58 75 59 76 64 77 60 78 61 79
REMARK SMILES IDX 63 80 65 81 62 82 46 83 47 84 52 85 48 86 49 87 51 88 53 89
REMARK SMILES IDX 50 90
REMARK H PARENT 13 7 4 12 6 16 20 33 70 52 44 63
REMARK Flexibility Score: inf
ROOT
ATOM      1  C   UNL A   1      40.069  21.845  27.047  1.00  0.00     0.002 C 
ENDROOT
BRANCH   1   2
ATOM      2  C   UNL A   1      39.599  23.279  26.773  1.00  0.00     0.021 C 
BRANCH   2   3
ATOM      3  C   UNL A   1      38.217  23.353  26.126  1.00  0.00     0.116 C 
BRANCH   3   4
ATOM      4  N   UNL A   1      37.680  22.023  25.906  1.00  0.00    -0.356 N 
ATOM      5  C   UNL A   1      36.729  21.609  25.022  1.00  0.00     0.221 C 
ATOM      6  O   UNL A   1      36.368  20.435  25.038  1.00  0.00    -0.275 OA
ATOM      7  H   UNL A   1      38.058  21.317  26.478  1.00  0.00     0.163 HD
BRANCH   5   8
ATOM      8  C   UNL A   1      36.169  22.598  24.032  1.00  0.00     0.127 C 
BRANCH   8   9
ATOM      9  C   UNL A   1      34.657  22.676  24.162  1.00  0.00     0.183 C 
ATOM     10  N   UNL A   1      32.707  25.658  25.591  1.00  0.00    -0.142 N 
ATOM     11  C   UNL A   1      33.428  24.792  24.967  1.00  0.00     0.337 C 
ATOM     12  H   UNL A   1      32.580  25.645  26.567  1.00  0.00     0.343 HD
ATOM     13  N   UNL A   1      33.604  24.745  23.629  1.00  0.00    -0.202 N 
ATOM     14  S   UNL A   1      34.181  23.455  25.755  1.00  0.00    -0.020 SA
ATOM     15  C   UNL A   1      34.094  23.595  23.097  1.00  0.00     0.322 C 
ATOM     16  H   UNL A   1      33.386  25.518  23.059  1.00  0.00     0.316 HD
ATOM     17  O   UNL A   1      34.031  23.328  21.909  1.00  0.00    -0.246 OA
BRANCH  10  18
ATOM     18  N   UNL A   1      32.116  26.617  24.765  1.00  0.00    -0.090 NA
ATOM     19  C   UNL A   1      29.925  25.787  25.629  1.00  0.00     0.071 C 
ATOM     20  C   UNL A   1      30.818  26.731  24.837  1.00  0.00     0.088 C 
BRANCH  20  21
ATOM     21  C   UNL A   1      30.166  27.776  23.989  1.00  0.00    -0.000 A 
ATOM     22  C   UNL A   1      28.849  27.566  23.549  1.00  0.00     0.011 A 
ATOM     23  C   UNL A   1      30.832  28.949  23.617  1.00  0.00     0.011 A 
ATOM     24  C   UNL A   1      28.207  28.515  22.751  1.00  0.00     0.016 A 
ATOM     25  C   UNL A   1      30.191  29.896  22.812  1.00  0.00     0.016 A 
ATOM     26  C   UNL A   1      28.883  29.675  22.384  1.00  0.00     0.018 A 
ATOM     27  Br  UNL A   1      28.028  30.956  21.290  1.00  0.00    -0.051 Br
ENDBRANCH  20  21
ENDBRANCH  10  18
ENDBRANCH   8   9
ENDBRANCH   5   8
ENDBRANCH   3   4
ENDBRANCH   2   3
ENDBRANCH   1   2
BRANCH   1  28
ATOM     28  C   UNL A   1      41.229  21.378  26.163  1.00  0.00     0.002 C 
BRANCH  28  29
ATOM     29  C   UNL A   1      41.334  19.861  25.998  1.00  0.00     0.021 C 
BRANCH  29  30
ATOM     30  C   UNL A   1      42.650  19.271  26.492  1.00  0.00     0.116 C 
BRANCH  30  31
ATOM     31  N   UNL A   1      43.477  18.804  25.391  1.00  0.00    -0.352 N 
ATOM     32  C   UNL A   1      44.300  19.521  24.560  1.00  0.00     0.251 C 
ATOM     33  H   UNL A   1      43.443  17.835  25.216  1.00  0.00     0.163 HD
ATOM     34  O   UNL A   1      44.755  19.010  23.542  1.00  0.00    -0.269 OA
BRANCH  32  35
ATOM     35  C   UNL A   1      44.620  20.924  24.892  1.00  0.00     0.039 A 
ATOM     36  C   UNL A   1      44.293  21.928  23.978  1.00  0.00     0.014 A 
ATOM     37  C   UNL A   1      45.234  21.245  26.106  1.00  0.00     0.014 A 
ATOM     38  C   UNL A   1      44.525  23.264  24.311  1.00  0.00     0.010 A 
ATOM     39  C   UNL A   1      45.393  22.578  26.467  1.00  0.00     0.010 A 
ATOM     40  C   UNL A   1      45.042  23.601  25.573  1.00  0.00    -0.014 A 
BRANCH  40  41
ATOM     41  C   UNL A   1      45.215  25.017  25.981  1.00  0.00     0.031 A 
ATOM     42  C   UNL A   1      46.573  25.660  25.924  1.00  0.00     0.074 A 
ATOM     43  C   UNL A   1      44.161  25.704  26.464  1.00  0.00     0.049 A 
ATOM     44  N   UNL A   1      46.938  26.857  26.305  1.00  0.00    -0.248 NA
ATOM     45  C   UNL A   1      47.673  24.837  25.394  1.00  0.00     0.031 C 
ATOM     46  C   UNL A   1      42.803  25.178  26.609  1.00  0.00     0.029 A 
ATOM     47  N   UNL A   1      44.072  26.990  26.934  1.00  0.00    -0.354 N 
ATOM     48  C   UNL A   1      48.305  26.929  26.072  1.00  0.00     0.074 A 
ATOM     49  C   UNL A   1      48.716  25.635  25.572  1.00  0.00     0.031 C 
ATOM     50  C   UNL A   1      42.011  26.139  27.110  1.00  0.00     0.029 A 
ATOM     51  C   UNL A   1      42.812  27.332  27.364  1.00  0.00     0.049 A 
ATOM     52  H   UNL A   1      44.836  27.610  26.961  1.00  0.00     0.167 HD
ATOM     53  C   UNL A   1      49.138  27.982  26.239  1.00  0.00     0.037 A 
ATOM     54  C   UNL A   1      42.357  28.474  27.913  1.00  0.00     0.037 A 
ATOM     55  C   UNL A   1      48.722  29.272  26.725  1.00  0.00     0.049 A 
ATOM     56  C   UNL A   1      43.309  29.622  28.112  1.00  0.00     0.074 A 
ATOM     57  C   UNL A   1      49.478  30.421  26.876  1.00  0.00     0.029 A 
ATOM     58  N   UNL A   1      47.437  29.582  27.143  1.00  0.00    -0.354 N 
ATOM     59  N   UNL A   1      44.585  29.699  27.822  1.00  0.00    -0.248 NA
ATOM     60  C   UNL A   1      42.756  30.844  28.712  1.00  0.00     0.031 C 
ATOM     61  C   UNL A   1      48.664  31.410  27.439  1.00  0.00     0.029 A 
ATOM     62  C   UNL A   1      47.385  30.895  27.581  1.00  0.00     0.049 A 
ATOM     63  H   UNL A   1      46.672  28.960  27.131  1.00  0.00     0.167 HD
ATOM     64  C   UNL A   1      44.980  30.983  28.174  1.00  0.00     0.074 A 
ATOM     65  C   UNL A   1      43.804  31.655  28.687  1.00  0.00     0.031 C 
ATOM     66  C   UNL A   1      46.206  31.554  28.081  1.00  0.00     0.037 A 
BRANCH  53  67
ATOM     67  C   UNL A   1      50.587  27.784  25.897  1.00  0.00     0.057 A 
ATOM     68  C   UNL A   1      51.064  27.924  24.586  1.00  0.00     0.134 A 
ATOM     69  C   UNL A   1      51.524  27.484  26.894  1.00  0.00     0.134 A 
ATOM     70  F   UNL A   1      50.220  28.200  23.581  1.00  0.00    -0.206 F 
ATOM     71  C   UNL A   1      52.414  27.746  24.276  1.00  0.00     0.040 A 
ATOM     72  C   UNL A   1      52.881  27.335  26.601  1.00  0.00     0.040 A 
ATOM     73  F   UNL A   1      51.138  27.342  28.170  1.00  0.00    -0.206 F 
ATOM     74  C   UNL A   1      53.327  27.458  25.288  1.00  0.00     0.006 A 
ENDBRANCH  53  67
BRANCH  54  75
ATOM     75  C   UNL A   1      40.929  28.597  28.303  1.00  0.00     0.057 A 
ATOM     76  C   UNL A   1      39.962  29.018  27.383  1.00  0.00     0.134 A 
ATOM     77  C   UNL A   1      40.498  28.309  29.603  1.00  0.00     0.134 A 
ATOM     78  F   UNL A   1      40.315  29.326  26.126  1.00  0.00    -0.206 F 
ATOM     79  C   UNL A   1      38.623  29.171  27.746  1.00  0.00     0.040 A 
ATOM     80  C   UNL A   1      39.157  28.430  29.973  1.00  0.00     0.040 A 
ATOM     81  F   UNL A   1      41.373  27.891  30.531  1.00  0.00    -0.206 F 
ATOM     82  C   UNL A   1      38.217  28.872  29.045  1.00  0.00     0.006 A 
ENDBRANCH  54  75
BRANCH  66  83
ATOM     83  C   UNL A   1      46.331  32.990  28.504  1.00  0.00     0.057 A 
ATOM     84  C   UNL A   1      46.109  34.049  27.615  1.00  0.00     0.134 A 
ATOM     85  C   UNL A   1      46.637  33.315  29.833  1.00  0.00     0.134 A 
ATOM     86  F   UNL A   1      45.825  33.807  26.326  1.00  0.00    -0.206 F 
ATOM     87  C   UNL A   1      46.208  35.379  28.027  1.00  0.00     0.040 A 
ATOM     88  C   UNL A   1      46.709  34.640  30.262  1.00  0.00     0.040 A 
ATOM     89  F   UNL A   1      46.853  32.350  30.738  1.00  0.00    -0.206 F 
ATOM     90  C   UNL A   1      46.501  35.677  29.355  1.00  0.00     0.006 A 
ENDBRANCH  66  83
ENDBRANCH  40  41
ENDBRANCH  32  35
ENDBRANCH  30  31
ENDBRANCH  29  30
ENDBRANCH  28  29
ENDBRANCH   1  28
TORSDOF 16
ENDMDL
MODEL 3
REMARK VINA RESULT:     -11.2      3.897      9.111
REMARK SMILES C/C(=N\[NH+]=C1/NC(=O)[C@@H](CC(=O)NCCCCCCNC(=O)c2ccc(-c3c4nc(c(-c5c(F)cccc5F)c5ccc([nH]5)c(-c5c(F)cccc5F)c5nc(c(-c6c(F)cccc6F)c6ccc3[nH]6)C=C5)C=C4)cc2)S1)c1ccc(Br)cc1
REMARK SMILES IDX 16 1 15 2 14 3 13 4 11 5 12 6 10 8 9 9 4 10 5 11 6 13 77 14
REMARK SMILES IDX 7 15 8 17 3 18 1 19 2 20 78 21 79 22 84 23 80 24 83 25 81 26
REMARK SMILES IDX 82 27 17 28 18 29 19 30 20 31 21 32 22 34 23 35 24 36 76 37
REMARK SMILES IDX 25 38 75 39 26 40 27 41 28 42 69 43 29 44 74 45 68 46 70 47
REMARK SMILES IDX 30 48 73 49 67 50 66 51 31 53 57 54 40 55 56 56 41 57 44 58
REMARK SMILES IDX 55 59 71 60 42 61 43 62 54 64 72 65 45 66 32 67 33 68 38 69
REMARK SMILES IDX 34 70 35 71 37 72 39 73 36 74 58 75 59 76 64 77 60 78 61 79
REMARK SMILES IDX 63 80 65 81 62 82 46 83 47 84 52 85 48 86 49 87 51 88 53 89
REMARK SMILES IDX 50 90
REMARK H PARENT 13 7 4 12 6 16 20 33 70 52 44 63
REMARK Flexibility Score: inf
ROOT
ATOM      1  C   UNL A   1      41.046  21.407  27.311  1.00  0.00     0.002 C 
ENDROOT
BRANCH   1   2
ATOM      2  C   UNL A   1      40.366  22.753  27.588  1.00  0.00     0.021 C 
BRANCH   2   3
ATOM      3  C   UNL A   1      39.390  23.178  26.491  1.00  0.00     0.116 C 
BRANCH   3   4
ATOM      4  N   UNL A   1      38.903  22.023  25.760  1.00  0.00    -0.356 N 
ATOM      5  C   UNL A   1      37.779  21.890  25.002  1.00  0.00     0.221 C 
ATOM      6  O   UNL A   1      37.513  20.795  24.512  1.00  0.00    -0.275 OA
ATOM      7  H   UNL A   1      39.466  21.218  25.821  1.00  0.00     0.163 HD
BRANCH   5   8
ATOM      8  C   UNL A   1      36.909  23.098  24.763  1.00  0.00     0.127 C 
BRANCH   8   9
ATOM      9  C   UNL A   1      35.441  22.713  24.831  1.00  0.00     0.183 C 
ATOM     10  N   UNL A   1      32.628  24.933  26.209  1.00  0.00    -0.142 N 
ATOM     11  C   UNL A   1      33.600  24.340  25.606  1.00  0.00     0.337 C 
ATOM     12  H   UNL A   1      32.476  24.861  27.179  1.00  0.00     0.343 HD
ATOM     13  N   UNL A   1      33.831  24.379  24.277  1.00  0.00    -0.202 N 
ATOM     14  S   UNL A   1      34.694  23.275  26.411  1.00  0.00    -0.020 SA
ATOM     15  C   UNL A   1      34.665  23.443  23.753  1.00  0.00     0.322 C 
ATOM     16  H   UNL A   1      33.410  25.062  23.706  1.00  0.00     0.316 HD
ATOM     17  O   UNL A   1      34.729  23.197  22.561  1.00  0.00    -0.246 OA
BRANCH  10  18
ATOM     18  N   UNL A   1      31.806  25.687  25.369  1.00  0.00    -0.090 NA
ATOM     19  C   UNL A   1      32.352  27.632  26.838  1.00  0.00     0.071 C 
ATOM     20  C   UNL A   1      31.735  26.967  25.617  1.00  0.00     0.088 C 
BRANCH  20  21
ATOM     21  C   UNL A   1      30.889  27.802  24.709  1.00  0.00    -0.000 A 
ATOM     22  C   UNL A   1      29.920  27.169  23.914  1.00  0.00     0.011 A 
ATOM     23  C   UNL A   1      31.041  29.191  24.625  1.00  0.00     0.011 A 
ATOM     24  C   UNL A   1      29.114  27.913  23.050  1.00  0.00     0.016 A 
ATOM     25  C   UNL A   1      30.238  29.934  23.754  1.00  0.00     0.016 A 
ATOM     26  C   UNL A   1      29.279  29.292  22.972  1.00  0.00     0.018 A 
ATOM     27  Br  UNL A   1      28.204  30.304  21.793  1.00  0.00    -0.051 Br
ENDBRANCH  20  21
ENDBRANCH  10  18
ENDBRANCH   8   9
ENDBRANCH   5   8
ENDBRANCH   3   4
ENDBRANCH   2   3
ENDBRANCH   1   2
BRANCH   1  28
ATOM     28  C   UNL A   1      42.571  21.481  27.184  1.00  0.00     0.002 C 
BRANCH  28  29
ATOM     29  C   UNL A   1      43.086  21.616  25.750  1.00  0.00     0.021 C 
BRANCH  29  30
ATOM     30  C   UNL A   1      42.941  23.018  25.168  1.00  0.00     0.116 C 
BRANCH  30  31
ATOM     31  N   UNL A   1      44.232  23.598  24.834  1.00  0.00    -0.352 N 
ATOM     32  C   UNL A   1      44.749  24.821  25.182  1.00  0.00     0.251 C 
ATOM     33  H   UNL A   1      44.819  23.034  24.279  1.00  0.00     0.163 HD
ATOM     34  O   UNL A   1      45.760  25.247  24.634  1.00  0.00    -0.269 OA
BRANCH  32  35
ATOM     35  C   UNL A   1      44.066  25.630  26.211  1.00  0.00     0.039 A 
ATOM     36  C   UNL A   1      43.300  24.984  27.183  1.00  0.00     0.014 A 
ATOM     37  C   UNL A   1      44.191  27.022  26.218  1.00  0.00     0.014 A 
ATOM     38  C   UNL A   1      42.708  25.733  28.202  1.00  0.00     0.010 A 
ATOM     39  C   UNL A   1      43.666  27.757  27.276  1.00  0.00     0.010 A 
ATOM     40  C   UNL A   1      42.918  27.120  28.278  1.00  0.00    -0.014 A 
BRANCH  40  41
ATOM     41  C   UNL A   1      42.371  27.921  29.400  1.00  0.00     0.031 A 
ATOM     42  C   UNL A   1      43.039  27.891  30.747  1.00  0.00     0.074 A 
ATOM     43  C   UNL A   1      41.234  28.622  29.225  1.00  0.00     0.049 A 
ATOM     44  N   UNL A   1      42.671  28.462  31.865  1.00  0.00    -0.248 NA
ATOM     45  C   UNL A   1      44.270  27.092  30.857  1.00  0.00     0.031 C 
ATOM     46  C   UNL A   1      40.469  28.696  27.978  1.00  0.00     0.029 A 
ATOM     47  N   UNL A   1      40.518  29.398  30.100  1.00  0.00    -0.354 N 
ATOM     48  C   UNL A   1      43.615  28.084  32.811  1.00  0.00     0.074 A 
ATOM     49  C   UNL A   1      44.539  27.188  32.151  1.00  0.00     0.031 C 
ATOM     50  C   UNL A   1      39.404  29.491  28.164  1.00  0.00     0.029 A 
ATOM     51  C   UNL A   1      39.385  29.947  29.550  1.00  0.00     0.049 A 
ATOM     52  H   UNL A   1      40.788  29.548  31.035  1.00  0.00     0.167 HD
ATOM     53  C   UNL A   1      43.714  28.465  34.106  1.00  0.00     0.037 A 
ATOM     54  C   UNL A   1      38.431  30.720  30.103  1.00  0.00     0.037 A 
ATOM     55  C   UNL A   1      42.800  29.368  34.755  1.00  0.00     0.049 A 
ATOM     56  C   UNL A   1      38.551  31.109  31.551  1.00  0.00     0.074 A 
ATOM     57  C   UNL A   1      42.847  29.860  36.047  1.00  0.00     0.029 A 
ATOM     58  N   UNL A   1      41.669  29.908  34.162  1.00  0.00    -0.354 N 
ATOM     59  N   UNL A   1      39.487  30.801  32.416  1.00  0.00    -0.248 NA
ATOM     60  C   UNL A   1      37.483  31.957  32.099  1.00  0.00     0.031 C 
ATOM     61  C   UNL A   1      41.713  30.654  36.255  1.00  0.00     0.029 A 
ATOM     62  C   UNL A   1      40.993  30.706  35.071  1.00  0.00     0.049 A 
ATOM     63  H   UNL A   1      41.387  29.749  33.232  1.00  0.00     0.167 HD
ATOM     64  C   UNL A   1      39.139  31.440  33.598  1.00  0.00     0.074 A 
ATOM     65  C   UNL A   1      37.913  32.165  33.336  1.00  0.00     0.031 C 
ATOM     66  C   UNL A   1      39.778  31.428  34.794  1.00  0.00     0.037 A 
BRANCH  53  67
ATOM     67  C   UNL A   1      44.852  27.904  34.910  1.00  0.00     0.057 A 
ATOM     68  C   UNL A   1      44.705  26.756  35.701  1.00  0.00     0.134 A 
ATOM     69  C   UNL A   1      46.121  28.496  34.865  1.00  0.00     0.134 A 
ATOM     70  F   UNL A   1      43.515  26.145  35.797  1.00  0.00    -0.206 F 
ATOM     71  C   UNL A   1      45.769  26.235  36.439  1.00  0.00     0.040 A 
ATOM     72  C   UNL A   1      47.201  27.967  35.574  1.00  0.00     0.040 A 
ATOM     73  F   UNL A   1      46.335  29.594  34.124  1.00  0.00    -0.206 F 
ATOM     74  C   UNL A   1      47.024  26.837  36.370  1.00  0.00     0.006 A 
ENDBRANCH  53  67
BRANCH  54  75
ATOM     75  C   UNL A   1      37.284  31.191  29.284  1.00  0.00     0.057 A 
ATOM     76  C   UNL A   1      37.256  32.488  28.758  1.00  0.00     0.134 A 
ATOM     77  C   UNL A   1      36.187  30.364  29.017  1.00  0.00     0.134 A 
ATOM     78  F   UNL A   1      38.269  33.334  28.993  1.00  0.00    -0.206 F 
ATOM     79  C   UNL A   1      36.168  32.953  28.016  1.00  0.00     0.040 A 
ATOM     80  C   UNL A   1      35.105  30.806  28.253  1.00  0.00     0.040 A 
ATOM     81  F   UNL A   1      36.157  29.106  29.484  1.00  0.00    -0.206 F 
ATOM     82  C   UNL A   1      35.090  32.109  27.759  1.00  0.00     0.006 A 
ENDBRANCH  54  75
BRANCH  66  83
ATOM     83  C   UNL A   1      39.186  32.255  35.900  1.00  0.00     0.057 A 
ATOM     84  C   UNL A   1      38.272  31.724  36.818  1.00  0.00     0.134 A 
ATOM     85  C   UNL A   1      39.572  33.591  36.072  1.00  0.00     0.134 A 
ATOM     86  F   UNL A   1      37.851  30.455  36.702  1.00  0.00    -0.206 F 
ATOM     87  C   UNL A   1      37.746  32.498  37.854  1.00  0.00     0.040 A 
ATOM     88  C   UNL A   1      39.077  34.365  37.122  1.00  0.00     0.040 A 
ATOM     89  F   UNL A   1      40.451  34.161  35.234  1.00  0.00    -0.206 F 
ATOM     90  C   UNL A   1      38.155  33.820  38.012  1.00  0.00     0.006 A 
ENDBRANCH  66  83
ENDBRANCH  40  41
ENDBRANCH  32  35
ENDBRANCH  30  31
ENDBRANCH  29  30
ENDBRANCH  28  29
ENDBRANCH   1  28
TORSDOF 16
ENDMDL
