MODEL 1
REMARK VINA RESULT:     -12.8      0.000      0.000
REMARK SMILES O=C1O[C@@H](c2ccc(O)c(O)c2)[C@H](C(=O)NCCCCCCNC(=O)c2ccc(-c3c4nc(c(-c5c(F)cccc5F)c5ccc([nH]5)c(-c5c(F)cccc5F)c5nc(c(-c6c(F)cccc6F)c6ccc3[nH]6)C=C5)C=C4)cc2)/C1=C\c1ccc(O)c(O)c1
REMARK SMILES IDX 19 1 18 2 17 3 16 4 14 5 15 6 13 8 1 9 2 10 3 11 80 12 4 13
REMARK SMILES IDX 81 14 5 15 6 16 12 17 7 18 10 19 8 20 11 21 9 23 82 25 83 26
REMARK SMILES IDX 89 27 84 28 87 29 85 30 88 31 86 33 20 35 21 36 22 37 23 38
REMARK SMILES IDX 24 39 25 41 26 42 27 43 79 44 28 45 78 46 29 47 30 48 31 49
REMARK SMILES IDX 72 50 32 51 77 52 71 53 73 54 33 55 76 56 70 57 69 58 34 60
REMARK SMILES IDX 60 61 43 62 59 63 44 64 47 65 58 66 74 67 45 68 46 69 57 71
REMARK SMILES IDX 75 72 48 73 35 74 36 75 41 76 37 77 38 78 40 79 42 80 39 81
REMARK SMILES IDX 61 82 62 83 67 84 63 85 64 86 66 87 68 88 65 89 49 90 50 91
REMARK SMILES IDX 55 92 51 93 52 94 54 95 56 96 53 97
REMARK H PARENT 16 7 11 22 9 24 88 32 86 34 23 40 73 59 47 70
REMARK Flexibility Score: inf
ROOT
ATOM      1  C   UNL A   1      37.414  21.956  24.641  1.00  0.00     0.002 C 
ENDROOT
BRANCH   1   2
ATOM      2  C   UNL A   1      36.667  22.716  23.546  1.00  0.00     0.021 C 
BRANCH   2   3
ATOM      3  C   UNL A   1      36.031  24.020  24.004  1.00  0.00     0.116 C 
BRANCH   3   4
ATOM      4  N   UNL A   1      35.733  24.050  25.420  1.00  0.00    -0.355 N 
ATOM      5  C   UNL A   1      34.727  23.457  26.130  1.00  0.00     0.231 C 
ATOM      6  O   UNL A   1      34.803  23.532  27.357  1.00  0.00    -0.274 OA
ATOM      7  H   UNL A   1      36.357  24.585  25.960  1.00  0.00     0.163 HD
BRANCH   5   8
ATOM      8  C   UNL A   1      33.530  22.823  25.410  1.00  0.00     0.161 C 
ATOM      9  O   UNL A   1      30.686  23.117  27.554  1.00  0.00    -0.247 OA
ATOM     10  C   UNL A   1      31.618  22.755  26.857  1.00  0.00     0.335 C 
ATOM     11  O   UNL A   1      32.233  21.550  26.936  1.00  0.00    -0.453 OA
ATOM     12  C   UNL A   1      32.262  23.522  25.777  1.00  0.00     0.054 C 
ATOM     13  C   UNL A   1      33.219  21.411  25.898  1.00  0.00     0.224 C 
ATOM     14  C   UNL A   1      31.678  24.628  25.296  1.00  0.00     0.020 C 
BRANCH  13  15
ATOM     15  C   UNL A   1      32.760  20.434  24.809  1.00  0.00    -0.002 A 
ATOM     16  C   UNL A   1      32.453  20.879  23.503  1.00  0.00     0.012 A 
ATOM     17  C   UNL A   1      32.725  19.051  25.051  1.00  0.00     0.057 A 
ATOM     18  C   UNL A   1      32.149  19.985  22.470  1.00  0.00     0.050 A 
ATOM     19  C   UNL A   1      32.399  18.170  24.025  1.00  0.00     0.157 A 
ATOM     20  C   UNL A   1      32.125  18.628  22.741  1.00  0.00     0.157 A 
BRANCH  19  21
ATOM     21  O   UNL A   1      32.360  16.830  24.287  1.00  0.00    -0.504 OA
ATOM     22  H   UNL A   1      31.541  16.376  24.288  1.00  0.00     0.293 HD
ENDBRANCH  19  21
BRANCH  20  23
ATOM     23  O   UNL A   1      31.842  17.703  21.776  1.00  0.00    -0.504 OA
ATOM     24  H   UNL A   1      30.952  17.516  21.552  1.00  0.00     0.293 HD
ENDBRANCH  20  23
ENDBRANCH  13  15
BRANCH  14  25
ATOM     25  C   UNL A   1      32.229  25.451  24.222  1.00  0.00    -0.021 A 
ATOM     26  C   UNL A   1      33.201  26.429  24.486  1.00  0.00     0.012 A 
ATOM     27  C   UNL A   1      31.808  25.231  22.907  1.00  0.00     0.058 A 
ATOM     28  C   UNL A   1      33.730  27.205  23.450  1.00  0.00     0.051 A 
ATOM     29  C   UNL A   1      32.345  25.999  21.883  1.00  0.00     0.157 A 
ATOM     30  C   UNL A   1      33.294  26.982  22.150  1.00  0.00     0.157 A 
BRANCH  29  31
ATOM     31  O   UNL A   1      31.936  25.779  20.599  1.00  0.00    -0.504 OA
ATOM     32  H   UNL A   1      31.615  24.935  20.348  1.00  0.00     0.293 HD
ENDBRANCH  29  31
BRANCH  30  33
ATOM     33  O   UNL A   1      33.775  27.705  21.095  1.00  0.00    -0.504 OA
ATOM     34  H   UNL A   1      33.240  28.362  20.693  1.00  0.00     0.293 HD
ENDBRANCH  30  33
ENDBRANCH  14  25
ENDBRANCH   5   8
ENDBRANCH   3   4
ENDBRANCH   2   3
ENDBRANCH   1   2
BRANCH   1  35
ATOM     35  C   UNL A   1      36.945  20.515  24.871  1.00  0.00     0.002 C 
BRANCH  35  36
ATOM     36  C   UNL A   1      38.062  19.478  25.013  1.00  0.00     0.021 C 
BRANCH  36  37
ATOM     37  C   UNL A   1      39.317  19.984  25.712  1.00  0.00     0.116 C 
BRANCH  37  38
ATOM     38  N   UNL A   1      40.324  18.945  25.853  1.00  0.00    -0.352 N 
ATOM     39  C   UNL A   1      41.671  19.070  26.082  1.00  0.00     0.251 C 
ATOM     40  H   UNL A   1      39.993  18.021  25.773  1.00  0.00     0.163 HD
ATOM     41  O   UNL A   1      42.410  18.096  25.982  1.00  0.00    -0.269 OA
BRANCH  39  42
ATOM     42  C   UNL A   1      42.231  20.391  26.434  1.00  0.00     0.039 A 
ATOM     43  C   UNL A   1      42.756  21.196  25.420  1.00  0.00     0.014 A 
ATOM     44  C   UNL A   1      42.239  20.831  27.760  1.00  0.00     0.014 A 
ATOM     45  C   UNL A   1      43.237  22.470  25.731  1.00  0.00     0.010 A 
ATOM     46  C   UNL A   1      42.644  22.128  28.055  1.00  0.00     0.010 A 
ATOM     47  C   UNL A   1      43.156  22.957  27.045  1.00  0.00    -0.014 A 
BRANCH  47  48
ATOM     48  C   UNL A   1      43.617  24.325  27.392  1.00  0.00     0.031 A 
ATOM     49  C   UNL A   1      42.619  25.368  27.816  1.00  0.00     0.074 A 
ATOM     50  C   UNL A   1      44.918  24.648  27.261  1.00  0.00     0.049 A 
ATOM     51  N   UNL A   1      42.806  26.638  28.070  1.00  0.00    -0.248 NA
ATOM     52  C   UNL A   1      41.219  24.931  27.942  1.00  0.00     0.031 C 
ATOM     53  C   UNL A   1      45.977  23.736  26.823  1.00  0.00     0.029 A 
ATOM     54  N   UNL A   1      45.570  25.837  27.474  1.00  0.00    -0.354 N 
ATOM     55  C   UNL A   1      41.551  27.151  28.373  1.00  0.00     0.074 A 
ATOM     56  C   UNL A   1      40.602  26.072  28.209  1.00  0.00     0.031 C 
ATOM     57  C   UNL A   1      47.148  24.394  26.821  1.00  0.00     0.029 A 
ATOM     58  C   UNL A   1      46.918  25.780  27.213  1.00  0.00     0.049 A 
ATOM     59  H   UNL A   1      45.114  26.653  27.784  1.00  0.00     0.167 HD
ATOM     60  C   UNL A   1      41.222  28.402  28.773  1.00  0.00     0.037 A 
ATOM     61  C   UNL A   1      47.859  26.743  27.271  1.00  0.00     0.037 A 
ATOM     62  C   UNL A   1      42.172  29.467  28.954  1.00  0.00     0.049 A 
ATOM     63  C   UNL A   1      47.463  28.131  27.694  1.00  0.00     0.074 A 
ATOM     64  C   UNL A   1      41.946  30.756  29.404  1.00  0.00     0.029 A 
ATOM     65  N   UNL A   1      43.531  29.367  28.690  1.00  0.00    -0.354 N 
ATOM     66  N   UNL A   1      46.282  28.588  28.033  1.00  0.00    -0.248 NA
ATOM     67  C   UNL A   1      48.534  29.136  27.750  1.00  0.00     0.031 C 
ATOM     68  C   UNL A   1      43.159  31.452  29.363  1.00  0.00     0.029 A 
ATOM     69  C   UNL A   1      44.151  30.579  28.946  1.00  0.00     0.049 A 
ATOM     70  H   UNL A   1      43.987  28.555  28.371  1.00  0.00     0.167 HD
ATOM     71  C   UNL A   1      46.473  29.920  28.377  1.00  0.00     0.074 A 
ATOM     72  C   UNL A   1      47.885  30.195  28.214  1.00  0.00     0.031 C 
ATOM     73  C   UNL A   1      45.562  30.834  28.793  1.00  0.00     0.037 A 
BRANCH  60  74
ATOM     74  C   UNL A   1      39.771  28.685  29.042  1.00  0.00     0.057 A 
ATOM     75  C   UNL A   1      39.200  28.492  30.308  1.00  0.00     0.134 A 
ATOM     76  C   UNL A   1      38.941  29.186  28.031  1.00  0.00     0.134 A 
ATOM     77  F   UNL A   1      39.935  28.003  31.318  1.00  0.00    -0.206 F 
ATOM     78  C   UNL A   1      37.852  28.759  30.551  1.00  0.00     0.040 A 
ATOM     79  C   UNL A   1      37.598  29.487  28.270  1.00  0.00     0.040 A 
ATOM     80  F   UNL A   1      39.421  29.401  26.798  1.00  0.00    -0.206 F 
ATOM     81  C   UNL A   1      37.048  29.266  29.531  1.00  0.00     0.006 A 
ENDBRANCH  60  74
BRANCH  61  82
ATOM     82  C   UNL A   1      49.271  26.426  26.935  1.00  0.00     0.057 A 
ATOM     83  C   UNL A   1      49.765  26.611  25.639  1.00  0.00     0.134 A 
ATOM     84  C   UNL A   1      50.156  25.919  27.895  1.00  0.00     0.134 A 
ATOM     85  F   UNL A   1      48.961  27.077  24.671  1.00  0.00    -0.206 F 
ATOM     86  C   UNL A   1      51.078  26.278  25.300  1.00  0.00     0.040 A 
ATOM     87  C   UNL A   1      51.480  25.609  27.577  1.00  0.00     0.040 A 
ATOM     88  F   UNL A   1      49.749  25.728  29.159  1.00  0.00    -0.206 F 
ATOM     89  C   UNL A   1      51.940  25.780  26.273  1.00  0.00     0.006 A 
ENDBRANCH  61  82
BRANCH  73  90
ATOM     90  C   UNL A   1      46.067  32.201  29.152  1.00  0.00     0.057 A 
ATOM     91  C   UNL A   1      46.120  33.244  28.219  1.00  0.00     0.134 A 
ATOM     92  C   UNL A   1      46.463  32.488  30.466  1.00  0.00     0.134 A 
ATOM     93  F   UNL A   1      45.767  33.035  26.942  1.00  0.00    -0.206 F 
ATOM     94  C   UNL A   1      46.571  34.517  28.574  1.00  0.00     0.040 A 
ATOM     95  C   UNL A   1      46.886  33.763  30.839  1.00  0.00     0.040 A 
ATOM     96  F   UNL A   1      46.428  31.537  31.411  1.00  0.00    -0.206 F 
ATOM     97  C   UNL A   1      46.947  34.781  29.891  1.00  0.00     0.006 A 
ENDBRANCH  73  90
ENDBRANCH  47  48
ENDBRANCH  39  42
ENDBRANCH  37  38
ENDBRANCH  36  37
ENDBRANCH  35  36
ENDBRANCH   1  35
TORSDOF 19
ENDMDL
MODEL 2
REMARK VINA RESULT:     -12.8      1.272      6.090
REMARK SMILES O=C1O[C@@H](c2ccc(O)c(O)c2)[C@H](C(=O)NCCCCCCNC(=O)c2ccc(-c3c4nc(c(-c5c(F)cccc5F)c5ccc([nH]5)c(-c5c(F)cccc5F)c5nc(c(-c6c(F)cccc6F)c6ccc3[nH]6)C=C5)C=C4)cc2)/C1=C\c1ccc(O)c(O)c1
REMARK SMILES IDX 19 1 18 2 17 3 16 4 14 5 15 6 13 8 1 9 2 10 3 11 80 12 4 13
REMARK SMILES IDX 81 14 5 15 6 16 12 17 7 18 10 19 8 20 11 21 9 23 82 25 83 26
REMARK SMILES IDX 89 27 84 28 87 29 85 30 88 31 86 33 20 35 21 36 22 37 23 38
REMARK SMILES IDX 24 39 25 41 26 42 27 43 79 44 28 45 78 46 29 47 30 48 31 49
REMARK SMILES IDX 72 50 32 51 77 52 71 53 73 54 33 55 76 56 70 57 69 58 34 60
REMARK SMILES IDX 60 61 43 62 59 63 44 64 47 65 58 66 74 67 45 68 46 69 57 71
REMARK SMILES IDX 75 72 48 73 35 74 36 75 41 76 37 77 38 78 40 79 42 80 39 81
REMARK SMILES IDX 61 82 62 83 67 84 63 85 64 86 66 87 68 88 65 89 49 90 50 91
REMARK SMILES IDX 55 92 51 93 52 94 54 95 56 96 53 97
REMARK H PARENT 16 7 11 22 9 24 88 32 86 34 23 40 73 59 47 70
REMARK Flexibility Score: inf
ROOT
ATOM      1  C   UNL A   1      37.294  21.860  24.426  1.00  0.00     0.002 C 
ENDROOT
BRANCH   1   2
ATOM      2  C   UNL A   1      36.413  22.653  23.462  1.00  0.00     0.021 C 
BRANCH   2   3
ATOM      3  C   UNL A   1      36.005  24.030  23.966  1.00  0.00     0.116 C 
BRANCH   3   4
ATOM      4  N   UNL A   1      35.708  24.061  25.382  1.00  0.00    -0.355 N 
ATOM      5  C   UNL A   1      34.704  23.466  26.094  1.00  0.00     0.231 C 
ATOM      6  O   UNL A   1      34.781  23.543  27.321  1.00  0.00    -0.274 OA
ATOM      7  H   UNL A   1      36.332  24.598  25.921  1.00  0.00     0.163 HD
BRANCH   5   8
ATOM      8  C   UNL A   1      33.508  22.829  25.375  1.00  0.00     0.161 C 
ATOM      9  O   UNL A   1      30.665  23.118  27.521  1.00  0.00    -0.247 OA
ATOM     10  C   UNL A   1      31.597  22.758  26.824  1.00  0.00     0.335 C 
ATOM     11  O   UNL A   1      32.215  21.555  26.904  1.00  0.00    -0.453 OA
ATOM     12  C   UNL A   1      32.239  23.525  25.742  1.00  0.00     0.054 C 
ATOM     13  C   UNL A   1      33.200  21.416  25.865  1.00  0.00     0.224 C 
ATOM     14  C   UNL A   1      31.652  24.629  25.260  1.00  0.00     0.020 C 
BRANCH  13  15
ATOM     15  C   UNL A   1      32.744  20.436  24.778  1.00  0.00    -0.002 A 
ATOM     16  C   UNL A   1      32.454  20.876  23.466  1.00  0.00     0.012 A 
ATOM     17  C   UNL A   1      32.693  19.056  25.028  1.00  0.00     0.057 A 
ATOM     18  C   UNL A   1      32.152  19.979  22.436  1.00  0.00     0.050 A 
ATOM     19  C   UNL A   1      32.368  18.172  24.004  1.00  0.00     0.157 A 
ATOM     20  C   UNL A   1      32.111  18.624  22.715  1.00  0.00     0.157 A 
BRANCH  19  21
ATOM     21  O   UNL A   1      32.314  16.834  24.274  1.00  0.00    -0.504 OA
ATOM     22  H   UNL A   1      32.636  16.507  25.090  1.00  0.00     0.293 HD
ENDBRANCH  19  21
BRANCH  20  23
ATOM     23  O   UNL A   1      31.830  17.696  21.753  1.00  0.00    -0.504 OA
ATOM     24  H   UNL A   1      31.003  17.255  21.755  1.00  0.00     0.293 HD
ENDBRANCH  20  23
ENDBRANCH  13  15
BRANCH  14  25
ATOM     25  C   UNL A   1      32.200  25.452  24.184  1.00  0.00    -0.021 A 
ATOM     26  C   UNL A   1      33.155  26.446  24.450  1.00  0.00     0.012 A 
ATOM     27  C   UNL A   1      31.794  25.216  22.867  1.00  0.00     0.058 A 
ATOM     28  C   UNL A   1      33.682  27.222  23.413  1.00  0.00     0.051 A 
ATOM     29  C   UNL A   1      32.329  25.984  21.843  1.00  0.00     0.157 A 
ATOM     30  C   UNL A   1      33.261  26.983  22.110  1.00  0.00     0.157 A 
BRANCH  29  31
ATOM     31  O   UNL A   1      31.935  25.748  20.557  1.00  0.00    -0.504 OA
ATOM     32  H   UNL A   1      32.157  24.939  20.140  1.00  0.00     0.293 HD
ENDBRANCH  29  31
BRANCH  30  33
ATOM     33  O   UNL A   1      33.741  27.704  21.054  1.00  0.00    -0.504 OA
ATOM     34  H   UNL A   1      33.518  28.611  20.965  1.00  0.00     0.293 HD
ENDBRANCH  30  33
ENDBRANCH  14  25
ENDBRANCH   5   8
ENDBRANCH   3   4
ENDBRANCH   2   3
ENDBRANCH   1   2
BRANCH   1  35
ATOM     35  C   UNL A   1      36.841  20.421  24.692  1.00  0.00     0.002 C 
BRANCH  35  36
ATOM     36  C   UNL A   1      37.957  19.437  25.051  1.00  0.00     0.021 C 
BRANCH  36  37
ATOM     37  C   UNL A   1      39.178  20.071  25.706  1.00  0.00     0.116 C 
BRANCH  37  38
ATOM     38  N   UNL A   1      40.294  19.145  25.798  1.00  0.00    -0.352 N 
ATOM     39  C   UNL A   1      41.611  19.402  26.085  1.00  0.00     0.251 C 
ATOM     40  H   UNL A   1      40.075  18.200  25.630  1.00  0.00     0.163 HD
ATOM     41  O   UNL A   1      42.460  18.530  25.933  1.00  0.00    -0.269 OA
BRANCH  39  42
ATOM     42  C   UNL A   1      42.005  20.743  26.565  1.00  0.00     0.039 A 
ATOM     43  C   UNL A   1      42.476  21.681  25.642  1.00  0.00     0.014 A 
ATOM     44  C   UNL A   1      41.909  21.071  27.919  1.00  0.00     0.014 A 
ATOM     45  C   UNL A   1      42.798  22.969  26.074  1.00  0.00     0.010 A 
ATOM     46  C   UNL A   1      42.153  22.376  28.332  1.00  0.00     0.010 A 
ATOM     47  C   UNL A   1      42.610  23.336  27.416  1.00  0.00    -0.014 A 
BRANCH  47  48
ATOM     48  C   UNL A   1      42.899  24.713  27.890  1.00  0.00     0.031 A 
ATOM     49  C   UNL A   1      44.307  25.103  28.248  1.00  0.00     0.074 A 
ATOM     50  C   UNL A   1      41.890  25.588  28.062  1.00  0.00     0.049 A 
ATOM     51  N   UNL A   1      44.750  26.220  28.765  1.00  0.00    -0.248 NA
ATOM     52  C   UNL A   1      45.351  24.091  28.022  1.00  0.00     0.031 C 
ATOM     53  C   UNL A   1      40.477  25.318  27.786  1.00  0.00     0.029 A 
ATOM     54  N   UNL A   1      41.897  26.881  28.522  1.00  0.00    -0.354 N 
ATOM     55  C   UNL A   1      46.117  26.040  28.937  1.00  0.00     0.074 A 
ATOM     56  C   UNL A   1      46.420  24.687  28.528  1.00  0.00     0.031 C 
ATOM     57  C   UNL A   1      39.759  26.418  28.062  1.00  0.00     0.029 A 
ATOM     58  C   UNL A   1      40.649  27.454  28.575  1.00  0.00     0.049 A 
ATOM     59  H   UNL A   1      42.719  27.353  28.790  1.00  0.00     0.167 HD
ATOM     60  C   UNL A   1      47.040  26.930  29.373  1.00  0.00     0.037 A 
ATOM     61  C   UNL A   1      40.266  28.673  29.001  1.00  0.00     0.037 A 
ATOM     62  C   UNL A   1      46.737  28.283  29.758  1.00  0.00     0.049 A 
ATOM     63  C   UNL A   1      41.308  29.635  29.504  1.00  0.00     0.074 A 
ATOM     64  C   UNL A   1      47.607  29.278  30.167  1.00  0.00     0.029 A 
ATOM     65  N   UNL A   1      45.462  28.830  29.786  1.00  0.00    -0.354 N 
ATOM     66  N   UNL A   1      42.604  29.472  29.607  1.00  0.00    -0.248 NA
ATOM     67  C   UNL A   1      40.832  30.954  29.945  1.00  0.00     0.031 C 
ATOM     68  C   UNL A   1      46.854  30.411  30.493  1.00  0.00     0.029 A 
ATOM     69  C   UNL A   1      45.520  30.141  30.229  1.00  0.00     0.049 A 
ATOM     70  H   UNL A   1      44.638  28.356  29.529  1.00  0.00     0.167 HD
ATOM     71  C   UNL A   1      43.103  30.676  30.087  1.00  0.00     0.074 A 
ATOM     72  C   UNL A   1      41.970  31.563  30.248  1.00  0.00     0.031 C 
ATOM     73  C   UNL A   1      44.385  31.018  30.369  1.00  0.00     0.037 A 
BRANCH  60  74
ATOM     74  C   UNL A   1      48.466  26.466  29.456  1.00  0.00     0.057 A 
ATOM     75  C   UNL A   1      49.356  26.608  28.381  1.00  0.00     0.134 A 
ATOM     76  C   UNL A   1      48.966  25.898  30.634  1.00  0.00     0.134 A 
ATOM     77  F   UNL A   1      48.940  27.132  27.219  1.00  0.00    -0.206 F 
ATOM     78  C   UNL A   1      50.680  26.175  28.466  1.00  0.00     0.040 A 
ATOM     79  C   UNL A   1      50.297  25.491  30.742  1.00  0.00     0.040 A 
ATOM     80  F   UNL A   1      48.173  25.737  31.703  1.00  0.00    -0.206 F 
ATOM     81  C   UNL A   1      51.157  25.622  29.653  1.00  0.00     0.006 A 
ENDBRANCH  60  74
BRANCH  61  82
ATOM     82  C   UNL A   1      38.833  29.063  28.956  1.00  0.00     0.057 A 
ATOM     83  C   UNL A   1      38.018  28.952  30.088  1.00  0.00     0.134 A 
ATOM     84  C   UNL A   1      38.241  29.541  27.780  1.00  0.00     0.134 A 
ATOM     85  F   UNL A   1      38.523  28.485  31.239  1.00  0.00    -0.206 F 
ATOM     86  C   UNL A   1      36.660  29.275  30.048  1.00  0.00     0.040 A 
ATOM     87  C   UNL A   1      36.891  29.896  27.734  1.00  0.00     0.040 A 
ATOM     88  F   UNL A   1      38.969  29.681  26.662  1.00  0.00    -0.206 F 
ATOM     89  C   UNL A   1      36.095  29.753  28.869  1.00  0.00     0.006 A 
ENDBRANCH  61  82
BRANCH  73  90
ATOM     90  C   UNL A   1      44.641  32.424  30.829  1.00  0.00     0.057 A 
ATOM     91  C   UNL A   1      44.676  32.769  32.185  1.00  0.00     0.134 A 
ATOM     92  C   UNL A   1      44.902  33.437  29.896  1.00  0.00     0.134 A 
ATOM     93  F   UNL A   1      44.424  31.850  33.129  1.00  0.00    -0.206 F 
ATOM     94  C   UNL A   1      44.938  34.077  32.598  1.00  0.00     0.040 A 
ATOM     95  C   UNL A   1      45.195  34.740  30.297  1.00  0.00     0.040 A 
ATOM     96  F   UNL A   1      44.893  33.173  28.581  1.00  0.00    -0.206 F 
ATOM     97  C   UNL A   1      45.208  35.065  31.652  1.00  0.00     0.006 A 
ENDBRANCH  73  90
ENDBRANCH  47  48
ENDBRANCH  39  42
ENDBRANCH  37  38
ENDBRANCH  36  37
ENDBRANCH  35  36
ENDBRANCH   1  35
TORSDOF 19
ENDMDL
MODEL 3
REMARK VINA RESULT:     -12.7      4.722      9.454
REMARK SMILES O=C1O[C@@H](c2ccc(O)c(O)c2)[C@H](C(=O)NCCCCCCNC(=O)c2ccc(-c3c4nc(c(-c5c(F)cccc5F)c5ccc([nH]5)c(-c5c(F)cccc5F)c5nc(c(-c6c(F)cccc6F)c6ccc3[nH]6)C=C5)C=C4)cc2)/C1=C\c1ccc(O)c(O)c1
REMARK SMILES IDX 19 1 18 2 17 3 16 4 14 5 15 6 13 8 1 9 2 10 3 11 80 12 4 13
REMARK SMILES IDX 81 14 5 15 6 16 12 17 7 18 10 19 8 20 11 21 9 23 82 25 83 26
REMARK SMILES IDX 89 27 84 28 87 29 85 30 88 31 86 33 20 35 21 36 22 37 23 38
REMARK SMILES IDX 24 39 25 41 26 42 27 43 79 44 28 45 78 46 29 47 30 48 31 49
REMARK SMILES IDX 72 50 32 51 77 52 71 53 73 54 33 55 76 56 70 57 69 58 34 60
REMARK SMILES IDX 60 61 43 62 59 63 44 64 47 65 58 66 74 67 45 68 46 69 57 71
REMARK SMILES IDX 75 72 48 73 35 74 36 75 41 76 37 77 38 78 40 79 42 80 39 81
REMARK SMILES IDX 61 82 62 83 67 84 63 85 64 86 66 87 68 88 65 89 49 90 50 91
REMARK SMILES IDX 55 92 51 93 52 94 54 95 56 96 53 97
REMARK H PARENT 16 7 11 22 9 24 88 32 86 34 23 40 73 59 47 70
REMARK Flexibility Score: inf
ROOT
ATOM      1  C   UNL A   1      31.868  28.883  26.767  1.00  0.00     0.002 C 
ENDROOT
BRANCH   1   2
ATOM      2  C   UNL A   1      31.318  27.588  26.171  1.00  0.00     0.021 C 
BRANCH   2   3
ATOM      3  C   UNL A   1      32.179  26.359  26.427  1.00  0.00     0.116 C 
BRANCH   3   4
ATOM      4  N   UNL A   1      31.435  25.229  26.937  1.00  0.00    -0.355 N 
ATOM      5  C   UNL A   1      31.695  23.889  26.871  1.00  0.00     0.231 C 
ATOM      6  O   UNL A   1      30.958  23.153  27.528  1.00  0.00    -0.274 OA
ATOM      7  H   UNL A   1      30.604  25.463  27.410  1.00  0.00     0.163 HD
BRANCH   5   8
ATOM      8  C   UNL A   1      32.793  23.351  25.943  1.00  0.00     0.161 C 
ATOM      9  O   UNL A   1      31.754  20.138  24.774  1.00  0.00    -0.247 OA
ATOM     10  C   UNL A   1      32.306  21.096  25.286  1.00  0.00     0.335 C 
ATOM     11  O   UNL A   1      33.148  21.039  26.345  1.00  0.00    -0.453 OA
ATOM     12  C   UNL A   1      32.204  22.504  24.864  1.00  0.00     0.054 C 
ATOM     13  C   UNL A   1      33.706  22.336  26.625  1.00  0.00     0.224 C 
ATOM     14  C   UNL A   1      31.665  22.813  23.676  1.00  0.00     0.020 C 
BRANCH  13  15
ATOM     15  C   UNL A   1      35.182  22.416  26.221  1.00  0.00    -0.002 A 
ATOM     16  C   UNL A   1      35.929  23.604  26.394  1.00  0.00     0.012 A 
ATOM     17  C   UNL A   1      35.864  21.280  25.755  1.00  0.00     0.057 A 
ATOM     18  C   UNL A   1      37.305  23.656  26.141  1.00  0.00     0.050 A 
ATOM     19  C   UNL A   1      37.227  21.346  25.483  1.00  0.00     0.157 A 
ATOM     20  C   UNL A   1      37.947  22.518  25.685  1.00  0.00     0.157 A 
BRANCH  19  21
ATOM     21  O   UNL A   1      37.867  20.232  25.020  1.00  0.00    -0.504 OA
ATOM     22  H   UNL A   1      37.599  19.838  24.214  1.00  0.00     0.293 HD
ENDBRANCH  19  21
BRANCH  20  23
ATOM     23  O   UNL A   1      39.289  22.501  25.426  1.00  0.00    -0.504 OA
ATOM     24  H   UNL A   1      39.632  22.985  24.701  1.00  0.00     0.293 HD
ENDBRANCH  20  23
ENDBRANCH  13  15
BRANCH  14  25
ATOM     25  C   UNL A   1      31.527  24.174  23.163  1.00  0.00    -0.021 A 
ATOM     26  C   UNL A   1      30.427  24.972  23.516  1.00  0.00     0.012 A 
ATOM     27  C   UNL A   1      32.528  24.700  22.340  1.00  0.00     0.058 A 
ATOM     28  C   UNL A   1      30.309  26.277  23.028  1.00  0.00     0.051 A 
ATOM     29  C   UNL A   1      32.407  25.999  21.868  1.00  0.00     0.157 A 
ATOM     30  C   UNL A   1      31.305  26.781  22.202  1.00  0.00     0.157 A 
BRANCH  29  31
ATOM     31  O   UNL A   1      33.388  26.512  21.068  1.00  0.00    -0.504 OA
ATOM     32  H   UNL A   1      34.232  26.704  21.427  1.00  0.00     0.293 HD
ENDBRANCH  29  31
BRANCH  30  33
ATOM     33  O   UNL A   1      31.249  28.050  21.696  1.00  0.00    -0.504 OA
ATOM     34  H   UNL A   1      30.509  28.596  21.880  1.00  0.00     0.293 HD
ENDBRANCH  30  33
ENDBRANCH  14  25
ENDBRANCH   5   8
ENDBRANCH   3   4
ENDBRANCH   2   3
ENDBRANCH   1   2
BRANCH   1  35
ATOM     35  C   UNL A   1      31.760  30.115  25.862  1.00  0.00     0.002 C 
BRANCH  35  36
ATOM     36  C   UNL A   1      31.524  31.442  26.588  1.00  0.00     0.021 C 
BRANCH  36  37
ATOM     37  C   UNL A   1      32.791  32.145  27.057  1.00  0.00     0.116 C 
BRANCH  37  38
ATOM     38  N   UNL A   1      32.545  33.526  27.437  1.00  0.00    -0.352 N 
ATOM     39  C   UNL A   1      33.153  34.279  28.409  1.00  0.00     0.251 C 
ATOM     40  H   UNL A   1      31.842  33.987  26.923  1.00  0.00     0.163 HD
ATOM     41  O   UNL A   1      32.691  35.370  28.728  1.00  0.00    -0.269 OA
BRANCH  39  42
ATOM     42  C   UNL A   1      34.360  33.761  29.084  1.00  0.00     0.039 A 
ATOM     43  C   UNL A   1      34.214  32.816  30.103  1.00  0.00     0.014 A 
ATOM     44  C   UNL A   1      35.631  34.206  28.712  1.00  0.00     0.014 A 
ATOM     45  C   UNL A   1      35.349  32.276  30.711  1.00  0.00     0.010 A 
ATOM     46  C   UNL A   1      36.760  33.610  29.262  1.00  0.00     0.010 A 
ATOM     47  C   UNL A   1      36.631  32.646  30.273  1.00  0.00    -0.014 A 
BRANCH  47  48
ATOM     48  C   UNL A   1      37.854  32.050  30.870  1.00  0.00     0.031 A 
ATOM     49  C   UNL A   1      38.583  30.951  30.147  1.00  0.00     0.074 A 
ATOM     50  C   UNL A   1      38.267  32.449  32.088  1.00  0.00     0.049 A 
ATOM     51  N   UNL A   1      39.610  30.242  30.540  1.00  0.00    -0.248 NA
ATOM     52  C   UNL A   1      38.071  30.581  28.818  1.00  0.00     0.031 C 
ATOM     53  C   UNL A   1      37.624  33.479  32.906  1.00  0.00     0.029 A 
ATOM     54  N   UNL A   1      39.323  32.026  32.857  1.00  0.00    -0.354 N 
ATOM     55  C   UNL A   1      39.857  29.336  29.515  1.00  0.00     0.074 A 
ATOM     56  C   UNL A   1      38.835  29.544  28.513  1.00  0.00     0.031 C 
ATOM     57  C   UNL A   1      38.311  33.623  34.051  1.00  0.00     0.029 A 
ATOM     58  C   UNL A   1      39.414  32.667  34.069  1.00  0.00     0.049 A 
ATOM     59  H   UNL A   1      39.955  31.329  32.566  1.00  0.00     0.167 HD
ATOM     60  C   UNL A   1      40.858  28.430  29.409  1.00  0.00     0.037 A 
ATOM     61  C   UNL A   1      40.282  32.494  35.084  1.00  0.00     0.037 A 
ATOM     62  C   UNL A   1      41.883  28.242  30.400  1.00  0.00     0.049 A 
ATOM     63  C   UNL A   1      41.370  31.464  34.952  1.00  0.00     0.074 A 
ATOM     64  C   UNL A   1      42.970  27.385  30.363  1.00  0.00     0.029 A 
ATOM     65  N   UNL A   1      41.948  28.919  31.609  1.00  0.00    -0.354 N 
ATOM     66  N   UNL A   1      41.626  30.655  33.952  1.00  0.00    -0.248 NA
ATOM     67  C   UNL A   1      42.294  31.328  36.087  1.00  0.00     0.031 C 
ATOM     68  C   UNL A   1      43.662  27.505  31.573  1.00  0.00     0.029 A 
ATOM     69  C   UNL A   1      43.042  28.482  32.337  1.00  0.00     0.049 A 
ATOM     70  H   UNL A   1      41.312  29.609  31.905  1.00  0.00     0.167 HD
ATOM     71  C   UNL A   1      42.760  29.942  34.322  1.00  0.00     0.074 A 
ATOM     72  C   UNL A   1      43.146  30.419  35.632  1.00  0.00     0.031 C 
ATOM     73  C   UNL A   1      43.423  28.978  33.635  1.00  0.00     0.037 A 
BRANCH  60  74
ATOM     74  C   UNL A   1      40.889  27.574  28.175  1.00  0.00     0.057 A 
ATOM     75  C   UNL A   1      41.602  27.952  27.028  1.00  0.00     0.134 A 
ATOM     76  C   UNL A   1      40.225  26.341  28.143  1.00  0.00     0.134 A 
ATOM     77  F   UNL A   1      42.250  29.125  26.986  1.00  0.00    -0.206 F 
ATOM     78  C   UNL A   1      41.628  27.150  25.886  1.00  0.00     0.040 A 
ATOM     79  C   UNL A   1      40.271  25.515  27.017  1.00  0.00     0.040 A 
ATOM     80  F   UNL A   1      39.529  25.914  29.206  1.00  0.00    -0.206 F 
ATOM     81  C   UNL A   1      40.967  25.923  25.881  1.00  0.00     0.006 A 
ENDBRANCH  60  74
BRANCH  61  82
ATOM     82  C   UNL A   1      40.170  33.325  36.311  1.00  0.00     0.057 A 
ATOM     83  C   UNL A   1      39.329  32.950  37.364  1.00  0.00     0.134 A 
ATOM     84  C   UNL A   1      40.888  34.519  36.454  1.00  0.00     0.134 A 
ATOM     85  F   UNL A   1      38.603  31.826  37.279  1.00  0.00    -0.206 F 
ATOM     86  C   UNL A   1      39.184  33.743  38.504  1.00  0.00     0.040 A 
ATOM     87  C   UNL A   1      40.774  35.308  37.601  1.00  0.00     0.040 A 
ATOM     88  F   UNL A   1      41.719  34.932  35.485  1.00  0.00    -0.206 F 
ATOM     89  C   UNL A   1      39.912  34.924  38.626  1.00  0.00     0.006 A 
ENDBRANCH  61  82
BRANCH  73  90
ATOM     90  C   UNL A   1      44.664  28.412  34.263  1.00  0.00     0.057 A 
ATOM     91  C   UNL A   1      45.929  28.976  34.054  1.00  0.00     0.134 A 
ATOM     92  C   UNL A   1      44.582  27.313  35.128  1.00  0.00     0.134 A 
ATOM     93  F   UNL A   1      46.079  30.022  33.228  1.00  0.00    -0.206 F 
ATOM     94  C   UNL A   1      47.070  28.452  34.663  1.00  0.00     0.040 A 
ATOM     95  C   UNL A   1      45.710  26.800  35.767  1.00  0.00     0.040 A 
ATOM     96  F   UNL A   1      43.400  26.731  35.381  1.00  0.00    -0.206 F 
ATOM     97  C   UNL A   1      46.961  27.366  35.531  1.00  0.00     0.006 A 
ENDBRANCH  73  90
ENDBRANCH  47  48
ENDBRANCH  39  42
ENDBRANCH  37  38
ENDBRANCH  36  37
ENDBRANCH  35  36
ENDBRANCH   1  35
TORSDOF 19
ENDMDL
