MODEL 1
REMARK VINA RESULT:     -11.6      0.000      0.000
REMARK SMILES C[C@H]([C@@H]1CCCO1)n1c(SCC(=O)NCCCCCCNC(=O)c2ccc(-c3c4nc(c(-c5c(F)cccc5F)c5ccc([nH]5)c(-c5c(F)cccc5F)c5nc(c(-c6c(F)cccc6F)c6ccc3[nH]6)C=C5)C=C4)cc2)nc2cnccc21
REMARK SMILES IDX 16 1 15 2 14 3 12 4 13 5 11 7 10 8 9 9 8 10 84 11 78 12
REMARK SMILES IDX 79 13 83 14 80 15 82 16 81 17 2 18 1 19 3 20 4 21 7 22 5 23
REMARK SMILES IDX 6 24 17 25 18 26 19 27 20 28 21 29 22 30 23 32 24 33 25 34
REMARK SMILES IDX 77 35 26 36 76 37 27 38 28 39 29 40 70 41 30 42 75 43 69 44
REMARK SMILES IDX 71 45 31 46 74 47 68 48 67 49 32 51 58 52 41 53 57 54 42 55
REMARK SMILES IDX 45 56 56 57 72 58 43 59 44 60 55 62 73 63 46 64 33 65 34 66
REMARK SMILES IDX 39 67 35 68 36 69 38 70 40 71 37 72 59 73 60 74 65 75 61 76
REMARK SMILES IDX 62 77 64 78 66 79 63 80 47 81 48 82 53 83 49 84 50 85 52 86
REMARK SMILES IDX 54 87 51 88
REMARK H PARENT 14 6 21 31 71 50 45 61
REMARK Flexibility Score: inf
ROOT
ATOM      1  C   UNL A   1      40.851  21.156  27.579  1.00  0.00     0.021 C 
ENDROOT
BRANCH   1   2
ATOM      2  C   UNL A   1      39.985  21.506  26.371  1.00  0.00     0.116 C 
BRANCH   2   3
ATOM      3  N   UNL A   1      39.138  22.627  26.679  1.00  0.00    -0.355 N 
ATOM      4  C   UNL A   1      38.045  23.049  26.008  1.00  0.00     0.230 C 
ATOM      5  O   UNL A   1      37.506  24.089  26.399  1.00  0.00    -0.274 OA
ATOM      6  H   UNL A   1      39.385  23.150  27.476  1.00  0.00     0.163 HD
BRANCH   4   7
ATOM      7  C   UNL A   1      37.395  22.189  24.956  1.00  0.00     0.178 C 
BRANCH   7   8
ATOM      8  S   UNL A   1      36.179  22.899  23.840  1.00  0.00    -0.078 SA
BRANCH   8   9
ATOM      9  C   UNL A   1      34.609  23.134  24.515  1.00  0.00     0.169 A 
ATOM     10  N   UNL A   1      33.492  22.335  24.503  1.00  0.00    -0.313 N 
ATOM     11  C   UNL A   1      32.555  22.934  25.342  1.00  0.00     0.072 A 
ATOM     12  N   UNL A   1      34.334  24.301  25.071  1.00  0.00    -0.221 NA
ATOM     13  C   UNL A   1      33.068  24.199  25.590  1.00  0.00     0.108 A 
ATOM     14  C   UNL A   1      31.326  22.523  25.866  1.00  0.00     0.049 A 
ATOM     15  C   UNL A   1      32.288  25.117  26.302  1.00  0.00     0.141 A 
ATOM     16  C   UNL A   1      30.645  23.485  26.595  1.00  0.00     0.113 A 
ATOM     17  N   UNL A   1      31.076  24.750  26.802  1.00  0.00    -0.262 NA
BRANCH  10  18
ATOM     18  C   UNL A   1      33.212  21.084  23.812  1.00  0.00     0.116 C 
ATOM     19  C   UNL A   1      32.134  21.296  22.750  1.00  0.00     0.034 C 
BRANCH  18  20
ATOM     20  C   UNL A   1      33.311  19.756  24.640  1.00  0.00     0.141 C 
ATOM     21  C   UNL A   1      34.458  18.741  24.603  1.00  0.00     0.036 C 
ATOM     22  O   UNL A   1      32.134  18.970  24.307  1.00  0.00    -0.376 OA
ATOM     23  C   UNL A   1      33.862  17.430  24.142  1.00  0.00     0.031 C 
ATOM     24  C   UNL A   1      32.561  17.852  23.522  1.00  0.00     0.160 C 
ENDBRANCH  18  20
ENDBRANCH  10  18
ENDBRANCH   8   9
ENDBRANCH   7   8
ENDBRANCH   4   7
ENDBRANCH   2   3
ENDBRANCH   1   2
BRANCH   1  25
ATOM     25  C   UNL A   1      42.126  20.392  27.211  1.00  0.00     0.002 C 
BRANCH  25  26
ATOM     26  C   UNL A   1      41.913  19.320  26.147  1.00  0.00     0.002 C 
BRANCH  26  27
ATOM     27  C   UNL A   1      42.796  18.083  26.333  1.00  0.00     0.021 C 
BRANCH  27  28
ATOM     28  C   UNL A   1      44.268  18.336  26.006  1.00  0.00     0.116 C 
BRANCH  28  29
ATOM     29  N   UNL A   1      44.462  18.711  24.627  1.00  0.00    -0.352 N 
ATOM     30  C   UNL A   1      44.655  19.906  24.004  1.00  0.00     0.251 C 
ATOM     31  H   UNL A   1      44.453  17.946  24.008  1.00  0.00     0.163 HD
ATOM     32  O   UNL A   1      44.763  19.870  22.769  1.00  0.00    -0.269 OA
BRANCH  30  33
ATOM     33  C   UNL A   1      44.685  21.227  24.686  1.00  0.00     0.039 A 
ATOM     34  C   UNL A   1      45.561  21.599  25.706  1.00  0.00     0.014 A 
ATOM     35  C   UNL A   1      43.702  22.148  24.284  1.00  0.00     0.014 A 
ATOM     36  C   UNL A   1      45.381  22.791  26.390  1.00  0.00     0.010 A 
ATOM     37  C   UNL A   1      43.548  23.368  24.931  1.00  0.00     0.010 A 
ATOM     38  C   UNL A   1      44.356  23.663  26.020  1.00  0.00    -0.014 A 
BRANCH  38  39
ATOM     39  C   UNL A   1      44.254  24.910  26.766  1.00  0.00     0.031 A 
ATOM     40  C   UNL A   1      45.422  25.825  26.608  1.00  0.00     0.074 A 
ATOM     41  C   UNL A   1      43.194  25.261  27.520  1.00  0.00     0.049 A 
ATOM     42  N   UNL A   1      46.287  26.168  27.507  1.00  0.00    -0.248 NA
ATOM     43  C   UNL A   1      45.739  26.305  25.256  1.00  0.00     0.031 C 
ATOM     44  C   UNL A   1      41.875  24.636  27.615  1.00  0.00     0.029 A 
ATOM     45  N   UNL A   1      43.081  26.340  28.340  1.00  0.00    -0.354 N 
ATOM     46  C   UNL A   1      47.170  27.044  26.880  1.00  0.00     0.074 A 
ATOM     47  C   UNL A   1      46.858  26.998  25.474  1.00  0.00     0.031 C 
ATOM     48  C   UNL A   1      41.033  25.469  28.271  1.00  0.00     0.029 A 
ATOM     49  C   UNL A   1      41.789  26.606  28.768  1.00  0.00     0.049 A 
ATOM     50  H   UNL A   1      43.854  26.887  28.608  1.00  0.00     0.167 HD
ATOM     51  C   UNL A   1      47.975  27.880  27.593  1.00  0.00     0.037 A 
ATOM     52  C   UNL A   1      41.381  27.709  29.443  1.00  0.00     0.037 A 
ATOM     53  C   UNL A   1      48.135  27.432  28.951  1.00  0.00     0.049 A 
ATOM     54  C   UNL A   1      42.578  28.313  30.080  1.00  0.00     0.074 A 
ATOM     55  C   UNL A   1      48.648  26.294  29.545  1.00  0.00     0.029 A 
ATOM     56  N   UNL A   1      47.410  28.058  29.935  1.00  0.00    -0.354 N 
ATOM     57  N   UNL A   1      43.215  27.771  31.081  1.00  0.00    -0.248 NA
ATOM     58  C   UNL A   1      43.335  29.291  29.312  1.00  0.00     0.031 C 
ATOM     59  C   UNL A   1      47.788  26.039  30.654  1.00  0.00     0.029 A 
ATOM     60  C   UNL A   1      46.847  27.065  30.695  1.00  0.00     0.049 A 
ATOM     61  H   UNL A   1      47.314  29.029  30.068  1.00  0.00     0.167 HD
ATOM     62  C   UNL A   1      44.555  28.001  30.811  1.00  0.00     0.074 A 
ATOM     63  C   UNL A   1      44.564  29.011  29.754  1.00  0.00     0.031 C 
ATOM     64  C   UNL A   1      45.526  27.156  31.266  1.00  0.00     0.037 A 
BRANCH  51  65
ATOM     65  C   UNL A   1      48.326  29.282  27.162  1.00  0.00     0.057 A 
ATOM     66  C   UNL A   1      47.382  30.321  27.035  1.00  0.00     0.134 A 
ATOM     67  C   UNL A   1      49.671  29.695  27.180  1.00  0.00     0.134 A 
ATOM     68  F   UNL A   1      46.063  30.099  27.067  1.00  0.00    -0.206 F 
ATOM     69  C   UNL A   1      47.744  31.669  26.973  1.00  0.00     0.040 A 
ATOM     70  C   UNL A   1      50.041  31.045  27.166  1.00  0.00     0.040 A 
ATOM     71  F   UNL A   1      50.665  28.802  27.301  1.00  0.00    -0.206 F 
ATOM     72  C   UNL A   1      49.074  32.039  27.076  1.00  0.00     0.006 A 
ENDBRANCH  51  65
BRANCH  52  73
ATOM     73  C   UNL A   1      40.096  28.437  29.346  1.00  0.00     0.057 A 
ATOM     74  C   UNL A   1      39.098  28.291  30.324  1.00  0.00     0.134 A 
ATOM     75  C   UNL A   1      39.703  29.056  28.151  1.00  0.00     0.134 A 
ATOM     76  F   UNL A   1      39.344  27.650  31.477  1.00  0.00    -0.206 F 
ATOM     77  C   UNL A   1      37.780  28.712  30.117  1.00  0.00     0.040 A 
ATOM     78  C   UNL A   1      38.385  29.478  27.929  1.00  0.00     0.040 A 
ATOM     79  F   UNL A   1      40.572  29.206  27.142  1.00  0.00    -0.206 F 
ATOM     80  C   UNL A   1      37.415  29.294  28.910  1.00  0.00     0.006 A 
ENDBRANCH  52  73
BRANCH  64  81
ATOM     81  C   UNL A   1      45.122  26.087  32.241  1.00  0.00     0.057 A 
ATOM     82  C   UNL A   1      44.700  24.846  31.753  1.00  0.00     0.134 A 
ATOM     83  C   UNL A   1      45.015  26.291  33.627  1.00  0.00     0.134 A 
ATOM     84  F   UNL A   1      44.713  24.599  30.434  1.00  0.00    -0.206 F 
ATOM     85  C   UNL A   1      44.216  23.845  32.600  1.00  0.00     0.040 A 
ATOM     86  C   UNL A   1      44.565  25.286  34.490  1.00  0.00     0.040 A 
ATOM     87  F   UNL A   1      45.289  27.480  34.177  1.00  0.00    -0.206 F 
ATOM     88  C   UNL A   1      44.160  24.059  33.976  1.00  0.00     0.006 A 
ENDBRANCH  64  81
ENDBRANCH  38  39
ENDBRANCH  30  33
ENDBRANCH  28  29
ENDBRANCH  27  28
ENDBRANCH  26  27
ENDBRANCH  25  26
ENDBRANCH   1  25
TORSDOF 17
ENDMDL
MODEL 2
REMARK VINA RESULT:     -11.3      1.367      2.760
REMARK SMILES C[C@H]([C@@H]1CCCO1)n1c(SCC(=O)NCCCCCCNC(=O)c2ccc(-c3c4nc(c(-c5c(F)cccc5F)c5ccc([nH]5)c(-c5c(F)cccc5F)c5nc(c(-c6c(F)cccc6F)c6ccc3[nH]6)C=C5)C=C4)cc2)nc2cnccc21
REMARK SMILES IDX 16 1 15 2 14 3 12 4 13 5 11 7 10 8 9 9 8 10 84 11 78 12
REMARK SMILES IDX 79 13 83 14 80 15 82 16 81 17 2 18 1 19 3 20 4 21 7 22 5 23
REMARK SMILES IDX 6 24 17 25 18 26 19 27 20 28 21 29 22 30 23 32 24 33 25 34
REMARK SMILES IDX 77 35 26 36 76 37 27 38 28 39 29 40 70 41 30 42 75 43 69 44
REMARK SMILES IDX 71 45 31 46 74 47 68 48 67 49 32 51 58 52 41 53 57 54 42 55
REMARK SMILES IDX 45 56 56 57 72 58 43 59 44 60 55 62 73 63 46 64 33 65 34 66
REMARK SMILES IDX 39 67 35 68 36 69 38 70 40 71 37 72 59 73 60 74 65 75 61 76
REMARK SMILES IDX 62 77 64 78 66 79 63 80 47 81 48 82 53 83 49 84 50 85 52 86
REMARK SMILES IDX 54 87 51 88
REMARK H PARENT 14 6 21 31 71 50 45 61
REMARK Flexibility Score: inf
ROOT
ATOM      1  C   UNL A   1      40.683  21.381  26.168  1.00  0.00     0.021 C 
ENDROOT
BRANCH   1   2
ATOM      2  C   UNL A   1      39.286  21.941  26.427  1.00  0.00     0.116 C 
BRANCH   2   3
ATOM      3  N   UNL A   1      38.490  21.852  25.232  1.00  0.00    -0.355 N 
ATOM      4  C   UNL A   1      37.272  22.389  25.006  1.00  0.00     0.230 C 
ATOM      5  O   UNL A   1      36.725  22.122  23.932  1.00  0.00    -0.274 OA
ATOM      6  H   UNL A   1      38.880  21.337  24.489  1.00  0.00     0.163 HD
BRANCH   4   7
ATOM      7  C   UNL A   1      36.692  23.425  25.933  1.00  0.00     0.178 C 
BRANCH   7   8
ATOM      8  S   UNL A   1      34.936  23.410  26.312  1.00  0.00    -0.078 SA
BRANCH   8   9
ATOM      9  C   UNL A   1      34.040  22.122  25.596  1.00  0.00     0.169 A 
ATOM     10  N   UNL A   1      33.273  22.078  24.456  1.00  0.00    -0.313 N 
ATOM     11  C   UNL A   1      32.917  20.746  24.257  1.00  0.00     0.072 A 
ATOM     12  N   UNL A   1      33.954  20.978  26.251  1.00  0.00    -0.221 NA
ATOM     13  C   UNL A   1      33.265  20.112  25.441  1.00  0.00     0.108 A 
ATOM     14  C   UNL A   1      32.310  20.057  23.203  1.00  0.00     0.049 A 
ATOM     15  C   UNL A   1      32.908  18.771  25.617  1.00  0.00     0.141 A 
ATOM     16  C   UNL A   1      32.035  18.722  23.453  1.00  0.00     0.113 A 
ATOM     17  N   UNL A   1      32.293  18.083  24.616  1.00  0.00    -0.262 NA
BRANCH  10  18
ATOM     18  C   UNL A   1      32.852  23.130  23.541  1.00  0.00     0.116 C 
ATOM     19  C   UNL A   1      33.843  23.250  22.383  1.00  0.00     0.034 C 
BRANCH  18  20
ATOM     20  C   UNL A   1      32.134  24.383  24.151  1.00  0.00     0.141 C 
ATOM     21  C   UNL A   1      30.626  24.557  24.360  1.00  0.00     0.036 C 
ATOM     22  O   UNL A   1      32.509  25.520  23.328  1.00  0.00    -0.376 OA
ATOM     23  C   UNL A   1      30.211  25.758  23.539  1.00  0.00     0.031 C 
ATOM     24  C   UNL A   1      31.356  25.921  22.581  1.00  0.00     0.160 C 
ENDBRANCH  18  20
ENDBRANCH  10  18
ENDBRANCH   8   9
ENDBRANCH   7   8
ENDBRANCH   4   7
ENDBRANCH   2   3
ENDBRANCH   1   2
BRANCH   1  25
ATOM     25  C   UNL A   1      40.865  19.946  26.671  1.00  0.00     0.002 C 
BRANCH  25  26
ATOM     26  C   UNL A   1      42.316  19.580  26.969  1.00  0.00     0.002 C 
BRANCH  26  27
ATOM     27  C   UNL A   1      42.790  18.311  26.255  1.00  0.00     0.021 C 
BRANCH  27  28
ATOM     28  C   UNL A   1      44.293  18.297  25.978  1.00  0.00     0.116 C 
BRANCH  28  29
ATOM     29  N   UNL A   1      44.600  18.679  24.621  1.00  0.00    -0.352 N 
ATOM     30  C   UNL A   1      44.807  19.880  24.015  1.00  0.00     0.251 C 
ATOM     31  H   UNL A   1      44.674  17.914  24.007  1.00  0.00     0.163 HD
ATOM     32  O   UNL A   1      45.029  19.848  22.795  1.00  0.00    -0.269 OA
BRANCH  30  33
ATOM     33  C   UNL A   1      44.728  21.201  24.692  1.00  0.00     0.039 A 
ATOM     34  C   UNL A   1      45.495  21.605  25.786  1.00  0.00     0.014 A 
ATOM     35  C   UNL A   1      43.754  22.087  24.199  1.00  0.00     0.014 A 
ATOM     36  C   UNL A   1      45.212  22.789  26.447  1.00  0.00     0.010 A 
ATOM     37  C   UNL A   1      43.499  23.301  24.826  1.00  0.00     0.010 A 
ATOM     38  C   UNL A   1      44.194  23.624  25.983  1.00  0.00    -0.014 A 
BRANCH  38  39
ATOM     39  C   UNL A   1      43.981  24.867  26.712  1.00  0.00     0.031 A 
ATOM     40  C   UNL A   1      45.070  25.874  26.553  1.00  0.00     0.074 A 
ATOM     41  C   UNL A   1      42.888  25.137  27.451  1.00  0.00     0.049 A 
ATOM     42  N   UNL A   1      45.894  26.299  27.455  1.00  0.00    -0.248 NA
ATOM     43  C   UNL A   1      45.360  26.364  25.198  1.00  0.00     0.031 C 
ATOM     44  C   UNL A   1      41.625  24.405  27.542  1.00  0.00     0.029 A 
ATOM     45  N   UNL A   1      42.677  26.213  28.257  1.00  0.00    -0.354 N 
ATOM     46  C   UNL A   1      46.708  27.238  26.826  1.00  0.00     0.074 A 
ATOM     47  C   UNL A   1      46.415  27.150  25.418  1.00  0.00     0.031 C 
ATOM     48  C   UNL A   1      40.709  25.173  28.180  1.00  0.00     0.029 A 
ATOM     49  C   UNL A   1      41.363  26.375  28.669  1.00  0.00     0.049 A 
ATOM     50  H   UNL A   1      43.399  26.826  28.525  1.00  0.00     0.167 HD
ATOM     51  C   UNL A   1      47.433  28.146  27.536  1.00  0.00     0.037 A 
ATOM     52  C   UNL A   1      40.858  27.448  29.327  1.00  0.00     0.037 A 
ATOM     53  C   UNL A   1      47.615  27.729  28.900  1.00  0.00     0.049 A 
ATOM     54  C   UNL A   1      41.993  28.157  29.968  1.00  0.00     0.074 A 
ATOM     55  C   UNL A   1      48.216  26.645  29.513  1.00  0.00     0.029 A 
ATOM     56  N   UNL A   1      46.832  28.304  29.870  1.00  0.00    -0.354 N 
ATOM     57  N   UNL A   1      42.663  27.682  30.980  1.00  0.00    -0.248 NA
ATOM     58  C   UNL A   1      42.674  29.185  29.194  1.00  0.00     0.031 C 
ATOM     59  C   UNL A   1      47.368  26.332  30.618  1.00  0.00     0.029 A 
ATOM     60  C   UNL A   1      46.345  27.277  30.637  1.00  0.00     0.049 A 
ATOM     61  H   UNL A   1      46.653  29.265  29.990  1.00  0.00     0.167 HD
ATOM     62  C   UNL A   1      43.981  28.020  30.720  1.00  0.00     0.074 A 
ATOM     63  C   UNL A   1      43.918  29.014  29.651  1.00  0.00     0.031 C 
ATOM     64  C   UNL A   1      45.015  27.264  31.195  1.00  0.00     0.037 A 
BRANCH  51  65
ATOM     65  C   UNL A   1      47.671  29.568  27.091  1.00  0.00     0.057 A 
ATOM     66  C   UNL A   1      46.641  30.513  26.908  1.00  0.00     0.134 A 
ATOM     67  C   UNL A   1      48.970  30.104  27.151  1.00  0.00     0.134 A 
ATOM     68  F   UNL A   1      45.347  30.170  26.896  1.00  0.00    -0.206 F 
ATOM     69  C   UNL A   1      46.879  31.888  26.833  1.00  0.00     0.040 A 
ATOM     70  C   UNL A   1      49.216  31.482  27.124  1.00  0.00     0.040 A 
ATOM     71  F   UNL A   1      50.037  29.308  27.326  1.00  0.00    -0.206 F 
ATOM     72  C   UNL A   1      48.166  32.380  26.978  1.00  0.00     0.006 A 
ENDBRANCH  51  65
BRANCH  52  73
ATOM     73  C   UNL A   1      39.518  28.065  29.209  1.00  0.00     0.057 A 
ATOM     74  C   UNL A   1      39.161  28.829  28.085  1.00  0.00     0.134 A 
ATOM     75  C   UNL A   1      38.666  28.166  30.319  1.00  0.00     0.134 A 
ATOM     76  F   UNL A   1      39.940  28.863  26.994  1.00  0.00    -0.206 F 
ATOM     77  C   UNL A   1      38.039  29.664  28.073  1.00  0.00     0.040 A 
ATOM     78  C   UNL A   1      37.542  29.003  30.322  1.00  0.00     0.040 A 
ATOM     79  F   UNL A   1      38.943  27.507  31.453  1.00  0.00    -0.206 F 
ATOM     80  C   UNL A   1      37.234  29.766  29.200  1.00  0.00     0.006 A 
ENDBRANCH  52  73
BRANCH  64  81
ATOM     81  C   UNL A   1      44.692  26.176  32.180  1.00  0.00     0.057 A 
ATOM     82  C   UNL A   1      44.723  26.466  33.547  1.00  0.00     0.134 A 
ATOM     83  C   UNL A   1      44.481  24.834  31.822  1.00  0.00     0.134 A 
ATOM     84  F   UNL A   1      44.983  27.714  33.968  1.00  0.00    -0.206 F 
ATOM     85  C   UNL A   1      44.533  25.477  34.516  1.00  0.00     0.040 A 
ATOM     86  C   UNL A   1      44.254  23.840  32.781  1.00  0.00     0.040 A 
ATOM     87  F   UNL A   1      44.543  24.438  30.545  1.00  0.00    -0.206 F 
ATOM     88  C   UNL A   1      44.283  24.161  34.133  1.00  0.00     0.006 A 
ENDBRANCH  64  81
ENDBRANCH  38  39
ENDBRANCH  30  33
ENDBRANCH  28  29
ENDBRANCH  27  28
ENDBRANCH  26  27
ENDBRANCH  25  26
ENDBRANCH   1  25
TORSDOF 17
ENDMDL
MODEL 3
REMARK VINA RESULT:     -11.2      1.464      2.170
REMARK SMILES C[C@H]([C@@H]1CCCO1)n1c(SCC(=O)NCCCCCCNC(=O)c2ccc(-c3c4nc(c(-c5c(F)cccc5F)c5ccc([nH]5)c(-c5c(F)cccc5F)c5nc(c(-c6c(F)cccc6F)c6ccc3[nH]6)C=C5)C=C4)cc2)nc2cnccc21
REMARK SMILES IDX 16 1 15 2 14 3 12 4 13 5 11 7 10 8 9 9 8 10 84 11 78 12
REMARK SMILES IDX 79 13 83 14 80 15 82 16 81 17 2 18 1 19 3 20 4 21 7 22 5 23
REMARK SMILES IDX 6 24 17 25 18 26 19 27 20 28 21 29 22 30 23 32 24 33 25 34
REMARK SMILES IDX 77 35 26 36 76 37 27 38 28 39 29 40 70 41 30 42 75 43 69 44
REMARK SMILES IDX 71 45 31 46 74 47 68 48 67 49 32 51 58 52 41 53 57 54 42 55
REMARK SMILES IDX 45 56 56 57 72 58 43 59 44 60 55 62 73 63 46 64 33 65 34 66
REMARK SMILES IDX 39 67 35 68 36 69 38 70 40 71 37 72 59 73 60 74 65 75 61 76
REMARK SMILES IDX 62 77 64 78 66 79 63 80 47 81 48 82 53 83 49 84 50 85 52 86
REMARK SMILES IDX 54 87 51 88
REMARK H PARENT 14 6 21 31 71 50 45 61
REMARK Flexibility Score: inf
ROOT
ATOM      1  C   UNL A   1      40.957  21.370  27.491  1.00  0.00     0.021 C 
ENDROOT
BRANCH   1   2
ATOM      2  C   UNL A   1      39.877  21.445  26.414  1.00  0.00     0.116 C 
BRANCH   2   3
ATOM      3  N   UNL A   1      39.050  22.603  26.625  1.00  0.00    -0.355 N 
ATOM      4  C   UNL A   1      37.985  23.004  25.898  1.00  0.00     0.230 C 
ATOM      5  O   UNL A   1      37.461  24.080  26.205  1.00  0.00    -0.274 OA
ATOM      6  H   UNL A   1      39.289  23.172  27.392  1.00  0.00     0.163 HD
BRANCH   4   7
ATOM      7  C   UNL A   1      37.341  22.091  24.888  1.00  0.00     0.178 C 
BRANCH   7   8
ATOM      8  S   UNL A   1      36.039  22.711  23.818  1.00  0.00    -0.078 SA
BRANCH   8   9
ATOM      9  C   UNL A   1      34.526  23.007  24.593  1.00  0.00     0.169 A 
ATOM     10  N   UNL A   1      33.368  23.579  24.126  1.00  0.00    -0.313 N 
ATOM     11  C   UNL A   1      32.404  23.413  25.119  1.00  0.00     0.072 A 
ATOM     12  N   UNL A   1      34.424  22.750  25.885  1.00  0.00    -0.221 NA
ATOM     13  C   UNL A   1      33.119  22.993  26.231  1.00  0.00     0.108 A 
ATOM     14  C   UNL A   1      31.022  23.617  25.165  1.00  0.00     0.049 A 
ATOM     15  C   UNL A   1      32.451  22.865  27.454  1.00  0.00     0.141 A 
ATOM     16  C   UNL A   1      30.440  23.424  26.409  1.00  0.00     0.113 A 
ATOM     17  N   UNL A   1      31.109  23.083  27.532  1.00  0.00    -0.262 NA
BRANCH  10  18
ATOM     18  C   UNL A   1      33.065  24.245  22.867  1.00  0.00     0.116 C 
ATOM     19  C   UNL A   1      33.310  23.296  21.695  1.00  0.00     0.034 C 
BRANCH  18  20
ATOM     20  C   UNL A   1      33.360  25.781  22.765  1.00  0.00     0.141 C 
ATOM     21  C   UNL A   1      33.826  26.697  23.901  1.00  0.00     0.036 C 
ATOM     22  O   UNL A   1      32.141  26.409  22.284  1.00  0.00    -0.376 OA
ATOM     23  C   UNL A   1      32.763  27.760  24.065  1.00  0.00     0.031 C 
ATOM     24  C   UNL A   1      31.578  27.159  23.364  1.00  0.00     0.160 C 
ENDBRANCH  18  20
ENDBRANCH  10  18
ENDBRANCH   8   9
ENDBRANCH   7   8
ENDBRANCH   4   7
ENDBRANCH   2   3
ENDBRANCH   1   2
BRANCH   1  25
ATOM     25  C   UNL A   1      42.071  20.371  27.165  1.00  0.00     0.002 C 
BRANCH  25  26
ATOM     26  C   UNL A   1      41.652  19.287  26.177  1.00  0.00     0.002 C 
BRANCH  26  27
ATOM     27  C   UNL A   1      42.558  18.053  26.195  1.00  0.00     0.021 C 
BRANCH  27  28
ATOM     28  C   UNL A   1      44.039  18.388  26.015  1.00  0.00     0.116 C 
BRANCH  28  29
ATOM     29  N   UNL A   1      44.355  18.744  24.654  1.00  0.00    -0.352 N 
ATOM     30  C   UNL A   1      44.640  19.925  24.040  1.00  0.00     0.251 C 
ATOM     31  H   UNL A   1      44.366  17.974  24.040  1.00  0.00     0.163 HD
ATOM     32  O   UNL A   1      44.843  19.875  22.818  1.00  0.00    -0.269 OA
BRANCH  30  33
ATOM     33  C   UNL A   1      44.663  21.250  24.715  1.00  0.00     0.039 A 
ATOM     34  C   UNL A   1      45.549  21.639  25.720  1.00  0.00     0.014 A 
ATOM     35  C   UNL A   1      43.664  22.158  24.321  1.00  0.00     0.014 A 
ATOM     36  C   UNL A   1      45.365  22.832  26.400  1.00  0.00     0.010 A 
ATOM     37  C   UNL A   1      43.505  23.380  24.963  1.00  0.00     0.010 A 
ATOM     38  C   UNL A   1      44.325  23.690  26.040  1.00  0.00    -0.014 A 
BRANCH  38  39
ATOM     39  C   UNL A   1      44.218  24.940  26.780  1.00  0.00     0.031 A 
ATOM     40  C   UNL A   1      45.382  25.859  26.615  1.00  0.00     0.074 A 
ATOM     41  C   UNL A   1      43.159  25.290  27.533  1.00  0.00     0.049 A 
ATOM     42  N   UNL A   1      46.247  26.211  27.510  1.00  0.00    -0.248 NA
ATOM     43  C   UNL A   1      45.695  26.335  25.260  1.00  0.00     0.031 C 
ATOM     44  C   UNL A   1      41.843  24.659  27.634  1.00  0.00     0.029 A 
ATOM     45  N   UNL A   1      43.043  26.372  28.349  1.00  0.00    -0.354 N 
ATOM     46  C   UNL A   1      47.126  27.087  26.878  1.00  0.00     0.074 A 
ATOM     47  C   UNL A   1      46.811  27.033  25.473  1.00  0.00     0.031 C 
ATOM     48  C   UNL A   1      40.998  25.492  28.288  1.00  0.00     0.029 A 
ATOM     49  C   UNL A   1      41.750  26.634  28.778  1.00  0.00     0.049 A 
ATOM     50  H   UNL A   1      43.813  26.924  28.613  1.00  0.00     0.167 HD
ATOM     51  C   UNL A   1      47.928  27.930  27.585  1.00  0.00     0.037 A 
ATOM     52  C   UNL A   1      41.339  27.739  29.449  1.00  0.00     0.037 A 
ATOM     53  C   UNL A   1      48.092  27.489  28.945  1.00  0.00     0.049 A 
ATOM     54  C   UNL A   1      42.534  28.351  30.081  1.00  0.00     0.074 A 
ATOM     55  C   UNL A   1      48.612  26.357  29.543  1.00  0.00     0.029 A 
ATOM     56  N   UNL A   1      47.367  28.117  29.927  1.00  0.00    -0.354 N 
ATOM     57  N   UNL A   1      43.175  27.817  31.083  1.00  0.00    -0.248 NA
ATOM     58  C   UNL A   1      43.285  29.328  29.307  1.00  0.00     0.031 C 
ATOM     59  C   UNL A   1      47.755  26.103  30.656  1.00  0.00     0.029 A 
ATOM     60  C   UNL A   1      46.809  27.125  30.694  1.00  0.00     0.049 A 
ATOM     61  H   UNL A   1      47.267  29.088  30.056  1.00  0.00     0.167 HD
ATOM     62  C   UNL A   1      44.513  28.051  30.809  1.00  0.00     0.074 A 
ATOM     63  C   UNL A   1      44.516  29.056  29.747  1.00  0.00     0.031 C 
ATOM     64  C   UNL A   1      45.489  27.213  31.266  1.00  0.00     0.037 A 
BRANCH  51  65
ATOM     65  C   UNL A   1      48.272  29.332  27.147  1.00  0.00     0.057 A 
ATOM     66  C   UNL A   1      47.322  30.364  27.009  1.00  0.00     0.134 A 
ATOM     67  C   UNL A   1      49.614  29.754  27.169  1.00  0.00     0.134 A 
ATOM     68  F   UNL A   1      46.004  30.133  27.036  1.00  0.00    -0.206 F 
ATOM     69  C   UNL A   1      47.675  31.714  26.940  1.00  0.00     0.040 A 
ATOM     70  C   UNL A   1      49.976  31.107  27.149  1.00  0.00     0.040 A 
ATOM     71  F   UNL A   1      50.613  28.869  27.300  1.00  0.00    -0.206 F 
ATOM     72  C   UNL A   1      49.002  32.093  27.047  1.00  0.00     0.006 A 
ENDBRANCH  51  65
BRANCH  52  73
ATOM     73  C   UNL A   1      40.050  28.460  29.351  1.00  0.00     0.057 A 
ATOM     74  C   UNL A   1      39.062  28.329  30.341  1.00  0.00     0.134 A 
ATOM     75  C   UNL A   1      39.642  29.056  28.149  1.00  0.00     0.134 A 
ATOM     76  F   UNL A   1      39.322  27.712  31.504  1.00  0.00    -0.206 F 
ATOM     77  C   UNL A   1      37.741  28.743  30.140  1.00  0.00     0.040 A 
ATOM     78  C   UNL A   1      38.321  29.469  27.932  1.00  0.00     0.040 A 
ATOM     79  F   UNL A   1      40.502  29.189  27.128  1.00  0.00    -0.206 F 
ATOM     80  C   UNL A   1      37.362  29.300  28.926  1.00  0.00     0.006 A 
ENDBRANCH  52  73
BRANCH  64  81
ATOM     81  C   UNL A   1      45.092  26.146  32.248  1.00  0.00     0.057 A 
ATOM     82  C   UNL A   1      44.676  24.901  31.766  1.00  0.00     0.134 A 
ATOM     83  C   UNL A   1      44.985  26.357  33.633  1.00  0.00     0.134 A 
ATOM     84  F   UNL A   1      44.688  24.648  30.448  1.00  0.00    -0.206 F 
ATOM     85  C   UNL A   1      44.198  23.902  32.618  1.00  0.00     0.040 A 
ATOM     86  C   UNL A   1      44.541  25.354  34.501  1.00  0.00     0.040 A 
ATOM     87  F   UNL A   1      45.253  27.550  34.176  1.00  0.00    -0.206 F 
ATOM     88  C   UNL A   1      44.142  24.122  33.993  1.00  0.00     0.006 A 
ENDBRANCH  64  81
ENDBRANCH  38  39
ENDBRANCH  30  33
ENDBRANCH  28  29
ENDBRANCH  27  28
ENDBRANCH  26  27
ENDBRANCH  25  26
ENDBRANCH   1  25
TORSDOF 17
ENDMDL
