MODEL 1
REMARK VINA RESULT:      -9.8      0.000      0.000
REMARK SMILES COC[C@H]1CCN(C(=O)N2CC[C@H](C(=O)NCCCCCCNC(=O)c3ccc(-c4c5nc(c(-c6c(F)cccc6F)c6ccc([nH]6)c(-c6c(F)cccc6F)c6nc(c(-c7c(F)cccc7F)c7ccc4[nH]7)C=C6)C=C5)cc3)[C@@H]2C)C1
REMARK SMILES IDX 18 1 17 2 16 3 14 4 15 5 13 7 10 8 11 9 80 10 12 11 81 12
REMARK SMILES IDX 8 13 9 14 7 15 4 16 5 17 82 18 6 19 3 20 2 21 1 22 19 23
REMARK SMILES IDX 20 24 21 25 22 26 23 27 24 28 25 30 26 31 27 32 79 33 28 34
REMARK SMILES IDX 78 35 29 36 30 37 31 38 72 39 32 40 77 41 71 42 73 43 33 44
REMARK SMILES IDX 76 45 70 46 69 47 34 49 60 50 43 51 59 52 44 53 47 54 58 55
REMARK SMILES IDX 74 56 45 57 46 58 57 60 75 61 48 62 35 63 36 64 41 65 37 66
REMARK SMILES IDX 38 67 40 68 42 69 39 70 61 71 62 72 67 73 63 74 64 75 66 76
REMARK SMILES IDX 68 77 65 78 49 79 50 80 55 81 51 82 52 83 54 84 56 85 53 86
REMARK H PARENT 16 6 23 29 73 48 47 59
REMARK Flexibility Score: inf
ROOT
ATOM      1  C   UNL A   1      35.789  32.124  28.028  1.00  0.00     0.021 C 
ENDROOT
BRANCH   1   2
ATOM      2  C   UNL A   1      34.987  30.861  27.732  1.00  0.00     0.116 C 
BRANCH   2   3
ATOM      3  N   UNL A   1      33.667  31.143  27.212  1.00  0.00    -0.356 N 
ATOM      4  C   UNL A   1      32.644  30.311  26.885  1.00  0.00     0.225 C 
ATOM      5  O   UNL A   1      31.582  30.841  26.541  1.00  0.00    -0.275 OA
ATOM      6  H   UNL A   1      33.477  32.099  27.073  1.00  0.00     0.163 HD
BRANCH   4   7
ATOM      7  C   UNL A   1      32.750  28.790  26.905  1.00  0.00     0.102 C 
ATOM      8  N   UNL A   1      31.763  27.330  25.340  1.00  0.00    -0.321 N 
ATOM      9  C   UNL A   1      31.265  26.902  26.634  1.00  0.00     0.122 C 
ATOM     10  C   UNL A   1      33.001  28.072  25.561  1.00  0.00     0.096 C 
ATOM     11  C   UNL A   1      31.524  28.097  27.533  1.00  0.00     0.037 C 
ATOM     12  C   UNL A   1      33.462  28.933  24.391  1.00  0.00     0.032 C 
BRANCH   8  13
ATOM     13  C   UNL A   1      31.508  26.622  24.191  1.00  0.00     0.320 C 
ATOM     14  O   UNL A   1      31.016  27.149  23.195  1.00  0.00    -0.248 OA
BRANCH  13  15
ATOM     15  N   UNL A   1      31.764  25.271  24.249  1.00  0.00    -0.324 N 
ATOM     16  C   UNL A   1      33.001  23.238  24.159  1.00  0.00     0.036 C 
ATOM     17  C   UNL A   1      31.575  22.992  24.656  1.00  0.00     0.029 C 
ATOM     18  C   UNL A   1      33.125  24.769  24.142  1.00  0.00     0.127 C 
ATOM     19  C   UNL A   1      30.818  24.182  24.108  1.00  0.00     0.122 C 
BRANCH  16  20
ATOM     20  C   UNL A   1      34.085  22.586  25.010  1.00  0.00     0.165 C 
BRANCH  20  21
ATOM     21  O   UNL A   1      34.818  21.595  24.294  1.00  0.00    -0.384 OA
ATOM     22  C   UNL A   1      35.639  20.768  25.110  1.00  0.00     0.194 C 
ENDBRANCH  20  21
ENDBRANCH  16  20
ENDBRANCH  13  15
ENDBRANCH   8  13
ENDBRANCH   4   7
ENDBRANCH   2   3
ENDBRANCH   1   2
BRANCH   1  23
ATOM     23  C   UNL A   1      35.117  33.088  29.011  1.00  0.00     0.002 C 
BRANCH  23  24
ATOM     24  C   UNL A   1      35.325  34.580  28.723  1.00  0.00     0.002 C 
BRANCH  24  25
ATOM     25  C   UNL A   1      34.088  35.467  28.882  1.00  0.00     0.021 C 
BRANCH  25  26
ATOM     26  C   UNL A   1      32.915  34.826  29.617  1.00  0.00     0.116 C 
BRANCH  26  27
ATOM     27  N   UNL A   1      32.432  35.643  30.717  1.00  0.00    -0.352 N 
ATOM     28  C   UNL A   1      32.873  35.714  32.012  1.00  0.00     0.251 C 
ATOM     29  H   UNL A   1      31.677  36.233  30.500  1.00  0.00     0.163 HD
ATOM     30  O   UNL A   1      32.228  36.358  32.843  1.00  0.00    -0.269 OA
BRANCH  28  31
ATOM     31  C   UNL A   1      34.102  35.008  32.431  1.00  0.00     0.039 A 
ATOM     32  C   UNL A   1      33.987  33.719  32.958  1.00  0.00     0.014 A 
ATOM     33  C   UNL A   1      35.359  35.613  32.329  1.00  0.00     0.014 A 
ATOM     34  C   UNL A   1      35.134  33.017  33.334  1.00  0.00     0.010 A 
ATOM     35  C   UNL A   1      36.507  34.886  32.640  1.00  0.00     0.010 A 
ATOM     36  C   UNL A   1      36.405  33.583  33.148  1.00  0.00    -0.014 A 
BRANCH  36  37
ATOM     37  C   UNL A   1      37.634  32.814  33.472  1.00  0.00     0.031 A 
ATOM     38  C   UNL A   1      38.405  33.097  34.731  1.00  0.00     0.074 A 
ATOM     39  C   UNL A   1      38.080  31.887  32.603  1.00  0.00     0.049 A 
ATOM     40  N   UNL A   1      39.508  32.544  35.167  1.00  0.00    -0.248 NA
ATOM     41  C   UNL A   1      37.883  34.160  35.604  1.00  0.00     0.031 C 
ATOM     42  C   UNL A   1      37.454  31.558  31.321  1.00  0.00     0.029 A 
ATOM     43  N   UNL A   1      39.171  31.055  32.662  1.00  0.00    -0.354 N 
ATOM     44  C   UNL A   1      39.817  33.195  36.354  1.00  0.00     0.074 A 
ATOM     45  C   UNL A   1      38.814  34.220  36.545  1.00  0.00     0.031 C 
ATOM     46  C   UNL A   1      38.155  30.581  30.727  1.00  0.00     0.029 A 
ATOM     47  C   UNL A   1      39.296  30.234  31.567  1.00  0.00     0.049 A 
ATOM     48  H   UNL A   1      39.803  31.048  33.417  1.00  0.00     0.167 HD
ATOM     49  C   UNL A   1      40.831  32.946  37.217  1.00  0.00     0.037 A 
ATOM     50  C   UNL A   1      40.227  29.309  31.274  1.00  0.00     0.037 A 
ATOM     51  C   UNL A   1      41.814  31.911  37.036  1.00  0.00     0.049 A 
ATOM     52  C   UNL A   1      41.338  29.046  32.253  1.00  0.00     0.074 A 
ATOM     53  C   UNL A   1      42.838  31.534  37.889  1.00  0.00     0.029 A 
ATOM     54  N   UNL A   1      41.900  31.087  35.923  1.00  0.00    -0.354 N 
ATOM     55  N   UNL A   1      41.571  29.615  33.411  1.00  0.00    -0.248 NA
ATOM     56  C   UNL A   1      42.309  28.006  31.887  1.00  0.00     0.031 C 
ATOM     57  C   UNL A   1      43.569  30.514  37.271  1.00  0.00     0.029 A 
ATOM     58  C   UNL A   1      42.973  30.221  36.055  1.00  0.00     0.049 A 
ATOM     59  H   UNL A   1      41.287  31.115  35.152  1.00  0.00     0.167 HD
ATOM     60  C   UNL A   1      42.699  28.989  33.921  1.00  0.00     0.074 A 
ATOM     61  C   UNL A   1      43.093  27.983  32.957  1.00  0.00     0.031 C 
ATOM     62  C   UNL A   1      43.354  29.227  35.085  1.00  0.00     0.037 A 
BRANCH  49  63
ATOM     63  C   UNL A   1      40.925  33.811  38.442  1.00  0.00     0.057 A 
ATOM     64  C   UNL A   1      41.730  34.957  38.477  1.00  0.00     0.134 A 
ATOM     65  C   UNL A   1      40.174  33.513  39.586  1.00  0.00     0.134 A 
ATOM     66  F   UNL A   1      42.483  35.292  37.419  1.00  0.00    -0.206 F 
ATOM     67  C   UNL A   1      41.806  35.762  39.615  1.00  0.00     0.040 A 
ATOM     68  C   UNL A   1      40.221  34.326  40.721  1.00  0.00     0.040 A 
ATOM     69  F   UNL A   1      39.378  32.435  39.618  1.00  0.00    -0.206 F 
ATOM     70  C   UNL A   1      41.044  35.450  40.740  1.00  0.00     0.006 A 
ENDBRANCH  49  63
BRANCH  50  71
ATOM     71  C   UNL A   1      40.136  28.541  30.006  1.00  0.00     0.057 A 
ATOM     72  C   UNL A   1      39.365  27.377  29.921  1.00  0.00     0.134 A 
ATOM     73  C   UNL A   1      40.814  28.953  28.853  1.00  0.00     0.134 A 
ATOM     74  F   UNL A   1      38.707  26.923  30.999  1.00  0.00    -0.206 F 
ATOM     75  C   UNL A   1      39.286  26.636  28.741  1.00  0.00     0.040 A 
ATOM     76  C   UNL A   1      40.723  28.237  27.659  1.00  0.00     0.040 A 
ATOM     77  F   UNL A   1      41.561  30.065  28.867  1.00  0.00    -0.206 F 
ATOM     78  C   UNL A   1      39.962  27.070  27.603  1.00  0.00     0.006 A 
ENDBRANCH  50  71
BRANCH  62  79
ATOM     79  C   UNL A   1      44.547  28.369  35.386  1.00  0.00     0.057 A 
ATOM     80  C   UNL A   1      45.840  28.738  34.994  1.00  0.00     0.134 A 
ATOM     81  C   UNL A   1      44.404  27.170  36.096  1.00  0.00     0.134 A 
ATOM     82  F   UNL A   1      46.043  29.868  34.299  1.00  0.00    -0.206 F 
ATOM     83  C   UNL A   1      46.946  27.933  35.276  1.00  0.00     0.040 A 
ATOM     84  C   UNL A   1      45.505  26.371  36.408  1.00  0.00     0.040 A 
ATOM     85  F   UNL A   1      43.194  26.762  36.508  1.00  0.00    -0.206 F 
ATOM     86  C   UNL A   1      46.779  26.749  35.991  1.00  0.00     0.006 A 
ENDBRANCH  62  79
ENDBRANCH  36  37
ENDBRANCH  28  31
ENDBRANCH  26  27
ENDBRANCH  25  26
ENDBRANCH  24  25
ENDBRANCH  23  24
ENDBRANCH   1  23
TORSDOF 17
ENDMDL
MODEL 2
REMARK VINA RESULT:      -9.6      3.108      5.269
REMARK SMILES COC[C@H]1CCN(C(=O)N2CC[C@H](C(=O)NCCCCCCNC(=O)c3ccc(-c4c5nc(c(-c6c(F)cccc6F)c6ccc([nH]6)c(-c6c(F)cccc6F)c6nc(c(-c7c(F)cccc7F)c7ccc4[nH]7)C=C6)C=C5)cc3)[C@@H]2C)C1
REMARK SMILES IDX 18 1 17 2 16 3 14 4 15 5 13 7 10 8 11 9 80 10 12 11 81 12
REMARK SMILES IDX 8 13 9 14 7 15 4 16 5 17 82 18 6 19 3 20 2 21 1 22 19 23
REMARK SMILES IDX 20 24 21 25 22 26 23 27 24 28 25 30 26 31 27 32 79 33 28 34
REMARK SMILES IDX 78 35 29 36 30 37 31 38 72 39 32 40 77 41 71 42 73 43 33 44
REMARK SMILES IDX 76 45 70 46 69 47 34 49 60 50 43 51 59 52 44 53 47 54 58 55
REMARK SMILES IDX 74 56 45 57 46 58 57 60 75 61 48 62 35 63 36 64 41 65 37 66
REMARK SMILES IDX 38 67 40 68 42 69 39 70 61 71 62 72 67 73 63 74 64 75 66 76
REMARK SMILES IDX 68 77 65 78 49 79 50 80 55 81 51 82 52 83 54 84 56 85 53 86
REMARK H PARENT 16 6 23 29 73 48 47 59
REMARK Flexibility Score: inf
ROOT
ATOM      1  C   UNL A   1      31.473  29.161  23.447  1.00  0.00     0.021 C 
ENDROOT
BRANCH   1   2
ATOM      2  C   UNL A   1      30.672  28.017  22.834  1.00  0.00     0.116 C 
BRANCH   2   3
ATOM      3  N   UNL A   1      30.339  26.986  23.794  1.00  0.00    -0.356 N 
ATOM      4  C   UNL A   1      31.134  26.217  24.583  1.00  0.00     0.225 C 
ATOM      5  O   UNL A   1      30.565  25.467  25.383  1.00  0.00    -0.275 OA
ATOM      6  H   UNL A   1      29.375  26.815  23.892  1.00  0.00     0.163 HD
BRANCH   4   7
ATOM      7  C   UNL A   1      32.657  26.225  24.515  1.00  0.00     0.102 C 
ATOM      8  N   UNL A   1      34.019  24.333  24.164  1.00  0.00    -0.321 N 
ATOM      9  C   UNL A   1      34.481  24.916  25.410  1.00  0.00     0.122 C 
ATOM     10  C   UNL A   1      33.329  25.377  23.412  1.00  0.00     0.096 C 
ATOM     11  C   UNL A   1      33.333  25.810  25.838  1.00  0.00     0.037 C 
ATOM     12  C   UNL A   1      32.436  24.883  22.280  1.00  0.00     0.032 C 
BRANCH   8  13
ATOM     13  C   UNL A   1      34.670  23.284  23.565  1.00  0.00     0.320 C 
ATOM     14  O   UNL A   1      35.422  23.443  22.605  1.00  0.00    -0.248 OA
BRANCH  13  15
ATOM     15  N   UNL A   1      34.372  22.032  24.056  1.00  0.00    -0.324 N 
ATOM     16  C   UNL A   1      33.089  20.090  24.559  1.00  0.00     0.036 C 
ATOM     17  C   UNL A   1      34.562  19.883  24.915  1.00  0.00     0.029 C 
ATOM     18  C   UNL A   1      33.081  21.418  23.786  1.00  0.00     0.127 C 
ATOM     19  C   UNL A   1      35.068  21.298  25.093  1.00  0.00     0.122 C 
BRANCH  16  20
ATOM     20  C   UNL A   1      32.472  18.955  23.749  1.00  0.00     0.165 C 
BRANCH  20  21
ATOM     21  O   UNL A   1      32.985  17.678  24.123  1.00  0.00    -0.384 OA
ATOM     22  C   UNL A   1      33.805  17.064  23.138  1.00  0.00     0.194 C 
ENDBRANCH  20  21
ENDBRANCH  16  20
ENDBRANCH  13  15
ENDBRANCH   8  13
ENDBRANCH   4   7
ENDBRANCH   2   3
ENDBRANCH   1   2
BRANCH   1  23
ATOM     23  C   UNL A   1      30.810  29.824  24.658  1.00  0.00     0.002 C 
BRANCH  23  24
ATOM     24  C   UNL A   1      31.735  30.114  25.845  1.00  0.00     0.002 C 
BRANCH  24  25
ATOM     25  C   UNL A   1      33.152  29.544  25.739  1.00  0.00     0.021 C 
BRANCH  25  26
ATOM     26  C   UNL A   1      33.968  29.581  27.027  1.00  0.00     0.116 C 
BRANCH  26  27
ATOM     27  N   UNL A   1      33.860  30.853  27.720  1.00  0.00    -0.352 N 
ATOM     28  C   UNL A   1      34.671  31.397  28.680  1.00  0.00     0.251 C 
ATOM     29  H   UNL A   1      33.089  31.407  27.461  1.00  0.00     0.163 HD
ATOM     30  O   UNL A   1      34.322  32.427  29.264  1.00  0.00    -0.269 OA
BRANCH  28  31
ATOM     31  C   UNL A   1      35.950  30.752  29.042  1.00  0.00     0.039 A 
ATOM     32  C   UNL A   1      37.128  31.227  28.460  1.00  0.00     0.014 A 
ATOM     33  C   UNL A   1      35.994  29.672  29.929  1.00  0.00     0.014 A 
ATOM     34  C   UNL A   1      38.354  30.656  28.807  1.00  0.00     0.010 A 
ATOM     35  C   UNL A   1      37.224  29.148  30.326  1.00  0.00     0.010 A 
ATOM     36  C   UNL A   1      38.414  29.633  29.767  1.00  0.00    -0.014 A 
BRANCH  36  37
ATOM     37  C   UNL A   1      39.720  29.074  30.199  1.00  0.00     0.031 A 
ATOM     38  C   UNL A   1      40.429  29.626  31.405  1.00  0.00     0.074 A 
ATOM     39  C   UNL A   1      40.292  28.094  29.472  1.00  0.00     0.049 A 
ATOM     40  N   UNL A   1      41.583  29.280  31.916  1.00  0.00    -0.248 NA
ATOM     41  C   UNL A   1      39.765  30.731  32.115  1.00  0.00     0.031 C 
ATOM     42  C   UNL A   1      39.733  27.512  28.251  1.00  0.00     0.029 A 
ATOM     43  N   UNL A   1      41.474  27.419  29.652  1.00  0.00    -0.354 N 
ATOM     44  C   UNL A   1      41.788  30.127  32.997  1.00  0.00     0.074 A 
ATOM     45  C   UNL A   1      40.665  31.038  33.038  1.00  0.00     0.031 C 
ATOM     46  C   UNL A   1      40.558  26.552  27.804  1.00  0.00     0.029 A 
ATOM     47  C   UNL A   1      41.717  26.472  28.687  1.00  0.00     0.049 A 
ATOM     48  H   UNL A   1      42.088  27.598  30.400  1.00  0.00     0.167 HD
ATOM     49  C   UNL A   1      42.809  30.131  33.888  1.00  0.00     0.037 A 
ATOM     50  C   UNL A   1      42.759  25.635  28.530  1.00  0.00     0.037 A 
ATOM     51  C   UNL A   1      43.913  29.208  33.858  1.00  0.00     0.049 A 
ATOM     52  C   UNL A   1      43.875  25.653  29.538  1.00  0.00     0.074 A 
ATOM     53  C   UNL A   1      44.959  29.086  34.757  1.00  0.00     0.029 A 
ATOM     54  N   UNL A   1      44.118  28.251  32.876  1.00  0.00    -0.354 N 
ATOM     55  N   UNL A   1      44.016  26.405  30.602  1.00  0.00    -0.248 NA
ATOM     56  C   UNL A   1      44.972  24.698  29.326  1.00  0.00     0.031 C 
ATOM     57  C   UNL A   1      45.820  28.085  34.294  1.00  0.00     0.029 A 
ATOM     58  C   UNL A   1      45.286  27.550  33.132  1.00  0.00     0.049 A 
ATOM     59  H   UNL A   1      43.521  28.093  32.109  1.00  0.00     0.167 HD
ATOM     60  C   UNL A   1      45.203  26.001  31.198  1.00  0.00     0.074 A 
ATOM     61  C   UNL A   1      45.733  24.924  30.388  1.00  0.00     0.031 C 
ATOM     62  C   UNL A   1      45.802  26.482  32.316  1.00  0.00     0.037 A 
BRANCH  49  63
ATOM     63  C   UNL A   1      42.775  31.166  34.976  1.00  0.00     0.057 A 
ATOM     64  C   UNL A   1      42.256  30.885  36.247  1.00  0.00     0.134 A 
ATOM     65  C   UNL A   1      43.301  32.446  34.762  1.00  0.00     0.134 A 
ATOM     66  F   UNL A   1      41.726  29.681  36.515  1.00  0.00    -0.206 F 
ATOM     67  C   UNL A   1      42.235  31.848  37.257  1.00  0.00     0.040 A 
ATOM     68  C   UNL A   1      43.311  33.409  35.773  1.00  0.00     0.040 A 
ATOM     69  F   UNL A   1      43.820  32.779  33.571  1.00  0.00    -0.206 F 
ATOM     70  C   UNL A   1      42.771  33.113  37.022  1.00  0.00     0.006 A 
ENDBRANCH  49  63
BRANCH  50  71
ATOM     71  C   UNL A   1      42.784  24.689  27.387  1.00  0.00     0.057 A 
ATOM     72  C   UNL A   1      42.230  23.409  27.496  1.00  0.00     0.134 A 
ATOM     73  C   UNL A   1      43.361  25.041  26.160  1.00  0.00     0.134 A 
ATOM     74  F   UNL A   1      41.678  23.009  28.652  1.00  0.00    -0.206 F 
ATOM     75  C   UNL A   1      42.264  22.504  26.433  1.00  0.00     0.040 A 
ATOM     76  C   UNL A   1      43.379  24.155  25.082  1.00  0.00     0.040 A 
ATOM     77  F   UNL A   1      43.901  26.256  25.989  1.00  0.00    -0.206 F 
ATOM     78  C   UNL A   1      42.835  22.879  25.220  1.00  0.00     0.006 A 
ENDBRANCH  50  71
BRANCH  62  79
ATOM     79  C   UNL A   1      47.085  25.828  32.738  1.00  0.00     0.057 A 
ATOM     80  C   UNL A   1      47.109  24.782  33.668  1.00  0.00     0.134 A 
ATOM     81  C   UNL A   1      48.308  26.234  32.189  1.00  0.00     0.134 A 
ATOM     82  F   UNL A   1      45.973  24.355  34.241  1.00  0.00    -0.206 F 
ATOM     83  C   UNL A   1      48.307  24.178  34.057  1.00  0.00     0.040 A 
ATOM     84  C   UNL A   1      49.509  25.620  32.549  1.00  0.00     0.040 A 
ATOM     85  F   UNL A   1      48.354  27.225  31.285  1.00  0.00    -0.206 F 
ATOM     86  C   UNL A   1      49.510  24.595  33.491  1.00  0.00     0.006 A 
ENDBRANCH  62  79
ENDBRANCH  36  37
ENDBRANCH  28  31
ENDBRANCH  26  27
ENDBRANCH  25  26
ENDBRANCH  24  25
ENDBRANCH  23  24
ENDBRANCH   1  23
TORSDOF 17
ENDMDL
MODEL 3
REMARK VINA RESULT:      -9.6      3.470      8.656
REMARK SMILES COC[C@H]1CCN(C(=O)N2CC[C@H](C(=O)NCCCCCCNC(=O)c3ccc(-c4c5nc(c(-c6c(F)cccc6F)c6ccc([nH]6)c(-c6c(F)cccc6F)c6nc(c(-c7c(F)cccc7F)c7ccc4[nH]7)C=C6)C=C5)cc3)[C@@H]2C)C1
REMARK SMILES IDX 18 1 17 2 16 3 14 4 15 5 13 7 10 8 11 9 80 10 12 11 81 12
REMARK SMILES IDX 8 13 9 14 7 15 4 16 5 17 82 18 6 19 3 20 2 21 1 22 19 23
REMARK SMILES IDX 20 24 21 25 22 26 23 27 24 28 25 30 26 31 27 32 79 33 28 34
REMARK SMILES IDX 78 35 29 36 30 37 31 38 72 39 32 40 77 41 71 42 73 43 33 44
REMARK SMILES IDX 76 45 70 46 69 47 34 49 60 50 43 51 59 52 44 53 47 54 58 55
REMARK SMILES IDX 74 56 45 57 46 58 57 60 75 61 48 62 35 63 36 64 41 65 37 66
REMARK SMILES IDX 38 67 40 68 42 69 39 70 61 71 62 72 67 73 63 74 64 75 66 76
REMARK SMILES IDX 68 77 65 78 49 79 50 80 55 81 51 82 52 83 54 84 56 85 53 86
REMARK H PARENT 16 6 23 29 73 48 47 59
REMARK Flexibility Score: inf
ROOT
ATOM      1  C   UNL A   1      39.363  22.136  26.360  1.00  0.00     0.021 C 
ENDROOT
BRANCH   1   2
ATOM      2  C   UNL A   1      38.219  23.067  25.970  1.00  0.00     0.116 C 
BRANCH   2   3
ATOM      3  N   UNL A   1      37.784  22.879  24.602  1.00  0.00    -0.356 N 
ATOM      4  C   UNL A   1      36.604  23.173  23.996  1.00  0.00     0.225 C 
ATOM      5  O   UNL A   1      36.541  22.981  22.778  1.00  0.00    -0.275 OA
ATOM      6  H   UNL A   1      38.458  22.471  24.011  1.00  0.00     0.163 HD
BRANCH   4   7
ATOM      7  C   UNL A   1      35.380  23.700  24.738  1.00  0.00     0.102 C 
ATOM      8  N   UNL A   1      33.270  22.651  24.809  1.00  0.00    -0.321 N 
ATOM      9  C   UNL A   1      33.021  23.984  24.293  1.00  0.00     0.122 C 
ATOM     10  C   UNL A   1      34.535  22.683  25.537  1.00  0.00     0.096 C 
ATOM     11  C   UNL A   1      34.388  24.452  23.828  1.00  0.00     0.037 C 
ATOM     12  C   UNL A   1      35.165  21.322  25.809  1.00  0.00     0.032 C 
BRANCH   8  13
ATOM     13  C   UNL A   1      32.249  21.788  25.119  1.00  0.00     0.320 C 
ATOM     14  O   UNL A   1      31.331  22.105  25.873  1.00  0.00    -0.248 OA
BRANCH  13  15
ATOM     15  N   UNL A   1      32.355  20.519  24.594  1.00  0.00    -0.324 N 
ATOM     16  C   UNL A   1      32.797  18.181  24.506  1.00  0.00     0.036 C 
ATOM     17  C   UNL A   1      32.148  18.667  23.208  1.00  0.00     0.029 C 
ATOM     18  C   UNL A   1      32.682  19.388  25.449  1.00  0.00     0.127 C 
ATOM     19  C   UNL A   1      32.477  20.143  23.200  1.00  0.00     0.122 C 
BRANCH  16  20
ATOM     20  C   UNL A   1      32.157  16.930  25.099  1.00  0.00     0.165 C 
BRANCH  20  21
ATOM     21  O   UNL A   1      33.104  16.095  25.762  1.00  0.00    -0.384 OA
ATOM     22  C   UNL A   1      32.974  14.711  25.466  1.00  0.00     0.194 C 
ENDBRANCH  20  21
ENDBRANCH  16  20
ENDBRANCH  13  15
ENDBRANCH   8  13
ENDBRANCH   4   7
ENDBRANCH   2   3
ENDBRANCH   1   2
BRANCH   1  23
ATOM     23  C   UNL A   1      40.522  22.823  27.088  1.00  0.00     0.002 C 
BRANCH  23  24
ATOM     24  C   UNL A   1      41.813  22.004  27.200  1.00  0.00     0.002 C 
BRANCH  24  25
ATOM     25  C   UNL A   1      42.645  21.895  25.919  1.00  0.00     0.021 C 
BRANCH  25  26
ATOM     26  C   UNL A   1      42.638  23.134  25.029  1.00  0.00     0.116 C 
BRANCH  26  27
ATOM     27  N   UNL A   1      43.973  23.652  24.784  1.00  0.00    -0.352 N 
ATOM     28  C   UNL A   1      44.584  24.768  25.292  1.00  0.00     0.251 C 
ATOM     29  H   UNL A   1      44.519  23.123  24.160  1.00  0.00     0.163 HD
ATOM     30  O   UNL A   1      45.674  25.128  24.838  1.00  0.00    -0.269 OA
BRANCH  28  31
ATOM     31  C   UNL A   1      43.942  25.559  26.362  1.00  0.00     0.039 A 
ATOM     32  C   UNL A   1      43.507  24.898  27.514  1.00  0.00     0.014 A 
ATOM     33  C   UNL A   1      43.746  26.937  26.229  1.00  0.00     0.014 A 
ATOM     34  C   UNL A   1      42.925  25.626  28.554  1.00  0.00     0.010 A 
ATOM     35  C   UNL A   1      43.227  27.671  27.295  1.00  0.00     0.010 A 
ATOM     36  C   UNL A   1      42.810  27.022  28.466  1.00  0.00    -0.014 A 
BRANCH  36  37
ATOM     37  C   UNL A   1      42.263  27.812  29.599  1.00  0.00     0.031 A 
ATOM     38  C   UNL A   1      42.916  27.761  30.952  1.00  0.00     0.074 A 
ATOM     39  C   UNL A   1      41.145  28.540  29.417  1.00  0.00     0.049 A 
ATOM     40  N   UNL A   1      42.568  28.363  32.061  1.00  0.00    -0.248 NA
ATOM     41  C   UNL A   1      44.102  26.901  31.084  1.00  0.00     0.031 C 
ATOM     42  C   UNL A   1      40.386  28.628  28.168  1.00  0.00     0.029 A 
ATOM     43  N   UNL A   1      40.448  29.343  30.286  1.00  0.00    -0.354 N 
ATOM     44  C   UNL A   1      43.481  27.949  33.021  1.00  0.00     0.074 A 
ATOM     45  C   UNL A   1      44.369  27.004  32.378  1.00  0.00     0.031 C 
ATOM     46  C   UNL A   1      39.344  29.454  28.344  1.00  0.00     0.029 A 
ATOM     47  C   UNL A   1      39.342  29.932  29.723  1.00  0.00     0.049 A 
ATOM     48  H   UNL A   1      40.716  29.482  31.223  1.00  0.00     0.167 HD
ATOM     49  C   UNL A   1      43.585  28.338  34.315  1.00  0.00     0.037 A 
ATOM     50  C   UNL A   1      38.427  30.761  30.259  1.00  0.00     0.037 A 
ATOM     51  C   UNL A   1      42.714  29.295  34.945  1.00  0.00     0.049 A 
ATOM     52  C   UNL A   1      38.570  31.184  31.694  1.00  0.00     0.074 A 
ATOM     53  C   UNL A   1      42.781  29.807  36.230  1.00  0.00     0.029 A 
ATOM     54  N   UNL A   1      41.615  29.884  34.339  1.00  0.00    -0.354 N 
ATOM     55  N   UNL A   1      39.487  30.846  32.569  1.00  0.00    -0.248 NA
ATOM     56  C   UNL A   1      37.555  32.110  32.215  1.00  0.00     0.031 C 
ATOM     57  C   UNL A   1      41.696  30.670  36.415  1.00  0.00     0.029 A 
ATOM     58  C   UNL A   1      40.980  30.735  35.230  1.00  0.00     0.049 A 
ATOM     59  H   UNL A   1      41.327  29.721  33.411  1.00  0.00     0.167 HD
ATOM     60  C   UNL A   1      39.173  31.534  33.733  1.00  0.00     0.074 A 
ATOM     61  C   UNL A   1      37.992  32.323  33.448  1.00  0.00     0.031 C 
ATOM     62  C   UNL A   1      39.804  31.512  34.933  1.00  0.00     0.037 A 
BRANCH  49  63
ATOM     63  C   UNL A   1      44.684  27.727  35.136  1.00  0.00     0.057 A 
ATOM     64  C   UNL A   1      45.935  28.344  35.270  1.00  0.00     0.134 A 
ATOM     65  C   UNL A   1      44.478  26.528  35.829  1.00  0.00     0.134 A 
ATOM     66  F   UNL A   1      46.203  29.489  34.623  1.00  0.00    -0.206 F 
ATOM     67  C   UNL A   1      46.951  27.776  36.042  1.00  0.00     0.040 A 
ATOM     68  C   UNL A   1      45.476  25.964  36.626  1.00  0.00     0.040 A 
ATOM     69  F   UNL A   1      43.302  25.888  35.750  1.00  0.00    -0.206 F 
ATOM     70  C   UNL A   1      46.719  26.585  36.728  1.00  0.00     0.006 A 
ENDBRANCH  49  63
BRANCH  50  71
ATOM     71  C   UNL A   1      37.309  31.269  29.425  1.00  0.00     0.057 A 
ATOM     72  C   UNL A   1      37.353  32.547  28.858  1.00  0.00     0.134 A 
ATOM     73  C   UNL A   1      36.172  30.490  29.176  1.00  0.00     0.134 A 
ATOM     74  F   UNL A   1      38.409  33.346  29.077  1.00  0.00    -0.206 F 
ATOM     75  C   UNL A   1      36.300  33.042  28.088  1.00  0.00     0.040 A 
ATOM     76  C   UNL A   1      35.123  30.963  28.387  1.00  0.00     0.040 A 
ATOM     77  F   UNL A   1      36.073  29.253  29.683  1.00  0.00    -0.206 F 
ATOM     78  C   UNL A   1      35.182  32.247  27.846  1.00  0.00     0.006 A 
ENDBRANCH  50  71
BRANCH  62  79
ATOM     79  C   UNL A   1      39.243  32.384  36.016  1.00  0.00     0.057 A 
ATOM     80  C   UNL A   1      38.286  31.912  36.923  1.00  0.00     0.134 A 
ATOM     81  C   UNL A   1      39.682  33.705  36.169  1.00  0.00     0.134 A 
ATOM     82  F   UNL A   1      37.813  30.660  36.823  1.00  0.00    -0.206 F 
ATOM     83  C   UNL A   1      37.767  32.731  37.928  1.00  0.00     0.040 A 
ATOM     84  C   UNL A   1      39.191  34.525  37.187  1.00  0.00     0.040 A 
ATOM     85  F   UNL A   1      40.604  34.217  35.339  1.00  0.00    -0.206 F 
ATOM     86  C   UNL A   1      38.225  34.039  38.065  1.00  0.00     0.006 A 
ENDBRANCH  62  79
ENDBRANCH  36  37
ENDBRANCH  28  31
ENDBRANCH  26  27
ENDBRANCH  25  26
ENDBRANCH  24  25
ENDBRANCH  23  24
ENDBRANCH   1  23
TORSDOF 17
ENDMDL
