MODEL 1
REMARK VINA RESULT:      -9.4      0.000      0.000
REMARK SMILES COc1ccc(Cl)cc1C[NH2+]CCC(=O)NCCCCCCNC(=O)c1ccc(-c2c3nc(c(-c4c(F)cccc4F)c4ccc([nH]4)c(-c4c(F)cccc4F)c4nc(c(-c5c(F)cccc5F)c5ccc2[nH]5)C=C4)C=C3)cc1
REMARK SMILES IDX 18 1 17 2 16 3 14 4 15 5 13 7 12 8 11 9 10 12 9 13 3 14 4 15
REMARK SMILES IDX 5 16 8 17 6 18 7 19 2 20 1 21 19 22 20 23 21 24 22 25 23 26
REMARK SMILES IDX 24 27 25 29 26 30 27 31 79 32 28 33 78 34 29 35 30 36 31 37
REMARK SMILES IDX 72 38 32 39 77 40 71 41 73 42 33 43 76 44 70 45 69 46 34 48
REMARK SMILES IDX 60 49 43 50 59 51 44 52 47 53 58 54 74 55 45 56 46 57 57 59
REMARK SMILES IDX 75 60 48 61 35 62 36 63 41 64 37 65 38 66 40 67 42 68 39 69
REMARK SMILES IDX 61 70 62 71 67 72 63 73 64 74 66 75 68 76 65 77 49 78 50 79
REMARK SMILES IDX 55 80 51 81 52 82 54 83 56 84 53 85
REMARK H PARENT 16 6 11 10 11 11 23 28 73 47 47 58
REMARK Flexibility Score: inf
ROOT
ATOM      1  C   UNL A   1      35.305  32.498  28.179  1.00  0.00     0.021 C 
ENDROOT
BRANCH   1   2
ATOM      2  C   UNL A   1      34.044  31.660  27.945  1.00  0.00     0.116 C 
BRANCH   2   3
ATOM      3  N   UNL A   1      34.314  30.576  27.021  1.00  0.00    -0.356 N 
ATOM      4  C   UNL A   1      33.506  29.555  26.619  1.00  0.00     0.225 C 
ATOM      5  O   UNL A   1      33.974  28.697  25.869  1.00  0.00    -0.275 OA
ATOM      6  H   UNL A   1      35.215  30.578  26.623  1.00  0.00     0.163 HD
BRANCH   4   7
ATOM      7  C   UNL A   1      32.060  29.496  27.065  1.00  0.00     0.161 C 
BRANCH   7   8
ATOM      8  C   UNL A   1      31.547  28.073  27.317  1.00  0.00     0.270 C 
BRANCH   8   9
ATOM      9  N   UNL A   1      31.384  27.216  26.137  1.00  0.00    -0.342 N 
ATOM     10  H   UNL A   1      30.413  27.277  25.826  1.00  0.00     0.346 HD
ATOM     11  H   UNL A   1      32.040  27.552  25.432  1.00  0.00     0.346 HD
BRANCH   9  12
ATOM     12  C   UNL A   1      31.703  25.806  26.381  1.00  0.00     0.301 C 
BRANCH  12  13
ATOM     13  C   UNL A   1      32.733  25.286  25.393  1.00  0.00     0.050 A 
ATOM     14  C   UNL A   1      32.472  25.206  24.010  1.00  0.00     0.127 A 
ATOM     15  C   UNL A   1      33.473  24.772  23.132  1.00  0.00     0.048 A 
ATOM     16  C   UNL A   1      34.713  24.357  23.622  1.00  0.00     0.024 A 
ATOM     17  C   UNL A   1      33.988  24.863  25.870  1.00  0.00     0.034 A 
ATOM     18  C   UNL A   1      34.958  24.388  24.991  1.00  0.00     0.041 A 
ATOM     19  Cl  UNL A   1      36.466  23.824  25.596  1.00  0.00    -0.084 Cl
BRANCH  14  20
ATOM     20  O   UNL A   1      31.229  25.599  23.584  1.00  0.00    -0.496 OA
ATOM     21  C   UNL A   1      31.206  26.643  22.613  1.00  0.00     0.278 C 
ENDBRANCH  14  20
ENDBRANCH  12  13
ENDBRANCH   9  12
ENDBRANCH   8   9
ENDBRANCH   7   8
ENDBRANCH   4   7
ENDBRANCH   2   3
ENDBRANCH   1   2
BRANCH   1  22
ATOM     22  C   UNL A   1      35.067  33.751  29.028  1.00  0.00     0.002 C 
BRANCH  22  23
ATOM     23  C   UNL A   1      34.800  35.035  28.232  1.00  0.00     0.002 C 
BRANCH  23  24
ATOM     24  C   UNL A   1      33.786  36.001  28.854  1.00  0.00     0.021 C 
BRANCH  24  25
ATOM     25  C   UNL A   1      32.662  35.343  29.652  1.00  0.00     0.116 C 
BRANCH  25  26
ATOM     26  N   UNL A   1      32.316  36.122  30.829  1.00  0.00    -0.352 N 
ATOM     27  C   UNL A   1      32.795  36.043  32.113  1.00  0.00     0.251 C 
ATOM     28  H   UNL A   1      31.630  36.812  30.683  1.00  0.00     0.163 HD
ATOM     29  O   UNL A   1      32.208  36.636  33.013  1.00  0.00    -0.269 OA
BRANCH  27  30
ATOM     30  C   UNL A   1      34.006  35.249  32.432  1.00  0.00     0.039 A 
ATOM     31  C   UNL A   1      33.839  33.969  32.972  1.00  0.00     0.014 A 
ATOM     32  C   UNL A   1      35.292  35.775  32.280  1.00  0.00     0.014 A 
ATOM     33  C   UNL A   1      34.955  33.205  33.322  1.00  0.00     0.010 A 
ATOM     34  C   UNL A   1      36.407  34.992  32.578  1.00  0.00     0.010 A 
ATOM     35  C   UNL A   1      36.250  33.702  33.111  1.00  0.00    -0.014 A 
BRANCH  35  36
ATOM     36  C   UNL A   1      37.446  32.894  33.460  1.00  0.00     0.031 A 
ATOM     37  C   UNL A   1      38.199  33.162  34.735  1.00  0.00     0.074 A 
ATOM     38  C   UNL A   1      37.883  31.944  32.610  1.00  0.00     0.049 A 
ATOM     39  N   UNL A   1      39.301  32.610  35.177  1.00  0.00    -0.248 NA
ATOM     40  C   UNL A   1      37.646  34.197  35.623  1.00  0.00     0.031 C 
ATOM     41  C   UNL A   1      37.259  31.601  31.332  1.00  0.00     0.029 A 
ATOM     42  N   UNL A   1      38.963  31.101  32.691  1.00  0.00    -0.354 N 
ATOM     43  C   UNL A   1      39.577  33.234  36.387  1.00  0.00     0.074 A 
ATOM     44  C   UNL A   1      38.553  34.235  36.590  1.00  0.00     0.031 C 
ATOM     45  C   UNL A   1      37.962  30.615  30.751  1.00  0.00     0.029 A 
ATOM     46  C   UNL A   1      39.102  30.279  31.599  1.00  0.00     0.049 A 
ATOM     47  H   UNL A   1      39.580  31.087  33.458  1.00  0.00     0.167 HD
ATOM     48  C   UNL A   1      40.583  32.983  37.260  1.00  0.00     0.037 A 
ATOM     49  C   UNL A   1      40.049  29.367  31.309  1.00  0.00     0.037 A 
ATOM     50  C   UNL A   1      41.596  31.979  37.070  1.00  0.00     0.049 A 
ATOM     51  C   UNL A   1      41.166  29.123  32.284  1.00  0.00     0.074 A 
ATOM     52  C   UNL A   1      42.637  31.631  37.914  1.00  0.00     0.029 A 
ATOM     53  N   UNL A   1      41.694  31.159  35.957  1.00  0.00    -0.354 N 
ATOM     54  N   UNL A   1      41.389  29.690  33.444  1.00  0.00    -0.248 NA
ATOM     55  C   UNL A   1      42.161  28.105  31.912  1.00  0.00     0.031 C 
ATOM     56  C   UNL A   1      43.383  30.621  37.298  1.00  0.00     0.029 A 
ATOM     57  C   UNL A   1      42.785  30.314  36.086  1.00  0.00     0.049 A 
ATOM     58  H   UNL A   1      41.080  31.175  35.187  1.00  0.00     0.167 HD
ATOM     59  C   UNL A   1      42.532  29.084  33.950  1.00  0.00     0.074 A 
ATOM     60  C   UNL A   1      42.948  28.096  32.978  1.00  0.00     0.031 C 
ATOM     61  C   UNL A   1      43.180  29.328  35.116  1.00  0.00     0.037 A 
BRANCH  48  62
ATOM     62  C   UNL A   1      40.631  33.807  38.513  1.00  0.00     0.057 A 
ATOM     63  C   UNL A   1      39.885  33.460  39.647  1.00  0.00     0.134 A 
ATOM     64  C   UNL A   1      41.458  34.933  38.603  1.00  0.00     0.134 A 
ATOM     65  F   UNL A   1      39.065  32.399  39.622  1.00  0.00    -0.206 F 
ATOM     66  C   UNL A   1      39.945  34.215  40.819  1.00  0.00     0.040 A 
ATOM     67  C   UNL A   1      41.546  35.682  39.777  1.00  0.00     0.040 A 
ATOM     68  F   UNL A   1      42.205  35.315  37.556  1.00  0.00    -0.206 F 
ATOM     69  C   UNL A   1      40.783  35.327  40.888  1.00  0.00     0.006 A 
ENDBRANCH  48  62
BRANCH  49  70
ATOM     70  C   UNL A   1      39.981  28.606  30.036  1.00  0.00     0.057 A 
ATOM     71  C   UNL A   1      40.594  29.087  28.874  1.00  0.00     0.134 A 
ATOM     72  C   UNL A   1      39.287  27.394  29.948  1.00  0.00     0.134 A 
ATOM     73  F   UNL A   1      41.256  30.253  28.894  1.00  0.00    -0.206 F 
ATOM     74  C   UNL A   1      40.502  28.400  27.662  1.00  0.00     0.040 A 
ATOM     75  C   UNL A   1      39.207  26.685  28.747  1.00  0.00     0.040 A 
ATOM     76  F   UNL A   1      38.684  26.877  31.028  1.00  0.00    -0.206 F 
ATOM     77  C   UNL A   1      39.809  27.193  27.598  1.00  0.00     0.006 A 
ENDBRANCH  49  70
BRANCH  61  78
ATOM     78  C   UNL A   1      44.385  28.489  35.417  1.00  0.00     0.057 A 
ATOM     79  C   UNL A   1      44.285  27.276  36.108  1.00  0.00     0.134 A 
ATOM     80  C   UNL A   1      45.656  28.885  34.981  1.00  0.00     0.134 A 
ATOM     81  F   UNL A   1      43.098  26.850  36.565  1.00  0.00    -0.206 F 
ATOM     82  C   UNL A   1      45.410  26.492  36.369  1.00  0.00     0.040 A 
ATOM     83  C   UNL A   1      46.785  28.100  35.217  1.00  0.00     0.040 A 
ATOM     84  F   UNL A   1      45.819  30.035  34.309  1.00  0.00    -0.206 F 
ATOM     85  C   UNL A   1      46.664  26.901  35.917  1.00  0.00     0.006 A 
ENDBRANCH  61  78
ENDBRANCH  35  36
ENDBRANCH  27  30
ENDBRANCH  25  26
ENDBRANCH  24  25
ENDBRANCH  23  24
ENDBRANCH  22  23
ENDBRANCH   1  22
TORSDOF 18
ENDMDL
MODEL 2
REMARK VINA RESULT:      -9.3      1.943      2.588
REMARK SMILES COc1ccc(Cl)cc1C[NH2+]CCC(=O)NCCCCCCNC(=O)c1ccc(-c2c3nc(c(-c4c(F)cccc4F)c4ccc([nH]4)c(-c4c(F)cccc4F)c4nc(c(-c5c(F)cccc5F)c5ccc2[nH]5)C=C4)C=C3)cc1
REMARK SMILES IDX 18 1 17 2 16 3 14 4 15 5 13 7 12 8 11 9 10 12 9 13 3 14 4 15
REMARK SMILES IDX 5 16 8 17 6 18 7 19 2 20 1 21 19 22 20 23 21 24 22 25 23 26
REMARK SMILES IDX 24 27 25 29 26 30 27 31 79 32 28 33 78 34 29 35 30 36 31 37
REMARK SMILES IDX 72 38 32 39 77 40 71 41 73 42 33 43 76 44 70 45 69 46 34 48
REMARK SMILES IDX 60 49 43 50 59 51 44 52 47 53 58 54 74 55 45 56 46 57 57 59
REMARK SMILES IDX 75 60 48 61 35 62 36 63 41 64 37 65 38 66 40 67 42 68 39 69
REMARK SMILES IDX 61 70 62 71 67 72 63 73 64 74 66 75 68 76 65 77 49 78 50 79
REMARK SMILES IDX 55 80 51 81 52 82 54 83 56 84 53 85
REMARK H PARENT 16 6 11 10 11 11 23 28 73 47 47 58
REMARK Flexibility Score: inf
ROOT
ATOM      1  C   UNL A   1      35.459  31.924  28.325  1.00  0.00     0.021 C 
ENDROOT
BRANCH   1   2
ATOM      2  C   UNL A   1      34.562  30.767  27.874  1.00  0.00     0.116 C 
BRANCH   2   3
ATOM      3  N   UNL A   1      33.302  31.267  27.359  1.00  0.00    -0.356 N 
ATOM      4  C   UNL A   1      32.399  30.663  26.536  1.00  0.00     0.225 C 
ATOM      5  O   UNL A   1      31.418  31.310  26.167  1.00  0.00    -0.275 OA
ATOM      6  H   UNL A   1      33.063  32.177  27.646  1.00  0.00     0.163 HD
BRANCH   4   7
ATOM      7  C   UNL A   1      32.588  29.222  26.111  1.00  0.00     0.161 C 
BRANCH   7   8
ATOM      8  C   UNL A   1      33.307  29.062  24.766  1.00  0.00     0.270 C 
BRANCH   8   9
ATOM      9  N   UNL A   1      32.540  29.412  23.565  1.00  0.00    -0.342 N 
ATOM     10  H   UNL A   1      31.866  30.138  23.814  1.00  0.00     0.346 HD
ATOM     11  H   UNL A   1      33.210  29.727  22.865  1.00  0.00     0.346 HD
BRANCH   9  12
ATOM     12  C   UNL A   1      31.809  28.283  22.981  1.00  0.00     0.301 C 
BRANCH  12  13
ATOM     13  C   UNL A   1      30.312  28.536  22.961  1.00  0.00     0.050 A 
ATOM     14  C   UNL A   1      29.378  27.547  23.334  1.00  0.00     0.127 A 
ATOM     15  C   UNL A   1      28.010  27.846  23.352  1.00  0.00     0.048 A 
ATOM     16  C   UNL A   1      27.554  29.101  22.945  1.00  0.00     0.024 A 
ATOM     17  C   UNL A   1      29.834  29.796  22.552  1.00  0.00     0.034 A 
ATOM     18  C   UNL A   1      28.468  30.065  22.530  1.00  0.00     0.041 A 
ATOM     19  Cl  UNL A   1      27.899  31.590  21.976  1.00  0.00    -0.084 Cl
BRANCH  14  20
ATOM     20  O   UNL A   1      29.877  26.323  23.698  1.00  0.00    -0.496 OA
ATOM     21  C   UNL A   1      29.709  25.967  25.068  1.00  0.00     0.278 C 
ENDBRANCH  14  20
ENDBRANCH  12  13
ENDBRANCH   9  12
ENDBRANCH   8   9
ENDBRANCH   7   8
ENDBRANCH   4   7
ENDBRANCH   2   3
ENDBRANCH   1   2
BRANCH   1  22
ATOM     22  C   UNL A   1      34.699  33.073  28.994  1.00  0.00     0.002 C 
BRANCH  22  23
ATOM     23  C   UNL A   1      34.966  34.462  28.400  1.00  0.00     0.002 C 
BRANCH  23  24
ATOM     24  C   UNL A   1      34.004  35.568  28.844  1.00  0.00     0.021 C 
BRANCH  24  25
ATOM     25  C   UNL A   1      32.757  35.091  29.585  1.00  0.00     0.116 C 
BRANCH  25  26
ATOM     26  N   UNL A   1      32.429  35.964  30.699  1.00  0.00    -0.352 N 
ATOM     27  C   UNL A   1      32.893  35.961  31.990  1.00  0.00     0.251 C 
ATOM     28  H   UNL A   1      31.772  36.668  30.495  1.00  0.00     0.163 HD
ATOM     29  O   UNL A   1      32.320  36.639  32.839  1.00  0.00    -0.269 OA
BRANCH  27  30
ATOM     30  C   UNL A   1      34.069  35.148  32.381  1.00  0.00     0.039 A 
ATOM     31  C   UNL A   1      35.347  35.682  32.175  1.00  0.00     0.014 A 
ATOM     32  C   UNL A   1      33.933  33.846  32.872  1.00  0.00     0.014 A 
ATOM     33  C   UNL A   1      36.480  34.931  32.494  1.00  0.00     0.010 A 
ATOM     34  C   UNL A   1      35.064  33.117  33.241  1.00  0.00     0.010 A 
ATOM     35  C   UNL A   1      36.349  33.648  33.047  1.00  0.00    -0.014 A 
BRANCH  35  36
ATOM     36  C   UNL A   1      37.545  32.845  33.409  1.00  0.00     0.031 A 
ATOM     37  C   UNL A   1      38.285  33.119  34.691  1.00  0.00     0.074 A 
ATOM     38  C   UNL A   1      37.993  31.895  32.565  1.00  0.00     0.049 A 
ATOM     39  N   UNL A   1      39.385  32.572  35.144  1.00  0.00    -0.248 NA
ATOM     40  C   UNL A   1      37.720  34.154  35.571  1.00  0.00     0.031 C 
ATOM     41  C   UNL A   1      37.382  31.546  31.283  1.00  0.00     0.029 A 
ATOM     42  N   UNL A   1      39.076  31.056  32.658  1.00  0.00    -0.354 N 
ATOM     43  C   UNL A   1      39.648  33.201  36.354  1.00  0.00     0.074 A 
ATOM     44  C   UNL A   1      38.618  34.199  36.546  1.00  0.00     0.031 C 
ATOM     45  C   UNL A   1      38.095  30.561  30.711  1.00  0.00     0.029 A 
ATOM     46  C   UNL A   1      39.228  30.232  31.570  1.00  0.00     0.049 A 
ATOM     47  H   UNL A   1      39.685  31.046  33.431  1.00  0.00     0.167 HD
ATOM     48  C   UNL A   1      40.646  32.956  37.238  1.00  0.00     0.037 A 
ATOM     49  C   UNL A   1      40.181  29.322  31.291  1.00  0.00     0.037 A 
ATOM     50  C   UNL A   1      41.666  31.956  37.059  1.00  0.00     0.049 A 
ATOM     51  C   UNL A   1      41.290  29.085  32.277  1.00  0.00     0.074 A 
ATOM     52  C   UNL A   1      42.700  31.614  37.913  1.00  0.00     0.029 A 
ATOM     53  N   UNL A   1      41.777  31.133  35.949  1.00  0.00    -0.354 N 
ATOM     54  N   UNL A   1      41.500  29.657  33.437  1.00  0.00    -0.248 NA
ATOM     55  C   UNL A   1      42.292  28.071  31.916  1.00  0.00     0.031 C 
ATOM     56  C   UNL A   1      43.455  30.605  37.307  1.00  0.00     0.029 A 
ATOM     57  C   UNL A   1      42.869  30.293  36.090  1.00  0.00     0.049 A 
ATOM     58  H   UNL A   1      41.169  31.144  35.173  1.00  0.00     0.167 HD
ATOM     59  C   UNL A   1      42.641  29.057  33.955  1.00  0.00     0.074 A 
ATOM     60  C   UNL A   1      43.070  28.067  32.990  1.00  0.00     0.031 C 
ATOM     61  C   UNL A   1      43.277  29.305  35.126  1.00  0.00     0.037 A 
BRANCH  48  62
ATOM     62  C   UNL A   1      40.680  33.784  38.488  1.00  0.00     0.057 A 
ATOM     63  C   UNL A   1      39.917  33.442  39.613  1.00  0.00     0.134 A 
ATOM     64  C   UNL A   1      41.510  34.906  38.587  1.00  0.00     0.134 A 
ATOM     65  F   UNL A   1      39.093  32.384  39.579  1.00  0.00    -0.206 F 
ATOM     66  C   UNL A   1      39.964  34.200  40.783  1.00  0.00     0.040 A 
ATOM     67  C   UNL A   1      41.584  35.659  39.760  1.00  0.00     0.040 A 
ATOM     68  F   UNL A   1      42.273  35.283  37.549  1.00  0.00    -0.206 F 
ATOM     69  C   UNL A   1      40.804  35.309  40.861  1.00  0.00     0.006 A 
ENDBRANCH  48  62
BRANCH  49  70
ATOM     70  C   UNL A   1      40.127  28.558  30.020  1.00  0.00     0.057 A 
ATOM     71  C   UNL A   1      40.824  28.993  28.887  1.00  0.00     0.134 A 
ATOM     72  C   UNL A   1      39.365  27.390  29.903  1.00  0.00     0.134 A 
ATOM     73  F   UNL A   1      41.554  30.116  28.934  1.00  0.00    -0.206 F 
ATOM     74  C   UNL A   1      40.749  28.304  27.675  1.00  0.00     0.040 A 
ATOM     75  C   UNL A   1      39.299  26.679  28.703  1.00  0.00     0.040 A 
ATOM     76  F   UNL A   1      38.680  26.919  30.955  1.00  0.00    -0.206 F 
ATOM     77  C   UNL A   1      39.986  27.141  27.582  1.00  0.00     0.006 A 
ENDBRANCH  49  70
BRANCH  61  78
ATOM     78  C   UNL A   1      44.483  28.473  35.441  1.00  0.00     0.057 A 
ATOM     79  C   UNL A   1      44.383  27.269  36.148  1.00  0.00     0.134 A 
ATOM     80  C   UNL A   1      45.753  28.863  35.001  1.00  0.00     0.134 A 
ATOM     81  F   UNL A   1      43.196  26.848  36.610  1.00  0.00    -0.206 F 
ATOM     82  C   UNL A   1      45.508  26.490  36.422  1.00  0.00     0.040 A 
ATOM     83  C   UNL A   1      46.883  28.083  35.249  1.00  0.00     0.040 A 
ATOM     84  F   UNL A   1      45.916  30.004  34.312  1.00  0.00    -0.206 F 
ATOM     85  C   UNL A   1      46.762  26.894  35.966  1.00  0.00     0.006 A 
ENDBRANCH  61  78
ENDBRANCH  35  36
ENDBRANCH  27  30
ENDBRANCH  25  26
ENDBRANCH  24  25
ENDBRANCH  23  24
ENDBRANCH  22  23
ENDBRANCH   1  22
TORSDOF 18
ENDMDL
MODEL 3
REMARK VINA RESULT:      -9.3      3.464      5.780
REMARK SMILES COc1ccc(Cl)cc1C[NH2+]CCC(=O)NCCCCCCNC(=O)c1ccc(-c2c3nc(c(-c4c(F)cccc4F)c4ccc([nH]4)c(-c4c(F)cccc4F)c4nc(c(-c5c(F)cccc5F)c5ccc2[nH]5)C=C4)C=C3)cc1
REMARK SMILES IDX 18 1 17 2 16 3 14 4 15 5 13 7 12 8 11 9 10 12 9 13 3 14 4 15
REMARK SMILES IDX 5 16 8 17 6 18 7 19 2 20 1 21 19 22 20 23 21 24 22 25 23 26
REMARK SMILES IDX 24 27 25 29 26 30 27 31 79 32 28 33 78 34 29 35 30 36 31 37
REMARK SMILES IDX 72 38 32 39 77 40 71 41 73 42 33 43 76 44 70 45 69 46 34 48
REMARK SMILES IDX 60 49 43 50 59 51 44 52 47 53 58 54 74 55 45 56 46 57 57 59
REMARK SMILES IDX 75 60 48 61 35 62 36 63 41 64 37 65 38 66 40 67 42 68 39 69
REMARK SMILES IDX 61 70 62 71 67 72 63 73 64 74 66 75 68 76 65 77 49 78 50 79
REMARK SMILES IDX 55 80 51 81 52 82 54 83 56 84 53 85
REMARK H PARENT 16 6 11 10 11 11 23 28 73 47 47 58
REMARK Flexibility Score: inf
ROOT
ATOM      1  C   UNL A   1      33.568  25.307  25.626  1.00  0.00     0.021 C 
ENDROOT
BRANCH   1   2
ATOM      2  C   UNL A   1      32.130  25.405  26.144  1.00  0.00     0.116 C 
BRANCH   2   3
ATOM      3  N   UNL A   1      31.376  24.218  25.790  1.00  0.00    -0.356 N 
ATOM      4  C   UNL A   1      31.404  22.974  26.345  1.00  0.00     0.225 C 
ATOM      5  O   UNL A   1      30.719  22.088  25.832  1.00  0.00    -0.275 OA
ATOM      6  H   UNL A   1      30.751  24.327  25.038  1.00  0.00     0.163 HD
BRANCH   4   7
ATOM      7  C   UNL A   1      32.236  22.700  27.580  1.00  0.00     0.161 C 
BRANCH   7   8
ATOM      8  C   UNL A   1      33.525  21.919  27.298  1.00  0.00     0.270 C 
BRANCH   8   9
ATOM      9  N   UNL A   1      33.367  20.530  26.853  1.00  0.00    -0.342 N 
ATOM     10  H   UNL A   1      34.019  19.947  27.379  1.00  0.00     0.346 HD
ATOM     11  H   UNL A   1      32.394  20.273  27.018  1.00  0.00     0.346 HD
BRANCH   9  12
ATOM     12  C   UNL A   1      33.624  20.334  25.422  1.00  0.00     0.301 C 
BRANCH  12  13
ATOM     13  C   UNL A   1      34.740  21.235  24.926  1.00  0.00     0.050 A 
ATOM     14  C   UNL A   1      34.504  22.302  24.035  1.00  0.00     0.127 A 
ATOM     15  C   UNL A   1      35.558  23.139  23.648  1.00  0.00     0.048 A 
ATOM     16  C   UNL A   1      36.858  22.891  24.092  1.00  0.00     0.024 A 
ATOM     17  C   UNL A   1      36.058  20.999  25.362  1.00  0.00     0.034 A 
ATOM     18  C   UNL A   1      37.105  21.811  24.933  1.00  0.00     0.041 A 
ATOM     19  Cl  UNL A   1      38.716  21.475  25.432  1.00  0.00    -0.084 Cl
BRANCH  14  20
ATOM     20  O   UNL A   1      33.214  22.485  23.607  1.00  0.00    -0.496 OA
ATOM     21  C   UNL A   1      33.051  22.726  22.211  1.00  0.00     0.278 C 
ENDBRANCH  14  20
ENDBRANCH  12  13
ENDBRANCH   9  12
ENDBRANCH   8   9
ENDBRANCH   7   8
ENDBRANCH   4   7
ENDBRANCH   2   3
ENDBRANCH   1   2
BRANCH   1  22
ATOM     22  C   UNL A   1      34.030  26.541  24.845  1.00  0.00     0.002 C 
BRANCH  22  23
ATOM     23  C   UNL A   1      32.904  27.462  24.357  1.00  0.00     0.002 C 
BRANCH  23  24
ATOM     24  C   UNL A   1      32.896  28.872  24.955  1.00  0.00     0.021 C 
BRANCH  24  25
ATOM     25  C   UNL A   1      33.855  29.092  26.124  1.00  0.00     0.116 C 
BRANCH  25  26
ATOM     26  N   UNL A   1      33.716  30.424  26.686  1.00  0.00    -0.352 N 
ATOM     27  C   UNL A   1      34.435  31.044  27.677  1.00  0.00     0.251 C 
ATOM     28  H   UNL A   1      32.994  30.967  26.295  1.00  0.00     0.163 HD
ATOM     29  O   UNL A   1      34.013  32.089  28.165  1.00  0.00    -0.269 OA
BRANCH  27  30
ATOM     30  C   UNL A   1      35.708  30.470  28.174  1.00  0.00     0.039 A 
ATOM     31  C   UNL A   1      35.687  29.727  29.360  1.00  0.00     0.014 A 
ATOM     32  C   UNL A   1      36.926  30.718  27.534  1.00  0.00     0.014 A 
ATOM     33  C   UNL A   1      36.872  29.203  29.880  1.00  0.00     0.010 A 
ATOM     34  C   UNL A   1      38.102  30.149  28.024  1.00  0.00     0.010 A 
ATOM     35  C   UNL A   1      38.088  29.394  29.207  1.00  0.00    -0.014 A 
BRANCH  35  36
ATOM     36  C   UNL A   1      39.354  28.826  29.739  1.00  0.00     0.031 A 
ATOM     37  C   UNL A   1      40.011  29.434  30.948  1.00  0.00     0.074 A 
ATOM     38  C   UNL A   1      39.938  27.787  29.109  1.00  0.00     0.049 A 
ATOM     39  N   UNL A   1      41.149  29.122  31.516  1.00  0.00    -0.248 NA
ATOM     40  C   UNL A   1      39.301  30.549  31.595  1.00  0.00     0.031 C 
ATOM     41  C   UNL A   1      39.417  27.121  27.915  1.00  0.00     0.029 A 
ATOM     42  N   UNL A   1      41.104  27.118  29.382  1.00  0.00    -0.354 N 
ATOM     43  C   UNL A   1      41.295  30.005  32.579  1.00  0.00     0.074 A 
ATOM     44  C   UNL A   1      40.152  30.892  32.552  1.00  0.00     0.031 C 
ATOM     45  C   UNL A   1      40.257  26.134  27.562  1.00  0.00     0.029 A 
ATOM     46  C   UNL A   1      41.388  26.119  28.484  1.00  0.00     0.049 A 
ATOM     47  H   UNL A   1      41.682  27.334  30.149  1.00  0.00     0.167 HD
ATOM     48  C   UNL A   1      42.282  30.060  33.506  1.00  0.00     0.037 A 
ATOM     49  C   UNL A   1      42.448  25.291  28.406  1.00  0.00     0.037 A 
ATOM     50  C   UNL A   1      43.414  29.172  33.545  1.00  0.00     0.049 A 
ATOM     51  C   UNL A   1      43.540  25.387  29.434  1.00  0.00     0.074 A 
ATOM     52  C   UNL A   1      44.449  29.131  34.463  1.00  0.00     0.029 A 
ATOM     53  N   UNL A   1      43.658  28.165  32.624  1.00  0.00    -0.354 N 
ATOM     54  N   UNL A   1      43.642  26.198  30.458  1.00  0.00    -0.248 NA
ATOM     55  C   UNL A   1      44.663  24.447  29.297  1.00  0.00     0.031 C 
ATOM     56  C   UNL A   1      45.336  28.119  34.082  1.00  0.00     0.029 A 
ATOM     57  C   UNL A   1      44.833  27.505  32.945  1.00  0.00     0.049 A 
ATOM     58  H   UNL A   1      43.082  27.950  31.855  1.00  0.00     0.167 HD
ATOM     59  C   UNL A   1      44.824  25.852  31.100  1.00  0.00     0.074 A 
ATOM     60  C   UNL A   1      45.397  24.748  30.359  1.00  0.00     0.031 C 
ATOM     61  C   UNL A   1      45.385  26.402  32.205  1.00  0.00     0.037 A 
BRANCH  48  62
ATOM     62  C   UNL A   1      42.176  31.117  34.564  1.00  0.00     0.057 A 
ATOM     63  C   UNL A   1      41.482  30.889  35.760  1.00  0.00     0.134 A 
ATOM     64  C   UNL A   1      42.806  32.358  34.409  1.00  0.00     0.134 A 
ATOM     65  F   UNL A   1      40.849  29.725  35.966  1.00  0.00    -0.206 F 
ATOM     66  C   UNL A   1      41.401  31.865  36.754  1.00  0.00     0.040 A 
ATOM     67  C   UNL A   1      42.752  33.334  35.406  1.00  0.00     0.040 A 
ATOM     68  F   UNL A   1      43.493  32.638  33.292  1.00  0.00    -0.206 F 
ATOM     69  C   UNL A   1      42.043  33.090  36.581  1.00  0.00     0.006 A 
ENDBRANCH  48  62
BRANCH  49  70
ATOM     70  C   UNL A   1      42.527  24.289  27.313  1.00  0.00     0.057 A 
ATOM     71  C   UNL A   1      42.054  22.985  27.495  1.00  0.00     0.134 A 
ATOM     72  C   UNL A   1      43.095  24.606  26.074  1.00  0.00     0.134 A 
ATOM     73  F   UNL A   1      41.518  22.619  28.668  1.00  0.00    -0.206 F 
ATOM     74  C   UNL A   1      42.160  22.024  26.488  1.00  0.00     0.040 A 
ATOM     75  C   UNL A   1      43.187  23.660  25.051  1.00  0.00     0.040 A 
ATOM     76  F   UNL A   1      43.561  25.840  25.836  1.00  0.00    -0.206 F 
ATOM     77  C   UNL A   1      42.726  22.362  25.260  1.00  0.00     0.006 A 
ENDBRANCH  49  70
BRANCH  61  78
ATOM     78  C   UNL A   1      46.665  25.796  32.696  1.00  0.00     0.057 A 
ATOM     79  C   UNL A   1      47.910  26.194  32.193  1.00  0.00     0.134 A 
ATOM     80  C   UNL A   1      46.654  24.830  33.709  1.00  0.00     0.134 A 
ATOM     81  F   UNL A   1      47.986  27.105  31.211  1.00  0.00    -0.206 F 
ATOM     82  C   UNL A   1      49.098  25.638  32.668  1.00  0.00     0.040 A 
ATOM     83  C   UNL A   1      47.836  24.282  34.208  1.00  0.00     0.040 A 
ATOM     84  F   UNL A   1      45.494  24.410  34.238  1.00  0.00    -0.206 F 
ATOM     85  C   UNL A   1      49.063  24.684  33.684  1.00  0.00     0.006 A 
ENDBRANCH  61  78
ENDBRANCH  35  36
ENDBRANCH  27  30
ENDBRANCH  25  26
ENDBRANCH  24  25
ENDBRANCH  23  24
ENDBRANCH  22  23
ENDBRANCH   1  22
TORSDOF 18
ENDMDL
