MODEL 1
REMARK VINA RESULT:     -12.3      0.000      0.000
REMARK SMILES C=CCn1nc(C(=O)NCCCCCCNC(=O)c2ccc(-c3c4nc(c(-c5c(F)cccc5F)c5ccc([nH]5)c(-c5c(F)cccc5F)c5nc(c(-c6c(F)cccc6F)c6ccc3[nH]6)C=C5)C=C4)cc2)c2c1CC[C@@H]([NH+]1CCC(C(C)(C)O)CC1)C2
REMARK SMILES IDX 12 1 11 2 10 3 9 4 7 5 8 6 6 8 4 9 5 10 74 11 73 12 75 13
REMARK SMILES IDX 88 14 76 15 77 16 3 17 2 18 1 19 78 20 79 21 87 22 80 24
REMARK SMILES IDX 86 25 81 26 82 27 83 28 84 29 85 30 13 32 14 33 15 34 16 35
REMARK SMILES IDX 17 36 18 38 19 39 20 40 72 41 21 42 71 43 22 44 23 45 24 46
REMARK SMILES IDX 65 47 25 48 70 49 64 50 66 51 26 52 69 53 63 54 62 55 27 57
REMARK SMILES IDX 53 58 36 59 52 60 37 61 40 62 51 63 67 64 38 65 39 66 50 68
REMARK SMILES IDX 68 69 41 70 28 71 29 72 34 73 30 74 31 75 33 76 35 77 32 78
REMARK SMILES IDX 54 79 55 80 60 81 56 82 57 83 59 84 61 85 58 86 42 87 43 88
REMARK SMILES IDX 48 89 44 90 45 91 47 92 49 93 46 94
REMARK H PARENT 9 7 78 23 85 31 16 37 66 56 40 67
REMARK Flexibility Score: inf
ROOT
ATOM      1  C   UNL A   1      40.294  21.476  26.226  1.00  0.00     0.002 C 
ENDROOT
BRANCH   1   2
ATOM      2  C   UNL A   1      39.254  22.553  26.521  1.00  0.00     0.021 C 
BRANCH   2   3
ATOM      3  C   UNL A   1      37.839  22.247  25.996  1.00  0.00     0.116 C 
BRANCH   3   4
ATOM      4  N   UNL A   1      37.698  22.555  24.587  1.00  0.00    -0.351 N 
ATOM      5  C   UNL A   1      36.645  22.658  23.707  1.00  0.00     0.272 C 
ATOM      6  O   UNL A   1      36.961  23.131  22.607  1.00  0.00    -0.267 OA
ATOM      7  H   UNL A   1      38.564  22.733  24.155  1.00  0.00     0.163 HD
BRANCH   5   8
ATOM      8  C   UNL A   1      35.242  22.269  24.006  1.00  0.00     0.153 A 
ATOM      9  N   UNL A   1      33.697  20.957  24.747  1.00  0.00    -0.265 N 
ATOM     10  N   UNL A   1      35.006  21.006  24.439  1.00  0.00    -0.167 NA
ATOM     11  C   UNL A   1      33.029  22.066  24.326  1.00  0.00     0.043 A 
ATOM     12  C   UNL A   1      34.013  22.987  24.026  1.00  0.00     0.012 A 
ATOM     13  C   UNL A   1      31.569  22.320  24.370  1.00  0.00     0.062 C 
ATOM     14  C   UNL A   1      33.693  24.423  23.885  1.00  0.00     0.105 C 
ATOM     15  C   UNL A   1      31.273  23.815  24.130  1.00  0.00     0.072 C 
ATOM     16  C   UNL A   1      32.360  24.844  24.544  1.00  0.00     0.189 C 
BRANCH   9  17
ATOM     17  C   UNL A   1      33.200  19.851  25.568  1.00  0.00     0.171 C 
BRANCH  17  18
ATOM     18  C   UNL A   1      32.909  18.617  24.744  1.00  0.00    -0.011 C 
ATOM     19  C   UNL A   1      32.484  18.617  23.474  1.00  0.00     0.006 C 
ENDBRANCH  17  18
ENDBRANCH   9  17
BRANCH  16  20
ATOM     20  N   UNL A   1      32.608  25.312  25.923  1.00  0.00    -0.332 N 
ATOM     21  C   UNL A   1      31.524  25.864  26.713  1.00  0.00     0.262 C 
ATOM     22  C   UNL A   1      33.819  26.087  26.141  1.00  0.00     0.262 C 
ATOM     23  H   UNL A   1      32.738  24.374  26.300  1.00  0.00     0.348 HD
ATOM     24  C   UNL A   1      31.203  27.317  26.396  1.00  0.00     0.068 C 
ATOM     25  C   UNL A   1      33.697  27.519  25.655  1.00  0.00     0.068 C 
ATOM     26  C   UNL A   1      32.395  28.248  26.071  1.00  0.00     0.031 C 
BRANCH  26  27
ATOM     27  C   UNL A   1      32.026  29.375  25.037  1.00  0.00     0.062 C 
ATOM     28  C   UNL A   1      31.041  28.916  23.958  1.00  0.00     0.042 C 
ATOM     29  C   UNL A   1      31.477  30.610  25.756  1.00  0.00     0.042 C 
BRANCH  27  30
ATOM     30  O   UNL A   1      33.203  29.796  24.339  1.00  0.00    -0.390 OA
ATOM     31  H   UNL A   1      32.949  30.229  23.510  1.00  0.00     0.211 HD
ENDBRANCH  27  30
ENDBRANCH  26  27
ENDBRANCH  16  20
ENDBRANCH   5   8
ENDBRANCH   3   4
ENDBRANCH   2   3
ENDBRANCH   1   2
BRANCH   1  32
ATOM     32  C   UNL A   1      41.188  21.105  27.421  1.00  0.00     0.002 C 
BRANCH  32  33
ATOM     33  C   UNL A   1      42.239  20.002  27.198  1.00  0.00     0.021 C 
BRANCH  33  34
ATOM     34  C   UNL A   1      42.380  19.563  25.749  1.00  0.00     0.116 C 
BRANCH  34  35
ATOM     35  N   UNL A   1      43.781  19.509  25.301  1.00  0.00    -0.352 N 
ATOM     36  C   UNL A   1      44.650  20.532  24.938  1.00  0.00     0.251 C 
ATOM     37  H   UNL A   1      44.165  18.603  25.249  1.00  0.00     0.163 HD
ATOM     38  O   UNL A   1      45.654  20.309  24.289  1.00  0.00    -0.269 OA
BRANCH  36  39
ATOM     39  C   UNL A   1      44.332  21.905  25.371  1.00  0.00     0.039 A 
ATOM     40  C   UNL A   1      43.426  22.741  24.712  1.00  0.00     0.014 A 
ATOM     41  C   UNL A   1      44.961  22.333  26.524  1.00  0.00     0.014 A 
ATOM     42  C   UNL A   1      43.165  23.992  25.271  1.00  0.00     0.010 A 
ATOM     43  C   UNL A   1      44.403  23.335  27.246  1.00  0.00     0.010 A 
ATOM     44  C   UNL A   1      43.678  24.274  26.546  1.00  0.00    -0.014 A 
BRANCH  44  45
ATOM     45  C   UNL A   1      43.477  25.525  27.249  1.00  0.00     0.031 A 
ATOM     46  C   UNL A   1      44.456  26.561  26.875  1.00  0.00     0.074 A 
ATOM     47  C   UNL A   1      42.341  25.792  27.937  1.00  0.00     0.049 A 
ATOM     48  N   UNL A   1      45.471  26.961  27.561  1.00  0.00    -0.248 NA
ATOM     49  C   UNL A   1      44.423  27.073  25.496  1.00  0.00     0.031 C 
ATOM     50  C   UNL A   1      41.124  24.967  28.059  1.00  0.00     0.029 A 
ATOM     51  N   UNL A   1      41.994  26.923  28.612  1.00  0.00    -0.354 N 
ATOM     52  C   UNL A   1      46.049  27.969  26.800  1.00  0.00     0.074 A 
ATOM     53  C   UNL A   1      45.532  27.815  25.467  1.00  0.00     0.031 C 
ATOM     54  C   UNL A   1      40.114  25.707  28.569  1.00  0.00     0.029 A 
ATOM     55  C   UNL A   1      40.654  26.987  28.983  1.00  0.00     0.049 A 
ATOM     56  H   UNL A   1      42.639  27.637  28.819  1.00  0.00     0.167 HD
ATOM     57  C   UNL A   1      46.630  29.039  27.409  1.00  0.00     0.037 A 
ATOM     58  C   UNL A   1      40.040  28.030  29.591  1.00  0.00     0.037 A 
ATOM     59  C   UNL A   1      46.768  28.798  28.826  1.00  0.00     0.049 A 
ATOM     60  C   UNL A   1      41.104  28.839  30.228  1.00  0.00     0.074 A 
ATOM     61  C   UNL A   1      47.520  27.969  29.629  1.00  0.00     0.029 A 
ATOM     62  N   UNL A   1      45.689  29.212  29.566  1.00  0.00    -0.354 N 
ATOM     63  N   UNL A   1      41.844  28.411  31.212  1.00  0.00    -0.248 NA
ATOM     64  C   UNL A   1      41.627  29.995  29.514  1.00  0.00     0.031 C 
ATOM     65  C   UNL A   1      46.708  27.696  30.772  1.00  0.00     0.029 A 
ATOM     66  C   UNL A   1      45.512  28.405  30.657  1.00  0.00     0.049 A 
ATOM     67  H   UNL A   1      45.120  29.984  29.343  1.00  0.00     0.167 HD
ATOM     68  C   UNL A   1      43.096  28.951  30.970  1.00  0.00     0.074 A 
ATOM     69  C   UNL A   1      42.860  30.039  30.028  1.00  0.00     0.031 C 
ATOM     70  C   UNL A   1      44.226  28.264  31.310  1.00  0.00     0.037 A 
BRANCH  57  71
ATOM     71  C   UNL A   1      46.609  30.452  26.868  1.00  0.00     0.057 A 
ATOM     72  C   UNL A   1      47.801  31.197  26.887  1.00  0.00     0.134 A 
ATOM     73  C   UNL A   1      45.440  31.202  26.623  1.00  0.00     0.134 A 
ATOM     74  F   UNL A   1      48.979  30.603  27.131  1.00  0.00    -0.206 F 
ATOM     75  C   UNL A   1      47.820  32.590  26.737  1.00  0.00     0.040 A 
ATOM     76  C   UNL A   1      45.454  32.585  26.419  1.00  0.00     0.040 A 
ATOM     77  F   UNL A   1      44.214  30.670  26.672  1.00  0.00    -0.206 F 
ATOM     78  C   UNL A   1      46.642  33.290  26.507  1.00  0.00     0.006 A 
ENDBRANCH  57  71
BRANCH  58  79
ATOM     79  C   UNL A   1      38.662  28.536  29.406  1.00  0.00     0.057 A 
ATOM     80  C   UNL A   1      37.774  28.648  30.486  1.00  0.00     0.134 A 
ATOM     81  C   UNL A   1      38.292  29.208  28.228  1.00  0.00     0.134 A 
ATOM     82  F   UNL A   1      38.059  28.070  31.662  1.00  0.00    -0.206 F 
ATOM     83  C   UNL A   1      36.604  29.415  30.411  1.00  0.00     0.040 A 
ATOM     84  C   UNL A   1      37.126  29.976  28.140  1.00  0.00     0.040 A 
ATOM     85  F   UNL A   1      39.101  29.219  27.159  1.00  0.00    -0.206 F 
ATOM     86  C   UNL A   1      36.285  30.097  29.240  1.00  0.00     0.006 A 
ENDBRANCH  58  79
BRANCH  70  87
ATOM     87  C   UNL A   1      44.079  27.161  32.322  1.00  0.00     0.057 A 
ATOM     88  C   UNL A   1      44.099  25.791  32.023  1.00  0.00     0.134 A 
ATOM     89  C   UNL A   1      44.006  27.510  33.674  1.00  0.00     0.134 A 
ATOM     90  F   UNL A   1      44.245  25.358  30.766  1.00  0.00    -0.206 F 
ATOM     91  C   UNL A   1      44.010  24.816  33.021  1.00  0.00     0.040 A 
ATOM     92  C   UNL A   1      43.950  26.547  34.684  1.00  0.00     0.040 A 
ATOM     93  F   UNL A   1      44.028  28.801  34.039  1.00  0.00    -0.206 F 
ATOM     94  C   UNL A   1      43.941  25.194  34.359  1.00  0.00     0.006 A 
ENDBRANCH  70  87
ENDBRANCH  44  45
ENDBRANCH  36  39
ENDBRANCH  34  35
ENDBRANCH  33  34
ENDBRANCH  32  33
ENDBRANCH   1  32
TORSDOF 18
ENDMDL
MODEL 2
REMARK VINA RESULT:     -11.4      2.648      8.491
REMARK SMILES C=CCn1nc(C(=O)NCCCCCCNC(=O)c2ccc(-c3c4nc(c(-c5c(F)cccc5F)c5ccc([nH]5)c(-c5c(F)cccc5F)c5nc(c(-c6c(F)cccc6F)c6ccc3[nH]6)C=C5)C=C4)cc2)c2c1CC[C@@H]([NH+]1CCC(C(C)(C)O)CC1)C2
REMARK SMILES IDX 12 1 11 2 10 3 9 4 7 5 8 6 6 8 4 9 5 10 74 11 73 12 75 13
REMARK SMILES IDX 88 14 76 15 77 16 3 17 2 18 1 19 78 20 79 21 87 22 80 24
REMARK SMILES IDX 86 25 81 26 82 27 83 28 84 29 85 30 13 32 14 33 15 34 16 35
REMARK SMILES IDX 17 36 18 38 19 39 20 40 72 41 21 42 71 43 22 44 23 45 24 46
REMARK SMILES IDX 65 47 25 48 70 49 64 50 66 51 26 52 69 53 63 54 62 55 27 57
REMARK SMILES IDX 53 58 36 59 52 60 37 61 40 62 51 63 67 64 38 65 39 66 50 68
REMARK SMILES IDX 68 69 41 70 28 71 29 72 34 73 30 74 31 75 33 76 35 77 32 78
REMARK SMILES IDX 54 79 55 80 60 81 56 82 57 83 59 84 61 85 58 86 42 87 43 88
REMARK SMILES IDX 48 89 44 90 45 91 47 92 49 93 46 94
REMARK H PARENT 9 7 78 23 85 31 16 37 66 56 40 67
REMARK Flexibility Score: inf
ROOT
ATOM      1  C   UNL A   1      30.992  28.872  24.554  1.00  0.00     0.002 C 
ENDROOT
BRANCH   1   2
ATOM      2  C   UNL A   1      31.266  28.768  23.056  1.00  0.00     0.021 C 
BRANCH   2   3
ATOM      3  C   UNL A   1      30.761  27.471  22.396  1.00  0.00     0.116 C 
BRANCH   3   4
ATOM      4  N   UNL A   1      31.706  26.942  21.432  1.00  0.00    -0.351 N 
ATOM      5  C   UNL A   1      32.804  26.115  21.489  1.00  0.00     0.272 C 
ATOM      6  O   UNL A   1      33.224  25.769  20.377  1.00  0.00    -0.267 OA
ATOM      7  H   UNL A   1      31.518  27.250  20.516  1.00  0.00     0.163 HD
BRANCH   5   8
ATOM      8  C   UNL A   1      33.452  25.641  22.740  1.00  0.00     0.153 A 
ATOM      9  N   UNL A   1      34.043  25.795  24.810  1.00  0.00    -0.265 N 
ATOM     10  N   UNL A   1      33.534  26.502  23.784  1.00  0.00    -0.167 NA
ATOM     11  C   UNL A   1      34.498  24.574  24.415  1.00  0.00     0.043 A 
ATOM     12  C   UNL A   1      33.965  24.381  23.157  1.00  0.00     0.012 A 
ATOM     13  C   UNL A   1      35.231  23.571  25.225  1.00  0.00     0.062 C 
ATOM     14  C   UNL A   1      33.926  23.035  22.545  1.00  0.00     0.105 C 
ATOM     15  C   UNL A   1      35.242  22.204  24.511  1.00  0.00     0.072 C 
ATOM     16  C   UNL A   1      34.062  21.875  23.556  1.00  0.00     0.189 C 
BRANCH   9  17
ATOM     17  C   UNL A   1      33.930  26.329  26.168  1.00  0.00     0.171 C 
BRANCH  17  18
ATOM     18  C   UNL A   1      32.497  26.363  26.650  1.00  0.00    -0.011 C 
ATOM     19  C   UNL A   1      31.576  25.422  26.402  1.00  0.00     0.006 C 
ENDBRANCH  17  18
ENDBRANCH   9  17
BRANCH  16  20
ATOM     20  N   UNL A   1      32.722  21.423  23.984  1.00  0.00    -0.332 N 
ATOM     21  C   UNL A   1      32.499  20.988  25.350  1.00  0.00     0.262 C 
ATOM     22  C   UNL A   1      32.004  20.552  23.068  1.00  0.00     0.262 C 
ATOM     23  H   UNL A   1      32.313  22.356  23.952  1.00  0.00     0.348 HD
ATOM     24  C   UNL A   1      32.947  19.561  25.626  1.00  0.00     0.068 C 
ATOM     25  C   UNL A   1      32.515  19.125  23.090  1.00  0.00     0.068 C 
ATOM     26  C   UNL A   1      32.727  18.521  24.502  1.00  0.00     0.031 C 
BRANCH  26  27
ATOM     27  C   UNL A   1      33.835  17.405  24.476  1.00  0.00     0.062 C 
ATOM     28  C   UNL A   1      33.576  16.262  25.461  1.00  0.00     0.042 C 
ATOM     29  C   UNL A   1      34.005  16.847  23.061  1.00  0.00     0.042 C 
BRANCH  27  30
ATOM     30  O   UNL A   1      35.097  17.966  24.851  1.00  0.00    -0.390 OA
ATOM     31  H   UNL A   1      35.419  17.530  25.654  1.00  0.00     0.211 HD
ENDBRANCH  27  30
ENDBRANCH  26  27
ENDBRANCH  16  20
ENDBRANCH   5   8
ENDBRANCH   3   4
ENDBRANCH   2   3
ENDBRANCH   1   2
BRANCH   1  32
ATOM     32  C   UNL A   1      31.777  29.982  25.273  1.00  0.00     0.002 C 
BRANCH  32  33
ATOM     33  C   UNL A   1      33.251  29.696  25.610  1.00  0.00     0.021 C 
BRANCH  33  34
ATOM     34  C   UNL A   1      33.621  29.970  27.059  1.00  0.00     0.116 C 
BRANCH  34  35
ATOM     35  N   UNL A   1      34.008  31.370  27.296  1.00  0.00    -0.352 N 
ATOM     36  C   UNL A   1      35.083  31.899  28.003  1.00  0.00     0.251 C 
ATOM     37  H   UNL A   1      33.411  32.040  26.891  1.00  0.00     0.163 HD
ATOM     38  O   UNL A   1      35.085  33.056  28.378  1.00  0.00    -0.269 OA
BRANCH  36  39
ATOM     39  C   UNL A   1      36.236  31.023  28.280  1.00  0.00     0.039 A 
ATOM     40  C   UNL A   1      36.403  29.753  27.721  1.00  0.00     0.014 A 
ATOM     41  C   UNL A   1      37.204  31.548  29.114  1.00  0.00     0.014 A 
ATOM     42  C   UNL A   1      37.578  29.059  28.013  1.00  0.00     0.010 A 
ATOM     43  C   UNL A   1      38.466  31.060  29.049  1.00  0.00     0.010 A 
ATOM     44  C   UNL A   1      38.601  29.736  28.694  1.00  0.00    -0.014 A 
BRANCH  44  45
ATOM     45  C   UNL A   1      39.874  29.144  29.052  1.00  0.00     0.031 A 
ATOM     46  C   UNL A   1      40.047  28.983  30.507  1.00  0.00     0.074 A 
ATOM     47  C   UNL A   1      40.671  28.539  28.140  1.00  0.00     0.049 A 
ATOM     48  N   UNL A   1      40.773  29.703  31.292  1.00  0.00    -0.248 NA
ATOM     49  C   UNL A   1      39.159  28.040  31.206  1.00  0.00     0.031 C 
ATOM     50  C   UNL A   1      40.414  28.303  26.706  1.00  0.00     0.029 A 
ATOM     51  N   UNL A   1      41.865  27.913  28.327  1.00  0.00    -0.354 N 
ATOM     52  C   UNL A   1      40.630  29.127  32.548  1.00  0.00     0.074 A 
ATOM     53  C   UNL A   1      39.458  28.297  32.481  1.00  0.00     0.031 C 
ATOM     54  C   UNL A   1      41.304  27.411  26.218  1.00  0.00     0.029 A 
ATOM     55  C   UNL A   1      42.300  27.159  27.240  1.00  0.00     0.049 A 
ATOM     56  H   UNL A   1      42.379  27.987  29.163  1.00  0.00     0.167 HD
ATOM     57  C   UNL A   1      41.676  29.116  33.418  1.00  0.00     0.037 A 
ATOM     58  C   UNL A   1      43.410  26.383  27.195  1.00  0.00     0.037 A 
ATOM     59  C   UNL A   1      42.735  29.977  32.945  1.00  0.00     0.049 A 
ATOM     60  C   UNL A   1      44.308  26.862  28.270  1.00  0.00     0.074 A 
ATOM     61  C   UNL A   1      42.921  31.333  32.782  1.00  0.00     0.029 A 
ATOM     62  N   UNL A   1      43.650  29.343  32.144  1.00  0.00    -0.354 N 
ATOM     63  N   UNL A   1      44.862  28.042  28.274  1.00  0.00    -0.248 NA
ATOM     64  C   UNL A   1      44.289  26.179  29.556  1.00  0.00     0.031 C 
ATOM     65  C   UNL A   1      43.792  31.472  31.659  1.00  0.00     0.029 A 
ATOM     66  C   UNL A   1      44.151  30.203  31.206  1.00  0.00     0.049 A 
ATOM     67  H   UNL A   1      43.911  28.397  32.233  1.00  0.00     0.167 HD
ATOM     68  C   UNL A   1      44.864  28.423  29.606  1.00  0.00     0.074 A 
ATOM     69  C   UNL A   1      44.665  27.185  30.351  1.00  0.00     0.031 C 
ATOM     70  C   UNL A   1      44.711  29.735  29.952  1.00  0.00     0.037 A 
BRANCH  57  71
ATOM     71  C   UNL A   1      41.975  27.996  34.390  1.00  0.00     0.057 A 
ATOM     72  C   UNL A   1      41.842  28.246  35.768  1.00  0.00     0.134 A 
ATOM     73  C   UNL A   1      42.666  26.810  34.064  1.00  0.00     0.134 A 
ATOM     74  F   UNL A   1      41.224  29.353  36.208  1.00  0.00    -0.206 F 
ATOM     75  C   UNL A   1      42.409  27.414  36.741  1.00  0.00     0.040 A 
ATOM     76  C   UNL A   1      43.189  25.945  35.029  1.00  0.00     0.040 A 
ATOM     77  F   UNL A   1      42.970  26.472  32.806  1.00  0.00    -0.206 F 
ATOM     78  C   UNL A   1      43.090  26.260  36.373  1.00  0.00     0.006 A 
ENDBRANCH  57  71
BRANCH  58  79
ATOM     79  C   UNL A   1      43.613  25.088  26.509  1.00  0.00     0.057 A 
ATOM     80  C   UNL A   1      42.741  24.009  26.714  1.00  0.00     0.134 A 
ATOM     81  C   UNL A   1      44.482  24.982  25.410  1.00  0.00     0.134 A 
ATOM     82  F   UNL A   1      41.852  24.035  27.717  1.00  0.00    -0.206 F 
ATOM     83  C   UNL A   1      42.708  22.905  25.851  1.00  0.00     0.040 A 
ATOM     84  C   UNL A   1      44.460  23.885  24.542  1.00  0.00     0.040 A 
ATOM     85  F   UNL A   1      45.310  25.986  25.087  1.00  0.00    -0.206 F 
ATOM     86  C   UNL A   1      43.558  22.848  24.751  1.00  0.00     0.006 A 
ENDBRANCH  58  79
BRANCH  70  87
ATOM     87  C   UNL A   1      44.985  30.761  28.889  1.00  0.00     0.057 A 
ATOM     88  C   UNL A   1      44.012  31.335  28.059  1.00  0.00     0.134 A 
ATOM     89  C   UNL A   1      46.288  31.256  28.768  1.00  0.00     0.134 A 
ATOM     90  F   UNL A   1      42.725  30.985  28.154  1.00  0.00    -0.206 F 
ATOM     91  C   UNL A   1      44.330  32.327  27.124  1.00  0.00     0.040 A 
ATOM     92  C   UNL A   1      46.614  32.268  27.863  1.00  0.00     0.040 A 
ATOM     93  F   UNL A   1      47.264  30.787  29.562  1.00  0.00    -0.206 F 
ATOM     94  C   UNL A   1      45.635  32.800  27.028  1.00  0.00     0.006 A 
ENDBRANCH  70  87
ENDBRANCH  44  45
ENDBRANCH  36  39
ENDBRANCH  34  35
ENDBRANCH  33  34
ENDBRANCH  32  33
ENDBRANCH   1  32
TORSDOF 18
ENDMDL
MODEL 3
REMARK VINA RESULT:     -11.4      3.819      9.198
REMARK SMILES C=CCn1nc(C(=O)NCCCCCCNC(=O)c2ccc(-c3c4nc(c(-c5c(F)cccc5F)c5ccc([nH]5)c(-c5c(F)cccc5F)c5nc(c(-c6c(F)cccc6F)c6ccc3[nH]6)C=C5)C=C4)cc2)c2c1CC[C@@H]([NH+]1CCC(C(C)(C)O)CC1)C2
REMARK SMILES IDX 12 1 11 2 10 3 9 4 7 5 8 6 6 8 4 9 5 10 74 11 73 12 75 13
REMARK SMILES IDX 88 14 76 15 77 16 3 17 2 18 1 19 78 20 79 21 87 22 80 24
REMARK SMILES IDX 86 25 81 26 82 27 83 28 84 29 85 30 13 32 14 33 15 34 16 35
REMARK SMILES IDX 17 36 18 38 19 39 20 40 72 41 21 42 71 43 22 44 23 45 24 46
REMARK SMILES IDX 65 47 25 48 70 49 64 50 66 51 26 52 69 53 63 54 62 55 27 57
REMARK SMILES IDX 53 58 36 59 52 60 37 61 40 62 51 63 67 64 38 65 39 66 50 68
REMARK SMILES IDX 68 69 41 70 28 71 29 72 34 73 30 74 31 75 33 76 35 77 32 78
REMARK SMILES IDX 54 79 55 80 60 81 56 82 57 83 59 84 61 85 58 86 42 87 43 88
REMARK SMILES IDX 48 89 44 90 45 91 47 92 49 93 46 94
REMARK H PARENT 9 7 78 23 85 31 16 37 66 56 40 67
REMARK Flexibility Score: inf
ROOT
ATOM      1  C   UNL A   1      30.459  30.054  24.131  1.00  0.00     0.002 C 
ENDROOT
BRANCH   1   2
ATOM      2  C   UNL A   1      30.290  28.567  23.830  1.00  0.00     0.021 C 
BRANCH   2   3
ATOM      3  C   UNL A   1      30.579  28.166  22.371  1.00  0.00     0.116 C 
BRANCH   3   4
ATOM      4  N   UNL A   1      31.944  28.459  21.982  1.00  0.00    -0.351 N 
ATOM      5  C   UNL A   1      33.191  28.076  22.420  1.00  0.00     0.272 C 
ATOM      6  O   UNL A   1      34.111  28.431  21.671  1.00  0.00    -0.267 OA
ATOM      7  H   UNL A   1      31.990  29.082  21.222  1.00  0.00     0.163 HD
BRANCH   5   8
ATOM      8  C   UNL A   1      33.460  27.298  23.657  1.00  0.00     0.153 A 
ATOM      9  N   UNL A   1      33.458  26.960  25.789  1.00  0.00    -0.265 N 
ATOM     10  N   UNL A   1      33.265  27.907  24.852  1.00  0.00    -0.167 NA
ATOM     11  C   UNL A   1      33.984  25.819  25.263  1.00  0.00     0.043 A 
ATOM     12  C   UNL A   1      33.817  25.941  23.898  1.00  0.00     0.012 A 
ATOM     13  C   UNL A   1      34.448  24.613  25.989  1.00  0.00     0.062 C 
ATOM     14  C   UNL A   1      33.926  24.764  23.011  1.00  0.00     0.105 C 
ATOM     15  C   UNL A   1      34.634  23.433  25.014  1.00  0.00     0.072 C 
ATOM     16  C   UNL A   1      33.758  23.408  23.731  1.00  0.00     0.189 C 
BRANCH   9  17
ATOM     17  C   UNL A   1      32.984  27.200  27.152  1.00  0.00     0.171 C 
BRANCH  17  18
ATOM     18  C   UNL A   1      33.248  28.618  27.606  1.00  0.00    -0.011 C 
ATOM     19  C   UNL A   1      34.417  29.262  27.490  1.00  0.00     0.006 C 
ENDBRANCH  17  18
ENDBRANCH   9  17
BRANCH  16  20
ATOM     20  N   UNL A   1      32.344  22.982  23.674  1.00  0.00    -0.332 N 
ATOM     21  C   UNL A   1      31.594  22.772  24.898  1.00  0.00     0.262 C 
ATOM     22  C   UNL A   1      32.015  21.943  22.712  1.00  0.00     0.262 C 
ATOM     23  H   UNL A   1      32.008  23.880  23.328  1.00  0.00     0.348 HD
ATOM     24  C   UNL A   1      31.857  21.430  25.563  1.00  0.00     0.068 C 
ATOM     25  C   UNL A   1      32.435  20.560  23.172  1.00  0.00     0.068 C 
ATOM     26  C   UNL A   1      32.062  20.210  24.635  1.00  0.00     0.031 C 
BRANCH  26  27
ATOM     27  C   UNL A   1      33.059  19.148  25.230  1.00  0.00     0.062 C 
ATOM     28  C   UNL A   1      32.675  17.701  24.913  1.00  0.00     0.042 C 
ATOM     29  C   UNL A   1      34.488  19.426  24.758  1.00  0.00     0.042 C 
BRANCH  27  30
ATOM     30  O   UNL A   1      33.074  19.245  26.659  1.00  0.00    -0.390 OA
ATOM     31  H   UNL A   1      32.181  19.091  27.003  1.00  0.00     0.211 HD
ENDBRANCH  27  30
ENDBRANCH  26  27
ENDBRANCH  16  20
ENDBRANCH   5   8
ENDBRANCH   3   4
ENDBRANCH   2   3
ENDBRANCH   1   2
BRANCH   1  32
ATOM     32  C   UNL A   1      31.306  30.362  25.377  1.00  0.00     0.002 C 
BRANCH  32  33
ATOM     33  C   UNL A   1      31.078  31.719  26.065  1.00  0.00     0.021 C 
BRANCH  33  34
ATOM     34  C   UNL A   1      32.236  32.177  26.937  1.00  0.00     0.116 C 
BRANCH  34  35
ATOM     35  N   UNL A   1      32.146  33.597  27.310  1.00  0.00    -0.352 N 
ATOM     36  C   UNL A   1      32.847  34.322  28.268  1.00  0.00     0.251 C 
ATOM     37  H   UNL A   1      31.483  34.119  26.802  1.00  0.00     0.163 HD
ATOM     38  O   UNL A   1      32.437  35.392  28.677  1.00  0.00    -0.269 OA
BRANCH  36  39
ATOM     39  C   UNL A   1      34.116  33.767  28.774  1.00  0.00     0.039 A 
ATOM     40  C   UNL A   1      34.217  32.967  29.915  1.00  0.00     0.014 A 
ATOM     41  C   UNL A   1      35.238  34.047  28.019  1.00  0.00     0.014 A 
ATOM     42  C   UNL A   1      35.471  32.448  30.241  1.00  0.00     0.010 A 
ATOM     43  C   UNL A   1      36.314  33.228  28.110  1.00  0.00     0.010 A 
ATOM     44  C   UNL A   1      36.517  32.602  29.319  1.00  0.00    -0.014 A 
BRANCH  44  45
ATOM     45  C   UNL A   1      37.864  32.107  29.522  1.00  0.00     0.031 A 
ATOM     46  C   UNL A   1      38.040  30.715  29.071  1.00  0.00     0.074 A 
ATOM     47  C   UNL A   1      38.900  32.929  29.812  1.00  0.00     0.049 A 
ATOM     48  N   UNL A   1      38.119  29.659  29.806  1.00  0.00    -0.248 NA
ATOM     49  C   UNL A   1      37.916  30.437  27.631  1.00  0.00     0.031 C 
ATOM     50  C   UNL A   1      38.906  34.401  29.910  1.00  0.00     0.029 A 
ATOM     51  N   UNL A   1      40.213  32.621  29.994  1.00  0.00    -0.354 N 
ATOM     52  C   UNL A   1      38.321  28.612  28.916  1.00  0.00     0.074 A 
ATOM     53  C   UNL A   1      37.935  29.102  27.621  1.00  0.00     0.031 C 
ATOM     54  C   UNL A   1      40.178  34.858  29.914  1.00  0.00     0.029 A 
ATOM     55  C   UNL A   1      41.069  33.719  30.010  1.00  0.00     0.049 A 
ATOM     56  H   UNL A   1      40.531  31.697  30.104  1.00  0.00     0.167 HD
ATOM     57  C   UNL A   1      39.105  27.556  29.268  1.00  0.00     0.037 A 
ATOM     58  C   UNL A   1      42.420  33.682  30.098  1.00  0.00     0.037 A 
ATOM     59  C   UNL A   1      39.403  27.599  30.680  1.00  0.00     0.049 A 
ATOM     60  C   UNL A   1      42.773  32.362  30.669  1.00  0.00     0.074 A 
ATOM     61  C   UNL A   1      38.702  27.433  31.855  1.00  0.00     0.029 A 
ATOM     62  N   UNL A   1      40.546  28.296  30.985  1.00  0.00    -0.354 N 
ATOM     63  N   UNL A   1      42.460  31.993  31.879  1.00  0.00    -0.248 NA
ATOM     64  C   UNL A   1      43.136  31.281  29.763  1.00  0.00     0.031 C 
ATOM     65  C   UNL A   1      39.336  28.286  32.809  1.00  0.00     0.029 A 
ATOM     66  C   UNL A   1      40.432  28.903  32.205  1.00  0.00     0.049 A 
ATOM     67  H   UNL A   1      41.339  28.350  30.404  1.00  0.00     0.167 HD
ATOM     68  C   UNL A   1      42.169  30.644  31.770  1.00  0.00     0.074 A 
ATOM     69  C   UNL A   1      42.763  30.232  30.503  1.00  0.00     0.031 C 
ATOM     70  C   UNL A   1      41.211  30.074  32.559  1.00  0.00     0.037 A 
BRANCH  57  71
ATOM     71  C   UNL A   1      40.002  26.797  28.316  1.00  0.00     0.057 A 
ATOM     72  C   UNL A   1      40.963  27.513  27.580  1.00  0.00     0.134 A 
ATOM     73  C   UNL A   1      39.769  25.479  27.868  1.00  0.00     0.134 A 
ATOM     74  F   UNL A   1      41.259  28.784  27.892  1.00  0.00    -0.206 F 
ATOM     75  C   UNL A   1      41.594  26.982  26.449  1.00  0.00     0.040 A 
ATOM     76  C   UNL A   1      40.433  24.921  26.773  1.00  0.00     0.040 A 
ATOM     77  F   UNL A   1      38.819  24.695  28.388  1.00  0.00    -0.206 F 
ATOM     78  C   UNL A   1      41.326  25.682  26.038  1.00  0.00     0.006 A 
ENDBRANCH  57  71
BRANCH  58  79
ATOM     79  C   UNL A   1      43.420  34.560  29.453  1.00  0.00     0.057 A 
ATOM     80  C   UNL A   1      43.767  34.403  28.103  1.00  0.00     0.134 A 
ATOM     81  C   UNL A   1      43.825  35.762  30.059  1.00  0.00     0.134 A 
ATOM     82  F   UNL A   1      43.394  33.304  27.430  1.00  0.00    -0.206 F 
ATOM     83  C   UNL A   1      44.443  35.399  27.387  1.00  0.00     0.040 A 
ATOM     84  C   UNL A   1      44.502  36.764  29.356  1.00  0.00     0.040 A 
ATOM     85  F   UNL A   1      43.488  36.040  31.327  1.00  0.00    -0.206 F 
ATOM     86  C   UNL A   1      44.799  36.592  28.010  1.00  0.00     0.006 A 
ENDBRANCH  58  79
BRANCH  70  87
ATOM     87  C   UNL A   1      40.821  30.816  33.807  1.00  0.00     0.057 A 
ATOM     88  C   UNL A   1      39.714  31.668  33.920  1.00  0.00     0.134 A 
ATOM     89  C   UNL A   1      41.556  30.579  34.973  1.00  0.00     0.134 A 
ATOM     90  F   UNL A   1      38.904  31.895  32.879  1.00  0.00    -0.206 F 
ATOM     91  C   UNL A   1      39.377  32.286  35.129  1.00  0.00     0.040 A 
ATOM     92  C   UNL A   1      41.212  31.162  36.194  1.00  0.00     0.040 A 
ATOM     93  F   UNL A   1      42.602  29.738  34.952  1.00  0.00    -0.206 F 
ATOM     94  C   UNL A   1      40.126  32.029  36.273  1.00  0.00     0.006 A 
ENDBRANCH  70  87
ENDBRANCH  44  45
ENDBRANCH  36  39
ENDBRANCH  34  35
ENDBRANCH  33  34
ENDBRANCH  32  33
ENDBRANCH   1  32
TORSDOF 18
ENDMDL
