MODEL 1
REMARK VINA RESULT:     -13.1      0.000      0.000
REMARK SMILES Cc1ccc(-c2cc(Cl)cc3c2O[C@H](C(F)(F)F)C(C(=O)NCCCCCCNC(=O)c2ccc(-c4c5nc(c(-c6c(F)cccc6F)c6ccc([nH]6)c(-c6c(F)cccc6F)c6nc(c(-c7c(F)cccc7F)c7ccc4[nH]7)C=C6)C=C5)cc2)=C3)cc1F
REMARK SMILES IDX 26 1 25 2 24 3 23 4 22 5 20 6 21 7 19 9 6 10 7 11 12 12 8 13
REMARK SMILES IDX 11 14 13 15 9 16 10 17 86 18 14 19 5 20 1 21 2 22 3 23 88 24
REMARK SMILES IDX 4 25 87 26 89 27 15 28 16 29 17 30 18 31 27 32 28 33 29 34
REMARK SMILES IDX 30 35 31 37 32 38 33 39 85 40 34 41 84 42 35 43 36 44 37 45
REMARK SMILES IDX 78 46 38 47 83 48 77 49 79 50 39 51 82 52 76 53 75 54 40 56
REMARK SMILES IDX 66 57 49 58 65 59 50 60 53 61 64 62 80 63 51 64 52 65 63 67
REMARK SMILES IDX 81 68 54 69 41 70 42 71 47 72 43 73 44 74 46 75 48 76 45 77
REMARK SMILES IDX 67 78 68 79 73 80 69 81 70 82 72 83 74 84 71 85 55 86 56 87
REMARK SMILES IDX 61 88 57 89 58 90 60 91 62 92 59 93
REMARK H PARENT 22 8 29 36 79 55 53 66
REMARK Flexibility Score: inf
ROOT
ATOM      1  C   UNL A   1      31.616  27.973  26.575  1.00  0.00     0.002 C 
ENDROOT
BRANCH   1   2
ATOM      2  C   UNL A   1      31.558  28.337  25.091  1.00  0.00     0.002 C 
BRANCH   2   3
ATOM      3  C   UNL A   1      30.363  27.754  24.327  1.00  0.00     0.021 C 
BRANCH   3   4
ATOM      4  C   UNL A   1      30.553  26.296  23.900  1.00  0.00     0.116 C 
BRANCH   4   5
ATOM      5  N   UNL A   1      31.129  26.195  22.574  1.00  0.00    -0.352 N 
ATOM      6  C   UNL A   1      32.114  25.486  21.978  1.00  0.00     0.251 C 
ATOM      7  O   UNL A   1      32.324  25.764  20.793  1.00  0.00    -0.270 OA
ATOM      8  H   UNL A   1      30.686  26.803  21.939  1.00  0.00     0.163 HD
BRANCH   6   9
ATOM      9  C   UNL A   1      32.924  24.422  22.639  1.00  0.00     0.067 C 
ATOM     10  C   UNL A   1      35.009  21.301  24.565  1.00  0.00     0.026 A 
ATOM     11  C   UNL A   1      34.347  20.086  24.786  1.00  0.00     0.033 A 
ATOM     12  C   UNL A   1      34.320  22.316  23.871  1.00  0.00     0.135 A 
ATOM     13  C   UNL A   1      33.041  19.900  24.329  1.00  0.00     0.042 A 
ATOM     14  C   UNL A   1      33.011  22.133  23.416  1.00  0.00     0.019 A 
ATOM     15  O   UNL A   1      35.014  23.464  23.600  1.00  0.00    -0.475 OA
ATOM     16  Cl  UNL A   1      32.248  18.398  24.606  1.00  0.00    -0.084 Cl
ATOM     17  C   UNL A   1      32.370  20.915  23.647  1.00  0.00     0.032 A 
ATOM     18  C   UNL A   1      32.343  23.209  22.694  1.00  0.00     0.025 C 
ATOM     19  C   UNL A   1      34.253  24.658  23.296  1.00  0.00     0.314 C 
BRANCH  10  20
ATOM     20  C   UNL A   1      36.387  21.511  25.043  1.00  0.00    -0.012 A 
ATOM     21  C   UNL A   1      40.344  21.974  26.734  1.00  0.00     0.047 C 
ATOM     22  C   UNL A   1      38.980  21.842  26.128  1.00  0.00    -0.015 A 
ATOM     23  C   UNL A   1      38.049  22.883  26.189  1.00  0.00     0.007 A 
ATOM     24  C   UNL A   1      38.608  20.650  25.505  1.00  0.00     0.126 A 
ATOM     25  C   UNL A   1      36.766  22.718  25.650  1.00  0.00     0.009 A 
ATOM     26  C   UNL A   1      37.337  20.482  24.964  1.00  0.00     0.048 A 
ATOM     27  F   UNL A   1      39.479  19.633  25.439  1.00  0.00    -0.207 F 
ENDBRANCH  10  20
BRANCH  19  28
ATOM     28  C   UNL A   1      34.163  25.528  24.561  1.00  0.00     0.429 C 
ATOM     29  F   UNL A   1      33.049  25.221  25.270  1.00  0.00    -0.167 F 
ATOM     30  F   UNL A   1      35.209  25.341  25.397  1.00  0.00    -0.167 F 
ATOM     31  F   UNL A   1      34.109  26.848  24.275  1.00  0.00    -0.167 F 
ENDBRANCH  19  28
ENDBRANCH   6   9
ENDBRANCH   4   5
ENDBRANCH   3   4
ENDBRANCH   2   3
ENDBRANCH   1   2
BRANCH   1  32
ATOM     32  C   UNL A   1      32.992  28.113  27.227  1.00  0.00     0.021 C 
BRANCH  32  33
ATOM     33  C   UNL A   1      33.880  29.246  26.739  1.00  0.00     0.116 C 
BRANCH  33  34
ATOM     34  N   UNL A   1      34.178  30.254  27.736  1.00  0.00    -0.352 N 
ATOM     35  C   UNL A   1      35.282  30.638  28.458  1.00  0.00     0.251 C 
ATOM     36  H   UNL A   1      33.389  30.802  27.952  1.00  0.00     0.163 HD
ATOM     37  O   UNL A   1      35.145  31.593  29.204  1.00  0.00    -0.269 OA
BRANCH  35  38
ATOM     38  C   UNL A   1      36.582  29.907  28.469  1.00  0.00     0.039 A 
ATOM     39  C   UNL A   1      37.058  29.079  29.485  1.00  0.00     0.014 A 
ATOM     40  C   UNL A   1      37.373  30.076  27.320  1.00  0.00     0.014 A 
ATOM     41  C   UNL A   1      38.365  28.554  29.420  1.00  0.00     0.010 A 
ATOM     42  C   UNL A   1      38.659  29.542  27.246  1.00  0.00     0.010 A 
ATOM     43  C   UNL A   1      39.194  28.830  28.321  1.00  0.00    -0.014 A 
BRANCH  43  44
ATOM     44  C   UNL A   1      40.616  28.441  28.259  1.00  0.00     0.031 A 
ATOM     45  C   UNL A   1      41.047  27.097  27.772  1.00  0.00     0.074 A 
ATOM     46  C   UNL A   1      41.583  29.217  28.813  1.00  0.00     0.049 A 
ATOM     47  N   UNL A   1      42.013  26.410  28.300  1.00  0.00    -0.248 NA
ATOM     48  C   UNL A   1      40.406  26.413  26.651  1.00  0.00     0.031 C 
ATOM     49  C   UNL A   1      43.028  28.996  28.753  1.00  0.00     0.029 A 
ATOM     50  N   UNL A   1      41.496  30.288  29.694  1.00  0.00    -0.354 N 
ATOM     51  C   UNL A   1      42.311  25.377  27.441  1.00  0.00     0.074 A 
ATOM     52  C   UNL A   1      41.222  25.360  26.486  1.00  0.00     0.031 C 
ATOM     53  C   UNL A   1      43.611  29.634  29.781  1.00  0.00     0.029 A 
ATOM     54  C   UNL A   1      42.557  30.192  30.605  1.00  0.00     0.049 A 
ATOM     55  H   UNL A   1      40.809  30.993  29.680  1.00  0.00     0.167 HD
ATOM     56  C   UNL A   1      43.515  24.734  27.511  1.00  0.00     0.037 A 
ATOM     57  C   UNL A   1      42.451  30.057  31.966  1.00  0.00     0.037 A 
ATOM     58  C   UNL A   1      44.393  25.286  28.535  1.00  0.00     0.049 A 
ATOM     59  C   UNL A   1      43.173  28.864  32.548  1.00  0.00     0.074 A 
ATOM     60  C   UNL A   1      45.407  26.229  28.489  1.00  0.00     0.029 A 
ATOM     61  N   UNL A   1      44.139  25.054  29.872  1.00  0.00    -0.354 N 
ATOM     62  N   UNL A   1      43.789  27.978  31.824  1.00  0.00    -0.248 NA
ATOM     63  C   UNL A   1      43.132  28.493  33.967  1.00  0.00     0.031 C 
ATOM     64  C   UNL A   1      45.771  26.558  29.817  1.00  0.00     0.029 A 
ATOM     65  C   UNL A   1      44.963  25.829  30.667  1.00  0.00     0.049 A 
ATOM     66  H   UNL A   1      43.463  24.424  30.213  1.00  0.00     0.167 HD
ATOM     67  C   UNL A   1      44.174  26.939  32.619  1.00  0.00     0.074 A 
ATOM     68  C   UNL A   1      43.759  27.303  33.956  1.00  0.00     0.031 C 
ATOM     69  C   UNL A   1      44.781  25.838  32.104  1.00  0.00     0.037 A 
BRANCH  56  70
ATOM     70  C   UNL A   1      44.016  23.789  26.446  1.00  0.00     0.057 A 
ATOM     71  C   UNL A   1      44.677  24.264  25.294  1.00  0.00     0.134 A 
ATOM     72  C   UNL A   1      43.858  22.395  26.497  1.00  0.00     0.134 A 
ATOM     73  F   UNL A   1      44.993  25.557  25.140  1.00  0.00    -0.206 F 
ATOM     74  C   UNL A   1      45.043  23.437  24.227  1.00  0.00     0.040 A 
ATOM     75  C   UNL A   1      44.184  21.558  25.418  1.00  0.00     0.040 A 
ATOM     76  F   UNL A   1      43.406  21.790  27.605  1.00  0.00    -0.206 F 
ATOM     77  C   UNL A   1      44.762  22.082  24.269  1.00  0.00     0.006 A 
ENDBRANCH  56  70
BRANCH  57  78
ATOM     78  C   UNL A   1      41.149  30.502  32.502  1.00  0.00     0.057 A 
ATOM     79  C   UNL A   1      40.176  29.534  32.780  1.00  0.00     0.134 A 
ATOM     80  C   UNL A   1      41.167  31.672  33.257  1.00  0.00     0.134 A 
ATOM     81  F   UNL A   1      40.096  28.422  32.035  1.00  0.00    -0.206 F 
ATOM     82  C   UNL A   1      39.407  29.613  33.936  1.00  0.00     0.040 A 
ATOM     83  C   UNL A   1      40.463  31.718  34.444  1.00  0.00     0.040 A 
ATOM     84  F   UNL A   1      42.040  32.657  33.003  1.00  0.00    -0.206 F 
ATOM     85  C   UNL A   1      39.619  30.669  34.814  1.00  0.00     0.006 A 
ENDBRANCH  57  78
BRANCH  69  86
ATOM     86  C   UNL A   1      45.311  24.728  32.938  1.00  0.00     0.057 A 
ATOM     87  C   UNL A   1      44.587  23.544  33.130  1.00  0.00     0.134 A 
ATOM     88  C   UNL A   1      46.475  24.886  33.705  1.00  0.00     0.134 A 
ATOM     89  F   UNL A   1      43.443  23.322  32.465  1.00  0.00    -0.206 F 
ATOM     90  C   UNL A   1      45.003  22.565  34.035  1.00  0.00     0.040 A 
ATOM     91  C   UNL A   1      46.883  23.931  34.636  1.00  0.00     0.040 A 
ATOM     92  F   UNL A   1      47.252  25.972  33.568  1.00  0.00    -0.206 F 
ATOM     93  C   UNL A   1      46.145  22.765  34.805  1.00  0.00     0.006 A 
ENDBRANCH  69  86
ENDBRANCH  43  44
ENDBRANCH  35  38
ENDBRANCH  33  34
ENDBRANCH  32  33
ENDBRANCH   1  32
TORSDOF 15
ENDMDL
MODEL 2
REMARK VINA RESULT:     -13.0      3.660      8.979
REMARK SMILES Cc1ccc(-c2cc(Cl)cc3c2O[C@H](C(F)(F)F)C(C(=O)NCCCCCCNC(=O)c2ccc(-c4c5nc(c(-c6c(F)cccc6F)c6ccc([nH]6)c(-c6c(F)cccc6F)c6nc(c(-c7c(F)cccc7F)c7ccc4[nH]7)C=C6)C=C5)cc2)=C3)cc1F
REMARK SMILES IDX 26 1 25 2 24 3 23 4 22 5 20 6 21 7 19 9 6 10 7 11 12 12 8 13
REMARK SMILES IDX 11 14 13 15 9 16 10 17 86 18 14 19 5 20 1 21 2 22 3 23 88 24
REMARK SMILES IDX 4 25 87 26 89 27 15 28 16 29 17 30 18 31 27 32 28 33 29 34
REMARK SMILES IDX 30 35 31 37 32 38 33 39 85 40 34 41 84 42 35 43 36 44 37 45
REMARK SMILES IDX 78 46 38 47 83 48 77 49 79 50 39 51 82 52 76 53 75 54 40 56
REMARK SMILES IDX 66 57 49 58 65 59 50 60 53 61 64 62 80 63 51 64 52 65 63 67
REMARK SMILES IDX 81 68 54 69 41 70 42 71 47 72 43 73 44 74 46 75 48 76 45 77
REMARK SMILES IDX 67 78 68 79 73 80 69 81 70 82 72 83 74 84 71 85 55 86 56 87
REMARK SMILES IDX 61 88 57 89 58 90 60 91 62 92 59 93
REMARK H PARENT 22 8 29 36 79 55 53 66
REMARK Flexibility Score: inf
ROOT
ATOM      1  C   UNL A   1      36.507  22.620  23.447  1.00  0.00     0.002 C 
ENDROOT
BRANCH   1   2
ATOM      2  C   UNL A   1      35.083  23.038  23.078  1.00  0.00     0.002 C 
BRANCH   2   3
ATOM      3  C   UNL A   1      33.974  22.212  23.740  1.00  0.00     0.021 C 
BRANCH   3   4
ATOM      4  C   UNL A   1      32.561  22.719  23.439  1.00  0.00     0.116 C 
BRANCH   4   5
ATOM      5  N   UNL A   1      31.691  22.604  24.592  1.00  0.00    -0.352 N 
ATOM      6  C   UNL A   1      31.085  23.447  25.458  1.00  0.00     0.251 C 
ATOM      7  O   UNL A   1      30.453  22.904  26.370  1.00  0.00    -0.270 OA
ATOM      8  H   UNL A   1      31.486  21.663  24.799  1.00  0.00     0.163 HD
BRANCH   6   9
ATOM      9  C   UNL A   1      31.123  24.936  25.374  1.00  0.00     0.067 C 
ATOM     10  C   UNL A   1      31.151  29.129  24.912  1.00  0.00     0.026 A 
ATOM     11  C   UNL A   1      30.379  29.698  23.890  1.00  0.00     0.033 A 
ATOM     12  C   UNL A   1      31.090  27.732  25.091  1.00  0.00     0.135 A 
ATOM     13  C   UNL A   1      29.578  28.892  23.079  1.00  0.00     0.042 A 
ATOM     14  C   UNL A   1      30.291  26.924  24.277  1.00  0.00     0.019 A 
ATOM     15  O   UNL A   1      31.791  27.209  26.143  1.00  0.00    -0.475 OA
ATOM     16  Cl  UNL A   1      28.632  29.612  21.833  1.00  0.00    -0.084 Cl
ATOM     17  C   UNL A   1      29.530  27.511  23.265  1.00  0.00     0.032 A 
ATOM     18  C   UNL A   1      30.252  25.484  24.507  1.00  0.00     0.025 C 
ATOM     19  C   UNL A   1      32.109  25.797  26.110  1.00  0.00     0.314 C 
BRANCH  10  20
ATOM     20  C   UNL A   1      32.002  29.967  25.775  1.00  0.00    -0.012 A 
ATOM     21  C   UNL A   1      34.421  32.223  28.565  1.00  0.00     0.047 C 
ATOM     22  C   UNL A   1      33.580  31.471  27.579  1.00  0.00    -0.015 A 
ATOM     23  C   UNL A   1      32.281  31.879  27.265  1.00  0.00     0.007 A 
ATOM     24  C   UNL A   1      34.084  30.322  26.970  1.00  0.00     0.126 A 
ATOM     25  C   UNL A   1      31.501  31.135  26.370  1.00  0.00     0.009 A 
ATOM     26  C   UNL A   1      33.317  29.580  26.076  1.00  0.00     0.048 A 
ATOM     27  F   UNL A   1      35.325  29.903  27.258  1.00  0.00    -0.207 F 
ENDBRANCH  10  20
BRANCH  19  28
ATOM     28  C   UNL A   1      33.556  25.622  25.621  1.00  0.00     0.429 C 
ATOM     29  F   UNL A   1      33.610  25.675  24.267  1.00  0.00    -0.167 F 
ATOM     30  F   UNL A   1      34.379  26.596  26.072  1.00  0.00    -0.167 F 
ATOM     31  F   UNL A   1      34.089  24.439  26.000  1.00  0.00    -0.167 F 
ENDBRANCH  19  28
ENDBRANCH   6   9
ENDBRANCH   4   5
ENDBRANCH   3   4
ENDBRANCH   2   3
ENDBRANCH   1   2
BRANCH   1  32
ATOM     32  C   UNL A   1      36.723  22.272  24.920  1.00  0.00     0.021 C 
BRANCH  32  33
ATOM     33  C   UNL A   1      37.479  23.282  25.768  1.00  0.00     0.116 C 
BRANCH  33  34
ATOM     34  N   UNL A   1      38.902  23.032  25.883  1.00  0.00    -0.352 N 
ATOM     35  C   UNL A   1      39.965  23.626  26.519  1.00  0.00     0.251 C 
ATOM     36  H   UNL A   1      39.176  22.234  25.377  1.00  0.00     0.163 HD
ATOM     37  O   UNL A   1      41.049  23.079  26.406  1.00  0.00    -0.269 OA
BRANCH  35  38
ATOM     38  C   UNL A   1      39.899  24.932  27.236  1.00  0.00     0.039 A 
ATOM     39  C   UNL A   1      40.386  26.155  26.773  1.00  0.00     0.014 A 
ATOM     40  C   UNL A   1      39.263  24.898  28.488  1.00  0.00     0.014 A 
ATOM     41  C   UNL A   1      40.372  27.288  27.614  1.00  0.00     0.010 A 
ATOM     42  C   UNL A   1      39.232  26.022  29.312  1.00  0.00     0.010 A 
ATOM     43  C   UNL A   1      39.844  27.212  28.912  1.00  0.00    -0.014 A 
BRANCH  43  44
ATOM     44  C   UNL A   1      39.934  28.311  29.891  1.00  0.00     0.031 A 
ATOM     45  C   UNL A   1      38.871  29.353  30.011  1.00  0.00     0.074 A 
ATOM     46  C   UNL A   1      41.072  28.530  30.600  1.00  0.00     0.049 A 
ATOM     47  N   UNL A   1      39.110  30.612  30.218  1.00  0.00    -0.248 NA
ATOM     48  C   UNL A   1      37.446  29.054  29.892  1.00  0.00     0.031 C 
ATOM     49  C   UNL A   1      41.272  29.523  31.656  1.00  0.00     0.029 A 
ATOM     50  N   UNL A   1      42.358  28.032  30.432  1.00  0.00    -0.354 N 
ATOM     51  C   UNL A   1      37.919  31.216  30.548  1.00  0.00     0.074 A 
ATOM     52  C   UNL A   1      36.903  30.233  30.231  1.00  0.00     0.031 C 
ATOM     53  C   UNL A   1      42.584  29.786  31.766  1.00  0.00     0.029 A 
ATOM     54  C   UNL A   1      43.266  29.062  30.711  1.00  0.00     0.049 A 
ATOM     55  H   UNL A   1      42.591  27.114  30.165  1.00  0.00     0.167 HD
ATOM     56  C   UNL A   1      37.901  32.416  31.201  1.00  0.00     0.037 A 
ATOM     57  C   UNL A   1      44.186  29.594  29.843  1.00  0.00     0.037 A 
ATOM     58  C   UNL A   1      39.235  32.915  31.507  1.00  0.00     0.049 A 
ATOM     59  C   UNL A   1      44.097  31.091  29.656  1.00  0.00     0.074 A 
ATOM     60  C   UNL A   1      40.032  32.823  32.637  1.00  0.00     0.029 A 
ATOM     61  N   UNL A   1      40.039  33.420  30.505  1.00  0.00    -0.354 N 
ATOM     62  N   UNL A   1      43.179  31.827  30.207  1.00  0.00    -0.248 NA
ATOM     63  C   UNL A   1      44.936  31.851  28.723  1.00  0.00     0.031 C 
ATOM     64  C   UNL A   1      41.327  33.287  32.308  1.00  0.00     0.029 A 
ATOM     65  C   UNL A   1      41.321  33.642  30.974  1.00  0.00     0.049 A 
ATOM     66  H   UNL A   1      39.742  33.596  29.583  1.00  0.00     0.167 HD
ATOM     67  C   UNL A   1      43.256  33.092  29.703  1.00  0.00     0.074 A 
ATOM     68  C   UNL A   1      44.377  33.073  28.787  1.00  0.00     0.031 C 
ATOM     69  C   UNL A   1      42.364  34.053  30.057  1.00  0.00     0.037 A 
BRANCH  56  70
ATOM     70  C   UNL A   1      36.659  33.002  31.828  1.00  0.00     0.057 A 
ATOM     71  C   UNL A   1      35.933  34.034  31.197  1.00  0.00     0.134 A 
ATOM     72  C   UNL A   1      36.140  32.595  33.068  1.00  0.00     0.134 A 
ATOM     73  F   UNL A   1      36.239  34.465  29.967  1.00  0.00    -0.206 F 
ATOM     74  C   UNL A   1      34.855  34.689  31.801  1.00  0.00     0.040 A 
ATOM     75  C   UNL A   1      35.084  33.269  33.703  1.00  0.00     0.040 A 
ATOM     76  F   UNL A   1      36.621  31.514  33.698  1.00  0.00    -0.206 F 
ATOM     77  C   UNL A   1      34.450  34.333  33.076  1.00  0.00     0.006 A 
ENDBRANCH  56  70
BRANCH  57  78
ATOM     78  C   UNL A   1      44.518  28.699  28.717  1.00  0.00     0.057 A 
ATOM     79  C   UNL A   1      43.913  28.936  27.476  1.00  0.00     0.134 A 
ATOM     80  C   UNL A   1      45.785  28.122  28.747  1.00  0.00     0.134 A 
ATOM     81  F   UNL A   1      42.671  29.437  27.413  1.00  0.00    -0.206 F 
ATOM     82  C   UNL A   1      44.648  28.839  26.299  1.00  0.00     0.040 A 
ATOM     83  C   UNL A   1      46.542  28.098  27.593  1.00  0.00     0.040 A 
ATOM     84  F   UNL A   1      46.391  27.823  29.905  1.00  0.00    -0.206 F 
ATOM     85  C   UNL A   1      45.995  28.503  26.373  1.00  0.00     0.006 A 
ENDBRANCH  57  78
BRANCH  69  86
ATOM     86  C   UNL A   1      42.466  35.469  29.615  1.00  0.00     0.057 A 
ATOM     87  C   UNL A   1      41.737  35.951  28.520  1.00  0.00     0.134 A 
ATOM     88  C   UNL A   1      43.422  36.335  30.167  1.00  0.00     0.134 A 
ATOM     89  F   UNL A   1      40.826  35.179  27.908  1.00  0.00    -0.206 F 
ATOM     90  C   UNL A   1      41.945  37.232  28.003  1.00  0.00     0.040 A 
ATOM     91  C   UNL A   1      43.662  37.604  29.639  1.00  0.00     0.040 A 
ATOM     92  F   UNL A   1      44.147  35.975  31.238  1.00  0.00    -0.206 F 
ATOM     93  C   UNL A   1      42.922  38.056  28.552  1.00  0.00     0.006 A 
ENDBRANCH  69  86
ENDBRANCH  43  44
ENDBRANCH  35  38
ENDBRANCH  33  34
ENDBRANCH  32  33
ENDBRANCH   1  32
TORSDOF 15
ENDMDL
MODEL 3
REMARK VINA RESULT:     -12.7      1.708      2.774
REMARK SMILES Cc1ccc(-c2cc(Cl)cc3c2O[C@H](C(F)(F)F)C(C(=O)NCCCCCCNC(=O)c2ccc(-c4c5nc(c(-c6c(F)cccc6F)c6ccc([nH]6)c(-c6c(F)cccc6F)c6nc(c(-c7c(F)cccc7F)c7ccc4[nH]7)C=C6)C=C5)cc2)=C3)cc1F
REMARK SMILES IDX 26 1 25 2 24 3 23 4 22 5 20 6 21 7 19 9 6 10 7 11 12 12 8 13
REMARK SMILES IDX 11 14 13 15 9 16 10 17 86 18 14 19 5 20 1 21 2 22 3 23 88 24
REMARK SMILES IDX 4 25 87 26 89 27 15 28 16 29 17 30 18 31 27 32 28 33 29 34
REMARK SMILES IDX 30 35 31 37 32 38 33 39 85 40 34 41 84 42 35 43 36 44 37 45
REMARK SMILES IDX 78 46 38 47 83 48 77 49 79 50 39 51 82 52 76 53 75 54 40 56
REMARK SMILES IDX 66 57 49 58 65 59 50 60 53 61 64 62 80 63 51 64 52 65 63 67
REMARK SMILES IDX 81 68 54 69 41 70 42 71 47 72 43 73 44 74 46 75 48 76 45 77
REMARK SMILES IDX 67 78 68 79 73 80 69 81 70 82 72 83 74 84 71 85 55 86 56 87
REMARK SMILES IDX 61 88 57 89 58 90 60 91 62 92 59 93
REMARK H PARENT 22 8 29 36 79 55 53 66
REMARK Flexibility Score: inf
ROOT
ATOM      1  C   UNL A   1      33.370  29.357  24.923  1.00  0.00     0.002 C 
ENDROOT
BRANCH   1   2
ATOM      2  C   UNL A   1      33.261  28.418  23.721  1.00  0.00     0.002 C 
BRANCH   2   3
ATOM      3  C   UNL A   1      31.950  28.523  22.934  1.00  0.00     0.021 C 
BRANCH   3   4
ATOM      4  C   UNL A   1      31.053  27.289  23.058  1.00  0.00     0.116 C 
BRANCH   4   5
ATOM      5  N   UNL A   1      30.603  27.086  24.421  1.00  0.00    -0.352 N 
ATOM      6  C   UNL A   1      30.816  26.185  25.406  1.00  0.00     0.251 C 
ATOM      7  O   UNL A   1      30.158  26.362  26.436  1.00  0.00    -0.270 OA
ATOM      8  H   UNL A   1      29.977  27.791  24.705  1.00  0.00     0.163 HD
BRANCH   6   9
ATOM      9  C   UNL A   1      31.772  25.042  25.331  1.00  0.00     0.067 C 
ATOM     10  C   UNL A   1      34.649  21.967  25.081  1.00  0.00     0.026 A 
ATOM     11  C   UNL A   1      35.998  22.291  25.277  1.00  0.00     0.033 A 
ATOM     12  C   UNL A   1      33.692  22.993  25.222  1.00  0.00     0.135 A 
ATOM     13  C   UNL A   1      36.371  23.597  25.601  1.00  0.00     0.042 A 
ATOM     14  C   UNL A   1      34.064  24.302  25.543  1.00  0.00     0.019 A 
ATOM     15  O   UNL A   1      32.377  22.636  25.101  1.00  0.00    -0.475 OA
ATOM     16  Cl  UNL A   1      38.033  23.972  25.844  1.00  0.00    -0.084 Cl
ATOM     17  C   UNL A   1      35.414  24.602  25.734  1.00  0.00     0.032 A 
ATOM     18  C   UNL A   1      33.038  25.327  25.688  1.00  0.00     0.025 C 
ATOM     19  C   UNL A   1      31.417  23.680  24.808  1.00  0.00     0.314 C 
BRANCH  10  20
ATOM     20  C   UNL A   1      34.242  20.594  24.737  1.00  0.00    -0.012 A 
ATOM     21  C   UNL A   1      33.221  16.593  23.442  1.00  0.00     0.047 C 
ATOM     22  C   UNL A   1      33.545  17.979  23.910  1.00  0.00    -0.015 A 
ATOM     23  C   UNL A   1      32.663  19.044  23.707  1.00  0.00     0.007 A 
ATOM     24  C   UNL A   1      34.761  18.231  24.545  1.00  0.00     0.126 A 
ATOM     25  C   UNL A   1      33.009  20.338  24.118  1.00  0.00     0.009 A 
ATOM     26  C   UNL A   1      35.109  19.513  24.961  1.00  0.00     0.048 A 
ATOM     27  F   UNL A   1      35.628  17.229  24.748  1.00  0.00    -0.207 F 
ENDBRANCH  10  20
BRANCH  19  28
ATOM     28  C   UNL A   1      31.108  23.665  23.302  1.00  0.00     0.429 C 
ATOM     29  F   UNL A   1      31.167  22.400  22.817  1.00  0.00    -0.167 F 
ATOM     30  F   UNL A   1      29.867  24.122  23.021  1.00  0.00    -0.167 F 
ATOM     31  F   UNL A   1      31.981  24.411  22.589  1.00  0.00    -0.167 F 
ENDBRANCH  19  28
ENDBRANCH   6   9
ENDBRANCH   4   5
ENDBRANCH   3   4
ENDBRANCH   2   3
ENDBRANCH   1   2
BRANCH   1  32
ATOM     32  C   UNL A   1      34.342  28.907  26.015  1.00  0.00     0.021 C 
BRANCH  32  33
ATOM     33  C   UNL A   1      33.885  29.060  27.457  1.00  0.00     0.116 C 
BRANCH  33  34
ATOM     34  N   UNL A   1      34.348  30.266  28.114  1.00  0.00    -0.352 N 
ATOM     35  C   UNL A   1      35.554  30.751  28.560  1.00  0.00     0.251 C 
ATOM     36  H   UNL A   1      33.612  30.897  28.284  1.00  0.00     0.163 HD
ATOM     37  O   UNL A   1      35.549  31.870  29.046  1.00  0.00    -0.269 OA
BRANCH  35  38
ATOM     38  C   UNL A   1      36.823  29.969  28.586  1.00  0.00     0.039 A 
ATOM     39  C   UNL A   1      37.280  29.167  29.632  1.00  0.00     0.014 A 
ATOM     40  C   UNL A   1      37.603  30.054  27.421  1.00  0.00     0.014 A 
ATOM     41  C   UNL A   1      38.565  28.587  29.572  1.00  0.00     0.010 A 
ATOM     42  C   UNL A   1      38.865  29.466  27.353  1.00  0.00     0.010 A 
ATOM     43  C   UNL A   1      39.387  28.780  28.452  1.00  0.00    -0.014 A 
BRANCH  43  44
ATOM     44  C   UNL A   1      40.791  28.331  28.388  1.00  0.00     0.031 A 
ATOM     45  C   UNL A   1      41.166  26.976  27.884  1.00  0.00     0.074 A 
ATOM     46  C   UNL A   1      41.789  29.057  28.957  1.00  0.00     0.049 A 
ATOM     47  N   UNL A   1      42.100  26.241  28.405  1.00  0.00    -0.248 NA
ATOM     48  C   UNL A   1      40.500  26.337  26.752  1.00  0.00     0.031 C 
ATOM     49  C   UNL A   1      43.224  28.774  28.898  1.00  0.00     0.029 A 
ATOM     50  N   UNL A   1      41.745  30.118  29.852  1.00  0.00    -0.354 N 
ATOM     51  C   UNL A   1      42.356  25.208  27.533  1.00  0.00     0.074 A 
ATOM     52  C   UNL A   1      41.270  25.252  26.575  1.00  0.00     0.031 C 
ATOM     53  C   UNL A   1      43.829  29.372  29.936  1.00  0.00     0.029 A 
ATOM     54  C   UNL A   1      42.797  29.964  30.765  1.00  0.00     0.049 A 
ATOM     55  H   UNL A   1      41.089  30.852  29.846  1.00  0.00     0.167 HD
ATOM     56  C   UNL A   1      43.530  24.513  27.598  1.00  0.00     0.037 A 
ATOM     57  C   UNL A   1      42.681  29.814  32.124  1.00  0.00     0.037 A 
ATOM     58  C   UNL A   1      44.427  25.012  28.632  1.00  0.00     0.049 A 
ATOM     59  C   UNL A   1      43.348  28.583  32.691  1.00  0.00     0.074 A 
ATOM     60  C   UNL A   1      45.482  25.910  28.602  1.00  0.00     0.029 A 
ATOM     61  N   UNL A   1      44.158  24.772  29.965  1.00  0.00    -0.354 N 
ATOM     62  N   UNL A   1      43.928  27.682  31.957  1.00  0.00    -0.248 NA
ATOM     63  C   UNL A   1      43.287  28.195  34.105  1.00  0.00     0.031 C 
ATOM     64  C   UNL A   1      45.854  26.205  29.935  1.00  0.00     0.029 A 
ATOM     65  C   UNL A   1      45.013  25.501  30.773  1.00  0.00     0.049 A 
ATOM     66  H   UNL A   1      43.455  24.167  30.295  1.00  0.00     0.167 HD
ATOM     67  C   UNL A   1      44.266  26.616  32.738  1.00  0.00     0.074 A 
ATOM     68  C   UNL A   1      43.862  26.979  34.079  1.00  0.00     0.031 C 
ATOM     69  C   UNL A   1      44.826  25.497  32.209  1.00  0.00     0.037 A 
BRANCH  56  70
ATOM     70  C   UNL A   1      43.994  23.562  26.521  1.00  0.00     0.057 A 
ATOM     71  C   UNL A   1      43.476  22.254  26.424  1.00  0.00     0.134 A 
ATOM     72  C   UNL A   1      44.964  23.880  25.558  1.00  0.00     0.134 A 
ATOM     73  F   UNL A   1      42.474  21.828  27.204  1.00  0.00    -0.206 F 
ATOM     74  C   UNL A   1      43.968  21.302  25.524  1.00  0.00     0.040 A 
ATOM     75  C   UNL A   1      45.495  22.925  24.676  1.00  0.00     0.040 A 
ATOM     76  F   UNL A   1      45.417  25.135  25.420  1.00  0.00    -0.206 F 
ATOM     77  C   UNL A   1      45.008  21.625  24.670  1.00  0.00     0.006 A 
ENDBRANCH  56  70
BRANCH  57  78
ATOM     78  C   UNL A   1      41.397  30.308  32.662  1.00  0.00     0.057 A 
ATOM     79  C   UNL A   1      40.390  29.376  32.943  1.00  0.00     0.134 A 
ATOM     80  C   UNL A   1      41.460  31.478  33.415  1.00  0.00     0.134 A 
ATOM     81  F   UNL A   1      40.267  28.268  32.200  1.00  0.00    -0.206 F 
ATOM     82  C   UNL A   1      39.627  29.485  34.100  1.00  0.00     0.040 A 
ATOM     83  C   UNL A   1      40.761  31.551  34.604  1.00  0.00     0.040 A 
ATOM     84  F   UNL A   1      42.368  32.429  33.158  1.00  0.00    -0.206 F 
ATOM     85  C   UNL A   1      39.879  30.534  34.977  1.00  0.00     0.006 A 
ENDBRANCH  57  78
BRANCH  69  86
ATOM     86  C   UNL A   1      45.304  24.354  33.030  1.00  0.00     0.057 A 
ATOM     87  C   UNL A   1      44.490  23.243  33.286  1.00  0.00     0.134 A 
ATOM     88  C   UNL A   1      46.523  24.415  33.721  1.00  0.00     0.134 A 
ATOM     89  F   UNL A   1      43.291  23.118  32.696  1.00  0.00    -0.206 F 
ATOM     90  C   UNL A   1      44.871  22.241  34.182  1.00  0.00     0.040 A 
ATOM     91  C   UNL A   1      46.900  23.438  34.643  1.00  0.00     0.040 A 
ATOM     92  F   UNL A   1      47.385  25.424  33.518  1.00  0.00    -0.206 F 
ATOM     93  C   UNL A   1      46.072  22.346  34.877  1.00  0.00     0.006 A 
ENDBRANCH  69  86
ENDBRANCH  43  44
ENDBRANCH  35  38
ENDBRANCH  33  34
ENDBRANCH  32  33
ENDBRANCH   1  32
TORSDOF 15
ENDMDL
