MODEL 1
REMARK VINA RESULT:     -11.2      0.000      0.000
REMARK SMILES CC(C)[C@@H](NC(=O)[C@@H]1CC[C@H]2CCCC[C@@H]2[NH2+]1)C(=O)NCCCCCCNC(=O)c1ccc(-c2c3nc(c(-c4c(F)cccc4F)c4ccc([nH]4)c(-c4c(F)cccc4F)c4nc(c(-c5c(F)cccc5F)c5ccc2[nH]5)C=C4)C=C3)cc1
REMARK SMILES IDX 23 1 22 2 21 3 20 4 18 5 19 6 4 8 2 9 1 10 3 11 5 12 6 13
REMARK SMILES IDX 7 15 8 16 9 17 17 18 10 19 16 20 11 23 15 24 12 25 14 26
REMARK SMILES IDX 13 27 24 28 25 29 26 30 27 31 28 32 29 34 30 35 31 36 83 37
REMARK SMILES IDX 32 38 82 39 33 40 34 41 35 42 76 43 36 44 81 45 75 46 77 47
REMARK SMILES IDX 37 48 80 49 74 50 73 51 38 53 64 54 47 55 63 56 48 57 51 58
REMARK SMILES IDX 62 59 78 60 49 61 50 62 61 64 79 65 52 66 39 67 40 68 45 69
REMARK SMILES IDX 41 70 42 71 44 72 46 73 43 74 65 75 66 76 71 77 67 78 68 79
REMARK SMILES IDX 70 80 72 81 69 82 53 83 54 84 59 85 55 86 56 87 58 88 60 89
REMARK SMILES IDX 57 90
REMARK H PARENT 20 7 5 14 17 21 17 22 27 33 77 52 51 63
REMARK Flexibility Score: inf
ROOT
ATOM      1  C   UNL A   1      36.739  22.142  24.257  1.00  0.00     0.002 C 
ENDROOT
BRANCH   1   2
ATOM      2  C   UNL A   1      36.492  23.345  25.192  1.00  0.00     0.021 C 
BRANCH   2   3
ATOM      3  C   UNL A   1      35.346  24.387  25.041  1.00  0.00     0.116 C 
BRANCH   3   4
ATOM      4  N   UNL A   1      34.040  24.108  25.600  1.00  0.00    -0.354 N 
ATOM      5  C   UNL A   1      32.979  23.420  25.057  1.00  0.00     0.242 C 
ATOM      6  O   UNL A   1      31.975  23.309  25.773  1.00  0.00    -0.273 OA
ATOM      7  H   UNL A   1      33.888  24.465  26.505  1.00  0.00     0.163 HD
BRANCH   5   8
ATOM      8  C   UNL A   1      32.981  22.754  23.631  1.00  0.00     0.174 C 
BRANCH   8   9
ATOM      9  C   UNL A   1      32.312  21.342  23.618  1.00  0.00     0.015 C 
ATOM     10  C   UNL A   1      31.960  20.855  22.200  1.00  0.00     0.010 C 
ATOM     11  C   UNL A   1      33.197  20.268  24.263  1.00  0.00     0.010 C 
ENDBRANCH   8   9
BRANCH   8  12
ATOM     12  N   UNL A   1      32.435  23.603  22.546  1.00  0.00    -0.339 N 
ATOM     13  C   UNL A   1      32.525  24.975  22.444  1.00  0.00     0.278 C 
ATOM     14  H   UNL A   1      31.958  23.138  21.820  1.00  0.00     0.164 HD
ATOM     15  O   UNL A   1      33.526  25.438  21.890  1.00  0.00    -0.268 OA
BRANCH  13  16
ATOM     16  C   UNL A   1      31.259  25.863  22.718  1.00  0.00     0.272 C 
ATOM     17  C   UNL A   1      31.286  27.247  22.089  1.00  0.00     0.076 C 
ATOM     18  N   UNL A   1      30.913  25.918  24.182  1.00  0.00    -0.333 N 
ATOM     19  C   UNL A   1      32.060  28.263  22.935  1.00  0.00     0.016 C 
ATOM     20  C   UNL A   1      31.435  27.088  24.932  1.00  0.00     0.186 C 
ATOM     21  H   UNL A   1      31.285  25.075  24.622  1.00  0.00     0.347 HD
ATOM     22  H   UNL A   1      29.897  25.996  24.222  1.00  0.00     0.347 HD
ATOM     23  C   UNL A   1      32.652  27.656  24.214  1.00  0.00     0.048 C 
ATOM     24  C   UNL A   1      31.705  26.757  26.395  1.00  0.00     0.065 C 
ATOM     25  C   UNL A   1      33.656  28.513  24.991  1.00  0.00     0.010 C 
ATOM     26  C   UNL A   1      32.435  27.911  27.088  1.00  0.00     0.006 C 
ATOM     27  C   UNL A   1      33.795  28.129  26.451  1.00  0.00     0.001 C 
ENDBRANCH  13  16
ENDBRANCH   8  12
ENDBRANCH   5   8
ENDBRANCH   3   4
ENDBRANCH   2   3
ENDBRANCH   1   2
BRANCH   1  28
ATOM     28  C   UNL A   1      36.844  20.664  24.695  1.00  0.00     0.002 C 
BRANCH  28  29
ATOM     29  C   UNL A   1      38.166  19.896  24.811  1.00  0.00     0.021 C 
BRANCH  29  30
ATOM     30  C   UNL A   1      39.127  20.256  25.937  1.00  0.00     0.116 C 
BRANCH  30  31
ATOM     31  N   UNL A   1      40.252  19.334  25.957  1.00  0.00    -0.352 N 
ATOM     32  C   UNL A   1      41.589  19.606  26.018  1.00  0.00     0.251 C 
ATOM     33  H   UNL A   1      40.016  18.379  25.922  1.00  0.00     0.163 HD
ATOM     34  O   UNL A   1      42.399  18.726  25.667  1.00  0.00    -0.269 OA
BRANCH  32  35
ATOM     35  C   UNL A   1      42.111  20.901  26.511  1.00  0.00     0.039 A 
ATOM     36  C   UNL A   1      42.105  21.162  27.888  1.00  0.00     0.014 A 
ATOM     37  C   UNL A   1      42.499  21.909  25.624  1.00  0.00     0.014 A 
ATOM     38  C   UNL A   1      42.490  22.417  28.372  1.00  0.00     0.010 A 
ATOM     39  C   UNL A   1      42.931  23.146  26.109  1.00  0.00     0.010 A 
ATOM     40  C   UNL A   1      42.910  23.422  27.486  1.00  0.00    -0.014 A 
BRANCH  40  41
ATOM     41  C   UNL A   1      43.284  24.776  27.975  1.00  0.00     0.031 A 
ATOM     42  C   UNL A   1      42.216  25.801  28.254  1.00  0.00     0.074 A 
ATOM     43  C   UNL A   1      44.582  25.106  28.119  1.00  0.00     0.049 A 
ATOM     44  N   UNL A   1      42.340  27.056  28.607  1.00  0.00    -0.248 NA
ATOM     45  C   UNL A   1      40.821  25.362  28.088  1.00  0.00     0.031 C 
ATOM     46  C   UNL A   1      45.713  24.218  27.850  1.00  0.00     0.029 A 
ATOM     47  N   UNL A   1      45.167  26.283  28.513  1.00  0.00    -0.354 N 
ATOM     48  C   UNL A   1      41.046  27.560  28.684  1.00  0.00     0.074 A 
ATOM     49  C   UNL A   1      40.155  26.488  28.298  1.00  0.00     0.031 C 
ATOM     50  C   UNL A   1      46.856  24.877  28.101  1.00  0.00     0.029 A 
ATOM     51  C   UNL A   1      46.540  26.240  28.517  1.00  0.00     0.049 A 
ATOM     52  H   UNL A   1      44.652  27.082  28.770  1.00  0.00     0.167 HD
ATOM     53  C   UNL A   1      40.638  28.795  29.061  1.00  0.00     0.037 A 
ATOM     54  C   UNL A   1      47.443  27.194  28.816  1.00  0.00     0.037 A 
ATOM     55  C   UNL A   1      41.523  29.851  29.478  1.00  0.00     0.049 A 
ATOM     56  C   UNL A   1      46.964  28.555  29.239  1.00  0.00     0.074 A 
ATOM     57  C   UNL A   1      41.203  31.117  29.937  1.00  0.00     0.029 A 
ATOM     58  N   UNL A   1      42.907  29.758  29.490  1.00  0.00    -0.354 N 
ATOM     59  N   UNL A   1      45.737  29.000  29.360  1.00  0.00    -0.248 NA
ATOM     60  C   UNL A   1      47.997  29.547  29.575  1.00  0.00     0.031 C 
ATOM     61  C   UNL A   1      42.395  31.804  30.194  1.00  0.00     0.029 A 
ATOM     62  C   UNL A   1      43.456  30.951  29.934  1.00  0.00     0.049 A 
ATOM     63  H   UNL A   1      43.423  28.964  29.224  1.00  0.00     0.167 HD
ATOM     64  C   UNL A   1      45.847  30.310  29.808  1.00  0.00     0.074 A 
ATOM     65  C   UNL A   1      47.262  30.584  29.952  1.00  0.00     0.031 C 
ATOM     66  C   UNL A   1      44.866  31.206  30.076  1.00  0.00     0.037 A 
BRANCH  53  67
ATOM     67  C   UNL A   1      39.161  29.071  29.043  1.00  0.00     0.057 A 
ATOM     68  C   UNL A   1      38.493  29.443  27.868  1.00  0.00     0.134 A 
ATOM     69  C   UNL A   1      38.392  28.935  30.205  1.00  0.00     0.134 A 
ATOM     70  F   UNL A   1      39.173  29.601  26.722  1.00  0.00    -0.206 F 
ATOM     71  C   UNL A   1      37.121  29.698  27.856  1.00  0.00     0.040 A 
ATOM     72  C   UNL A   1      37.013  29.161  30.201  1.00  0.00     0.040 A 
ATOM     73  F   UNL A   1      38.964  28.574  31.363  1.00  0.00    -0.206 F 
ATOM     74  C   UNL A   1      36.376  29.552  29.025  1.00  0.00     0.006 A 
ENDBRANCH  53  67
BRANCH  54  75
ATOM     75  C   UNL A   1      48.894  26.888  28.753  1.00  0.00     0.057 A 
ATOM     76  C   UNL A   1      49.575  26.397  29.871  1.00  0.00     0.134 A 
ATOM     77  C   UNL A   1      49.633  27.080  27.580  1.00  0.00     0.134 A 
ATOM     78  F   UNL A   1      48.926  26.212  31.030  1.00  0.00    -0.206 F 
ATOM     79  C   UNL A   1      50.944  26.123  29.832  1.00  0.00     0.040 A 
ATOM     80  C   UNL A   1      50.996  26.787  27.518  1.00  0.00     0.040 A 
ATOM     81  F   UNL A   1      49.035  27.542  26.471  1.00  0.00    -0.206 F 
ATOM     82  C   UNL A   1      51.656  26.313  28.650  1.00  0.00     0.006 A 
ENDBRANCH  54  75
BRANCH  66  83
ATOM     83  C   UNL A   1      45.288  32.553  30.581  1.00  0.00     0.057 A 
ATOM     84  C   UNL A   1      45.468  32.806  31.946  1.00  0.00     0.134 A 
ATOM     85  C   UNL A   1      45.556  33.598  29.687  1.00  0.00     0.134 A 
ATOM     86  F   UNL A   1      45.215  31.850  32.854  1.00  0.00    -0.206 F 
ATOM     87  C   UNL A   1      45.879  34.058  32.407  1.00  0.00     0.040 A 
ATOM     88  C   UNL A   1      45.990  34.846  30.134  1.00  0.00     0.040 A 
ATOM     89  F   UNL A   1      45.411  33.418  28.366  1.00  0.00    -0.206 F 
ATOM     90  C   UNL A   1      46.148  35.080  31.498  1.00  0.00     0.006 A 
ENDBRANCH  66  83
ENDBRANCH  40  41
ENDBRANCH  32  35
ENDBRANCH  30  31
ENDBRANCH  29  30
ENDBRANCH  28  29
ENDBRANCH   1  28
TORSDOF 16
ENDMDL
MODEL 2
REMARK VINA RESULT:     -10.9      4.369      8.593
REMARK SMILES CC(C)[C@@H](NC(=O)[C@@H]1CC[C@H]2CCCC[C@@H]2[NH2+]1)C(=O)NCCCCCCNC(=O)c1ccc(-c2c3nc(c(-c4c(F)cccc4F)c4ccc([nH]4)c(-c4c(F)cccc4F)c4nc(c(-c5c(F)cccc5F)c5ccc2[nH]5)C=C4)C=C3)cc1
REMARK SMILES IDX 23 1 22 2 21 3 20 4 18 5 19 6 4 8 2 9 1 10 3 11 5 12 6 13
REMARK SMILES IDX 7 15 8 16 9 17 17 18 10 19 16 20 11 23 15 24 12 25 14 26
REMARK SMILES IDX 13 27 24 28 25 29 26 30 27 31 28 32 29 34 30 35 31 36 83 37
REMARK SMILES IDX 32 38 82 39 33 40 34 41 35 42 76 43 36 44 81 45 75 46 77 47
REMARK SMILES IDX 37 48 80 49 74 50 73 51 38 53 64 54 47 55 63 56 48 57 51 58
REMARK SMILES IDX 62 59 78 60 49 61 50 62 61 64 79 65 52 66 39 67 40 68 45 69
REMARK SMILES IDX 41 70 42 71 44 72 46 73 43 74 65 75 66 76 71 77 67 78 68 79
REMARK SMILES IDX 70 80 72 81 69 82 53 83 54 84 59 85 55 86 56 87 58 88 60 89
REMARK SMILES IDX 57 90
REMARK H PARENT 20 7 5 14 17 21 17 22 27 33 77 52 51 63
REMARK Flexibility Score: inf
ROOT
ATOM      1  C   UNL A   1      33.761  28.655  27.265  1.00  0.00     0.002 C 
ENDROOT
BRANCH   1   2
ATOM      2  C   UNL A   1      33.727  27.697  26.056  1.00  0.00     0.021 C 
BRANCH   2   3
ATOM      3  C   UNL A   1      33.675  28.128  24.561  1.00  0.00     0.116 C 
BRANCH   3   4
ATOM      4  N   UNL A   1      33.203  27.195  23.559  1.00  0.00    -0.354 N 
ATOM      5  C   UNL A   1      31.919  26.800  23.260  1.00  0.00     0.242 C 
ATOM      6  O   UNL A   1      31.798  25.996  22.326  1.00  0.00    -0.273 OA
ATOM      7  H   UNL A   1      33.907  26.782  23.008  1.00  0.00     0.163 HD
BRANCH   5   8
ATOM      8  C   UNL A   1      30.629  27.322  23.993  1.00  0.00     0.174 C 
BRANCH   8   9
ATOM      9  C   UNL A   1      29.576  27.932  23.013  1.00  0.00     0.015 C 
ATOM     10  C   UNL A   1      28.123  27.701  23.468  1.00  0.00     0.010 C 
ATOM     11  C   UNL A   1      29.759  29.443  22.821  1.00  0.00     0.010 C 
ENDBRANCH   8   9
BRANCH   8  12
ATOM     12  N   UNL A   1      29.990  26.342  24.905  1.00  0.00    -0.339 N 
ATOM     13  C   UNL A   1      30.630  25.435  25.723  1.00  0.00     0.278 C 
ATOM     14  H   UNL A   1      29.006  26.340  24.930  1.00  0.00     0.164 HD
ATOM     15  O   UNL A   1      30.953  25.818  26.852  1.00  0.00    -0.268 OA
BRANCH  13  16
ATOM     16  C   UNL A   1      30.631  23.910  25.346  1.00  0.00     0.272 C 
ATOM     17  C   UNL A   1      30.868  22.954  26.504  1.00  0.00     0.076 C 
ATOM     18  N   UNL A   1      31.537  23.617  24.181  1.00  0.00    -0.333 N 
ATOM     19  C   UNL A   1      32.356  22.775  26.825  1.00  0.00     0.016 C 
ATOM     20  C   UNL A   1      32.906  23.153  24.520  1.00  0.00     0.186 C 
ATOM     21  H   UNL A   1      31.626  24.474  23.632  1.00  0.00     0.347 HD
ATOM     22  H   UNL A   1      31.100  22.845  23.679  1.00  0.00     0.347 HD
ATOM     23  C   UNL A   1      33.272  23.615  25.924  1.00  0.00     0.048 C 
ATOM     24  C   UNL A   1      33.929  23.567  23.468  1.00  0.00     0.065 C 
ATOM     25  C   UNL A   1      34.746  23.712  26.328  1.00  0.00     0.010 C 
ATOM     26  C   UNL A   1      35.352  23.261  23.944  1.00  0.00     0.006 C 
ATOM     27  C   UNL A   1      35.676  24.072  25.186  1.00  0.00     0.001 C 
ENDBRANCH  13  16
ENDBRANCH   8  12
ENDBRANCH   5   8
ENDBRANCH   3   4
ENDBRANCH   2   3
ENDBRANCH   1   2
BRANCH   1  28
ATOM     28  C   UNL A   1      33.983  30.183  27.200  1.00  0.00     0.002 C 
BRANCH  28  29
ATOM     29  C   UNL A   1      33.054  31.153  26.460  1.00  0.00     0.021 C 
BRANCH  29  30
ATOM     30  C   UNL A   1      31.960  31.865  27.247  1.00  0.00     0.116 C 
BRANCH  30  31
ATOM     31  N   UNL A   1      32.190  33.301  27.245  1.00  0.00    -0.352 N 
ATOM     32  C   UNL A   1      33.037  34.040  28.021  1.00  0.00     0.251 C 
ATOM     33  H   UNL A   1      31.660  33.813  26.592  1.00  0.00     0.163 HD
ATOM     34  O   UNL A   1      32.840  35.266  28.129  1.00  0.00    -0.269 OA
BRANCH  32  35
ATOM     35  C   UNL A   1      34.197  33.440  28.719  1.00  0.00     0.039 A 
ATOM     36  C   UNL A   1      35.464  33.508  28.125  1.00  0.00     0.014 A 
ATOM     37  C   UNL A   1      34.031  32.707  29.899  1.00  0.00     0.014 A 
ATOM     38  C   UNL A   1      36.555  32.855  28.708  1.00  0.00     0.010 A 
ATOM     39  C   UNL A   1      35.130  32.096  30.508  1.00  0.00     0.010 A 
ATOM     40  C   UNL A   1      36.399  32.144  29.908  1.00  0.00    -0.014 A 
BRANCH  40  41
ATOM     41  C   UNL A   1      37.537  31.409  30.524  1.00  0.00     0.031 A 
ATOM     42  C   UNL A   1      37.911  31.662  31.961  1.00  0.00     0.074 A 
ATOM     43  C   UNL A   1      38.267  30.555  29.782  1.00  0.00     0.049 A 
ATOM     44  N   UNL A   1      38.914  31.185  32.655  1.00  0.00    -0.248 NA
ATOM     45  C   UNL A   1      37.058  32.598  32.710  1.00  0.00     0.031 C 
ATOM     46  C   UNL A   1      38.031  30.246  28.372  1.00  0.00     0.029 A 
ATOM     47  N   UNL A   1      39.366  29.800  30.110  1.00  0.00    -0.354 N 
ATOM     48  C   UNL A   1      38.824  31.776  33.910  1.00  0.00     0.074 A 
ATOM     49  C   UNL A   1      37.696  32.681  33.868  1.00  0.00     0.031 C 
ATOM     50  C   UNL A   1      38.948  29.356  27.959  1.00  0.00     0.029 A 
ATOM     51  C   UNL A   1      39.854  29.055  29.063  1.00  0.00     0.049 A 
ATOM     52  H   UNL A   1      39.766  29.792  31.010  1.00  0.00     0.167 HD
ATOM     53  C   UNL A   1      39.598  31.570  35.002  1.00  0.00     0.037 A 
ATOM     54  C   UNL A   1      40.915  28.229  29.000  1.00  0.00     0.037 A 
ATOM     55  C   UNL A   1      40.700  30.645  35.054  1.00  0.00     0.049 A 
ATOM     56  C   UNL A   1      41.754  28.010  30.229  1.00  0.00     0.074 A 
ATOM     57  C   UNL A   1      41.506  30.320  36.131  1.00  0.00     0.029 A 
ATOM     58  N   UNL A   1      41.146  29.892  33.978  1.00  0.00    -0.354 N 
ATOM     59  N   UNL A   1      41.624  28.535  31.423  1.00  0.00    -0.248 NA
ATOM     60  C   UNL A   1      42.885  27.079  30.103  1.00  0.00     0.031 C 
ATOM     61  C   UNL A   1      42.464  29.396  35.698  1.00  0.00     0.029 A 
ATOM     62  C   UNL A   1      42.227  29.115  34.362  1.00  0.00     0.049 A 
ATOM     63  H   UNL A   1      40.754  29.907  33.076  1.00  0.00     0.167 HD
ATOM     64  C   UNL A   1      42.636  27.980  32.196  1.00  0.00     0.074 A 
ATOM     65  C   UNL A   1      43.364  27.068  31.339  1.00  0.00     0.031 C 
ATOM     66  C   UNL A   1      42.937  28.207  33.498  1.00  0.00     0.037 A 
BRANCH  53  67
ATOM     67  C   UNL A   1      39.276  32.361  36.238  1.00  0.00     0.057 A 
ATOM     68  C   UNL A   1      39.855  33.614  36.486  1.00  0.00     0.134 A 
ATOM     69  C   UNL A   1      38.354  31.882  37.177  1.00  0.00     0.134 A 
ATOM     70  F   UNL A   1      40.754  34.127  35.632  1.00  0.00    -0.206 F 
ATOM     71  C   UNL A   1      39.552  34.345  37.635  1.00  0.00     0.040 A 
ATOM     72  C   UNL A   1      38.022  32.617  38.318  1.00  0.00     0.040 A 
ATOM     73  F   UNL A   1      37.755  30.695  37.000  1.00  0.00    -0.206 F 
ATOM     74  C   UNL A   1      38.628  33.849  38.553  1.00  0.00     0.006 A 
ENDBRANCH  53  67
BRANCH  54  75
ATOM     75  C   UNL A   1      41.230  27.522  27.733  1.00  0.00     0.057 A 
ATOM     76  C   UNL A   1      40.732  26.239  27.482  1.00  0.00     0.134 A 
ATOM     77  C   UNL A   1      42.035  28.107  26.749  1.00  0.00     0.134 A 
ATOM     78  F   UNL A   1      39.972  25.619  28.396  1.00  0.00    -0.206 F 
ATOM     79  C   UNL A   1      41.035  25.555  26.303  1.00  0.00     0.040 A 
ATOM     80  C   UNL A   1      42.326  27.444  25.555  1.00  0.00     0.040 A 
ATOM     81  F   UNL A   1      42.537  29.337  26.928  1.00  0.00    -0.206 F 
ATOM     82  C   UNL A   1      41.830  26.162  25.333  1.00  0.00     0.006 A 
ENDBRANCH  54  75
BRANCH  66  83
ATOM     83  C   UNL A   1      44.081  27.434  34.081  1.00  0.00     0.057 A 
ATOM     84  C   UNL A   1      45.385  27.945  34.096  1.00  0.00     0.134 A 
ATOM     85  C   UNL A   1      43.869  26.181  34.671  1.00  0.00     0.134 A 
ATOM     86  F   UNL A   1      45.656  29.134  33.535  1.00  0.00    -0.206 F 
ATOM     87  C   UNL A   1      46.442  27.226  34.657  1.00  0.00     0.040 A 
ATOM     88  C   UNL A   1      44.913  25.465  35.256  1.00  0.00     0.040 A 
ATOM     89  F   UNL A   1      42.642  25.640  34.696  1.00  0.00    -0.206 F 
ATOM     90  C   UNL A   1      46.205  25.985  35.246  1.00  0.00     0.006 A 
ENDBRANCH  66  83
ENDBRANCH  40  41
ENDBRANCH  32  35
ENDBRANCH  30  31
ENDBRANCH  29  30
ENDBRANCH  28  29
ENDBRANCH   1  28
TORSDOF 16
ENDMDL
MODEL 3
REMARK VINA RESULT:     -10.8      1.979      7.586
REMARK SMILES CC(C)[C@@H](NC(=O)[C@@H]1CC[C@H]2CCCC[C@@H]2[NH2+]1)C(=O)NCCCCCCNC(=O)c1ccc(-c2c3nc(c(-c4c(F)cccc4F)c4ccc([nH]4)c(-c4c(F)cccc4F)c4nc(c(-c5c(F)cccc5F)c5ccc2[nH]5)C=C4)C=C3)cc1
REMARK SMILES IDX 23 1 22 2 21 3 20 4 18 5 19 6 4 8 2 9 1 10 3 11 5 12 6 13
REMARK SMILES IDX 7 15 8 16 9 17 17 18 10 19 16 20 11 23 15 24 12 25 14 26
REMARK SMILES IDX 13 27 24 28 25 29 26 30 27 31 28 32 29 34 30 35 31 36 83 37
REMARK SMILES IDX 32 38 82 39 33 40 34 41 35 42 76 43 36 44 81 45 75 46 77 47
REMARK SMILES IDX 37 48 80 49 74 50 73 51 38 53 64 54 47 55 63 56 48 57 51 58
REMARK SMILES IDX 62 59 78 60 49 61 50 62 61 64 79 65 52 66 39 67 40 68 45 69
REMARK SMILES IDX 41 70 42 71 44 72 46 73 43 74 65 75 66 76 71 77 67 78 68 79
REMARK SMILES IDX 70 80 72 81 69 82 53 83 54 84 59 85 55 86 56 87 58 88 60 89
REMARK SMILES IDX 57 90
REMARK H PARENT 20 7 5 14 17 21 17 22 27 33 77 52 51 63
REMARK Flexibility Score: inf
ROOT
ATOM      1  C   UNL A   1      31.411  29.462  25.264  1.00  0.00     0.002 C 
ENDROOT
BRANCH   1   2
ATOM      2  C   UNL A   1      31.997  29.019  23.906  1.00  0.00     0.021 C 
BRANCH   2   3
ATOM      3  C   UNL A   1      31.231  28.230  22.804  1.00  0.00     0.116 C 
BRANCH   3   4
ATOM      4  N   UNL A   1      31.946  27.301  21.954  1.00  0.00    -0.354 N 
ATOM      5  C   UNL A   1      32.585  26.126  22.277  1.00  0.00     0.242 C 
ATOM      6  O   UNL A   1      33.103  25.509  21.337  1.00  0.00    -0.273 OA
ATOM      7  H   UNL A   1      31.980  27.548  21.002  1.00  0.00     0.163 HD
BRANCH   5   8
ATOM      8  C   UNL A   1      32.664  25.520  23.727  1.00  0.00     0.174 C 
BRANCH   8   9
ATOM      9  C   UNL A   1      31.349  24.792  24.155  1.00  0.00     0.015 C 
ATOM     10  C   UNL A   1      30.321  25.736  24.805  1.00  0.00     0.010 C 
ATOM     11  C   UNL A   1      30.652  24.100  22.977  1.00  0.00     0.010 C 
ENDBRANCH   8   9
BRANCH   8  12
ATOM     12  N   UNL A   1      33.846  24.661  23.981  1.00  0.00    -0.339 N 
ATOM     13  C   UNL A   1      34.000  23.340  23.618  1.00  0.00     0.278 C 
ATOM     14  H   UNL A   1      34.600  25.078  24.458  1.00  0.00     0.164 HD
ATOM     15  O   UNL A   1      34.454  23.110  22.493  1.00  0.00    -0.268 OA
BRANCH  13  16
ATOM     16  C   UNL A   1      33.921  22.216  24.712  1.00  0.00     0.272 C 
ATOM     17  C   UNL A   1      33.687  22.705  26.132  1.00  0.00     0.076 C 
ATOM     18  N   UNL A   1      35.085  21.265  24.630  1.00  0.00    -0.333 N 
ATOM     19  C   UNL A   1      34.980  23.149  26.823  1.00  0.00     0.016 C 
ATOM     20  C   UNL A   1      36.224  21.549  25.537  1.00  0.00     0.186 C 
ATOM     21  H   UNL A   1      35.437  21.285  23.672  1.00  0.00     0.347 HD
ATOM     22  H   UNL A   1      34.720  20.358  24.920  1.00  0.00     0.347 HD
ATOM     23  C   UNL A   1      36.218  23.023  25.924  1.00  0.00     0.048 C 
ATOM     24  C   UNL A   1      37.554  21.092  24.949  1.00  0.00     0.065 C 
ATOM     25  C   UNL A   1      37.508  23.680  26.420  1.00  0.00     0.010 C 
ATOM     26  C   UNL A   1      38.725  21.584  25.804  1.00  0.00     0.006 C 
ATOM     27  C   UNL A   1      38.770  23.102  25.809  1.00  0.00     0.001 C 
ENDBRANCH  13  16
ENDBRANCH   8  12
ENDBRANCH   5   8
ENDBRANCH   3   4
ENDBRANCH   2   3
ENDBRANCH   1   2
BRANCH   1  28
ATOM     28  C   UNL A   1      31.414  28.628  26.564  1.00  0.00     0.002 C 
BRANCH  28  29
ATOM     29  C   UNL A   1      32.686  28.228  27.322  1.00  0.00     0.021 C 
BRANCH  29  30
ATOM     30  C   UNL A   1      33.989  28.950  27.000  1.00  0.00     0.116 C 
BRANCH  30  31
ATOM     31  N   UNL A   1      34.047  30.224  27.698  1.00  0.00    -0.352 N 
ATOM     32  C   UNL A   1      34.990  30.687  28.570  1.00  0.00     0.251 C 
ATOM     33  H   UNL A   1      33.302  30.841  27.514  1.00  0.00     0.163 HD
ATOM     34  O   UNL A   1      34.696  31.631  29.330  1.00  0.00    -0.269 OA
BRANCH  32  35
ATOM     35  C   UNL A   1      36.359  30.125  28.628  1.00  0.00     0.039 A 
ATOM     36  C   UNL A   1      36.827  29.586  29.834  1.00  0.00     0.014 A 
ATOM     37  C   UNL A   1      37.229  30.228  27.538  1.00  0.00     0.014 A 
ATOM     38  C   UNL A   1      38.152  29.148  29.945  1.00  0.00     0.010 A 
ATOM     39  C   UNL A   1      38.537  29.746  27.635  1.00  0.00     0.010 A 
ATOM     40  C   UNL A   1      39.020  29.222  28.845  1.00  0.00    -0.014 A 
BRANCH  40  41
ATOM     41  C   UNL A   1      40.442  28.801  28.954  1.00  0.00     0.031 A 
ATOM     42  C   UNL A   1      41.482  29.771  29.449  1.00  0.00     0.074 A 
ATOM     43  C   UNL A   1      40.812  27.568  28.558  1.00  0.00     0.049 A 
ATOM     44  N   UNL A   1      42.781  29.624  29.540  1.00  0.00    -0.248 NA
ATOM     45  C   UNL A   1      41.000  31.095  29.876  1.00  0.00     0.031 C 
ATOM     46  C   UNL A   1      39.910  26.545  28.028  1.00  0.00     0.029 A 
ATOM     47  N   UNL A   1      42.048  26.971  28.528  1.00  0.00    -0.354 N 
ATOM     48  C   UNL A   1      43.269  30.837  30.012  1.00  0.00     0.074 A 
ATOM     49  C   UNL A   1      42.134  31.724  30.145  1.00  0.00     0.031 C 
ATOM     50  C   UNL A   1      40.620  25.442  27.739  1.00  0.00     0.029 A 
ATOM     51  C   UNL A   1      42.028  25.689  28.033  1.00  0.00     0.049 A 
ATOM     52  H   UNL A   1      42.870  27.418  28.834  1.00  0.00     0.167 HD
ATOM     53  C   UNL A   1      44.544  31.175  30.323  1.00  0.00     0.037 A 
ATOM     54  C   UNL A   1      43.033  24.816  27.832  1.00  0.00     0.037 A 
ATOM     55  C   UNL A   1      45.668  30.282  30.222  1.00  0.00     0.049 A 
ATOM     56  C   UNL A   1      44.438  25.212  28.193  1.00  0.00     0.074 A 
ATOM     57  C   UNL A   1      46.988  30.511  30.571  1.00  0.00     0.029 A 
ATOM     58  N   UNL A   1      45.601  28.984  29.737  1.00  0.00    -0.354 N 
ATOM     59  N   UNL A   1      44.876  26.343  28.689  1.00  0.00    -0.248 NA
ATOM     60  C   UNL A   1      45.488  24.206  27.973  1.00  0.00     0.031 C 
ATOM     61  C   UNL A   1      47.727  29.362  30.265  1.00  0.00     0.029 A 
ATOM     62  C   UNL A   1      46.860  28.405  29.764  1.00  0.00     0.049 A 
ATOM     63  H   UNL A   1      44.782  28.540  29.422  1.00  0.00     0.167 HD
ATOM     64  C   UNL A   1      46.245  26.178  28.864  1.00  0.00     0.074 A 
ATOM     65  C   UNL A   1      46.562  24.832  28.434  1.00  0.00     0.031 C 
ATOM     66  C   UNL A   1      47.157  27.062  29.337  1.00  0.00     0.037 A 
BRANCH  53  67
ATOM     67  C   UNL A   1      44.789  32.575  30.809  1.00  0.00     0.057 A 
ATOM     68  C   UNL A   1      44.733  32.906  32.170  1.00  0.00     0.134 A 
ATOM     69  C   UNL A   1      45.117  33.599  29.911  1.00  0.00     0.134 A 
ATOM     70  F   UNL A   1      44.415  31.974  33.082  1.00  0.00    -0.206 F 
ATOM     71  C   UNL A   1      44.963  34.208  32.616  1.00  0.00     0.040 A 
ATOM     72  C   UNL A   1      45.375  34.901  30.348  1.00  0.00     0.040 A 
ATOM     73  F   UNL A   1      45.197  33.352  28.596  1.00  0.00    -0.206 F 
ATOM     74  C   UNL A   1      45.291  35.209  31.704  1.00  0.00     0.006 A 
ENDBRANCH  53  67
BRANCH  54  75
ATOM     75  C   UNL A   1      42.744  23.466  27.285  1.00  0.00     0.057 A 
ATOM     76  C   UNL A   1      42.805  23.219  25.910  1.00  0.00     0.134 A 
ATOM     77  C   UNL A   1      42.397  22.397  28.119  1.00  0.00     0.134 A 
ATOM     78  F   UNL A   1      43.112  24.209  25.059  1.00  0.00    -0.206 F 
ATOM     79  C   UNL A   1      42.517  21.960  25.380  1.00  0.00     0.040 A 
ATOM     80  C   UNL A   1      42.130  21.127  27.605  1.00  0.00     0.040 A 
ATOM     81  F   UNL A   1      42.327  22.569  29.447  1.00  0.00    -0.206 F 
ATOM     82  C   UNL A   1      42.184  20.908  26.230  1.00  0.00     0.006 A 
ENDBRANCH  54  75
BRANCH  66  83
ATOM     83  C   UNL A   1      48.576  26.590  29.444  1.00  0.00     0.057 A 
ATOM     84  C   UNL A   1      49.508  26.821  28.424  1.00  0.00     0.134 A 
ATOM     85  C   UNL A   1      49.026  25.933  30.596  1.00  0.00     0.134 A 
ATOM     86  F   UNL A   1      49.137  27.434  27.289  1.00  0.00    -0.206 F 
ATOM     87  C   UNL A   1      50.832  26.395  28.538  1.00  0.00     0.040 A 
ATOM     88  C   UNL A   1      50.353  25.524  30.732  1.00  0.00     0.040 A 
ATOM     89  F   UNL A   1      48.185  25.689  31.612  1.00  0.00    -0.206 F 
ATOM     90  C   UNL A   1      51.259  25.751  29.698  1.00  0.00     0.006 A 
ENDBRANCH  66  83
ENDBRANCH  40  41
ENDBRANCH  32  35
ENDBRANCH  30  31
ENDBRANCH  29  30
ENDBRANCH  28  29
ENDBRANCH   1  28
TORSDOF 16
ENDMDL
