MODEL 1
REMARK VINA RESULT:     -10.9      0.000      0.000
REMARK SMILES O=C(Cc1cccn1-c1ccccc1F)NCCCCCCNC(=O)c1ccc(-c2c3nc(c(-c4c(F)cccc4F)c4ccc([nH]4)c(-c4c(F)cccc4F)c4nc(c(-c5c(F)cccc5F)c5ccc2[nH]5)C=C4)C=C3)cc1
REMARK SMILES IDX 19 1 18 2 17 3 16 4 1 5 2 6 3 8 4 9 5 10 8 11 6 12 7 13 9 14
REMARK SMILES IDX 10 15 14 16 11 17 13 18 15 19 12 20 20 21 21 22 22 23 23 24
REMARK SMILES IDX 24 25 25 27 26 28 27 29 79 30 28 31 78 32 29 33 30 34 31 35
REMARK SMILES IDX 72 36 32 37 77 38 71 39 73 40 33 41 76 42 70 43 69 44 34 46
REMARK SMILES IDX 60 47 43 48 59 49 44 50 47 51 58 52 74 53 45 54 46 55 57 57
REMARK SMILES IDX 75 58 48 59 35 60 36 61 41 62 37 63 38 64 40 65 42 66 39 67
REMARK SMILES IDX 61 68 62 69 67 70 63 71 64 72 66 73 68 74 65 75 49 76 50 77
REMARK SMILES IDX 55 78 51 79 52 80 54 81 56 82 53 83
REMARK H PARENT 16 7 23 26 73 45 47 56
REMARK Flexibility Score: inf
ROOT
ATOM      1  C   UNL A   1      32.079  27.342  25.208  1.00  0.00     0.002 C 
ENDROOT
BRANCH   1   2
ATOM      2  C   UNL A   1      31.170  26.117  25.076  1.00  0.00     0.021 C 
BRANCH   2   3
ATOM      3  C   UNL A   1      30.775  25.717  23.655  1.00  0.00     0.116 C 
BRANCH   3   4
ATOM      4  N   UNL A   1      31.447  24.531  23.160  1.00  0.00    -0.356 N 
ATOM      5  O   UNL A   1      33.101  25.706  22.085  1.00  0.00    -0.275 OA
ATOM      6  C   UNL A   1      32.609  24.631  22.419  1.00  0.00     0.225 C 
ATOM      7  H   UNL A   1      31.068  23.644  23.354  1.00  0.00     0.163 HD
BRANCH   6   8
ATOM      8  C   UNL A   1      33.209  23.307  21.995  1.00  0.00     0.154 C 
BRANCH   8   9
ATOM      9  C   UNL A   1      33.073  22.140  22.940  1.00  0.00     0.032 A 
ATOM     10  C   UNL A   1      32.088  21.161  22.861  1.00  0.00     0.024 A 
ATOM     11  N   UNL A   1      33.931  21.758  23.966  1.00  0.00    -0.318 N 
ATOM     12  C   UNL A   1      32.345  20.179  23.839  1.00  0.00     0.020 A 
ATOM     13  C   UNL A   1      33.486  20.564  24.495  1.00  0.00     0.091 A 
BRANCH  11  14
ATOM     14  C   UNL A   1      35.005  22.462  24.525  1.00  0.00     0.081 A 
ATOM     15  C   UNL A   1      36.319  22.087  24.250  1.00  0.00     0.030 A 
ATOM     16  C   UNL A   1      34.731  23.471  25.440  1.00  0.00     0.147 A 
ATOM     17  C   UNL A   1      37.361  22.803  24.846  1.00  0.00     0.002 A 
ATOM     18  C   UNL A   1      35.768  24.183  26.032  1.00  0.00     0.041 A 
ATOM     19  F   UNL A   1      33.462  23.761  25.754  1.00  0.00    -0.205 F 
ATOM     20  C   UNL A   1      37.087  23.860  25.720  1.00  0.00     0.003 A 
ENDBRANCH  11  14
ENDBRANCH   8   9
ENDBRANCH   6   8
ENDBRANCH   3   4
ENDBRANCH   2   3
ENDBRANCH   1   2
BRANCH   1  21
ATOM     21  C   UNL A   1      33.192  27.263  26.256  1.00  0.00     0.002 C 
BRANCH  21  22
ATOM     22  C   UNL A   1      33.610  28.574  26.926  1.00  0.00     0.021 C 
BRANCH  22  23
ATOM     23  C   UNL A   1      35.111  28.827  26.898  1.00  0.00     0.116 C 
BRANCH  23  24
ATOM     24  N   UNL A   1      35.426  30.186  27.311  1.00  0.00    -0.352 N 
ATOM     25  C   UNL A   1      36.461  30.638  28.091  1.00  0.00     0.251 C 
ATOM     26  H   UNL A   1      34.809  30.880  26.985  1.00  0.00     0.163 HD
ATOM     27  O   UNL A   1      36.386  31.729  28.638  1.00  0.00    -0.269 OA
BRANCH  25  28
ATOM     28  C   UNL A   1      37.667  29.809  28.279  1.00  0.00     0.039 A 
ATOM     29  C   UNL A   1      38.589  29.728  27.230  1.00  0.00     0.014 A 
ATOM     30  C   UNL A   1      37.841  29.055  29.445  1.00  0.00     0.014 A 
ATOM     31  C   UNL A   1      39.723  28.940  27.376  1.00  0.00     0.010 A 
ATOM     32  C   UNL A   1      38.989  28.298  29.611  1.00  0.00     0.010 A 
ATOM     33  C   UNL A   1      39.931  28.252  28.579  1.00  0.00    -0.014 A 
BRANCH  33  34
ATOM     34  C   UNL A   1      41.232  27.597  28.814  1.00  0.00     0.031 A 
ATOM     35  C   UNL A   1      41.203  26.114  28.361  1.00  0.00     0.074 A 
ATOM     36  C   UNL A   1      42.195  28.397  29.372  1.00  0.00     0.049 A 
ATOM     37  N   UNL A   1      41.968  25.118  28.685  1.00  0.00    -0.248 NA
ATOM     38  C   UNL A   1      40.128  25.658  27.427  1.00  0.00     0.031 C 
ATOM     39  C   UNL A   1      42.022  29.838  29.680  1.00  0.00     0.029 A 
ATOM     40  N   UNL A   1      43.491  28.193  29.796  1.00  0.00    -0.354 N 
ATOM     41  C   UNL A   1      41.612  24.006  27.879  1.00  0.00     0.074 A 
ATOM     42  C   UNL A   1      40.412  24.373  27.197  1.00  0.00     0.031 C 
ATOM     43  C   UNL A   1      43.105  30.334  30.315  1.00  0.00     0.029 A 
ATOM     44  C   UNL A   1      44.091  29.288  30.482  1.00  0.00     0.049 A 
ATOM     45  H   UNL A   1      43.970  27.347  29.637  1.00  0.00     0.167 HD
ATOM     46  C   UNL A   1      42.397  22.893  27.753  1.00  0.00     0.037 A 
ATOM     47  C   UNL A   1      45.269  29.323  31.184  1.00  0.00     0.037 A 
ATOM     48  C   UNL A   1      43.527  23.011  28.610  1.00  0.00     0.049 A 
ATOM     49  C   UNL A   1      45.894  28.024  30.916  1.00  0.00     0.074 A 
ATOM     50  C   UNL A   1      43.640  22.892  29.969  1.00  0.00     0.029 A 
ATOM     51  N   UNL A   1      44.621  23.673  28.114  1.00  0.00    -0.354 N 
ATOM     52  N   UNL A   1      46.424  27.684  29.781  1.00  0.00    -0.248 NA
ATOM     53  C   UNL A   1      45.813  26.981  31.943  1.00  0.00     0.031 C 
ATOM     54  C   UNL A   1      44.526  23.932  30.299  1.00  0.00     0.029 A 
ATOM     55  C   UNL A   1      45.126  24.435  29.139  1.00  0.00     0.049 A 
ATOM     56  H   UNL A   1      44.977  23.615  27.198  1.00  0.00     0.167 HD
ATOM     57  C   UNL A   1      46.402  26.314  29.851  1.00  0.00     0.074 A 
ATOM     58  C   UNL A   1      46.339  25.970  31.256  1.00  0.00     0.031 C 
ATOM     59  C   UNL A   1      45.914  25.596  28.808  1.00  0.00     0.037 A 
BRANCH  46  60
ATOM     60  C   UNL A   1      42.392  21.722  26.809  1.00  0.00     0.057 A 
ATOM     61  C   UNL A   1      43.303  21.567  25.761  1.00  0.00     0.134 A 
ATOM     62  C   UNL A   1      41.685  20.552  27.184  1.00  0.00     0.134 A 
ATOM     63  F   UNL A   1      44.033  22.600  25.318  1.00  0.00    -0.206 F 
ATOM     64  C   UNL A   1      43.562  20.311  25.187  1.00  0.00     0.040 A 
ATOM     65  C   UNL A   1      41.966  19.292  26.652  1.00  0.00     0.040 A 
ATOM     66  F   UNL A   1      40.740  20.590  28.138  1.00  0.00    -0.206 F 
ATOM     67  C   UNL A   1      42.928  19.165  25.662  1.00  0.00     0.006 A 
ENDBRANCH  46  60
BRANCH  47  68
ATOM     68  C   UNL A   1      45.975  30.212  32.186  1.00  0.00     0.057 A 
ATOM     69  C   UNL A   1      47.201  30.844  31.829  1.00  0.00     0.134 A 
ATOM     70  C   UNL A   1      45.617  30.406  33.522  1.00  0.00     0.134 A 
ATOM     71  F   UNL A   1      47.617  30.917  30.556  1.00  0.00    -0.206 F 
ATOM     72  C   UNL A   1      48.084  31.423  32.746  1.00  0.00     0.040 A 
ATOM     73  C   UNL A   1      46.474  31.037  34.450  1.00  0.00     0.040 A 
ATOM     74  F   UNL A   1      44.430  30.011  33.991  1.00  0.00    -0.206 F 
ATOM     75  C   UNL A   1      47.733  31.498  34.076  1.00  0.00     0.006 A 
ENDBRANCH  47  68
BRANCH  59  76
ATOM     76  C   UNL A   1      45.954  26.320  27.472  1.00  0.00     0.057 A 
ATOM     77  C   UNL A   1      44.829  26.809  26.790  1.00  0.00     0.134 A 
ATOM     78  C   UNL A   1      47.190  26.648  26.897  1.00  0.00     0.134 A 
ATOM     79  F   UNL A   1      43.596  26.558  27.227  1.00  0.00    -0.206 F 
ATOM     80  C   UNL A   1      44.917  27.586  25.626  1.00  0.00     0.040 A 
ATOM     81  C   UNL A   1      47.300  27.432  25.741  1.00  0.00     0.040 A 
ATOM     82  F   UNL A   1      48.328  26.213  27.460  1.00  0.00    -0.206 F 
ATOM     83  C   UNL A   1      46.160  27.908  25.100  1.00  0.00     0.006 A 
ENDBRANCH  59  76
ENDBRANCH  33  34
ENDBRANCH  25  28
ENDBRANCH  23  24
ENDBRANCH  22  23
ENDBRANCH  21  22
ENDBRANCH   1  21
TORSDOF 15
ENDMDL
MODEL 2
REMARK VINA RESULT:     -10.7      1.515      2.028
REMARK SMILES O=C(Cc1cccn1-c1ccccc1F)NCCCCCCNC(=O)c1ccc(-c2c3nc(c(-c4c(F)cccc4F)c4ccc([nH]4)c(-c4c(F)cccc4F)c4nc(c(-c5c(F)cccc5F)c5ccc2[nH]5)C=C4)C=C3)cc1
REMARK SMILES IDX 19 1 18 2 17 3 16 4 1 5 2 6 3 8 4 9 5 10 8 11 6 12 7 13 9 14
REMARK SMILES IDX 10 15 14 16 11 17 13 18 15 19 12 20 20 21 21 22 22 23 23 24
REMARK SMILES IDX 24 25 25 27 26 28 27 29 79 30 28 31 78 32 29 33 30 34 31 35
REMARK SMILES IDX 72 36 32 37 77 38 71 39 73 40 33 41 76 42 70 43 69 44 34 46
REMARK SMILES IDX 60 47 43 48 59 49 44 50 47 51 58 52 74 53 45 54 46 55 57 57
REMARK SMILES IDX 75 58 48 59 35 60 36 61 41 62 37 63 38 64 40 65 42 66 39 67
REMARK SMILES IDX 61 68 62 69 67 70 63 71 64 72 66 73 68 74 65 75 49 76 50 77
REMARK SMILES IDX 55 78 51 79 52 80 54 81 56 82 53 83
REMARK H PARENT 16 7 23 26 73 45 47 56
REMARK Flexibility Score: inf
ROOT
ATOM      1  C   UNL A   1      31.492  27.092  25.229  1.00  0.00     0.002 C 
ENDROOT
BRANCH   1   2
ATOM      2  C   UNL A   1      30.886  25.702  25.011  1.00  0.00     0.021 C 
BRANCH   2   3
ATOM      3  C   UNL A   1      30.536  25.335  23.570  1.00  0.00     0.116 C 
BRANCH   3   4
ATOM      4  N   UNL A   1      31.130  24.096  23.108  1.00  0.00    -0.356 N 
ATOM      5  O   UNL A   1      33.236  24.985  22.893  1.00  0.00    -0.275 OA
ATOM      6  C   UNL A   1      32.482  24.017  22.831  1.00  0.00     0.225 C 
ATOM      7  H   UNL A   1      30.562  23.301  22.990  1.00  0.00     0.163 HD
BRANCH   6   8
ATOM      8  C   UNL A   1      32.962  22.652  22.384  1.00  0.00     0.154 C 
BRANCH   8   9
ATOM      9  C   UNL A   1      33.040  21.562  23.422  1.00  0.00     0.032 A 
ATOM     10  C   UNL A   1      32.144  20.504  23.535  1.00  0.00     0.024 A 
ATOM     11  N   UNL A   1      34.040  21.337  24.362  1.00  0.00    -0.318 N 
ATOM     12  C   UNL A   1      32.598  19.631  24.545  1.00  0.00     0.020 A 
ATOM     13  C   UNL A   1      33.768  20.160  25.028  1.00  0.00     0.091 A 
BRANCH  11  14
ATOM     14  C   UNL A   1      35.104  22.169  24.733  1.00  0.00     0.081 A 
ATOM     15  C   UNL A   1      36.414  21.846  24.383  1.00  0.00     0.030 A 
ATOM     16  C   UNL A   1      34.836  23.263  25.547  1.00  0.00     0.147 A 
ATOM     17  C   UNL A   1      37.448  22.693  24.793  1.00  0.00     0.002 A 
ATOM     18  C   UNL A   1      35.864  24.106  25.953  1.00  0.00     0.041 A 
ATOM     19  F   UNL A   1      33.580  23.511  25.941  1.00  0.00    -0.205 F 
ATOM     20  C   UNL A   1      37.173  23.830  25.559  1.00  0.00     0.003 A 
ENDBRANCH  11  14
ENDBRANCH   8   9
ENDBRANCH   6   8
ENDBRANCH   3   4
ENDBRANCH   2   3
ENDBRANCH   1   2
BRANCH   1  21
ATOM     21  C   UNL A   1      32.835  27.148  25.963  1.00  0.00     0.002 C 
BRANCH  21  22
ATOM     22  C   UNL A   1      33.178  28.454  26.684  1.00  0.00     0.021 C 
BRANCH  22  23
ATOM     23  C   UNL A   1      34.669  28.656  26.913  1.00  0.00     0.116 C 
BRANCH  23  24
ATOM     24  N   UNL A   1      34.981  30.054  27.164  1.00  0.00    -0.352 N 
ATOM     25  C   UNL A   1      35.997  30.596  27.911  1.00  0.00     0.251 C 
ATOM     26  H   UNL A   1      34.377  30.704  26.739  1.00  0.00     0.163 HD
ATOM     27  O   UNL A   1      35.913  31.746  28.318  1.00  0.00    -0.269 OA
BRANCH  25  28
ATOM     28  C   UNL A   1      37.192  29.794  28.234  1.00  0.00     0.039 A 
ATOM     29  C   UNL A   1      38.272  29.822  27.344  1.00  0.00     0.014 A 
ATOM     30  C   UNL A   1      37.212  28.959  29.356  1.00  0.00     0.014 A 
ATOM     31  C   UNL A   1      39.401  29.060  27.616  1.00  0.00     0.010 A 
ATOM     32  C   UNL A   1      38.351  28.228  29.653  1.00  0.00     0.010 A 
ATOM     33  C   UNL A   1      39.446  28.290  28.786  1.00  0.00    -0.014 A 
BRANCH  33  34
ATOM     34  C   UNL A   1      40.719  27.661  29.181  1.00  0.00     0.031 A 
ATOM     35  C   UNL A   1      41.022  26.412  28.312  1.00  0.00     0.074 A 
ATOM     36  C   UNL A   1      41.379  28.277  30.212  1.00  0.00     0.049 A 
ATOM     37  N   UNL A   1      41.810  25.405  28.529  1.00  0.00    -0.248 NA
ATOM     38  C   UNL A   1      40.304  26.238  27.012  1.00  0.00     0.031 C 
ATOM     39  C   UNL A   1      40.928  29.524  30.878  1.00  0.00     0.029 A 
ATOM     40  N   UNL A   1      42.535  28.010  30.915  1.00  0.00    -0.354 N 
ATOM     41  C   UNL A   1      41.839  24.607  27.356  1.00  0.00     0.074 A 
ATOM     42  C   UNL A   1      40.819  25.118  26.497  1.00  0.00     0.031 C 
ATOM     43  C   UNL A   1      41.726  29.836  31.922  1.00  0.00     0.029 A 
ATOM     44  C   UNL A   1      42.772  28.844  32.045  1.00  0.00     0.049 A 
ATOM     45  H   UNL A   1      43.154  27.290  30.654  1.00  0.00     0.167 HD
ATOM     46  C   UNL A   1      42.780  23.639  27.134  1.00  0.00     0.037 A 
ATOM     47  C   UNL A   1      43.709  28.704  33.037  1.00  0.00     0.037 A 
ATOM     48  C   UNL A   1      43.618  23.523  28.278  1.00  0.00     0.049 A 
ATOM     49  C   UNL A   1      44.561  27.600  32.584  1.00  0.00     0.074 A 
ATOM     50  C   UNL A   1      43.388  22.966  29.507  1.00  0.00     0.029 A 
ATOM     51  N   UNL A   1      44.698  24.366  28.350  1.00  0.00    -0.354 N 
ATOM     52  N   UNL A   1      45.412  27.683  31.606  1.00  0.00    -0.248 NA
ATOM     53  C   UNL A   1      44.365  26.273  33.174  1.00  0.00     0.031 C 
ATOM     54  C   UNL A   1      44.000  23.880  30.382  1.00  0.00     0.029 A 
ATOM     55  C   UNL A   1      44.804  24.769  29.658  1.00  0.00     0.049 A 
ATOM     56  H   UNL A   1      45.285  24.633  27.606  1.00  0.00     0.167 HD
ATOM     57  C   UNL A   1      45.568  26.367  31.248  1.00  0.00     0.074 A 
ATOM     58  C   UNL A   1      45.190  25.575  32.399  1.00  0.00     0.031 C 
ATOM     59  C   UNL A   1      45.477  26.013  29.941  1.00  0.00     0.037 A 
BRANCH  46  60
ATOM     60  C   UNL A   1      43.189  22.849  25.921  1.00  0.00     0.057 A 
ATOM     61  C   UNL A   1      43.842  23.404  24.818  1.00  0.00     0.134 A 
ATOM     62  C   UNL A   1      43.248  21.436  26.021  1.00  0.00     0.134 A 
ATOM     63  F   UNL A   1      43.858  24.728  24.616  1.00  0.00    -0.206 F 
ATOM     64  C   UNL A   1      44.586  22.614  23.925  1.00  0.00     0.040 A 
ATOM     65  C   UNL A   1      44.020  20.646  25.166  1.00  0.00     0.040 A 
ATOM     66  F   UNL A   1      42.608  20.783  27.006  1.00  0.00    -0.206 F 
ATOM     67  C   UNL A   1      44.713  21.240  24.124  1.00  0.00     0.006 A 
ENDBRANCH  46  60
BRANCH  47  68
ATOM     68  C   UNL A   1      43.994  29.245  34.423  1.00  0.00     0.057 A 
ATOM     69  C   UNL A   1      43.045  29.046  35.467  1.00  0.00     0.134 A 
ATOM     70  C   UNL A   1      45.070  30.053  34.794  1.00  0.00     0.134 A 
ATOM     71  F   UNL A   1      42.042  28.164  35.357  1.00  0.00    -0.206 F 
ATOM     72  C   UNL A   1      43.050  29.747  36.678  1.00  0.00     0.040 A 
ATOM     73  C   UNL A   1      45.118  30.725  36.035  1.00  0.00     0.040 A 
ATOM     74  F   UNL A   1      46.125  30.224  33.991  1.00  0.00    -0.206 F 
ATOM     75  C   UNL A   1      44.082  30.617  36.957  1.00  0.00     0.006 A 
ENDBRANCH  47  68
BRANCH  59  76
ATOM     76  C   UNL A   1      45.760  27.139  28.961  1.00  0.00     0.057 A 
ATOM     77  C   UNL A   1      44.797  27.761  28.152  1.00  0.00     0.134 A 
ATOM     78  C   UNL A   1      47.040  27.710  28.912  1.00  0.00     0.134 A 
ATOM     79  F   UNL A   1      43.545  27.308  28.100  1.00  0.00    -0.206 F 
ATOM     80  C   UNL A   1      45.072  28.884  27.358  1.00  0.00     0.040 A 
ATOM     81  C   UNL A   1      47.332  28.838  28.133  1.00  0.00     0.040 A 
ATOM     82  F   UNL A   1      48.039  27.181  29.634  1.00  0.00    -0.206 F 
ATOM     83  C   UNL A   1      46.346  29.433  27.353  1.00  0.00     0.006 A 
ENDBRANCH  59  76
ENDBRANCH  33  34
ENDBRANCH  25  28
ENDBRANCH  23  24
ENDBRANCH  22  23
ENDBRANCH  21  22
ENDBRANCH   1  21
TORSDOF 15
ENDMDL
MODEL 3
REMARK VINA RESULT:     -10.7      4.110      6.415
REMARK SMILES O=C(Cc1cccn1-c1ccccc1F)NCCCCCCNC(=O)c1ccc(-c2c3nc(c(-c4c(F)cccc4F)c4ccc([nH]4)c(-c4c(F)cccc4F)c4nc(c(-c5c(F)cccc5F)c5ccc2[nH]5)C=C4)C=C3)cc1
REMARK SMILES IDX 19 1 18 2 17 3 16 4 1 5 2 6 3 8 4 9 5 10 8 11 6 12 7 13 9 14
REMARK SMILES IDX 10 15 14 16 11 17 13 18 15 19 12 20 20 21 21 22 22 23 23 24
REMARK SMILES IDX 24 25 25 27 26 28 27 29 79 30 28 31 78 32 29 33 30 34 31 35
REMARK SMILES IDX 72 36 32 37 77 38 71 39 73 40 33 41 76 42 70 43 69 44 34 46
REMARK SMILES IDX 60 47 43 48 59 49 44 50 47 51 58 52 74 53 45 54 46 55 57 57
REMARK SMILES IDX 75 58 48 59 35 60 36 61 41 62 37 63 38 64 40 65 42 66 39 67
REMARK SMILES IDX 61 68 62 69 67 70 63 71 64 72 66 73 68 74 65 75 49 76 50 77
REMARK SMILES IDX 55 78 51 79 52 80 54 81 56 82 53 83
REMARK H PARENT 16 7 23 26 73 45 47 56
REMARK Flexibility Score: inf
ROOT
ATOM      1  C   UNL A   1      31.201  27.659  27.166  1.00  0.00     0.002 C 
ENDROOT
BRANCH   1   2
ATOM      2  C   UNL A   1      30.965  26.844  25.891  1.00  0.00     0.021 C 
BRANCH   2   3
ATOM      3  C   UNL A   1      29.970  25.689  26.001  1.00  0.00     0.116 C 
BRANCH   3   4
ATOM      4  N   UNL A   1      30.434  24.444  25.421  1.00  0.00    -0.356 N 
ATOM      5  O   UNL A   1      31.283  23.640  27.398  1.00  0.00    -0.275 OA
ATOM      6  C   UNL A   1      31.042  23.480  26.203  1.00  0.00     0.225 C 
ATOM      7  H   UNL A   1      30.314  24.284  24.458  1.00  0.00     0.163 HD
BRANCH   6   8
ATOM      8  C   UNL A   1      31.449  22.223  25.464  1.00  0.00     0.154 C 
BRANCH   8   9
ATOM      9  C   UNL A   1      32.922  21.958  25.289  1.00  0.00     0.032 A 
ATOM     10  C   UNL A   1      33.616  20.900  25.869  1.00  0.00     0.024 A 
ATOM     11  N   UNL A   1      33.824  22.618  24.461  1.00  0.00    -0.318 N 
ATOM     12  C   UNL A   1      34.943  20.913  25.394  1.00  0.00     0.020 A 
ATOM     13  C   UNL A   1      35.041  21.970  24.524  1.00  0.00     0.091 A 
BRANCH  11  14
ATOM     14  C   UNL A   1      33.658  23.814  23.753  1.00  0.00     0.081 A 
ATOM     15  C   UNL A   1      33.911  25.041  24.364  1.00  0.00     0.030 A 
ATOM     16  C   UNL A   1      33.137  23.756  22.467  1.00  0.00     0.147 A 
ATOM     17  C   UNL A   1      33.712  26.213  23.627  1.00  0.00     0.002 A 
ATOM     18  C   UNL A   1      32.940  24.920  21.734  1.00  0.00     0.041 A 
ATOM     19  F   UNL A   1      32.822  22.571  21.927  1.00  0.00    -0.205 F 
ATOM     20  C   UNL A   1      33.246  26.152  22.310  1.00  0.00     0.003 A 
ENDBRANCH  11  14
ENDBRANCH   8   9
ENDBRANCH   6   8
ENDBRANCH   3   4
ENDBRANCH   2   3
ENDBRANCH   1   2
BRANCH   1  21
ATOM     21  C   UNL A   1      32.349  28.671  27.131  1.00  0.00     0.002 C 
BRANCH  21  22
ATOM     22  C   UNL A   1      31.973  30.139  26.916  1.00  0.00     0.021 C 
BRANCH  22  23
ATOM     23  C   UNL A   1      33.168  31.084  26.901  1.00  0.00     0.116 C 
BRANCH  23  24
ATOM     24  N   UNL A   1      32.755  32.461  27.123  1.00  0.00    -0.352 N 
ATOM     25  C   UNL A   1      33.181  33.351  28.077  1.00  0.00     0.251 C 
ATOM     26  H   UNL A   1      32.074  32.804  26.501  1.00  0.00     0.163 HD
ATOM     27  O   UNL A   1      32.495  34.324  28.358  1.00  0.00    -0.269 OA
BRANCH  25  28
ATOM     28  C   UNL A   1      34.464  33.137  28.774  1.00  0.00     0.039 A 
ATOM     29  C   UNL A   1      34.475  32.328  29.915  1.00  0.00     0.014 A 
ATOM     30  C   UNL A   1      35.624  33.796  28.353  1.00  0.00     0.014 A 
ATOM     31  C   UNL A   1      35.667  32.126  30.599  1.00  0.00     0.010 A 
ATOM     32  C   UNL A   1      36.823  33.568  29.008  1.00  0.00     0.010 A 
ATOM     33  C   UNL A   1      36.841  32.724  30.123  1.00  0.00    -0.014 A 
BRANCH  33  34
ATOM     34  C   UNL A   1      38.135  32.335  30.715  1.00  0.00     0.031 A 
ATOM     35  C   UNL A   1      38.743  31.111  29.980  1.00  0.00     0.074 A 
ATOM     36  C   UNL A   1      38.546  33.104  31.772  1.00  0.00     0.049 A 
ATOM     37  N   UNL A   1      39.644  30.261  30.363  1.00  0.00    -0.248 NA
ATOM     38  C   UNL A   1      38.241  30.756  28.618  1.00  0.00     0.031 C 
ATOM     39  C   UNL A   1      37.820  34.291  32.286  1.00  0.00     0.029 A 
ATOM     40  N   UNL A   1      39.627  33.068  32.628  1.00  0.00    -0.354 N 
ATOM     41  C   UNL A   1      39.954  29.420  29.264  1.00  0.00     0.074 A 
ATOM     42  C   UNL A   1      38.989  29.712  28.252  1.00  0.00     0.031 C 
ATOM     43  C   UNL A   1      38.413  34.783  33.395  1.00  0.00     0.029 A 
ATOM     44  C   UNL A   1      39.578  33.986  33.716  1.00  0.00     0.049 A 
ATOM     45  H   UNL A   1      40.381  32.448  32.497  1.00  0.00     0.167 HD
ATOM     46  C   UNL A   1      41.057  28.612  29.228  1.00  0.00     0.037 A 
ATOM     47  C   UNL A   1      40.385  34.053  34.823  1.00  0.00     0.037 A 
ATOM     48  C   UNL A   1      41.744  28.695  30.471  1.00  0.00     0.049 A 
ATOM     49  C   UNL A   1      41.453  33.085  34.557  1.00  0.00     0.074 A 
ATOM     50  C   UNL A   1      41.444  28.170  31.700  1.00  0.00     0.029 A 
ATOM     51  N   UNL A   1      42.658  29.708  30.614  1.00  0.00    -0.354 N 
ATOM     52  N   UNL A   1      42.402  33.258  33.688  1.00  0.00    -0.248 NA
ATOM     53  C   UNL A   1      41.393  31.774  35.213  1.00  0.00     0.031 C 
ATOM     54  C   UNL A   1      41.783  29.217  32.575  1.00  0.00     0.029 A 
ATOM     55  C   UNL A   1      42.525  30.188  31.894  1.00  0.00     0.049 A 
ATOM     56  H   UNL A   1      43.289  30.030  29.931  1.00  0.00     0.167 HD
ATOM     57  C   UNL A   1      42.810  31.970  33.446  1.00  0.00     0.074 A 
ATOM     58  C   UNL A   1      42.413  31.185  34.596  1.00  0.00     0.031 C 
ATOM     59  C   UNL A   1      42.950  31.539  32.167  1.00  0.00     0.037 A 
BRANCH  46  60
ATOM     60  C   UNL A   1      41.743  27.840  28.134  1.00  0.00     0.057 A 
ATOM     61  C   UNL A   1      41.489  26.495  27.858  1.00  0.00     0.134 A 
ATOM     62  C   UNL A   1      42.405  28.562  27.109  1.00  0.00     0.134 A 
ATOM     63  F   UNL A   1      40.867  25.709  28.748  1.00  0.00    -0.206 F 
ATOM     64  C   UNL A   1      41.789  25.927  26.608  1.00  0.00     0.040 A 
ATOM     65  C   UNL A   1      42.667  28.021  25.848  1.00  0.00     0.040 A 
ATOM     66  F   UNL A   1      42.756  29.847  27.282  1.00  0.00    -0.206 F 
ATOM     67  C   UNL A   1      42.336  26.701  25.586  1.00  0.00     0.006 A 
ENDBRANCH  46  60
BRANCH  47  68
ATOM     68  C   UNL A   1      40.396  34.703  36.191  1.00  0.00     0.057 A 
ATOM     69  C   UNL A   1      39.483  34.258  37.191  1.00  0.00     0.134 A 
ATOM     70  C   UNL A   1      41.145  35.816  36.577  1.00  0.00     0.134 A 
ATOM     71  F   UNL A   1      38.808  33.106  37.074  1.00  0.00    -0.206 F 
ATOM     72  C   UNL A   1      39.191  34.967  38.361  1.00  0.00     0.040 A 
ATOM     73  C   UNL A   1      40.900  36.513  37.780  1.00  0.00     0.040 A 
ATOM     74  F   UNL A   1      42.149  36.277  35.824  1.00  0.00    -0.206 F 
ATOM     75  C   UNL A   1      39.885  36.122  38.649  1.00  0.00     0.006 A 
ENDBRANCH  47  68
BRANCH  59  76
ATOM     76  C   UNL A   1      43.179  32.646  31.151  1.00  0.00     0.057 A 
ATOM     77  C   UNL A   1      42.244  33.060  30.190  1.00  0.00     0.134 A 
ATOM     78  C   UNL A   1      44.350  33.415  31.216  1.00  0.00     0.134 A 
ATOM     79  F   UNL A   1      41.095  32.407  30.021  1.00  0.00    -0.206 F 
ATOM     80  C   UNL A   1      42.441  34.172  29.358  1.00  0.00     0.040 A 
ATOM     81  C   UNL A   1      44.561  34.535  30.400  1.00  0.00     0.040 A 
ATOM     82  F   UNL A   1      45.317  33.093  32.088  1.00  0.00    -0.206 F 
ATOM     83  C   UNL A   1      43.604  34.921  29.467  1.00  0.00     0.006 A 
ENDBRANCH  59  76
ENDBRANCH  33  34
ENDBRANCH  25  28
ENDBRANCH  23  24
ENDBRANCH  22  23
ENDBRANCH  21  22
ENDBRANCH   1  21
TORSDOF 15
ENDMDL
