MODEL 1
REMARK VINA RESULT:     -12.1      0.000      0.000
REMARK SMILES O=C(NCCCCCCNC(=O)c1ccc(F)cc1NC(=O)[C@H]1CCS(=O)(=O)C1)c1ccc(-c2c3nc(c(-c4c(F)cccc4F)c4ccc([nH]4)c(-c4c(F)cccc4F)c4nc(c(-c5c(F)cccc5F)c5ccc2[nH]5)C=C4)C=C3)cc1
REMARK SMILES IDX 6 1 5 2 4 3 3 4 1 5 2 6 30 8 31 9 83 10 32 11 82 12 33 13
REMARK SMILES IDX 34 14 35 15 76 16 36 17 81 18 75 19 77 20 37 21 80 22 74 23
REMARK SMILES IDX 73 24 38 26 64 27 47 28 63 29 48 30 51 31 62 32 78 33 49 34
REMARK SMILES IDX 50 35 61 37 79 38 52 39 39 40 40 41 45 42 41 43 42 44 44 45
REMARK SMILES IDX 46 46 43 47 65 48 66 49 71 50 67 51 68 52 70 53 72 54 69 55
REMARK SMILES IDX 53 56 54 57 59 58 55 59 56 60 58 61 60 62 57 63 7 64 8 65
REMARK SMILES IDX 9 66 10 67 11 68 12 70 13 71 14 72 19 73 15 74 18 75 16 76
REMARK SMILES IDX 17 77 20 78 21 79 22 81 23 82 24 83 29 84 25 85 26 86 27 87
REMARK SMILES IDX 28 88
REMARK H PARENT 3 7 77 25 51 36 10 69 20 80
REMARK Flexibility Score: inf
ROOT
ATOM      1  C   UNL A   1      31.544  30.811  26.174  1.00  0.00     0.002 C 
ENDROOT
BRANCH   1   2
ATOM      2  C   UNL A   1      31.397  32.277  26.583  1.00  0.00     0.021 C 
BRANCH   2   3
ATOM      3  C   UNL A   1      32.653  32.896  27.183  1.00  0.00     0.116 C 
BRANCH   3   4
ATOM      4  N   UNL A   1      32.410  34.232  27.699  1.00  0.00    -0.352 N 
ATOM      5  O   UNL A   1      32.576  35.938  29.163  1.00  0.00    -0.269 OA
ATOM      6  C   UNL A   1      33.039  34.892  28.722  1.00  0.00     0.251 C 
ATOM      7  H   UNL A   1      31.693  34.733  27.250  1.00  0.00     0.163 HD
BRANCH   6   8
ATOM      8  C   UNL A   1      34.272  34.325  29.304  1.00  0.00     0.039 A 
ATOM      9  C   UNL A   1      35.520  34.593  28.733  1.00  0.00     0.014 A 
ATOM     10  C   UNL A   1      34.171  33.525  30.444  1.00  0.00     0.014 A 
ATOM     11  C   UNL A   1      36.657  33.968  29.232  1.00  0.00     0.010 A 
ATOM     12  C   UNL A   1      35.323  32.961  30.990  1.00  0.00     0.010 A 
ATOM     13  C   UNL A   1      36.570  33.160  30.376  1.00  0.00    -0.014 A 
BRANCH  13  14
ATOM     14  C   UNL A   1      37.792  32.570  30.971  1.00  0.00     0.031 A 
ATOM     15  C   UNL A   1      38.462  31.390  30.334  1.00  0.00     0.074 A 
ATOM     16  C   UNL A   1      38.269  33.082  32.121  1.00  0.00     0.049 A 
ATOM     17  N   UNL A   1      39.467  30.675  30.772  1.00  0.00    -0.248 NA
ATOM     18  C   UNL A   1      37.927  30.944  29.038  1.00  0.00     0.031 C 
ATOM     19  C   UNL A   1      37.705  34.236  32.825  1.00  0.00     0.029 A 
ATOM     20  N   UNL A   1      39.323  32.693  32.907  1.00  0.00    -0.354 N 
ATOM     21  C   UNL A   1      39.669  29.684  29.823  1.00  0.00     0.074 A 
ATOM     22  C   UNL A   1      38.667  29.872  28.795  1.00  0.00     0.031 C 
ATOM     23  C   UNL A   1      38.427  34.470  33.929  1.00  0.00     0.029 A 
ATOM     24  C   UNL A   1      39.456  33.444  34.050  1.00  0.00     0.049 A 
ATOM     25  H   UNL A   1      39.925  31.950  32.675  1.00  0.00     0.167 HD
ATOM     26  C   UNL A   1      40.608  28.708  29.815  1.00  0.00     0.037 A 
ATOM     27  C   UNL A   1      40.287  33.302  35.099  1.00  0.00     0.037 A 
ATOM     28  C   UNL A   1      41.601  28.540  30.845  1.00  0.00     0.049 A 
ATOM     29  C   UNL A   1      41.281  32.179  35.101  1.00  0.00     0.074 A 
ATOM     30  C   UNL A   1      42.624  27.609  30.907  1.00  0.00     0.029 A 
ATOM     31  N   UNL A   1      41.688  29.307  31.998  1.00  0.00    -0.354 N 
ATOM     32  N   UNL A   1      41.483  31.261  34.186  1.00  0.00    -0.248 NA
ATOM     33  C   UNL A   1      42.157  32.062  36.273  1.00  0.00     0.031 C 
ATOM     34  C   UNL A   1      43.284  27.768  32.126  1.00  0.00     0.029 A 
ATOM     35  C   UNL A   1      42.723  28.847  32.794  1.00  0.00     0.049 A 
ATOM     36  H   UNL A   1      41.101  30.066  32.217  1.00  0.00     0.167 HD
ATOM     37  C   UNL A   1      42.525  30.476  34.657  1.00  0.00     0.074 A 
ATOM     38  C   UNL A   1      42.912  31.022  35.942  1.00  0.00     0.031 C 
ATOM     39  C   UNL A   1      43.109  29.404  34.068  1.00  0.00     0.037 A 
BRANCH  26  40
ATOM     40  C   UNL A   1      40.594  27.729  28.676  1.00  0.00     0.057 A 
ATOM     41  C   UNL A   1      41.342  27.977  27.516  1.00  0.00     0.134 A 
ATOM     42  C   UNL A   1      39.805  26.572  28.696  1.00  0.00     0.134 A 
ATOM     43  F   UNL A   1      42.113  29.072  27.424  1.00  0.00    -0.206 F 
ATOM     44  C   UNL A   1      41.301  27.116  26.420  1.00  0.00     0.040 A 
ATOM     45  C   UNL A   1      39.779  25.686  27.616  1.00  0.00     0.040 A 
ATOM     46  F   UNL A   1      39.070  26.267  29.776  1.00  0.00    -0.206 F 
ATOM     47  C   UNL A   1      40.523  25.962  26.470  1.00  0.00     0.006 A 
ENDBRANCH  26  40
BRANCH  27  48
ATOM     48  C   UNL A   1      40.194  34.270  36.219  1.00  0.00     0.057 A 
ATOM     49  C   UNL A   1      39.344  34.045  37.310  1.00  0.00     0.134 A 
ATOM     50  C   UNL A   1      40.878  35.489  36.172  1.00  0.00     0.134 A 
ATOM     51  F   UNL A   1      38.650  32.901  37.403  1.00  0.00    -0.206 F 
ATOM     52  C   UNL A   1      39.150  35.013  38.296  1.00  0.00     0.040 A 
ATOM     53  C   UNL A   1      40.712  36.456  37.165  1.00  0.00     0.040 A 
ATOM     54  F   UNL A   1      41.713  35.757  35.158  1.00  0.00    -0.206 F 
ATOM     55  C   UNL A   1      39.834  36.224  38.224  1.00  0.00     0.006 A 
ENDBRANCH  27  48
BRANCH  39  56
ATOM     56  C   UNL A   1      44.262  28.752  34.772  1.00  0.00     0.057 A 
ATOM     57  C   UNL A   1      45.577  29.143  34.482  1.00  0.00     0.134 A 
ATOM     58  C   UNL A   1      44.084  27.653  35.620  1.00  0.00     0.134 A 
ATOM     59  F   UNL A   1      45.815  30.182  33.668  1.00  0.00    -0.206 F 
ATOM     60  C   UNL A   1      46.674  28.441  34.983  1.00  0.00     0.040 A 
ATOM     61  C   UNL A   1      45.174  26.959  36.149  1.00  0.00     0.040 A 
ATOM     62  F   UNL A   1      42.851  27.237  35.945  1.00  0.00    -0.206 F 
ATOM     63  C   UNL A   1      46.474  27.342  35.816  1.00  0.00     0.006 A 
ENDBRANCH  39  56
ENDBRANCH  13  14
ENDBRANCH   6   8
ENDBRANCH   3   4
ENDBRANCH   2   3
ENDBRANCH   1   2
BRANCH   1  64
ATOM     64  C   UNL A   1      32.896  30.178  26.514  1.00  0.00     0.002 C 
BRANCH  64  65
ATOM     65  C   UNL A   1      32.860  28.670  26.788  1.00  0.00     0.021 C 
BRANCH  65  66
ATOM     66  C   UNL A   1      31.467  28.050  26.755  1.00  0.00     0.116 C 
BRANCH  66  67
ATOM     67  N   UNL A   1      31.504  26.650  27.133  1.00  0.00    -0.352 N 
ATOM     68  C   UNL A   1      31.514  25.542  26.330  1.00  0.00     0.253 C 
ATOM     69  H   UNL A   1      31.522  26.473  28.101  1.00  0.00     0.163 HD
ATOM     70  O   UNL A   1      31.206  24.450  26.802  1.00  0.00    -0.269 OA
BRANCH  68  71
ATOM     71  C   UNL A   1      31.911  25.626  24.902  1.00  0.00     0.063 A 
ATOM     72  C   UNL A   1      33.275  25.754  24.581  1.00  0.00     0.019 A 
ATOM     73  C   UNL A   1      30.946  25.494  23.873  1.00  0.00     0.056 A 
ATOM     74  C   UNL A   1      33.678  25.791  23.251  1.00  0.00     0.040 A 
ATOM     75  C   UNL A   1      31.404  25.306  22.576  1.00  0.00     0.066 A 
ATOM     76  C   UNL A   1      32.743  25.529  22.265  1.00  0.00     0.125 A 
ATOM     77  F   UNL A   1      33.126  25.508  20.984  1.00  0.00    -0.207 F 
BRANCH  73  78
ATOM     78  N   UNL A   1      29.578  25.603  24.185  1.00  0.00    -0.325 N 
ATOM     79  C   UNL A   1      28.601  26.524  23.961  1.00  0.00     0.228 C 
ATOM     80  H   UNL A   1      29.246  24.824  24.687  1.00  0.00     0.169 HD
ATOM     81  O   UNL A   1      27.506  26.258  24.478  1.00  0.00    -0.274 OA
BRANCH  79  82
ATOM     82  C   UNL A   1      28.724  27.800  23.118  1.00  0.00     0.095 C 
ATOM     83  C   UNL A   1      27.366  28.564  23.177  1.00  0.00     0.030 C 
ATOM     84  C   UNL A   1      29.715  28.884  23.528  1.00  0.00     0.150 C 
ATOM     85  C   UNL A   1      27.515  29.890  22.444  1.00  0.00     0.138 C 
ATOM     86  S   UNL A   1      29.229  30.324  22.597  1.00  0.00     0.151 S 
ATOM     87  O   UNL A   1      29.837  30.230  21.282  1.00  0.00    -0.229 OA
ATOM     88  O   UNL A   1      29.375  31.490  23.435  1.00  0.00    -0.229 OA
ENDBRANCH  79  82
ENDBRANCH  73  78
ENDBRANCH  68  71
ENDBRANCH  66  67
ENDBRANCH  65  66
ENDBRANCH  64  65
ENDBRANCH   1  64
TORSDOF 15
ENDMDL
MODEL 2
REMARK VINA RESULT:     -12.0      5.324      9.951
REMARK SMILES O=C(NCCCCCCNC(=O)c1ccc(F)cc1NC(=O)[C@H]1CCS(=O)(=O)C1)c1ccc(-c2c3nc(c(-c4c(F)cccc4F)c4ccc([nH]4)c(-c4c(F)cccc4F)c4nc(c(-c5c(F)cccc5F)c5ccc2[nH]5)C=C4)C=C3)cc1
REMARK SMILES IDX 6 1 5 2 4 3 3 4 1 5 2 6 30 8 31 9 83 10 32 11 82 12 33 13
REMARK SMILES IDX 34 14 35 15 76 16 36 17 81 18 75 19 77 20 37 21 80 22 74 23
REMARK SMILES IDX 73 24 38 26 64 27 47 28 63 29 48 30 51 31 62 32 78 33 49 34
REMARK SMILES IDX 50 35 61 37 79 38 52 39 39 40 40 41 45 42 41 43 42 44 44 45
REMARK SMILES IDX 46 46 43 47 65 48 66 49 71 50 67 51 68 52 70 53 72 54 69 55
REMARK SMILES IDX 53 56 54 57 59 58 55 59 56 60 58 61 60 62 57 63 7 64 8 65
REMARK SMILES IDX 9 66 10 67 11 68 12 70 13 71 14 72 19 73 15 74 18 75 16 76
REMARK SMILES IDX 17 77 20 78 21 79 22 81 23 82 24 83 29 84 25 85 26 86 27 87
REMARK SMILES IDX 28 88
REMARK H PARENT 3 7 77 25 51 36 10 69 20 80
REMARK Flexibility Score: inf
ROOT
ATOM      1  C   UNL A   1      37.709  21.369  24.740  1.00  0.00     0.002 C 
ENDROOT
BRANCH   1   2
ATOM      2  C   UNL A   1      38.352  19.985  24.840  1.00  0.00     0.021 C 
BRANCH   2   3
ATOM      3  C   UNL A   1      39.132  19.741  26.126  1.00  0.00     0.116 C 
BRANCH   3   4
ATOM      4  N   UNL A   1      40.272  18.867  25.914  1.00  0.00    -0.352 N 
ATOM      5  O   UNL A   1      42.429  18.357  25.500  1.00  0.00    -0.269 OA
ATOM      6  C   UNL A   1      41.607  19.176  25.894  1.00  0.00     0.251 C 
ATOM      7  H   UNL A   1      40.056  17.920  25.762  1.00  0.00     0.163 HD
BRANCH   6   8
ATOM      8  C   UNL A   1      42.050  20.514  26.335  1.00  0.00     0.039 A 
ATOM      9  C   UNL A   1      42.287  20.778  27.688  1.00  0.00     0.014 A 
ATOM     10  C   UNL A   1      42.242  21.510  25.376  1.00  0.00     0.014 A 
ATOM     11  C   UNL A   1      42.602  22.069  28.096  1.00  0.00     0.010 A 
ATOM     12  C   UNL A   1      42.635  22.785  25.779  1.00  0.00     0.010 A 
ATOM     13  C   UNL A   1      42.796  23.080  27.143  1.00  0.00    -0.014 A 
BRANCH  13  14
ATOM     14  C   UNL A   1      43.229  24.433  27.562  1.00  0.00     0.031 A 
ATOM     15  C   UNL A   1      42.223  25.463  27.983  1.00  0.00     0.074 A 
ATOM     16  C   UNL A   1      44.538  24.741  27.518  1.00  0.00     0.049 A 
ATOM     17  N   UNL A   1      42.407  26.726  28.272  1.00  0.00    -0.248 NA
ATOM     18  C   UNL A   1      40.824  25.021  28.082  1.00  0.00     0.031 C 
ATOM     19  C   UNL A   1      45.607  23.816  27.136  1.00  0.00     0.029 A 
ATOM     20  N   UNL A   1      45.193  25.917  27.782  1.00  0.00    -0.354 N 
ATOM     21  C   UNL A   1      41.149  27.235  28.562  1.00  0.00     0.074 A 
ATOM     22  C   UNL A   1      40.205  26.151  28.392  1.00  0.00     0.031 C 
ATOM     23  C   UNL A   1      46.783  24.454  27.203  1.00  0.00     0.029 A 
ATOM     24  C   UNL A   1      46.547  25.847  27.563  1.00  0.00     0.049 A 
ATOM     25  H   UNL A   1      44.737  26.730  28.098  1.00  0.00     0.167 HD
ATOM     26  C   UNL A   1      40.820  28.494  28.937  1.00  0.00     0.037 A 
ATOM     27  C   UNL A   1      47.491  26.805  27.607  1.00  0.00     0.037 A 
ATOM     28  C   UNL A   1      41.775  29.558  29.107  1.00  0.00     0.049 A 
ATOM     29  C   UNL A   1      47.098  28.207  27.966  1.00  0.00     0.074 A 
ATOM     30  C   UNL A   1      41.546  30.857  29.526  1.00  0.00     0.029 A 
ATOM     31  N   UNL A   1      43.135  29.454  28.852  1.00  0.00    -0.354 N 
ATOM     32  N   UNL A   1      45.909  28.675  28.264  1.00  0.00    -0.248 NA
ATOM     33  C   UNL A   1      48.164  29.217  27.989  1.00  0.00     0.031 C 
ATOM     34  C   UNL A   1      42.753  31.555  29.459  1.00  0.00     0.029 A 
ATOM     35  C   UNL A   1      43.751  30.674  29.071  1.00  0.00     0.049 A 
ATOM     36  H   UNL A   1      43.594  28.633  28.560  1.00  0.00     0.167 HD
ATOM     37  C   UNL A   1      46.087  30.023  28.539  1.00  0.00     0.074 A 
ATOM     38  C   UNL A   1      47.499  30.301  28.368  1.00  0.00     0.031 C 
ATOM     39  C   UNL A   1      45.160  30.940  28.908  1.00  0.00     0.037 A 
BRANCH  26  40
ATOM     40  C   UNL A   1      39.367  28.801  29.163  1.00  0.00     0.057 A 
ATOM     41  C   UNL A   1      38.581  29.321  28.125  1.00  0.00     0.134 A 
ATOM     42  C   UNL A   1      38.755  28.639  30.412  1.00  0.00     0.134 A 
ATOM     43  F   UNL A   1      39.104  29.512  26.904  1.00  0.00    -0.206 F 
ATOM     44  C   UNL A   1      37.245  29.672  28.323  1.00  0.00     0.040 A 
ATOM     45  C   UNL A   1      37.410  28.957  30.615  1.00  0.00     0.040 A 
ATOM     46  F   UNL A   1      39.445  28.139  31.449  1.00  0.00    -0.206 F 
ATOM     47  C   UNL A   1      36.654  29.483  29.569  1.00  0.00     0.006 A 
ENDBRANCH  26  40
BRANCH  27  48
ATOM     48  C   UNL A   1      48.896  26.438  27.303  1.00  0.00     0.057 A 
ATOM     49  C   UNL A   1      49.436  26.615  26.023  1.00  0.00     0.134 A 
ATOM     50  C   UNL A   1      49.695  25.807  28.262  1.00  0.00     0.134 A 
ATOM     51  F   UNL A   1      48.713  27.199  25.057  1.00  0.00    -0.206 F 
ATOM     52  C   UNL A   1      50.709  26.145  25.697  1.00  0.00     0.040 A 
ATOM     53  C   UNL A   1      50.979  25.354  27.956  1.00  0.00     0.040 A 
ATOM     54  F   UNL A   1      49.235  25.619  29.507  1.00  0.00    -0.206 F 
ATOM     55  C   UNL A   1      51.484  25.510  26.665  1.00  0.00     0.006 A 
ENDBRANCH  27  48
BRANCH  39  56
ATOM     56  C   UNL A   1      45.624  32.338  29.195  1.00  0.00     0.057 A 
ATOM     57  C   UNL A   1      45.983  32.707  30.499  1.00  0.00     0.134 A 
ATOM     58  C   UNL A   1      45.581  33.345  28.224  1.00  0.00     0.134 A 
ATOM     59  F   UNL A   1      46.034  31.790  31.477  1.00  0.00    -0.206 F 
ATOM     60  C   UNL A   1      46.247  34.035  30.835  1.00  0.00     0.040 A 
ATOM     61  C   UNL A   1      45.869  34.674  28.542  1.00  0.00     0.040 A 
ATOM     62  F   UNL A   1      45.256  33.054  26.956  1.00  0.00    -0.206 F 
ATOM     63  C   UNL A   1      46.186  35.024  29.855  1.00  0.00     0.006 A 
ENDBRANCH  39  56
ENDBRANCH  13  14
ENDBRANCH   6   8
ENDBRANCH   3   4
ENDBRANCH   2   3
ENDBRANCH   1   2
BRANCH   1  64
ATOM     64  C   UNL A   1      38.205  22.388  25.770  1.00  0.00     0.002 C 
BRANCH  64  65
ATOM     65  C   UNL A   1      37.515  23.755  25.720  1.00  0.00     0.021 C 
BRANCH  65  66
ATOM     66  C   UNL A   1      35.992  23.699  25.672  1.00  0.00     0.116 C 
BRANCH  66  67
ATOM     67  N   UNL A   1      35.447  23.109  26.880  1.00  0.00    -0.352 N 
ATOM     68  C   UNL A   1      34.330  22.334  27.030  1.00  0.00     0.253 C 
ATOM     69  H   UNL A   1      35.951  23.293  27.706  1.00  0.00     0.163 HD
ATOM     70  O   UNL A   1      33.829  22.203  28.145  1.00  0.00    -0.269 OA
BRANCH  68  71
ATOM     71  C   UNL A   1      33.719  21.626  25.876  1.00  0.00     0.063 A 
ATOM     72  C   UNL A   1      34.404  20.538  25.304  1.00  0.00     0.019 A 
ATOM     73  C   UNL A   1      32.429  21.981  25.409  1.00  0.00     0.056 A 
ATOM     74  C   UNL A   1      33.835  19.831  24.252  1.00  0.00     0.040 A 
ATOM     75  C   UNL A   1      31.802  21.118  24.521  1.00  0.00     0.066 A 
ATOM     76  C   UNL A   1      32.526  20.105  23.897  1.00  0.00     0.125 A 
ATOM     77  F   UNL A   1      31.946  19.397  22.922  1.00  0.00    -0.207 F 
BRANCH  73  78
ATOM     78  N   UNL A   1      31.854  23.200  25.815  1.00  0.00    -0.325 N 
ATOM     79  C   UNL A   1      31.662  24.420  25.246  1.00  0.00     0.228 C 
ATOM     80  H   UNL A   1      31.505  23.159  26.735  1.00  0.00     0.169 HD
ATOM     81  O   UNL A   1      31.156  25.270  25.994  1.00  0.00    -0.274 OA
BRANCH  79  82
ATOM     82  C   UNL A   1      31.971  24.812  23.795  1.00  0.00     0.095 C 
ATOM     83  C   UNL A   1      31.045  26.000  23.395  1.00  0.00     0.030 C 
ATOM     84  C   UNL A   1      33.352  25.352  23.436  1.00  0.00     0.150 C 
ATOM     85  C   UNL A   1      31.428  26.475  22.000  1.00  0.00     0.138 C 
ATOM     86  S   UNL A   1      33.151  26.087  21.825  1.00  0.00     0.151 S 
ATOM     87  O   UNL A   1      33.277  25.033  20.835  1.00  0.00    -0.229 OA
ATOM     88  O   UNL A   1      33.931  27.300  21.768  1.00  0.00    -0.229 OA
ENDBRANCH  79  82
ENDBRANCH  73  78
ENDBRANCH  68  71
ENDBRANCH  66  67
ENDBRANCH  65  66
ENDBRANCH  64  65
ENDBRANCH   1  64
TORSDOF 15
ENDMDL
MODEL 3
REMARK VINA RESULT:     -11.8      4.762      9.401
REMARK SMILES O=C(NCCCCCCNC(=O)c1ccc(F)cc1NC(=O)[C@H]1CCS(=O)(=O)C1)c1ccc(-c2c3nc(c(-c4c(F)cccc4F)c4ccc([nH]4)c(-c4c(F)cccc4F)c4nc(c(-c5c(F)cccc5F)c5ccc2[nH]5)C=C4)C=C3)cc1
REMARK SMILES IDX 6 1 5 2 4 3 3 4 1 5 2 6 30 8 31 9 83 10 32 11 82 12 33 13
REMARK SMILES IDX 34 14 35 15 76 16 36 17 81 18 75 19 77 20 37 21 80 22 74 23
REMARK SMILES IDX 73 24 38 26 64 27 47 28 63 29 48 30 51 31 62 32 78 33 49 34
REMARK SMILES IDX 50 35 61 37 79 38 52 39 39 40 40 41 45 42 41 43 42 44 44 45
REMARK SMILES IDX 46 46 43 47 65 48 66 49 71 50 67 51 68 52 70 53 72 54 69 55
REMARK SMILES IDX 53 56 54 57 59 58 55 59 56 60 58 61 60 62 57 63 7 64 8 65
REMARK SMILES IDX 9 66 10 67 11 68 12 70 13 71 14 72 19 73 15 74 18 75 16 76
REMARK SMILES IDX 17 77 20 78 21 79 22 81 23 82 24 83 29 84 25 85 26 86 27 87
REMARK SMILES IDX 28 88
REMARK H PARENT 3 7 77 25 51 36 10 69 20 80
REMARK Flexibility Score: inf
ROOT
ATOM      1  C   UNL A   1      36.077  19.724  25.030  1.00  0.00     0.002 C 
ENDROOT
BRANCH   1   2
ATOM      2  C   UNL A   1      37.509  19.848  24.508  1.00  0.00     0.021 C 
BRANCH   2   3
ATOM      3  C   UNL A   1      38.526  20.291  25.552  1.00  0.00     0.116 C 
BRANCH   3   4
ATOM      4  N   UNL A   1      39.624  19.348  25.676  1.00  0.00    -0.352 N 
ATOM      5  O   UNL A   1      41.776  18.705  25.884  1.00  0.00    -0.269 OA
ATOM      6  C   UNL A   1      40.929  19.581  26.025  1.00  0.00     0.251 C 
ATOM      7  H   UNL A   1      39.400  18.410  25.482  1.00  0.00     0.163 HD
BRANCH   6   8
ATOM      8  C   UNL A   1      41.315  20.904  26.555  1.00  0.00     0.039 A 
ATOM      9  C   UNL A   1      41.746  21.919  25.696  1.00  0.00     0.014 A 
ATOM     10  C   UNL A   1      41.230  21.128  27.930  1.00  0.00     0.014 A 
ATOM     11  C   UNL A   1      42.203  23.123  26.222  1.00  0.00     0.010 A 
ATOM     12  C   UNL A   1      41.615  22.363  28.449  1.00  0.00     0.010 A 
ATOM     13  C   UNL A   1      42.125  23.361  27.602  1.00  0.00    -0.014 A 
BRANCH  13  14
ATOM     14  C   UNL A   1      42.517  24.677  28.159  1.00  0.00     0.031 A 
ATOM     15  C   UNL A   1      41.490  25.741  28.405  1.00  0.00     0.074 A 
ATOM     16  C   UNL A   1      43.819  24.920  28.401  1.00  0.00     0.049 A 
ATOM     17  N   UNL A   1      41.663  26.983  28.779  1.00  0.00    -0.248 NA
ATOM     18  C   UNL A   1      40.083  25.366  28.194  1.00  0.00     0.031 C 
ATOM     19  C   UNL A   1      44.904  23.956  28.209  1.00  0.00     0.029 A 
ATOM     20  N   UNL A   1      44.453  26.053  28.844  1.00  0.00    -0.354 N 
ATOM     21  C   UNL A   1      40.394  27.545  28.824  1.00  0.00     0.074 A 
ATOM     22  C   UNL A   1      39.462  26.515  28.416  1.00  0.00     0.031 C 
ATOM     23  C   UNL A   1      46.066  24.532  28.546  1.00  0.00     0.029 A 
ATOM     24  C   UNL A   1      45.818  25.923  28.907  1.00  0.00     0.049 A 
ATOM     25  H   UNL A   1      43.975  26.877  29.093  1.00  0.00     0.167 HD
ATOM     26  C   UNL A   1      40.047  28.805  29.176  1.00  0.00     0.037 A 
ATOM     27  C   UNL A   1      46.772  26.831  29.187  1.00  0.00     0.037 A 
ATOM     28  C   UNL A   1      40.989  29.815  29.585  1.00  0.00     0.049 A 
ATOM     29  C   UNL A   1      46.371  28.238  29.515  1.00  0.00     0.074 A 
ATOM     30  C   UNL A   1      40.732  31.109  30.002  1.00  0.00     0.029 A 
ATOM     31  N   UNL A   1      42.367  29.651  29.613  1.00  0.00    -0.354 N 
ATOM     32  N   UNL A   1      45.167  28.754  29.581  1.00  0.00    -0.248 NA
ATOM     33  C   UNL A   1      47.451  29.192  29.802  1.00  0.00     0.031 C 
ATOM     34  C   UNL A   1      41.955  31.748  30.216  1.00  0.00     0.029 A 
ATOM     35  C   UNL A   1      42.974  30.831  30.006  1.00  0.00     0.049 A 
ATOM     36  H   UNL A   1      42.841  28.818  29.388  1.00  0.00     0.167 HD
ATOM     37  C   UNL A   1      45.341  30.082  29.943  1.00  0.00     0.074 A 
ATOM     38  C   UNL A   1      46.767  30.295  30.080  1.00  0.00     0.031 C 
ATOM     39  C   UNL A   1      44.396  31.032  30.150  1.00  0.00     0.037 A 
BRANCH  26  40
ATOM     40  C   UNL A   1      38.593  29.177  29.109  1.00  0.00     0.057 A 
ATOM     41  C   UNL A   1      38.036  29.655  27.914  1.00  0.00     0.134 A 
ATOM     42  C   UNL A   1      37.755  29.118  30.229  1.00  0.00     0.134 A 
ATOM     43  F   UNL A   1      38.783  29.747  26.803  1.00  0.00    -0.206 F 
ATOM     44  C   UNL A   1      36.704  30.064  27.838  1.00  0.00     0.040 A 
ATOM     45  C   UNL A   1      36.411  29.495  30.158  1.00  0.00     0.040 A 
ATOM     46  F   UNL A   1      38.218  28.664  31.403  1.00  0.00    -0.206 F 
ATOM     47  C   UNL A   1      35.886  29.978  28.961  1.00  0.00     0.006 A 
ENDBRANCH  26  40
BRANCH  27  48
ATOM     48  C   UNL A   1      48.192  26.403  29.165  1.00  0.00     0.057 A 
ATOM     49  C   UNL A   1      48.966  26.499  28.001  1.00  0.00     0.134 A 
ATOM     50  C   UNL A   1      48.775  25.796  30.282  1.00  0.00     0.134 A 
ATOM     51  F   UNL A   1      48.457  27.057  26.894  1.00  0.00    -0.206 F 
ATOM     52  C   UNL A   1      50.257  25.973  27.938  1.00  0.00     0.040 A 
ATOM     53  C   UNL A   1      50.074  25.288  30.240  1.00  0.00     0.040 A 
ATOM     54  F   UNL A   1      48.086  25.685  31.427  1.00  0.00    -0.206 F 
ATOM     55  C   UNL A   1      50.814  25.363  29.060  1.00  0.00     0.006 A 
ENDBRANCH  27  48
BRANCH  39  56
ATOM     56  C   UNL A   1      44.848  32.394  30.586  1.00  0.00     0.057 A 
ATOM     57  C   UNL A   1      44.957  32.698  31.951  1.00  0.00     0.134 A 
ATOM     58  C   UNL A   1      45.036  33.438  29.673  1.00  0.00     0.134 A 
ATOM     59  F   UNL A   1      44.778  31.743  32.877  1.00  0.00    -0.206 F 
ATOM     60  C   UNL A   1      45.201  33.998  32.392  1.00  0.00     0.040 A 
ATOM     61  C   UNL A   1      45.307  34.739  30.102  1.00  0.00     0.040 A 
ATOM     62  F   UNL A   1      44.956  33.210  28.354  1.00  0.00    -0.206 F 
ATOM     63  C   UNL A   1      45.373  35.024  31.466  1.00  0.00     0.006 A 
ENDBRANCH  39  56
ENDBRANCH  13  14
ENDBRANCH   6   8
ENDBRANCH   3   4
ENDBRANCH   2   3
ENDBRANCH   1   2
BRANCH   1  64
ATOM     64  C   UNL A   1      35.349  18.440  24.624  1.00  0.00     0.002 C 
BRANCH  64  65
ATOM     65  C   UNL A   1      33.876  18.617  24.240  1.00  0.00     0.021 C 
BRANCH  65  66
ATOM     66  C   UNL A   1      33.046  19.408  25.247  1.00  0.00     0.116 C 
BRANCH  66  67
ATOM     67  N   UNL A   1      32.241  20.418  24.588  1.00  0.00    -0.352 N 
ATOM     68  C   UNL A   1      32.347  21.781  24.654  1.00  0.00     0.253 C 
ATOM     69  H   UNL A   1      31.517  20.076  24.015  1.00  0.00     0.163 HD
ATOM     70  O   UNL A   1      31.394  22.479  24.316  1.00  0.00    -0.269 OA
BRANCH  68  71
ATOM     71  C   UNL A   1      33.600  22.438  25.106  1.00  0.00     0.063 A 
ATOM     72  C   UNL A   1      33.905  22.449  26.480  1.00  0.00     0.019 A 
ATOM     73  C   UNL A   1      34.518  22.971  24.168  1.00  0.00     0.056 A 
ATOM     74  C   UNL A   1      35.092  23.018  26.926  1.00  0.00     0.040 A 
ATOM     75  C   UNL A   1      35.781  23.319  24.624  1.00  0.00     0.066 A 
ATOM     76  C   UNL A   1      36.033  23.413  25.991  1.00  0.00     0.125 A 
ATOM     77  F   UNL A   1      37.202  23.913  26.404  1.00  0.00    -0.207 F 
BRANCH  73  78
ATOM     78  N   UNL A   1      34.111  23.172  22.835  1.00  0.00    -0.325 N 
ATOM     79  C   UNL A   1      33.369  24.102  22.176  1.00  0.00     0.228 C 
ATOM     80  H   UNL A   1      34.445  22.468  22.233  1.00  0.00     0.169 HD
ATOM     81  O   UNL A   1      33.190  23.868  20.972  1.00  0.00    -0.274 OA
BRANCH  79  82
ATOM     82  C   UNL A   1      32.788  25.394  22.767  1.00  0.00     0.095 C 
ATOM     83  C   UNL A   1      33.537  26.607  22.135  1.00  0.00     0.030 C 
ATOM     84  C   UNL A   1      31.328  25.753  22.507  1.00  0.00     0.150 C 
ATOM     85  C   UNL A   1      32.887  27.894  22.622  1.00  0.00     0.138 C 
ATOM     86  S   UNL A   1      31.195  27.474  22.954  1.00  0.00     0.151 S 
ATOM     87  O   UNL A   1      30.985  27.547  24.388  1.00  0.00    -0.229 OA
ATOM     88  O   UNL A   1      30.324  28.132  22.010  1.00  0.00    -0.229 OA
ENDBRANCH  79  82
ENDBRANCH  73  78
ENDBRANCH  68  71
ENDBRANCH  66  67
ENDBRANCH  65  66
ENDBRANCH  64  65
ENDBRANCH   1  64
TORSDOF 15
ENDMDL
