MODEL 1
REMARK VINA RESULT:     -12.5      0.000      0.000
REMARK SMILES O=C(NCCCCCCNC(=O)c1ccc(-c2c3nc(c(-c4c(F)cccc4F)c4ccc([nH]4)c(-c4c(F)cccc4F)c4nc(c(-c5c(F)cccc5F)c5ccc2[nH]5)C=C4)C=C3)cc1)C1=Cc2cc(S(F)(F)(F)(F)F)ccc2O[C@@H]1C(F)(F)F
REMARK SMILES IDX 7 1 6 2 5 3 4 4 3 5 1 6 2 7 67 9 68 10 82 11 69 12 81 13
REMARK SMILES IDX 70 14 80 15 71 16 79 17 78 18 83 19 84 20 85 21 86 22 72 23
REMARK SMILES IDX 73 24 74 25 75 26 76 27 77 28 8 29 9 30 10 31 11 32 12 34
REMARK SMILES IDX 13 35 14 36 66 37 15 38 65 39 16 40 17 41 18 42 59 43 19 44
REMARK SMILES IDX 64 45 58 46 60 47 20 48 63 49 57 50 56 51 21 53 47 54 30 55
REMARK SMILES IDX 46 56 31 57 34 58 45 59 61 60 32 61 33 62 44 64 62 65 35 66
REMARK SMILES IDX 22 67 23 68 28 69 24 70 25 71 27 72 29 73 26 74 48 75 49 76
REMARK SMILES IDX 54 77 50 78 51 79 53 80 55 81 52 82 36 83 37 84 42 85 38 86
REMARK SMILES IDX 39 87 41 88 43 89 40 90
REMARK H PARENT 3 8 10 33 60 52 34 63
REMARK Flexibility Score: inf
ROOT
ATOM      1  C   UNL A   1      31.788  30.765  26.148  1.00  0.00     0.002 C 
ENDROOT
BRANCH   1   2
ATOM      2  C   UNL A   1      32.552  30.092  27.277  1.00  0.00     0.002 C 
BRANCH   2   3
ATOM      3  C   UNL A   1      33.904  29.623  26.765  1.00  0.00     0.021 C 
BRANCH   3   4
ATOM      4  C   UNL A   1      33.873  28.119  26.557  1.00  0.00     0.116 C 
BRANCH   4   5
ATOM      5  N   UNL A   1      32.633  27.571  27.124  1.00  0.00    -0.352 N 
ATOM      6  O   UNL A   1      30.531  26.535  26.726  1.00  0.00    -0.270 OA
ATOM      7  C   UNL A   1      31.604  27.008  26.236  1.00  0.00     0.251 C 
ATOM      8  H   UNL A   1      32.489  27.582  28.098  1.00  0.00     0.163 HD
BRANCH   7   9
ATOM      9  C   UNL A   1      31.824  26.992  24.732  1.00  0.00     0.067 C 
ATOM     10  C   UNL A   1      32.627  26.048  24.172  1.00  0.00     0.025 C 
ATOM     11  C   UNL A   1      31.146  28.031  23.854  1.00  0.00     0.314 C 
ATOM     12  C   UNL A   1      33.305  25.009  25.050  1.00  0.00     0.019 A 
ATOM     13  O   UNL A   1      31.193  24.851  26.128  1.00  0.00    -0.475 OA
ATOM     14  C   UNL A   1      34.664  24.748  24.977  1.00  0.00     0.036 A 
ATOM     15  C   UNL A   1      32.544  24.441  25.979  1.00  0.00     0.128 A 
ATOM     16  C   UNL A   1      35.078  23.640  25.755  1.00  0.00     0.107 A 
ATOM     17  C   UNL A   1      33.052  23.460  26.796  1.00  0.00     0.048 A 
ATOM     18  C   UNL A   1      34.372  23.110  26.737  1.00  0.00     0.028 A 
BRANCH  11  19
ATOM     19  C   UNL A   1      30.246  27.334  22.847  1.00  0.00     0.429 C 
ATOM     20  F   UNL A   1      30.965  26.972  21.787  1.00  0.00    -0.167 F 
ATOM     21  F   UNL A   1      29.706  26.256  23.406  1.00  0.00    -0.167 F 
ATOM     22  F   UNL A   1      29.281  28.166  22.464  1.00  0.00    -0.167 F 
ENDBRANCH  11  19
BRANCH  16  23
ATOM     23  S   UNL A   1      36.685  22.901  25.377  1.00  0.00     0.310 S 
ATOM     24  F   UNL A   1      36.895  23.822  24.103  1.00  0.00    -0.094 F 
ATOM     25  F   UNL A   1      35.968  21.869  24.427  1.00  0.00    -0.094 F 
ATOM     26  F   UNL A   1      38.070  22.264  25.068  1.00  0.00    -0.094 F 
ATOM     27  F   UNL A   1      37.401  24.029  26.219  1.00  0.00    -0.094 F 
ATOM     28  F   UNL A   1      35.301  23.627  25.609  1.00  0.00    -0.094 F 
ENDBRANCH  16  23
ENDBRANCH   7   9
ENDBRANCH   4   5
ENDBRANCH   3   4
ENDBRANCH   2   3
ENDBRANCH   1   2
BRANCH   1  29
ATOM     29  C   UNL A   1      31.378  32.164  26.576  1.00  0.00     0.021 C 
BRANCH  29  30
ATOM     30  C   UNL A   1      32.586  32.895  27.141  1.00  0.00     0.116 C 
BRANCH  30  31
ATOM     31  N   UNL A   1      32.167  34.205  27.656  1.00  0.00    -0.352 N 
ATOM     32  C   UNL A   1      32.982  34.891  28.671  1.00  0.00     0.251 C 
ATOM     33  H   UNL A   1      31.342  34.626  27.323  1.00  0.00     0.163 HD
ATOM     34  O   UNL A   1      32.620  36.024  29.118  1.00  0.00    -0.269 OA
BRANCH  32  35
ATOM     35  C   UNL A   1      34.257  34.242  29.186  1.00  0.00     0.039 A 
ATOM     36  C   UNL A   1      35.465  34.542  28.578  1.00  0.00     0.014 A 
ATOM     37  C   UNL A   1      34.191  33.398  30.209  1.00  0.00     0.014 A 
ATOM     38  C   UNL A   1      36.521  33.674  28.941  1.00  0.00     0.010 A 
ATOM     39  C   UNL A   1      35.297  32.681  30.596  1.00  0.00     0.010 A 
ATOM     40  C   UNL A   1      36.511  32.884  30.000  1.00  0.00    -0.014 A 
BRANCH  40  41
ATOM     41  C   UNL A   1      37.781  32.237  30.527  1.00  0.00     0.031 A 
ATOM     42  C   UNL A   1      38.252  31.093  29.880  1.00  0.00     0.074 A 
ATOM     43  C   UNL A   1      38.400  32.817  31.620  1.00  0.00     0.049 A 
ATOM     44  N   UNL A   1      39.355  30.397  30.157  1.00  0.00    -0.248 NA
ATOM     45  C   UNL A   1      37.577  30.455  28.740  1.00  0.00     0.031 C 
ATOM     46  C   UNL A   1      37.936  33.975  32.275  1.00  0.00     0.029 A 
ATOM     47  N   UNL A   1      39.544  32.400  32.264  1.00  0.00    -0.354 N 
ATOM     48  C   UNL A   1      39.483  29.376  29.307  1.00  0.00     0.074 A 
ATOM     49  C   UNL A   1      38.338  29.395  28.387  1.00  0.00     0.031 C 
ATOM     50  C   UNL A   1      38.782  34.246  33.304  1.00  0.00     0.029 A 
ATOM     51  C   UNL A   1      39.788  33.262  33.311  1.00  0.00     0.049 A 
ATOM     52  H   UNL A   1      40.093  31.620  32.020  1.00  0.00     0.167 HD
ATOM     53  C   UNL A   1      40.510  28.432  29.262  1.00  0.00     0.037 A 
ATOM     54  C   UNL A   1      40.823  33.209  34.231  1.00  0.00     0.037 A 
ATOM     55  C   UNL A   1      41.569  28.404  30.155  1.00  0.00     0.049 A 
ATOM     56  C   UNL A   1      41.819  32.229  34.221  1.00  0.00     0.074 A 
ATOM     57  C   UNL A   1      42.616  27.465  30.118  1.00  0.00     0.029 A 
ATOM     58  N   UNL A   1      41.799  29.252  31.216  1.00  0.00    -0.354 N 
ATOM     59  N   UNL A   1      41.968  31.233  33.347  1.00  0.00    -0.248 NA
ATOM     60  C   UNL A   1      42.902  32.144  35.210  1.00  0.00     0.031 C 
ATOM     61  C   UNL A   1      43.462  27.736  31.148  1.00  0.00     0.029 A 
ATOM     62  C   UNL A   1      42.956  28.848  31.846  1.00  0.00     0.049 A 
ATOM     63  H   UNL A   1      41.234  30.014  31.479  1.00  0.00     0.167 HD
ATOM     64  C   UNL A   1      43.050  30.512  33.650  1.00  0.00     0.074 A 
ATOM     65  C   UNL A   1      43.661  31.084  34.858  1.00  0.00     0.031 C 
ATOM     66  C   UNL A   1      43.552  29.404  32.967  1.00  0.00     0.037 A 
BRANCH  53  67
ATOM     67  C   UNL A   1      40.465  27.375  28.170  1.00  0.00     0.057 A 
ATOM     68  C   UNL A   1      39.825  26.185  28.472  1.00  0.00     0.134 A 
ATOM     69  C   UNL A   1      40.983  27.593  26.967  1.00  0.00     0.134 A 
ATOM     70  F   UNL A   1      39.079  26.020  29.562  1.00  0.00    -0.206 F 
ATOM     71  C   UNL A   1      40.033  25.163  27.518  1.00  0.00     0.040 A 
ATOM     72  C   UNL A   1      41.031  26.584  26.034  1.00  0.00     0.040 A 
ATOM     73  F   UNL A   1      41.458  28.797  26.660  1.00  0.00    -0.206 F 
ATOM     74  C   UNL A   1      40.469  25.364  26.288  1.00  0.00     0.006 A 
ENDBRANCH  53  67
BRANCH  54  75
ATOM     75  C   UNL A   1      40.877  34.276  35.312  1.00  0.00     0.057 A 
ATOM     76  C   UNL A   1      40.278  34.085  36.545  1.00  0.00     0.134 A 
ATOM     77  C   UNL A   1      41.484  35.418  35.009  1.00  0.00     0.134 A 
ATOM     78  F   UNL A   1      39.888  32.893  36.985  1.00  0.00    -0.206 F 
ATOM     79  C   UNL A   1      40.119  35.274  37.296  1.00  0.00     0.040 A 
ATOM     80  C   UNL A   1      41.400  36.499  35.854  1.00  0.00     0.040 A 
ATOM     81  F   UNL A   1      42.177  35.517  33.879  1.00  0.00    -0.206 F 
ATOM     82  C   UNL A   1      40.772  36.399  37.063  1.00  0.00     0.006 A 
ENDBRANCH  54  75
BRANCH  66  83
ATOM     83  C   UNL A   1      44.832  28.767  33.485  1.00  0.00     0.057 A 
ATOM     84  C   UNL A   1      44.752  27.722  34.389  1.00  0.00     0.134 A 
ATOM     85  C   UNL A   1      46.004  29.223  33.060  1.00  0.00     0.134 A 
ATOM     86  F   UNL A   1      43.622  27.071  34.649  1.00  0.00    -0.206 F 
ATOM     87  C   UNL A   1      45.984  27.411  35.016  1.00  0.00     0.040 A 
ATOM     88  C   UNL A   1      47.175  28.774  33.623  1.00  0.00     0.040 A 
ATOM     89  F   UNL A   1      46.046  30.122  32.080  1.00  0.00    -0.206 F 
ATOM     90  C   UNL A   1      47.167  27.785  34.566  1.00  0.00     0.006 A 
ENDBRANCH  66  83
ENDBRANCH  40  41
ENDBRANCH  32  35
ENDBRANCH  30  31
ENDBRANCH  29  30
ENDBRANCH   1  29
TORSDOF 15
ENDMDL
MODEL 2
REMARK VINA RESULT:     -12.5      0.171      5.860
REMARK SMILES O=C(NCCCCCCNC(=O)c1ccc(-c2c3nc(c(-c4c(F)cccc4F)c4ccc([nH]4)c(-c4c(F)cccc4F)c4nc(c(-c5c(F)cccc5F)c5ccc2[nH]5)C=C4)C=C3)cc1)C1=Cc2cc(S(F)(F)(F)(F)F)ccc2O[C@@H]1C(F)(F)F
REMARK SMILES IDX 7 1 6 2 5 3 4 4 3 5 1 6 2 7 67 9 68 10 82 11 69 12 81 13
REMARK SMILES IDX 70 14 80 15 71 16 79 17 78 18 83 19 84 20 85 21 86 22 72 23
REMARK SMILES IDX 73 24 74 25 75 26 76 27 77 28 8 29 9 30 10 31 11 32 12 34
REMARK SMILES IDX 13 35 14 36 66 37 15 38 65 39 16 40 17 41 18 42 59 43 19 44
REMARK SMILES IDX 64 45 58 46 60 47 20 48 63 49 57 50 56 51 21 53 47 54 30 55
REMARK SMILES IDX 46 56 31 57 34 58 45 59 61 60 32 61 33 62 44 64 62 65 35 66
REMARK SMILES IDX 22 67 23 68 28 69 24 70 25 71 27 72 29 73 26 74 48 75 49 76
REMARK SMILES IDX 54 77 50 78 51 79 53 80 55 81 52 82 36 83 37 84 42 85 38 86
REMARK SMILES IDX 39 87 41 88 43 89 40 90
REMARK H PARENT 3 8 10 33 60 52 34 63
REMARK Flexibility Score: inf
ROOT
ATOM      1  C   UNL A   1      31.839  30.793  26.145  1.00  0.00     0.002 C 
ENDROOT
BRANCH   1   2
ATOM      2  C   UNL A   1      32.612  30.091  27.251  1.00  0.00     0.002 C 
BRANCH   2   3
ATOM      3  C   UNL A   1      33.953  29.621  26.712  1.00  0.00     0.021 C 
BRANCH   3   4
ATOM      4  C   UNL A   1      33.912  28.118  26.492  1.00  0.00     0.116 C 
BRANCH   4   5
ATOM      5  N   UNL A   1      32.679  27.571  27.076  1.00  0.00    -0.352 N 
ATOM      6  O   UNL A   1      30.566  26.548  26.705  1.00  0.00    -0.270 OA
ATOM      7  C   UNL A   1      31.633  27.021  26.201  1.00  0.00     0.251 C 
ATOM      8  H   UNL A   1      32.552  27.574  28.052  1.00  0.00     0.163 HD
BRANCH   7   9
ATOM      9  C   UNL A   1      31.826  27.017  24.693  1.00  0.00     0.067 C 
ATOM     10  C   UNL A   1      32.605  26.067  24.110  1.00  0.00     0.025 C 
ATOM     11  C   UNL A   1      31.149  28.075  23.838  1.00  0.00     0.314 C 
ATOM     12  C   UNL A   1      33.281  25.009  24.965  1.00  0.00     0.019 A 
ATOM     13  O   UNL A   1      31.186  24.871  26.078  1.00  0.00    -0.475 OA
ATOM     14  C   UNL A   1      34.634  24.727  24.866  1.00  0.00     0.036 A 
ATOM     15  C   UNL A   1      32.528  24.442  25.901  1.00  0.00     0.128 A 
ATOM     16  C   UNL A   1      35.044  23.605  25.625  1.00  0.00     0.107 A 
ATOM     17  C   UNL A   1      33.034  23.445  26.700  1.00  0.00     0.048 A 
ATOM     18  C   UNL A   1      34.348  23.076  26.614  1.00  0.00     0.028 A 
BRANCH  11  19
ATOM     19  C   UNL A   1      30.222  27.404  22.839  1.00  0.00     0.429 C 
ATOM     20  F   UNL A   1      29.292  28.270  22.446  1.00  0.00    -0.167 F 
ATOM     21  F   UNL A   1      30.924  26.998  21.785  1.00  0.00    -0.167 F 
ATOM     22  F   UNL A   1      29.637  26.355  23.413  1.00  0.00    -0.167 F 
ENDBRANCH  11  19
BRANCH  16  23
ATOM     23  S   UNL A   1      36.634  22.845  25.212  1.00  0.00     0.310 S 
ATOM     24  F   UNL A   1      36.779  23.691  23.878  1.00  0.00    -0.094 F 
ATOM     25  F   UNL A   1      35.873  21.760  24.359  1.00  0.00    -0.094 F 
ATOM     26  F   UNL A   1      38.003  22.191  24.873  1.00  0.00    -0.094 F 
ATOM     27  F   UNL A   1      37.386  24.019  25.952  1.00  0.00    -0.094 F 
ATOM     28  F   UNL A   1      35.260  23.583  25.470  1.00  0.00    -0.094 F 
ENDBRANCH  16  23
ENDBRANCH   7   9
ENDBRANCH   4   5
ENDBRANCH   3   4
ENDBRANCH   2   3
ENDBRANCH   1   2
BRANCH   1  29
ATOM     29  C   UNL A   1      31.394  32.162  26.629  1.00  0.00     0.021 C 
BRANCH  29  30
ATOM     30  C   UNL A   1      32.596  32.929  27.156  1.00  0.00     0.116 C 
BRANCH  30  31
ATOM     31  N   UNL A   1      32.156  34.230  27.679  1.00  0.00    -0.352 N 
ATOM     32  C   UNL A   1      32.962  34.926  28.693  1.00  0.00     0.251 C 
ATOM     33  H   UNL A   1      31.321  34.636  27.350  1.00  0.00     0.163 HD
ATOM     34  O   UNL A   1      32.581  36.050  29.146  1.00  0.00    -0.269 OA
BRANCH  32  35
ATOM     35  C   UNL A   1      34.250  34.298  29.201  1.00  0.00     0.039 A 
ATOM     36  C   UNL A   1      35.445  34.587  28.560  1.00  0.00     0.014 A 
ATOM     37  C   UNL A   1      34.210  33.485  30.249  1.00  0.00     0.014 A 
ATOM     38  C   UNL A   1      36.512  33.734  28.926  1.00  0.00     0.010 A 
ATOM     39  C   UNL A   1      35.327  32.785  30.634  1.00  0.00     0.010 A 
ATOM     40  C   UNL A   1      36.528  32.975  30.008  1.00  0.00    -0.014 A 
BRANCH  40  41
ATOM     41  C   UNL A   1      37.811  32.350  30.528  1.00  0.00     0.031 A 
ATOM     42  C   UNL A   1      38.463  32.977  31.590  1.00  0.00     0.074 A 
ATOM     43  C   UNL A   1      38.263  31.192  29.918  1.00  0.00     0.049 A 
ATOM     44  N   UNL A   1      39.573  32.580  32.213  1.00  0.00    -0.248 NA
ATOM     45  C   UNL A   1      38.004  34.226  32.217  1.00  0.00     0.031 C 
ATOM     46  C   UNL A   1      37.607  30.548  28.851  1.00  0.00     0.029 A 
ATOM     47  N   UNL A   1      39.395  30.466  30.217  1.00  0.00    -0.354 N 
ATOM     48  C   UNL A   1      39.882  33.430  33.195  1.00  0.00     0.074 A 
ATOM     49  C   UNL A   1      38.880  34.504  33.207  1.00  0.00     0.031 C 
ATOM     50  C   UNL A   1      38.338  29.456  28.503  1.00  0.00     0.029 A 
ATOM     51  C   UNL A   1      39.463  29.399  29.348  1.00  0.00     0.049 A 
ATOM     52  H   UNL A   1      40.044  30.673  30.927  1.00  0.00     0.167 HD
ATOM     53  C   UNL A   1      40.958  33.350  34.081  1.00  0.00     0.037 A 
ATOM     54  C   UNL A   1      40.444  28.422  29.278  1.00  0.00     0.037 A 
ATOM     55  C   UNL A   1      41.915  32.349  34.040  1.00  0.00     0.049 A 
ATOM     56  C   UNL A   1      41.552  28.375  30.127  1.00  0.00     0.074 A 
ATOM     57  C   UNL A   1      43.000  32.249  34.930  1.00  0.00     0.029 A 
ATOM     58  N   UNL A   1      41.996  31.296  33.155  1.00  0.00    -0.354 N 
ATOM     59  N   UNL A   1      41.838  29.203  31.134  1.00  0.00    -0.248 NA
ATOM     60  C   UNL A   1      42.614  27.364  30.043  1.00  0.00     0.031 C 
ATOM     61  C   UNL A   1      43.732  31.157  34.583  1.00  0.00     0.029 A 
ATOM     62  C   UNL A   1      43.116  30.557  33.468  1.00  0.00     0.049 A 
ATOM     63  H   UNL A   1      41.364  31.105  32.426  1.00  0.00     0.167 HD
ATOM     64  C   UNL A   1      42.972  28.827  31.730  1.00  0.00     0.074 A 
ATOM     65  C   UNL A   1      43.491  27.643  31.031  1.00  0.00     0.031 C 
ATOM     66  C   UNL A   1      43.591  29.422  32.830  1.00  0.00     0.037 A 
BRANCH  53  67
ATOM     67  C   UNL A   1      41.086  34.421  35.153  1.00  0.00     0.057 A 
ATOM     68  C   UNL A   1      40.462  34.175  36.364  1.00  0.00     0.134 A 
ATOM     69  C   UNL A   1      41.794  35.526  34.954  1.00  0.00     0.134 A 
ATOM     70  F   UNL A   1      39.962  32.987  36.695  1.00  0.00    -0.206 F 
ATOM     71  C   UNL A   1      40.405  35.301  37.219  1.00  0.00     0.040 A 
ATOM     72  C   UNL A   1      41.802  36.529  35.893  1.00  0.00     0.040 A 
ATOM     73  F   UNL A   1      42.502  35.664  33.836  1.00  0.00    -0.206 F 
ATOM     74  C   UNL A   1      41.158  36.378  37.089  1.00  0.00     0.006 A 
ENDBRANCH  53  67
BRANCH  54  75
ATOM     75  C   UNL A   1      40.307  27.342  28.218  1.00  0.00     0.057 A 
ATOM     76  C   UNL A   1      39.706  26.126  28.500  1.00  0.00     0.134 A 
ATOM     77  C   UNL A   1      40.827  27.593  27.022  1.00  0.00     0.134 A 
ATOM     78  F   UNL A   1      38.956  25.921  29.579  1.00  0.00    -0.206 F 
ATOM     79  C   UNL A   1      39.961  25.123  27.535  1.00  0.00     0.040 A 
ATOM     80  C   UNL A   1      40.922  26.598  26.079  1.00  0.00     0.040 A 
ATOM     81  F   UNL A   1      41.261  28.817  26.736  1.00  0.00    -0.206 F 
ATOM     82  C   UNL A   1      40.402  25.356  26.312  1.00  0.00     0.006 A 
ENDBRANCH  54  75
BRANCH  66  83
ATOM     83  C   UNL A   1      44.867  28.786  33.361  1.00  0.00     0.057 A 
ATOM     84  C   UNL A   1      44.779  27.776  34.305  1.00  0.00     0.134 A 
ATOM     85  C   UNL A   1      46.041  29.209  32.911  1.00  0.00     0.134 A 
ATOM     86  F   UNL A   1      43.642  27.151  34.596  1.00  0.00    -0.206 F 
ATOM     87  C   UNL A   1      46.011  27.472  34.933  1.00  0.00     0.040 A 
ATOM     88  C   UNL A   1      47.210  28.765  33.482  1.00  0.00     0.040 A 
ATOM     89  F   UNL A   1      46.088  30.070  31.898  1.00  0.00    -0.206 F 
ATOM     90  C   UNL A   1      47.196  27.812  34.461  1.00  0.00     0.006 A 
ENDBRANCH  66  83
ENDBRANCH  40  41
ENDBRANCH  32  35
ENDBRANCH  30  31
ENDBRANCH  29  30
ENDBRANCH   1  29
TORSDOF 15
ENDMDL
MODEL 3
REMARK VINA RESULT:     -12.4      2.173      4.033
REMARK SMILES O=C(NCCCCCCNC(=O)c1ccc(-c2c3nc(c(-c4c(F)cccc4F)c4ccc([nH]4)c(-c4c(F)cccc4F)c4nc(c(-c5c(F)cccc5F)c5ccc2[nH]5)C=C4)C=C3)cc1)C1=Cc2cc(S(F)(F)(F)(F)F)ccc2O[C@@H]1C(F)(F)F
REMARK SMILES IDX 7 1 6 2 5 3 4 4 3 5 1 6 2 7 67 9 68 10 82 11 69 12 81 13
REMARK SMILES IDX 70 14 80 15 71 16 79 17 78 18 83 19 84 20 85 21 86 22 72 23
REMARK SMILES IDX 73 24 74 25 75 26 76 27 77 28 8 29 9 30 10 31 11 32 12 34
REMARK SMILES IDX 13 35 14 36 66 37 15 38 65 39 16 40 17 41 18 42 59 43 19 44
REMARK SMILES IDX 64 45 58 46 60 47 20 48 63 49 57 50 56 51 21 53 47 54 30 55
REMARK SMILES IDX 46 56 31 57 34 58 45 59 61 60 32 61 33 62 44 64 62 65 35 66
REMARK SMILES IDX 22 67 23 68 28 69 24 70 25 71 27 72 29 73 26 74 48 75 49 76
REMARK SMILES IDX 54 77 50 78 51 79 53 80 55 81 52 82 36 83 37 84 42 85 38 86
REMARK SMILES IDX 39 87 41 88 43 89 40 90
REMARK H PARENT 3 8 10 33 60 52 34 63
REMARK Flexibility Score: inf
ROOT
ATOM      1  C   UNL A   1      31.652  30.350  26.104  1.00  0.00     0.002 C 
ENDROOT
BRANCH   1   2
ATOM      2  C   UNL A   1      33.109  30.061  26.431  1.00  0.00     0.002 C 
BRANCH   2   3
ATOM      3  C   UNL A   1      33.185  28.940  27.454  1.00  0.00     0.021 C 
BRANCH   3   4
ATOM      4  C   UNL A   1      32.620  27.665  26.852  1.00  0.00     0.116 C 
BRANCH   4   5
ATOM      5  N   UNL A   1      33.592  27.098  25.906  1.00  0.00    -0.352 N 
ATOM      6  O   UNL A   1      34.164  25.311  24.448  1.00  0.00    -0.270 OA
ATOM      7  C   UNL A   1      33.323  25.801  25.266  1.00  0.00     0.251 C 
ATOM      8  H   UNL A   1      34.422  27.585  25.701  1.00  0.00     0.163 HD
BRANCH   7   9
ATOM      9  C   UNL A   1      32.042  25.047  25.582  1.00  0.00     0.067 C 
ATOM     10  C   UNL A   1      30.862  25.455  25.043  1.00  0.00     0.025 C 
ATOM     11  C   UNL A   1      32.080  23.837  26.501  1.00  0.00     0.314 C 
ATOM     12  C   UNL A   1      30.825  26.665  24.123  1.00  0.00     0.019 A 
ATOM     13  O   UNL A   1      32.768  25.713  23.140  1.00  0.00    -0.475 OA
ATOM     14  C   UNL A   1      29.934  27.710  24.307  1.00  0.00     0.036 A 
ATOM     15  C   UNL A   1      31.774  26.725  23.196  1.00  0.00     0.128 A 
ATOM     16  C   UNL A   1      29.943  28.662  23.260  1.00  0.00     0.107 A 
ATOM     17  C   UNL A   1      31.803  27.758  22.290  1.00  0.00     0.048 A 
ATOM     18  C   UNL A   1      30.914  28.793  22.376  1.00  0.00     0.028 A 
BRANCH  11  19
ATOM     19  C   UNL A   1      31.577  22.615  25.751  1.00  0.00     0.429 C 
ATOM     20  F   UNL A   1      32.239  21.538  26.165  1.00  0.00    -0.167 F 
ATOM     21  F   UNL A   1      30.278  22.454  25.985  1.00  0.00    -0.167 F 
ATOM     22  F   UNL A   1      31.775  22.783  24.447  1.00  0.00    -0.167 F 
ENDBRANCH  11  19
BRANCH  16  23
ATOM     23  S   UNL A   1      28.525  29.778  23.127  1.00  0.00     0.310 S 
ATOM     24  F   UNL A   1      28.979  30.311  21.704  1.00  0.00    -0.094 F 
ATOM     25  F   UNL A   1      29.394  30.930  23.759  1.00  0.00    -0.094 F 
ATOM     26  F   UNL A   1      27.297  30.727  23.021  1.00  0.00    -0.094 F 
ATOM     27  F   UNL A   1      27.714  28.657  22.367  1.00  0.00    -0.094 F 
ATOM     28  F   UNL A   1      29.796  28.840  23.125  1.00  0.00    -0.094 F 
ENDBRANCH  16  23
ENDBRANCH   7   9
ENDBRANCH   4   5
ENDBRANCH   3   4
ENDBRANCH   2   3
ENDBRANCH   1   2
BRANCH   1  29
ATOM     29  C   UNL A   1      31.316  31.777  26.503  1.00  0.00     0.021 C 
BRANCH  29  30
ATOM     30  C   UNL A   1      32.594  32.513  26.874  1.00  0.00     0.116 C 
BRANCH  30  31
ATOM     31  N   UNL A   1      32.262  33.872  27.323  1.00  0.00    -0.352 N 
ATOM     32  C   UNL A   1      33.071  34.520  28.366  1.00  0.00     0.251 C 
ATOM     33  H   UNL A   1      31.499  34.351  26.925  1.00  0.00     0.163 HD
ATOM     34  O   UNL A   1      32.784  35.695  28.755  1.00  0.00    -0.269 OA
BRANCH  32  35
ATOM     35  C   UNL A   1      34.250  33.782  28.981  1.00  0.00     0.039 A 
ATOM     36  C   UNL A   1      35.535  34.245  28.751  1.00  0.00     0.014 A 
ATOM     37  C   UNL A   1      34.028  32.707  29.727  1.00  0.00     0.014 A 
ATOM     38  C   UNL A   1      36.548  33.329  29.119  1.00  0.00     0.010 A 
ATOM     39  C   UNL A   1      35.074  31.932  30.166  1.00  0.00     0.010 A 
ATOM     40  C   UNL A   1      36.369  32.298  29.924  1.00  0.00    -0.014 A 
BRANCH  40  41
ATOM     41  C   UNL A   1      37.541  31.558  30.550  1.00  0.00     0.031 A 
ATOM     42  C   UNL A   1      38.227  30.632  29.763  1.00  0.00     0.074 A 
ATOM     43  C   UNL A   1      37.862  31.844  31.865  1.00  0.00     0.049 A 
ATOM     44  N   UNL A   1      39.294  29.907  30.102  1.00  0.00    -0.248 NA
ATOM     45  C   UNL A   1      37.866  30.301  28.376  1.00  0.00     0.031 C 
ATOM     46  C   UNL A   1      37.180  32.782  32.664  1.00  0.00     0.029 A 
ATOM     47  N   UNL A   1      38.868  31.294  32.629  1.00  0.00    -0.354 N 
ATOM     48  C   UNL A   1      39.681  29.146  29.076  1.00  0.00     0.074 A 
ATOM     49  C   UNL A   1      38.764  29.384  27.953  1.00  0.00     0.031 C 
ATOM     50  C   UNL A   1      37.759  32.790  33.894  1.00  0.00     0.029 A 
ATOM     51  C   UNL A   1      38.812  31.857  33.885  1.00  0.00     0.049 A 
ATOM     52  H   UNL A   1      39.515  30.615  32.329  1.00  0.00     0.167 HD
ATOM     53  C   UNL A   1      40.762  28.265  29.033  1.00  0.00     0.037 A 
ATOM     54  C   UNL A   1      39.624  31.584  34.974  1.00  0.00     0.037 A 
ATOM     55  C   UNL A   1      41.602  28.024  30.109  1.00  0.00     0.049 A 
ATOM     56  C   UNL A   1      40.670  30.658  34.948  1.00  0.00     0.074 A 
ATOM     57  C   UNL A   1      42.701  27.145  30.080  1.00  0.00     0.029 A 
ATOM     58  N   UNL A   1      41.530  28.569  31.372  1.00  0.00    -0.354 N 
ATOM     59  N   UNL A   1      41.081  29.928  33.910  1.00  0.00    -0.248 NA
ATOM     60  C   UNL A   1      41.517  30.338  36.105  1.00  0.00     0.031 C 
ATOM     61  C   UNL A   1      43.280  27.153  31.310  1.00  0.00     0.029 A 
ATOM     62  C   UNL A   1      42.551  28.036  32.129  1.00  0.00     0.049 A 
ATOM     63  H   UNL A   1      40.866  29.226  31.680  1.00  0.00     0.167 HD
ATOM     64  C   UNL A   1      42.123  29.172  34.264  1.00  0.00     0.074 A 
ATOM     65  C   UNL A   1      42.413  29.420  35.683  1.00  0.00     0.031 C 
ATOM     66  C   UNL A   1      42.845  28.290  33.459  1.00  0.00     0.037 A 
BRANCH  53  67
ATOM     67  C   UNL A   1      41.037  27.529  27.731  1.00  0.00     0.057 A 
ATOM     68  C   UNL A   1      40.444  26.287  27.574  1.00  0.00     0.134 A 
ATOM     69  C   UNL A   1      41.780  28.065  26.770  1.00  0.00     0.134 A 
ATOM     70  F   UNL A   1      39.499  25.827  28.389  1.00  0.00    -0.206 F 
ATOM     71  C   UNL A   1      40.933  25.554  26.467  1.00  0.00     0.040 A 
ATOM     72  C   UNL A   1      42.107  27.336  25.651  1.00  0.00     0.040 A 
ATOM     73  F   UNL A   1      42.211  29.317  26.889  1.00  0.00    -0.206 F 
ATOM     74  C   UNL A   1      41.604  26.079  25.458  1.00  0.00     0.006 A 
ENDBRANCH  53  67
BRANCH  54  75
ATOM     75  C   UNL A   1      39.361  32.332  36.270  1.00  0.00     0.057 A 
ATOM     76  C   UNL A   1      38.362  31.935  37.143  1.00  0.00     0.134 A 
ATOM     77  C   UNL A   1      40.098  33.411  36.510  1.00  0.00     0.134 A 
ATOM     78  F   UNL A   1      37.778  30.742  37.083  1.00  0.00    -0.206 F 
ATOM     79  C   UNL A   1      38.021  32.913  38.107  1.00  0.00     0.040 A 
ATOM     80  C   UNL A   1      39.787  34.251  37.552  1.00  0.00     0.040 A 
ATOM     81  F   UNL A   1      41.143  33.681  35.734  1.00  0.00    -0.206 F 
ATOM     82  C   UNL A   1      38.775  33.952  38.420  1.00  0.00     0.006 A 
ENDBRANCH  54  75
BRANCH  66  83
ATOM     83  C   UNL A   1      44.028  27.563  34.080  1.00  0.00     0.057 A 
ATOM     84  C   UNL A   1      45.275  28.163  34.069  1.00  0.00     0.134 A 
ATOM     85  C   UNL A   1      43.844  26.365  34.621  1.00  0.00     0.134 A 
ATOM     86  F   UNL A   1      45.461  29.447  33.773  1.00  0.00    -0.206 F 
ATOM     87  C   UNL A   1      46.336  27.286  34.400  1.00  0.00     0.040 A 
ATOM     88  C   UNL A   1      44.916  25.619  35.049  1.00  0.00     0.040 A 
ATOM     89  F   UNL A   1      42.611  25.882  34.752  1.00  0.00    -0.206 F 
ATOM     90  C   UNL A   1      46.185  26.127  35.012  1.00  0.00     0.006 A 
ENDBRANCH  66  83
ENDBRANCH  40  41
ENDBRANCH  32  35
ENDBRANCH  30  31
ENDBRANCH  29  30
ENDBRANCH   1  29
TORSDOF 15
ENDMDL
