MODEL 1
REMARK VINA RESULT:     -11.3      0.000      0.000
REMARK SMILES Cn1cc(S(=O)(=O)N[C@@H]2C=C[C@@H](C(=O)NCCCCCCNC(=O)c3ccc(-c4c5nc(c(-c6c(F)cccc6F)c6ccc([nH]6)c(-c6c(F)cccc6F)c6nc(c(-c7c(F)cccc7F)c7ccc4[nH]7)C=C6)C=C5)cc3)C2)cc1C(N)=O
REMARK SMILES IDX 17 1 16 2 15 3 13 4 14 5 12 7 9 8 10 9 79 10 11 11 8 12 5 14
REMARK SMILES IDX 6 15 7 16 4 17 1 18 2 19 3 20 81 21 80 22 82 23 83 24 84 25
REMARK SMILES IDX 18 28 19 29 20 30 21 31 22 32 23 33 24 35 25 36 26 37 78 38
REMARK SMILES IDX 27 39 77 40 28 41 29 42 30 43 71 44 31 45 76 46 70 47 72 48
REMARK SMILES IDX 32 49 75 50 69 51 68 52 33 54 59 55 42 56 58 57 43 58 46 59
REMARK SMILES IDX 57 60 73 61 44 62 45 63 56 65 74 66 47 67 34 68 35 69 40 70
REMARK SMILES IDX 36 71 37 72 39 73 41 74 38 75 60 76 61 77 66 78 62 79 63 80
REMARK SMILES IDX 65 81 67 82 64 83 48 84 49 85 54 86 50 87 51 88 53 89 55 90
REMARK SMILES IDX 52 91
REMARK H PARENT 15 6 8 13 83 26 83 27 22 34 72 53 46 64
REMARK Flexibility Score: inf
ROOT
ATOM      1  C   UNL A   1      33.652  31.897  27.669  1.00  0.00     0.021 C 
ENDROOT
BRANCH   1   2
ATOM      2  C   UNL A   1      33.785  30.441  27.241  1.00  0.00     0.116 C 
BRANCH   2   3
ATOM      3  N   UNL A   1      32.733  29.610  27.796  1.00  0.00    -0.356 N 
ATOM      4  C   UNL A   1      32.195  28.444  27.339  1.00  0.00     0.226 C 
ATOM      5  O   UNL A   1      31.347  27.890  28.044  1.00  0.00    -0.274 OA
ATOM      6  H   UNL A   1      32.345  29.943  28.638  1.00  0.00     0.163 HD
BRANCH   4   7
ATOM      7  C   UNL A   1      32.610  27.822  26.003  1.00  0.00     0.103 C 
ATOM      8  C   UNL A   1      31.789  26.026  24.524  1.00  0.00     0.093 C 
ATOM      9  C   UNL A   1      31.349  27.384  24.081  1.00  0.00    -0.011 C 
ATOM     10  C   UNL A   1      32.388  26.303  25.918  1.00  0.00     0.042 C 
ATOM     11  C   UNL A   1      31.826  28.367  24.851  1.00  0.00    -0.016 C 
BRANCH   8  12
ATOM     12  N   UNL A   1      32.844  25.508  23.641  1.00  0.00    -0.204 NA
ATOM     13  H   UNL A   1      33.107  26.262  23.007  1.00  0.00     0.142 HD
BRANCH  12  14
ATOM     14  S   UNL A   1      32.498  24.152  22.692  1.00  0.00     0.242 S 
ATOM     15  O   UNL A   1      33.242  24.263  21.458  1.00  0.00    -0.207 OA
ATOM     16  O   UNL A   1      31.064  23.978  22.724  1.00  0.00    -0.207 OA
BRANCH  14  17
ATOM     17  C   UNL A   1      33.121  22.748  23.476  1.00  0.00     0.100 A 
ATOM     18  C   UNL A   1      35.596  20.851  25.295  1.00  0.00     0.150 C 
ATOM     19  N   UNL A   1      34.408  21.360  24.642  1.00  0.00    -0.345 N 
ATOM     20  C   UNL A   1      34.378  22.582  24.009  1.00  0.00     0.107 A 
ATOM     21  C   UNL A   1      33.157  20.765  24.589  1.00  0.00     0.107 A 
ATOM     22  C   UNL A   1      32.394  21.566  23.746  1.00  0.00     0.055 A 
BRANCH  21  23
ATOM     23  C   UNL A   1      32.755  19.561  25.292  1.00  0.00     0.265 C 
ATOM     24  N   UNL A   1      33.172  19.476  26.590  1.00  0.00    -0.364 N 
ATOM     25  O   UNL A   1      32.129  18.629  24.801  1.00  0.00    -0.268 OA
ATOM     26  H   UNL A   1      33.676  20.219  26.996  1.00  0.00     0.160 HD
ATOM     27  H   UNL A   1      32.967  18.672  27.121  1.00  0.00     0.160 HD
ENDBRANCH  21  23
ENDBRANCH  14  17
ENDBRANCH  12  14
ENDBRANCH   8  12
ENDBRANCH   4   7
ENDBRANCH   2   3
ENDBRANCH   1   2
BRANCH   1  28
ATOM     28  C   UNL A   1      34.562  32.308  28.828  1.00  0.00     0.002 C 
BRANCH  28  29
ATOM     29  C   UNL A   1      34.663  33.815  29.087  1.00  0.00     0.002 C 
BRANCH  29  30
ATOM     30  C   UNL A   1      33.355  34.604  28.977  1.00  0.00     0.021 C 
BRANCH  30  31
ATOM     31  C   UNL A   1      33.388  36.020  29.544  1.00  0.00     0.116 C 
BRANCH  31  32
ATOM     32  N   UNL A   1      32.467  36.204  30.651  1.00  0.00    -0.352 N 
ATOM     33  C   UNL A   1      32.552  35.753  31.944  1.00  0.00     0.251 C 
ATOM     34  H   UNL A   1      31.662  36.732  30.444  1.00  0.00     0.163 HD
ATOM     35  O   UNL A   1      31.605  35.902  32.711  1.00  0.00    -0.269 OA
BRANCH  33  36
ATOM     36  C   UNL A   1      33.771  35.058  32.413  1.00  0.00     0.039 A 
ATOM     37  C   UNL A   1      33.647  33.758  32.913  1.00  0.00     0.014 A 
ATOM     38  C   UNL A   1      35.023  35.679  32.375  1.00  0.00     0.014 A 
ATOM     39  C   UNL A   1      34.785  33.056  33.315  1.00  0.00     0.010 A 
ATOM     40  C   UNL A   1      36.165  34.960  32.728  1.00  0.00     0.010 A 
ATOM     41  C   UNL A   1      36.056  33.641  33.194  1.00  0.00    -0.014 A 
BRANCH  41  42
ATOM     42  C   UNL A   1      37.283  32.875  33.527  1.00  0.00     0.031 A 
ATOM     43  C   UNL A   1      38.038  33.157  34.795  1.00  0.00     0.074 A 
ATOM     44  C   UNL A   1      37.754  31.969  32.649  1.00  0.00     0.049 A 
ATOM     45  N   UNL A   1      39.163  32.640  35.217  1.00  0.00    -0.248 NA
ATOM     46  C   UNL A   1      37.465  34.170  35.694  1.00  0.00     0.031 C 
ATOM     47  C   UNL A   1      37.138  31.638  31.363  1.00  0.00     0.029 A 
ATOM     48  N   UNL A   1      38.868  31.171  32.700  1.00  0.00    -0.354 N 
ATOM     49  C   UNL A   1      39.442  33.274  36.420  1.00  0.00     0.074 A 
ATOM     50  C   UNL A   1      38.387  34.239  36.644  1.00  0.00     0.031 C 
ATOM     51  C   UNL A   1      37.878  30.698  30.751  1.00  0.00     0.029 A 
ATOM     52  C   UNL A   1      39.032  30.383  31.587  1.00  0.00     0.049 A 
ATOM     53  H   UNL A   1      39.492  31.164  33.462  1.00  0.00     0.167 HD
ATOM     54  C   UNL A   1      40.476  33.059  37.268  1.00  0.00     0.037 A 
ATOM     55  C   UNL A   1      40.006  29.509  31.271  1.00  0.00     0.037 A 
ATOM     56  C   UNL A   1      41.509  32.078  37.062  1.00  0.00     0.049 A 
ATOM     57  C   UNL A   1      41.135  29.282  32.236  1.00  0.00     0.074 A 
ATOM     58  C   UNL A   1      42.552  31.734  37.904  1.00  0.00     0.029 A 
ATOM     59  N   UNL A   1      41.627  31.284  35.933  1.00  0.00    -0.354 N 
ATOM     60  N   UNL A   1      41.349  29.840  33.401  1.00  0.00    -0.248 NA
ATOM     61  C   UNL A   1      42.156  28.301  31.841  1.00  0.00     0.031 C 
ATOM     62  C   UNL A   1      43.323  30.754  37.269  1.00  0.00     0.029 A 
ATOM     63  C   UNL A   1      42.739  30.465  36.047  1.00  0.00     0.049 A 
ATOM     64  H   UNL A   1      41.012  31.298  35.164  1.00  0.00     0.167 HD
ATOM     65  C   UNL A   1      42.517  29.268  33.888  1.00  0.00     0.074 A 
ATOM     66  C   UNL A   1      42.958  28.307  32.897  1.00  0.00     0.031 C 
ATOM     67  C   UNL A   1      43.166  29.516  35.051  1.00  0.00     0.037 A 
BRANCH  54  68
ATOM     68  C   UNL A   1      40.539  33.902  38.507  1.00  0.00     0.057 A 
ATOM     69  C   UNL A   1      41.300  35.076  38.560  1.00  0.00     0.134 A 
ATOM     70  C   UNL A   1      39.798  33.557  39.645  1.00  0.00     0.134 A 
ATOM     71  F   UNL A   1      42.040  35.455  37.506  1.00  0.00    -0.206 F 
ATOM     72  C   UNL A   1      41.338  35.869  39.708  1.00  0.00     0.040 A 
ATOM     73  C   UNL A   1      39.812  34.353  40.791  1.00  0.00     0.040 A 
ATOM     74  F   UNL A   1      39.045  32.447  39.657  1.00  0.00    -0.206 F 
ATOM     75  C   UNL A   1      40.587  35.510  40.826  1.00  0.00     0.006 A 
ENDBRANCH  54  68
BRANCH  55  76
ATOM     76  C   UNL A   1      39.948  28.772  29.987  1.00  0.00     0.057 A 
ATOM     77  C   UNL A   1      40.564  29.280  28.838  1.00  0.00     0.134 A 
ATOM     78  C   UNL A   1      39.278  27.548  29.876  1.00  0.00     0.134 A 
ATOM     79  F   UNL A   1      41.205  30.458  28.880  1.00  0.00    -0.206 F 
ATOM     80  C   UNL A   1      40.506  28.603  27.620  1.00  0.00     0.040 A 
ATOM     81  C   UNL A   1      39.229  26.851  28.669  1.00  0.00     0.040 A 
ATOM     82  F   UNL A   1      38.674  27.009  30.944  1.00  0.00    -0.206 F 
ATOM     83  C   UNL A   1      39.840  27.382  27.534  1.00  0.00     0.006 A 
ENDBRANCH  55  76
BRANCH  67  84
ATOM     84  C   UNL A   1      44.410  28.727  35.319  1.00  0.00     0.057 A 
ATOM     85  C   UNL A   1      45.673  29.195  34.935  1.00  0.00     0.134 A 
ATOM     86  C   UNL A   1      44.349  27.502  35.995  1.00  0.00     0.134 A 
ATOM     87  F   UNL A   1      45.794  30.354  34.270  1.00  0.00    -0.206 F 
ATOM     88  C   UNL A   1      46.831  28.464  35.200  1.00  0.00     0.040 A 
ATOM     89  C   UNL A   1      45.502  26.772  36.284  1.00  0.00     0.040 A 
ATOM     90  F   UNL A   1      43.169  27.002  36.394  1.00  0.00    -0.206 F 
ATOM     91  C   UNL A   1      46.748  27.250  35.882  1.00  0.00     0.006 A 
ENDBRANCH  67  84
ENDBRANCH  41  42
ENDBRANCH  33  36
ENDBRANCH  31  32
ENDBRANCH  30  31
ENDBRANCH  29  30
ENDBRANCH  28  29
ENDBRANCH   1  28
TORSDOF 17
ENDMDL
MODEL 2
REMARK VINA RESULT:     -11.3      6.549     12.241
REMARK SMILES Cn1cc(S(=O)(=O)N[C@@H]2C=C[C@@H](C(=O)NCCCCCCNC(=O)c3ccc(-c4c5nc(c(-c6c(F)cccc6F)c6ccc([nH]6)c(-c6c(F)cccc6F)c6nc(c(-c7c(F)cccc7F)c7ccc4[nH]7)C=C6)C=C5)cc3)C2)cc1C(N)=O
REMARK SMILES IDX 17 1 16 2 15 3 13 4 14 5 12 7 9 8 10 9 79 10 11 11 8 12 5 14
REMARK SMILES IDX 6 15 7 16 4 17 1 18 2 19 3 20 81 21 80 22 82 23 83 24 84 25
REMARK SMILES IDX 18 28 19 29 20 30 21 31 22 32 23 33 24 35 25 36 26 37 78 38
REMARK SMILES IDX 27 39 77 40 28 41 29 42 30 43 71 44 31 45 76 46 70 47 72 48
REMARK SMILES IDX 32 49 75 50 69 51 68 52 33 54 59 55 42 56 58 57 43 58 46 59
REMARK SMILES IDX 57 60 73 61 44 62 45 63 56 65 74 66 47 67 34 68 35 69 40 70
REMARK SMILES IDX 36 71 37 72 39 73 41 74 38 75 60 76 61 77 66 78 62 79 63 80
REMARK SMILES IDX 65 81 67 82 64 83 48 84 49 85 54 86 50 87 51 88 53 89 55 90
REMARK SMILES IDX 52 91
REMARK H PARENT 15 6 8 13 83 26 83 27 22 34 72 53 46 64
REMARK Flexibility Score: inf
ROOT
ATOM      1  C   UNL A   1      40.418  22.585  27.033  1.00  0.00     0.021 C 
ENDROOT
BRANCH   1   2
ATOM      2  C   UNL A   1      39.065  22.708  26.343  1.00  0.00     0.116 C 
BRANCH   2   3
ATOM      3  N   UNL A   1      38.638  21.454  25.751  1.00  0.00    -0.356 N 
ATOM      4  C   UNL A   1      37.488  21.135  25.091  1.00  0.00     0.226 C 
ATOM      5  O   UNL A   1      37.398  20.000  24.615  1.00  0.00    -0.274 OA
ATOM      6  H   UNL A   1      39.283  20.715  25.839  1.00  0.00     0.163 HD
BRANCH   4   7
ATOM      7  C   UNL A   1      36.335  22.130  24.934  1.00  0.00     0.103 C 
ATOM      8  C   UNL A   1      34.679  22.702  23.196  1.00  0.00     0.093 C 
ATOM      9  C   UNL A   1      34.126  21.788  24.241  1.00  0.00    -0.011 C 
ATOM     10  C   UNL A   1      36.189  22.706  23.516  1.00  0.00     0.042 C 
ATOM     11  C   UNL A   1      35.003  21.507  25.210  1.00  0.00    -0.016 C 
BRANCH   8  12
ATOM     12  N   UNL A   1      34.149  24.063  23.362  1.00  0.00    -0.204 NA
ATOM     13  H   UNL A   1      33.888  24.169  24.343  1.00  0.00     0.142 HD
BRANCH  12  14
ATOM     14  S   UNL A   1      32.809  24.517  22.435  1.00  0.00     0.242 S 
ATOM     15  O   UNL A   1      31.708  23.647  22.776  1.00  0.00    -0.207 OA
ATOM     16  O   UNL A   1      33.280  24.682  21.079  1.00  0.00    -0.207 OA
BRANCH  14  17
ATOM     17  C   UNL A   1      32.309  26.097  22.914  1.00  0.00     0.100 A 
ATOM     18  C   UNL A   1      32.710  29.298  24.534  1.00  0.00     0.150 C 
ATOM     19  N   UNL A   1      32.288  28.157  23.748  1.00  0.00    -0.345 N 
ATOM     20  C   UNL A   1      32.988  26.972  23.730  1.00  0.00     0.107 A 
ATOM     21  C   UNL A   1      31.202  28.083  22.890  1.00  0.00     0.107 A 
ATOM     22  C   UNL A   1      31.138  26.756  22.477  1.00  0.00     0.055 A 
BRANCH  21  23
ATOM     23  C   UNL A   1      30.339  29.185  22.510  1.00  0.00     0.265 C 
ATOM     24  N   UNL A   1      30.883  30.078  21.631  1.00  0.00    -0.364 N 
ATOM     25  O   UNL A   1      29.211  29.386  22.946  1.00  0.00    -0.268 OA
ATOM     26  H   UNL A   1      31.788  29.928  21.273  1.00  0.00     0.160 HD
ATOM     27  H   UNL A   1      30.370  30.871  21.354  1.00  0.00     0.160 HD
ENDBRANCH  21  23
ENDBRANCH  14  17
ENDBRANCH  12  14
ENDBRANCH   8  12
ENDBRANCH   4   7
ENDBRANCH   2   3
ENDBRANCH   1   2
BRANCH   1  28
ATOM     28  C   UNL A   1      41.474  21.817  26.236  1.00  0.00     0.002 C 
BRANCH  28  29
ATOM     29  C   UNL A   1      41.925  20.486  26.846  1.00  0.00     0.002 C 
BRANCH  29  30
ATOM     30  C   UNL A   1      42.227  19.360  25.852  1.00  0.00     0.021 C 
BRANCH  30  31
ATOM     31  C   UNL A   1      43.528  18.599  26.093  1.00  0.00     0.116 C 
BRANCH  31  32
ATOM     32  N   UNL A   1      44.329  18.461  24.890  1.00  0.00    -0.352 N 
ATOM     33  C   UNL A   1      44.963  19.424  24.146  1.00  0.00     0.251 C 
ATOM     34  H   UNL A   1      44.434  17.539  24.560  1.00  0.00     0.163 HD
ATOM     35  O   UNL A   1      45.492  19.126  23.079  1.00  0.00    -0.269 OA
BRANCH  33  36
ATOM     36  C   UNL A   1      44.986  20.828  24.608  1.00  0.00     0.039 A 
ATOM     37  C   UNL A   1      45.545  21.109  25.858  1.00  0.00     0.014 A 
ATOM     38  C   UNL A   1      44.451  21.860  23.830  1.00  0.00     0.014 A 
ATOM     39  C   UNL A   1      45.628  22.431  26.301  1.00  0.00     0.010 A 
ATOM     40  C   UNL A   1      44.580  23.183  24.250  1.00  0.00     0.010 A 
ATOM     41  C   UNL A   1      45.177  23.481  25.485  1.00  0.00    -0.014 A 
BRANCH  41  42
ATOM     42  C   UNL A   1      45.344  24.896  25.899  1.00  0.00     0.031 A 
ATOM     43  C   UNL A   1      46.695  25.550  25.853  1.00  0.00     0.074 A 
ATOM     44  C   UNL A   1      44.284  25.571  26.382  1.00  0.00     0.049 A 
ATOM     45  N   UNL A   1      47.044  26.751  26.239  1.00  0.00    -0.248 NA
ATOM     46  C   UNL A   1      47.804  24.741  25.325  1.00  0.00     0.031 C 
ATOM     47  C   UNL A   1      42.930  25.033  26.522  1.00  0.00     0.029 A 
ATOM     48  N   UNL A   1      44.183  26.854  26.859  1.00  0.00    -0.354 N 
ATOM     49  C   UNL A   1      48.412  26.837  26.017  1.00  0.00     0.074 A 
ATOM     50  C   UNL A   1      48.836  25.556  25.495  1.00  0.00     0.031 C 
ATOM     51  C   UNL A   1      42.131  25.981  27.039  1.00  0.00     0.029 A 
ATOM     52  C   UNL A   1      42.922  27.181  27.294  1.00  0.00     0.049 A 
ATOM     53  H   UNL A   1      44.942  27.480  26.887  1.00  0.00     0.167 HD
ATOM     54  C   UNL A   1      49.235  27.893  26.216  1.00  0.00     0.037 A 
ATOM     55  C   UNL A   1      42.456  28.318  27.844  1.00  0.00     0.037 A 
ATOM     56  C   UNL A   1      48.808  29.178  26.705  1.00  0.00     0.049 A 
ATOM     57  C   UNL A   1      43.389  29.478  28.043  1.00  0.00     0.074 A 
ATOM     58  C   UNL A   1      49.556  30.332  26.865  1.00  0.00     0.029 A 
ATOM     59  N   UNL A   1      47.518  29.477  27.115  1.00  0.00    -0.354 N 
ATOM     60  N   UNL A   1      44.665  29.567  27.765  1.00  0.00    -0.248 NA
ATOM     61  C   UNL A   1      42.813  30.697  28.629  1.00  0.00     0.031 C 
ATOM     62  C   UNL A   1      48.725  31.322  27.403  1.00  0.00     0.029 A 
ATOM     63  C   UNL A   1      47.453  30.792  27.547  1.00  0.00     0.049 A 
ATOM     64  H   UNL A   1      46.760  28.849  27.100  1.00  0.00     0.167 HD
ATOM     65  C   UNL A   1      45.044  30.854  28.125  1.00  0.00     0.074 A 
ATOM     66  C   UNL A   1      43.857  31.515  28.628  1.00  0.00     0.031 C 
ATOM     67  C   UNL A   1      46.265  31.434  28.046  1.00  0.00     0.037 A 
BRANCH  54  68
ATOM     68  C   UNL A   1      50.688  27.706  25.898  1.00  0.00     0.057 A 
ATOM     69  C   UNL A   1      51.189  27.897  24.604  1.00  0.00     0.134 A 
ATOM     70  C   UNL A   1      51.603  27.370  26.904  1.00  0.00     0.134 A 
ATOM     71  F   UNL A   1      50.361  28.209  23.594  1.00  0.00    -0.206 F 
ATOM     72  C   UNL A   1      52.546  27.744  24.317  1.00  0.00     0.040 A 
ATOM     73  C   UNL A   1      52.965  27.234  26.634  1.00  0.00     0.040 A 
ATOM     74  F   UNL A   1      51.188  27.178  28.166  1.00  0.00    -0.206 F 
ATOM     75  C   UNL A   1      53.439  27.417  25.336  1.00  0.00     0.006 A 
ENDBRANCH  54  68
BRANCH  55  76
ATOM     76  C   UNL A   1      41.029  28.418  28.234  1.00  0.00     0.057 A 
ATOM     77  C   UNL A   1      40.600  28.013  29.502  1.00  0.00     0.134 A 
ATOM     78  C   UNL A   1      40.065  28.919  27.351  1.00  0.00     0.134 A 
ATOM     79  F   UNL A   1      41.477  27.508  30.382  1.00  0.00    -0.206 F 
ATOM     80  C   UNL A   1      39.258  28.090  29.876  1.00  0.00     0.040 A 
ATOM     81  C   UNL A   1      38.723  29.019  27.719  1.00  0.00     0.040 A 
ATOM     82  F   UNL A   1      40.418  29.328  26.124  1.00  0.00    -0.206 F 
ATOM     83  C   UNL A   1      38.316  28.598  28.984  1.00  0.00     0.006 A 
ENDBRANCH  55  76
BRANCH  67  84
ATOM     84  C   UNL A   1      46.374  32.858  28.500  1.00  0.00     0.057 A 
ATOM     85  C   UNL A   1      46.158  33.927  27.621  1.00  0.00     0.134 A 
ATOM     86  C   UNL A   1      46.667  33.162  29.835  1.00  0.00     0.134 A 
ATOM     87  F   UNL A   1      45.889  33.698  26.328  1.00  0.00    -0.206 F 
ATOM     88  C   UNL A   1      46.246  35.251  28.052  1.00  0.00     0.040 A 
ATOM     89  C   UNL A   1      46.738  34.482  30.282  1.00  0.00     0.040 A 
ATOM     90  F   UNL A   1      46.879  32.183  30.727  1.00  0.00    -0.206 F 
ATOM     91  C   UNL A   1      46.531  35.531  29.388  1.00  0.00     0.006 A 
ENDBRANCH  67  84
ENDBRANCH  41  42
ENDBRANCH  33  36
ENDBRANCH  31  32
ENDBRANCH  30  31
ENDBRANCH  29  30
ENDBRANCH  28  29
ENDBRANCH   1  28
TORSDOF 17
ENDMDL
MODEL 3
REMARK VINA RESULT:     -11.2      1.135      6.174
REMARK SMILES Cn1cc(S(=O)(=O)N[C@@H]2C=C[C@@H](C(=O)NCCCCCCNC(=O)c3ccc(-c4c5nc(c(-c6c(F)cccc6F)c6ccc([nH]6)c(-c6c(F)cccc6F)c6nc(c(-c7c(F)cccc7F)c7ccc4[nH]7)C=C6)C=C5)cc3)C2)cc1C(N)=O
REMARK SMILES IDX 17 1 16 2 15 3 13 4 14 5 12 7 9 8 10 9 79 10 11 11 8 12 5 14
REMARK SMILES IDX 6 15 7 16 4 17 1 18 2 19 3 20 81 21 80 22 82 23 83 24 84 25
REMARK SMILES IDX 18 28 19 29 20 30 21 31 22 32 23 33 24 35 25 36 26 37 78 38
REMARK SMILES IDX 27 39 77 40 28 41 29 42 30 43 71 44 31 45 76 46 70 47 72 48
REMARK SMILES IDX 32 49 75 50 69 51 68 52 33 54 59 55 42 56 58 57 43 58 46 59
REMARK SMILES IDX 57 60 73 61 44 62 45 63 56 65 74 66 47 67 34 68 35 69 40 70
REMARK SMILES IDX 36 71 37 72 39 73 41 74 38 75 60 76 61 77 66 78 62 79 63 80
REMARK SMILES IDX 65 81 67 82 64 83 48 84 49 85 54 86 50 87 51 88 53 89 55 90
REMARK SMILES IDX 52 91
REMARK H PARENT 15 6 8 13 83 26 83 27 22 34 72 53 46 64
REMARK Flexibility Score: inf
ROOT
ATOM      1  C   UNL A   1      35.817  31.981  28.023  1.00  0.00     0.021 C 
ENDROOT
BRANCH   1   2
ATOM      2  C   UNL A   1      34.938  30.737  28.015  1.00  0.00     0.116 C 
BRANCH   2   3
ATOM      3  N   UNL A   1      33.657  30.977  27.377  1.00  0.00    -0.356 N 
ATOM      4  C   UNL A   1      32.723  30.099  26.913  1.00  0.00     0.226 C 
ATOM      5  O   UNL A   1      31.670  30.565  26.469  1.00  0.00    -0.274 OA
ATOM      6  H   UNL A   1      33.426  31.927  27.260  1.00  0.00     0.163 HD
BRANCH   4   7
ATOM      7  C   UNL A   1      32.948  28.584  26.929  1.00  0.00     0.103 C 
ATOM      8  C   UNL A   1      32.065  26.623  25.721  1.00  0.00     0.093 C 
ATOM      9  C   UNL A   1      33.371  27.099  25.172  1.00  0.00    -0.011 C 
ATOM     10  C   UNL A   1      31.675  27.756  26.693  1.00  0.00     0.042 C 
ATOM     11  C   UNL A   1      33.879  28.134  25.848  1.00  0.00    -0.016 C 
BRANCH   8  12
ATOM     12  N   UNL A   1      32.243  25.377  26.480  1.00  0.00    -0.204 NA
ATOM     13  H   UNL A   1      33.216  25.091  26.371  1.00  0.00     0.142 HD
BRANCH  12  14
ATOM     14  S   UNL A   1      31.281  24.048  26.072  1.00  0.00     0.242 S 
ATOM     15  O   UNL A   1      30.575  24.359  24.851  1.00  0.00    -0.207 OA
ATOM     16  O   UNL A   1      30.602  23.640  27.281  1.00  0.00    -0.207 OA
BRANCH  14  17
ATOM     17  C   UNL A   1      32.305  22.716  25.682  1.00  0.00     0.100 A 
ATOM     18  C   UNL A   1      35.479  21.034  25.320  1.00  0.00     0.150 C 
ATOM     19  N   UNL A   1      34.084  21.409  25.424  1.00  0.00    -0.345 N 
ATOM     20  C   UNL A   1      33.681  22.701  25.672  1.00  0.00     0.107 A 
ATOM     21  C   UNL A   1      32.982  20.571  25.348  1.00  0.00     0.107 A 
ATOM     22  C   UNL A   1      31.871  21.407  25.371  1.00  0.00     0.055 A 
BRANCH  21  23
ATOM     23  C   UNL A   1      33.015  19.122  25.274  1.00  0.00     0.265 C 
ATOM     24  N   UNL A   1      32.804  18.472  26.457  1.00  0.00    -0.364 N 
ATOM     25  O   UNL A   1      33.256  18.469  24.266  1.00  0.00    -0.268 OA
ATOM     26  H   UNL A   1      32.610  18.986  27.274  1.00  0.00     0.160 HD
ATOM     27  H   UNL A   1      32.847  17.489  26.492  1.00  0.00     0.160 HD
ENDBRANCH  21  23
ENDBRANCH  14  17
ENDBRANCH  12  14
ENDBRANCH   8  12
ENDBRANCH   4   7
ENDBRANCH   2   3
ENDBRANCH   1   2
BRANCH   1  28
ATOM     28  C   UNL A   1      35.470  33.002  29.108  1.00  0.00     0.002 C 
BRANCH  28  29
ATOM     29  C   UNL A   1      35.528  34.471  28.676  1.00  0.00     0.002 C 
BRANCH  29  30
ATOM     30  C   UNL A   1      34.218  35.257  28.792  1.00  0.00     0.021 C 
BRANCH  30  31
ATOM     31  C   UNL A   1      33.090  34.554  29.543  1.00  0.00     0.116 C 
BRANCH  31  32
ATOM     32  N   UNL A   1      32.511  35.379  30.587  1.00  0.00    -0.352 N 
ATOM     33  C   UNL A   1      32.902  35.541  31.892  1.00  0.00     0.251 C 
ATOM     34  H   UNL A   1      31.720  35.901  30.319  1.00  0.00     0.163 HD
ATOM     35  O   UNL A   1      32.206  36.190  32.667  1.00  0.00    -0.269 OA
BRANCH  33  36
ATOM     36  C   UNL A   1      34.148  34.911  32.380  1.00  0.00     0.039 A 
ATOM     37  C   UNL A   1      34.070  33.641  32.961  1.00  0.00     0.014 A 
ATOM     38  C   UNL A   1      35.381  35.564  32.284  1.00  0.00     0.014 A 
ATOM     39  C   UNL A   1      35.234  32.997  33.384  1.00  0.00     0.010 A 
ATOM     40  C   UNL A   1      36.548  34.900  32.660  1.00  0.00     0.010 A 
ATOM     41  C   UNL A   1      36.485  33.609  33.206  1.00  0.00    -0.014 A 
BRANCH  41  42
ATOM     42  C   UNL A   1      37.740  32.900  33.564  1.00  0.00     0.031 A 
ATOM     43  C   UNL A   1      38.294  31.831  32.667  1.00  0.00     0.074 A 
ATOM     44  C   UNL A   1      38.343  33.178  34.735  1.00  0.00     0.049 A 
ATOM     45  N   UNL A   1      39.335  31.060  32.849  1.00  0.00    -0.248 NA
ATOM     46  C   UNL A   1      37.570  31.579  31.412  1.00  0.00     0.031 C 
ATOM     47  C   UNL A   1      37.877  34.161  35.715  1.00  0.00     0.029 A 
ATOM     48  N   UNL A   1      39.470  32.646  35.308  1.00  0.00    -0.354 N 
ATOM     49  C   UNL A   1      39.383  30.221  31.743  1.00  0.00     0.074 A 
ATOM     50  C   UNL A   1      38.246  30.554  30.912  1.00  0.00     0.031 C 
ATOM     51  C   UNL A   1      38.718  34.169  36.762  1.00  0.00     0.029 A 
ATOM     52  C   UNL A   1      39.762  33.174  36.542  1.00  0.00     0.049 A 
ATOM     53  H   UNL A   1      40.018  31.951  34.875  1.00  0.00     0.167 HD
ATOM     54  C   UNL A   1      40.300  29.272  31.442  1.00  0.00     0.037 A 
ATOM     55  C   UNL A   1      40.755  32.883  37.403  1.00  0.00     0.037 A 
ATOM     56  C   UNL A   1      41.449  28.962  32.253  1.00  0.00     0.049 A 
ATOM     57  C   UNL A   1      41.766  31.834  37.038  1.00  0.00     0.074 A 
ATOM     58  C   UNL A   1      42.475  28.071  31.990  1.00  0.00     0.029 A 
ATOM     59  N   UNL A   1      41.721  29.534  33.485  1.00  0.00    -0.354 N 
ATOM     60  N   UNL A   1      41.836  31.097  35.958  1.00  0.00    -0.248 NA
ATOM     61  C   UNL A   1      42.836  31.579  38.012  1.00  0.00     0.031 C 
ATOM     62  C   UNL A   1      43.352  28.079  33.079  1.00  0.00     0.029 A 
ATOM     63  C   UNL A   1      42.889  28.999  34.005  1.00  0.00     0.049 A 
ATOM     64  H   UNL A   1      41.168  30.219  33.926  1.00  0.00     0.167 HD
ATOM     65  C   UNL A   1      42.965  30.303  36.111  1.00  0.00     0.074 A 
ATOM     66  C   UNL A   1      43.558  30.660  37.385  1.00  0.00     0.031 C 
ATOM     67  C   UNL A   1      43.465  29.363  35.274  1.00  0.00     0.037 A 
BRANCH  54  68
ATOM     68  C   UNL A   1      40.102  28.498  30.173  1.00  0.00     0.057 A 
ATOM     69  C   UNL A   1      40.722  28.877  28.976  1.00  0.00     0.134 A 
ATOM     70  C   UNL A   1      39.314  27.340  30.158  1.00  0.00     0.134 A 
ATOM     71  F   UNL A   1      41.480  29.983  28.923  1.00  0.00    -0.206 F 
ATOM     72  C   UNL A   1      40.552  28.140  27.802  1.00  0.00     0.040 A 
ATOM     73  C   UNL A   1      39.154  26.584  28.995  1.00  0.00     0.040 A 
ATOM     74  F   UNL A   1      38.696  26.921  31.272  1.00  0.00    -0.206 F 
ATOM     75  C   UNL A   1      39.771  26.987  27.812  1.00  0.00     0.006 A 
ENDBRANCH  54  68
BRANCH  55  76
ATOM     76  C   UNL A   1      40.850  33.610  38.691  1.00  0.00     0.057 A 
ATOM     77  C   UNL A   1      40.043  33.255  39.778  1.00  0.00     0.134 A 
ATOM     78  C   UNL A   1      41.744  34.673  38.867  1.00  0.00     0.134 A 
ATOM     79  F   UNL A   1      39.155  32.257  39.662  1.00  0.00    -0.206 F 
ATOM     80  C   UNL A   1      40.114  33.939  40.992  1.00  0.00     0.040 A 
ATOM     81  C   UNL A   1      41.838  35.353  40.082  1.00  0.00     0.040 A 
ATOM     82  F   UNL A   1      42.546  35.054  37.863  1.00  0.00    -0.206 F 
ATOM     83  C   UNL A   1      41.016  34.989  41.147  1.00  0.00     0.006 A 
ENDBRANCH  55  76
BRANCH  67  84
ATOM     84  C   UNL A   1      44.720  28.668  35.702  1.00  0.00     0.057 A 
ATOM     85  C   UNL A   1      45.986  29.169  35.372  1.00  0.00     0.134 A 
ATOM     86  C   UNL A   1      44.664  27.502  36.475  1.00  0.00     0.134 A 
ATOM     87  F   UNL A   1      46.103  30.273  34.620  1.00  0.00    -0.206 F 
ATOM     88  C   UNL A   1      47.153  28.526  35.785  1.00  0.00     0.040 A 
ATOM     89  C   UNL A   1      45.824  26.861  36.911  1.00  0.00     0.040 A 
ATOM     90  F   UNL A   1      43.482  26.974  36.828  1.00  0.00    -0.206 F 
ATOM     91  C   UNL A   1      47.074  27.371  36.562  1.00  0.00     0.006 A 
ENDBRANCH  67  84
ENDBRANCH  41  42
ENDBRANCH  33  36
ENDBRANCH  31  32
ENDBRANCH  30  31
ENDBRANCH  29  30
ENDBRANCH  28  29
ENDBRANCH   1  28
TORSDOF 17
ENDMDL
