MODEL 1
REMARK VINA RESULT:     -10.4      0.000      0.000
REMARK SMILES CC(C)(O)CCOc1ccc(C(=O)NCCCCCCNC(=O)c2ccc(-c3c4nc(c(-c5c(F)cccc5F)c5ccc([nH]5)c(-c5c(F)cccc5F)c5nc(c(-c6c(F)cccc6F)c6ccc3[nH]6)C=C5)C=C4)cc2)cc1
REMARK SMILES IDX 16 1 15 2 14 3 12 4 13 5 11 7 8 8 9 9 79 10 10 11 78 12 7 13
REMARK SMILES IDX 6 14 5 15 2 16 1 17 3 18 4 19 17 21 18 22 19 23 20 24 21 25
REMARK SMILES IDX 22 26 23 28 24 29 25 30 77 31 26 32 76 33 27 34 28 35 29 36
REMARK SMILES IDX 70 37 30 38 75 39 69 40 71 41 31 42 74 43 68 44 67 45 32 47
REMARK SMILES IDX 58 48 41 49 57 50 42 51 45 52 56 53 72 54 43 55 44 56 55 58
REMARK SMILES IDX 73 59 46 60 33 61 34 62 39 63 35 64 36 65 38 66 40 67 37 68
REMARK SMILES IDX 59 69 60 70 65 71 61 72 62 73 64 74 66 75 63 76 47 77 48 78
REMARK SMILES IDX 53 79 49 80 50 81 52 82 54 83 51 84
REMARK H PARENT 14 6 4 20 21 27 71 46 45 57
REMARK Flexibility Score: inf
ROOT
ATOM      1  C   UNL A   1      34.205  24.054  25.602  1.00  0.00     0.021 C 
ENDROOT
BRANCH   1   2
ATOM      2  C   UNL A   1      33.507  23.475  26.835  1.00  0.00     0.116 C 
BRANCH   2   3
ATOM      3  N   UNL A   1      32.473  22.508  26.499  1.00  0.00    -0.352 N 
ATOM      4  C   UNL A   1      31.264  22.679  25.863  1.00  0.00     0.251 C 
ATOM      5  O   UNL A   1      30.471  21.743  25.805  1.00  0.00    -0.269 OA
ATOM      6  H   UNL A   1      32.670  21.582  26.769  1.00  0.00     0.163 HD
BRANCH   4   7
ATOM      7  C   UNL A   1      30.881  23.993  25.297  1.00  0.00     0.040 A 
ATOM      8  C   UNL A   1      29.783  26.277  24.120  1.00  0.00     0.119 A 
ATOM      9  C   UNL A   1      30.449  25.335  23.332  1.00  0.00     0.047 A 
ATOM     10  C   UNL A   1      29.876  26.182  25.506  1.00  0.00     0.047 A 
ATOM     11  C   UNL A   1      31.008  24.195  23.919  1.00  0.00     0.017 A 
ATOM     12  C   UNL A   1      30.397  25.027  26.098  1.00  0.00     0.017 A 
BRANCH   8  13
ATOM     13  O   UNL A   1      28.999  27.158  23.428  1.00  0.00    -0.493 OA
BRANCH  13  14
ATOM     14  C   UNL A   1      29.615  28.223  22.697  1.00  0.00     0.232 C 
BRANCH  14  15
ATOM     15  C   UNL A   1      29.257  29.661  23.143  1.00  0.00     0.076 C 
BRANCH  15  16
ATOM     16  C   UNL A   1      27.929  30.282  22.648  1.00  0.00     0.062 C 
ATOM     17  C   UNL A   1      28.028  30.780  21.202  1.00  0.00     0.042 C 
ATOM     18  C   UNL A   1      27.514  31.478  23.517  1.00  0.00     0.042 C 
BRANCH  16  19
ATOM     19  O   UNL A   1      26.877  29.330  22.792  1.00  0.00    -0.390 OA
ATOM     20  H   UNL A   1      26.910  28.943  23.681  1.00  0.00     0.211 HD
ENDBRANCH  16  19
ENDBRANCH  15  16
ENDBRANCH  14  15
ENDBRANCH  13  14
ENDBRANCH   8  13
ENDBRANCH   4   7
ENDBRANCH   2   3
ENDBRANCH   1   2
BRANCH   1  21
ATOM     21  C   UNL A   1      34.644  25.518  25.720  1.00  0.00     0.002 C 
BRANCH  21  22
ATOM     22  C   UNL A   1      33.593  26.561  25.325  1.00  0.00     0.002 C 
BRANCH  22  23
ATOM     23  C   UNL A   1      33.883  27.998  25.766  1.00  0.00     0.021 C 
BRANCH  23  24
ATOM     24  C   UNL A   1      33.591  28.302  27.234  1.00  0.00     0.116 C 
BRANCH  24  25
ATOM     25  N   UNL A   1      33.555  29.730  27.513  1.00  0.00    -0.352 N 
ATOM     26  C   UNL A   1      34.510  30.539  28.075  1.00  0.00     0.251 C 
ATOM     27  H   UNL A   1      32.718  30.184  27.261  1.00  0.00     0.163 HD
ATOM     28  O   UNL A   1      34.225  31.692  28.400  1.00  0.00    -0.269 OA
BRANCH  26  29
ATOM     29  C   UNL A   1      35.878  30.032  28.313  1.00  0.00     0.039 A 
ATOM     30  C   UNL A   1      36.811  30.087  27.275  1.00  0.00     0.014 A 
ATOM     31  C   UNL A   1      36.239  29.485  29.548  1.00  0.00     0.014 A 
ATOM     32  C   UNL A   1      38.122  29.656  27.494  1.00  0.00     0.010 A 
ATOM     33  C   UNL A   1      37.563  29.126  29.789  1.00  0.00     0.010 A 
ATOM     34  C   UNL A   1      38.519  29.206  28.764  1.00  0.00    -0.014 A 
BRANCH  34  35
ATOM     35  C   UNL A   1      39.928  28.822  29.040  1.00  0.00     0.031 A 
ATOM     36  C   UNL A   1      40.864  29.791  29.707  1.00  0.00     0.074 A 
ATOM     37  C   UNL A   1      40.381  27.620  28.633  1.00  0.00     0.049 A 
ATOM     38  N   UNL A   1      42.141  29.661  29.970  1.00  0.00    -0.248 NA
ATOM     39  C   UNL A   1      40.299  31.089  30.108  1.00  0.00     0.031 C 
ATOM     40  C   UNL A   1      39.585  26.607  27.938  1.00  0.00     0.029 A 
ATOM     41  N   UNL A   1      41.626  27.050  28.735  1.00  0.00    -0.354 N 
ATOM     42  C   UNL A   1      42.531  30.860  30.555  1.00  0.00     0.074 A 
ATOM     43  C   UNL A   1      41.371  31.726  30.556  1.00  0.00     0.031 C 
ATOM     44  C   UNL A   1      40.353  25.532  27.699  1.00  0.00     0.029 A 
ATOM     45  C   UNL A   1      41.704  25.794  28.183  1.00  0.00     0.049 A 
ATOM     46  H   UNL A   1      42.390  27.498  29.165  1.00  0.00     0.167 HD
ATOM     47  C   UNL A   1      43.739  31.199  31.066  1.00  0.00     0.037 A 
ATOM     48  C   UNL A   1      42.750  24.953  28.069  1.00  0.00     0.037 A 
ATOM     49  C   UNL A   1      44.886  30.330  31.078  1.00  0.00     0.049 A 
ATOM     50  C   UNL A   1      44.087  25.364  28.624  1.00  0.00     0.074 A 
ATOM     51  C   UNL A   1      46.138  30.562  31.621  1.00  0.00     0.029 A 
ATOM     52  N   UNL A   1      44.924  29.063  30.514  1.00  0.00    -0.354 N 
ATOM     53  N   UNL A   1      44.424  26.473  29.235  1.00  0.00    -0.248 NA
ATOM     54  C   UNL A   1      45.188  24.402  28.477  1.00  0.00     0.031 C 
ATOM     55  C   UNL A   1      46.950  29.459  31.336  1.00  0.00     0.029 A 
ATOM     56  C   UNL A   1      46.185  28.513  30.671  1.00  0.00     0.049 A 
ATOM     57  H   UNL A   1      44.166  28.620  30.068  1.00  0.00     0.167 HD
ATOM     58  C   UNL A   1      45.763  26.330  29.575  1.00  0.00     0.074 A 
ATOM     59  C   UNL A   1      46.173  25.021  29.113  1.00  0.00     0.031 C 
ATOM     60  C   UNL A   1      46.580  27.204  30.212  1.00  0.00     0.037 A 
BRANCH  47  61
ATOM     61  C   UNL A   1      43.881  32.574  31.655  1.00  0.00     0.057 A 
ATOM     62  C   UNL A   1      44.287  33.672  30.884  1.00  0.00     0.134 A 
ATOM     63  C   UNL A   1      43.569  32.814  33.000  1.00  0.00     0.134 A 
ATOM     64  F   UNL A   1      44.610  33.513  29.591  1.00  0.00    -0.206 F 
ATOM     65  C   UNL A   1      44.409  34.949  31.436  1.00  0.00     0.040 A 
ATOM     66  C   UNL A   1      43.657  34.091  33.556  1.00  0.00     0.040 A 
ATOM     67  F   UNL A   1      43.166  31.811  33.795  1.00  0.00    -0.206 F 
ATOM     68  C   UNL A   1      44.086  35.162  32.774  1.00  0.00     0.006 A 
ENDBRANCH  47  61
BRANCH  48  69
ATOM     69  C   UNL A   1      42.575  23.630  27.416  1.00  0.00     0.057 A 
ATOM     70  C   UNL A   1      42.261  22.490  28.165  1.00  0.00     0.134 A 
ATOM     71  C   UNL A   1      42.729  23.470  26.034  1.00  0.00     0.134 A 
ATOM     72  F   UNL A   1      42.118  22.575  29.496  1.00  0.00    -0.206 F 
ATOM     73  C   UNL A   1      42.130  21.235  27.568  1.00  0.00     0.040 A 
ATOM     74  C   UNL A   1      42.573  22.226  25.420  1.00  0.00     0.040 A 
ATOM     75  F   UNL A   1      43.023  24.523  25.257  1.00  0.00    -0.206 F 
ATOM     76  C   UNL A   1      42.281  21.101  26.190  1.00  0.00     0.006 A 
ENDBRANCH  48  69
BRANCH  60  77
ATOM     77  C   UNL A   1      47.988  26.759  30.485  1.00  0.00     0.057 A 
ATOM     78  C   UNL A   1      48.323  26.006  31.618  1.00  0.00     0.134 A 
ATOM     79  C   UNL A   1      49.016  27.058  29.581  1.00  0.00     0.134 A 
ATOM     80  F   UNL A   1      47.389  25.696  32.530  1.00  0.00    -0.206 F 
ATOM     81  C   UNL A   1      49.635  25.589  31.854  1.00  0.00     0.040 A 
ATOM     82  C   UNL A   1      50.323  26.620  29.790  1.00  0.00     0.040 A 
ATOM     83  F   UNL A   1      48.762  27.767  28.471  1.00  0.00    -0.206 F 
ATOM     84  C   UNL A   1      50.638  25.888  30.934  1.00  0.00     0.006 A 
ENDBRANCH  60  77
ENDBRANCH  34  35
ENDBRANCH  26  29
ENDBRANCH  24  25
ENDBRANCH  23  24
ENDBRANCH  22  23
ENDBRANCH  21  22
ENDBRANCH   1  21
TORSDOF 18
ENDMDL
MODEL 2
REMARK VINA RESULT:     -10.3      1.786      4.282
REMARK SMILES CC(C)(O)CCOc1ccc(C(=O)NCCCCCCNC(=O)c2ccc(-c3c4nc(c(-c5c(F)cccc5F)c5ccc([nH]5)c(-c5c(F)cccc5F)c5nc(c(-c6c(F)cccc6F)c6ccc3[nH]6)C=C5)C=C4)cc2)cc1
REMARK SMILES IDX 16 1 15 2 14 3 12 4 13 5 11 7 8 8 9 9 79 10 10 11 78 12 7 13
REMARK SMILES IDX 6 14 5 15 2 16 1 17 3 18 4 19 17 21 18 22 19 23 20 24 21 25
REMARK SMILES IDX 22 26 23 28 24 29 25 30 77 31 26 32 76 33 27 34 28 35 29 36
REMARK SMILES IDX 70 37 30 38 75 39 69 40 71 41 31 42 74 43 68 44 67 45 32 47
REMARK SMILES IDX 58 48 41 49 57 50 42 51 45 52 56 53 72 54 43 55 44 56 55 58
REMARK SMILES IDX 73 59 46 60 33 61 34 62 39 63 35 64 36 65 38 66 40 67 37 68
REMARK SMILES IDX 59 69 60 70 65 71 61 72 62 73 64 74 66 75 63 76 47 77 48 78
REMARK SMILES IDX 53 79 49 80 50 81 52 82 54 83 51 84
REMARK H PARENT 14 6 4 20 21 27 71 46 45 57
REMARK Flexibility Score: inf
ROOT
ATOM      1  C   UNL A   1      30.667  28.660  23.792  1.00  0.00     0.021 C 
ENDROOT
BRANCH   1   2
ATOM      2  C   UNL A   1      30.587  27.353  22.997  1.00  0.00     0.116 C 
BRANCH   2   3
ATOM      3  N   UNL A   1      31.669  27.208  22.036  1.00  0.00    -0.352 N 
ATOM      4  C   UNL A   1      32.753  26.358  22.034  1.00  0.00     0.251 C 
ATOM      5  O   UNL A   1      33.633  26.500  21.189  1.00  0.00    -0.269 OA
ATOM      6  H   UNL A   1      31.619  27.814  21.262  1.00  0.00     0.163 HD
BRANCH   4   7
ATOM      7  C   UNL A   1      32.901  25.312  23.072  1.00  0.00     0.040 A 
ATOM      8  C   UNL A   1      33.551  23.231  24.821  1.00  0.00     0.119 A 
ATOM      9  C   UNL A   1      32.855  22.962  23.639  1.00  0.00     0.047 A 
ATOM     10  C   UNL A   1      33.706  24.555  25.222  1.00  0.00     0.047 A 
ATOM     11  C   UNL A   1      32.521  24.001  22.765  1.00  0.00     0.017 A 
ATOM     12  C   UNL A   1      33.411  25.598  24.339  1.00  0.00     0.017 A 
BRANCH   8  13
ATOM     13  O   UNL A   1      34.113  22.140  25.422  1.00  0.00    -0.493 OA
BRANCH  13  14
ATOM     14  C   UNL A   1      34.654  21.091  24.613  1.00  0.00     0.232 C 
BRANCH  14  15
ATOM     15  C   UNL A   1      34.282  19.646  25.022  1.00  0.00     0.076 C 
BRANCH  15  16
ATOM     16  C   UNL A   1      32.820  19.176  24.834  1.00  0.00     0.062 C 
ATOM     17  C   UNL A   1      32.612  17.733  25.305  1.00  0.00     0.042 C 
ATOM     18  C   UNL A   1      32.398  19.242  23.359  1.00  0.00     0.042 C 
BRANCH  16  19
ATOM     19  O   UNL A   1      31.943  20.070  25.517  1.00  0.00    -0.390 OA
ATOM     20  H   UNL A   1      32.426  20.876  25.757  1.00  0.00     0.211 HD
ENDBRANCH  16  19
ENDBRANCH  15  16
ENDBRANCH  14  15
ENDBRANCH  13  14
ENDBRANCH   8  13
ENDBRANCH   4   7
ENDBRANCH   2   3
ENDBRANCH   1   2
BRANCH   1  21
ATOM     21  C   UNL A   1      31.835  28.759  24.780  1.00  0.00     0.002 C 
BRANCH  21  22
ATOM     22  C   UNL A   1      31.458  28.687  26.264  1.00  0.00     0.002 C 
BRANCH  22  23
ATOM     23  C   UNL A   1      32.483  28.011  27.179  1.00  0.00     0.021 C 
BRANCH  23  24
ATOM     24  C   UNL A   1      33.864  28.660  27.203  1.00  0.00     0.116 C 
BRANCH  24  25
ATOM     25  N   UNL A   1      33.833  30.020  27.720  1.00  0.00    -0.352 N 
ATOM     26  C   UNL A   1      34.789  30.718  28.415  1.00  0.00     0.251 C 
ATOM     27  H   UNL A   1      33.000  30.515  27.546  1.00  0.00     0.163 HD
ATOM     28  O   UNL A   1      34.509  31.801  28.928  1.00  0.00    -0.269 OA
BRANCH  26  29
ATOM     29  C   UNL A   1      36.154  30.170  28.568  1.00  0.00     0.039 A 
ATOM     30  C   UNL A   1      37.062  30.309  27.514  1.00  0.00     0.014 A 
ATOM     31  C   UNL A   1      36.537  29.506  29.736  1.00  0.00     0.014 A 
ATOM     32  C   UNL A   1      38.370  29.840  27.657  1.00  0.00     0.010 A 
ATOM     33  C   UNL A   1      37.861  29.107  29.907  1.00  0.00     0.010 A 
ATOM     34  C   UNL A   1      38.791  29.268  28.869  1.00  0.00    -0.014 A 
BRANCH  34  35
ATOM     35  C   UNL A   1      40.200  28.839  29.070  1.00  0.00     0.031 A 
ATOM     36  C   UNL A   1      41.205  29.784  29.668  1.00  0.00     0.074 A 
ATOM     37  C   UNL A   1      40.589  27.617  28.655  1.00  0.00     0.049 A 
ATOM     38  N   UNL A   1      42.489  29.614  29.860  1.00  0.00    -0.248 NA
ATOM     39  C   UNL A   1      40.708  31.105  30.082  1.00  0.00     0.031 C 
ATOM     40  C   UNL A   1      39.721  26.624  28.020  1.00  0.00     0.029 A 
ATOM     41  N   UNL A   1      41.818  27.006  28.695  1.00  0.00    -0.354 N 
ATOM     42  C   UNL A   1      42.952  30.805  30.406  1.00  0.00     0.074 A 
ATOM     43  C   UNL A   1      41.824  31.710  30.460  1.00  0.00     0.031 C 
ATOM     44  C   UNL A   1      40.437  25.520  27.754  1.00  0.00     0.029 A 
ATOM     45  C   UNL A   1      41.822  25.742  28.157  1.00  0.00     0.049 A 
ATOM     46  H   UNL A   1      42.620  27.434  29.074  1.00  0.00     0.167 HD
ATOM     47  C   UNL A   1      44.198  31.109  30.842  1.00  0.00     0.037 A 
ATOM     48  C   UNL A   1      42.831  24.864  27.996  1.00  0.00     0.037 A 
ATOM     49  C   UNL A   1      45.314  30.201  30.801  1.00  0.00     0.049 A 
ATOM     50  C   UNL A   1      44.210  25.235  28.468  1.00  0.00     0.074 A 
ATOM     51  C   UNL A   1      46.602  30.397  31.269  1.00  0.00     0.029 A 
ATOM     52  N   UNL A   1      45.278  28.927  30.254  1.00  0.00    -0.354 N 
ATOM     53  N   UNL A   1      44.618  26.340  29.043  1.00  0.00    -0.248 NA
ATOM     54  C   UNL A   1      45.268  24.234  28.273  1.00  0.00     0.031 C 
ATOM     55  C   UNL A   1      47.359  29.263  30.955  1.00  0.00     0.029 A 
ATOM     56  C   UNL A   1      46.527  28.336  30.348  1.00  0.00     0.049 A 
ATOM     57  H   UNL A   1      44.480  28.505  29.858  1.00  0.00     0.167 HD
ATOM     58  C   UNL A   1      45.969  26.155  29.308  1.00  0.00     0.074 A 
ATOM     59  C   UNL A   1      46.308  24.827  28.843  1.00  0.00     0.031 C 
ATOM     60  C   UNL A   1      46.850  27.009  29.886  1.00  0.00     0.037 A 
BRANCH  47  61
ATOM     61  C   UNL A   1      44.419  32.486  31.402  1.00  0.00     0.057 A 
ATOM     62  C   UNL A   1      44.255  32.767  32.766  1.00  0.00     0.134 A 
ATOM     63  C   UNL A   1      44.840  33.536  30.576  1.00  0.00     0.134 A 
ATOM     64  F   UNL A   1      43.845  31.810  33.612  1.00  0.00    -0.206 F 
ATOM     65  C   UNL A   1      44.470  34.047  33.280  1.00  0.00     0.040 A 
ATOM     66  C   UNL A   1      45.089  34.813  31.084  1.00  0.00     0.040 A 
ATOM     67  F   UNL A   1      45.026  33.337  29.262  1.00  0.00    -0.206 F 
ATOM     68  C   UNL A   1      44.897  35.072  32.438  1.00  0.00     0.006 A 
ENDBRANCH  47  61
BRANCH  48  69
ATOM     69  C   UNL A   1      42.574  23.540  27.373  1.00  0.00     0.057 A 
ATOM     70  C   UNL A   1      42.722  23.349  25.995  1.00  0.00     0.134 A 
ATOM     71  C   UNL A   1      42.162  22.440  28.135  1.00  0.00     0.134 A 
ATOM     72  F   UNL A   1      43.097  24.368  25.208  1.00  0.00    -0.206 F 
ATOM     73  C   UNL A   1      42.448  22.119  25.392  1.00  0.00     0.040 A 
ATOM     74  C   UNL A   1      41.911  21.198  27.550  1.00  0.00     0.040 A 
ATOM     75  F   UNL A   1      42.007  22.554  29.463  1.00  0.00    -0.206 F 
ATOM     76  C   UNL A   1      42.045  21.037  26.172  1.00  0.00     0.006 A 
ENDBRANCH  48  69
BRANCH  60  77
ATOM     77  C   UNL A   1      48.256  26.519  30.085  1.00  0.00     0.057 A 
ATOM     78  C   UNL A   1      49.260  26.735  29.134  1.00  0.00     0.134 A 
ATOM     79  C   UNL A   1      48.616  25.854  31.265  1.00  0.00     0.134 A 
ATOM     80  F   UNL A   1      48.979  27.354  27.977  1.00  0.00    -0.206 F 
ATOM     81  C   UNL A   1      50.567  26.285  29.336  1.00  0.00     0.040 A 
ATOM     82  C   UNL A   1      49.924  25.427  31.493  1.00  0.00     0.040 A 
ATOM     83  F   UNL A   1      47.705  25.623  32.222  1.00  0.00    -0.206 F 
ATOM     84  C   UNL A   1      50.903  25.636  30.523  1.00  0.00     0.006 A 
ENDBRANCH  60  77
ENDBRANCH  34  35
ENDBRANCH  26  29
ENDBRANCH  24  25
ENDBRANCH  23  24
ENDBRANCH  22  23
ENDBRANCH  21  22
ENDBRANCH   1  21
TORSDOF 18
ENDMDL
MODEL 3
REMARK VINA RESULT:     -10.3      3.126      6.867
REMARK SMILES CC(C)(O)CCOc1ccc(C(=O)NCCCCCCNC(=O)c2ccc(-c3c4nc(c(-c5c(F)cccc5F)c5ccc([nH]5)c(-c5c(F)cccc5F)c5nc(c(-c6c(F)cccc6F)c6ccc3[nH]6)C=C5)C=C4)cc2)cc1
REMARK SMILES IDX 16 1 15 2 14 3 12 4 13 5 11 7 8 8 9 9 79 10 10 11 78 12 7 13
REMARK SMILES IDX 6 14 5 15 2 16 1 17 3 18 4 19 17 21 18 22 19 23 20 24 21 25
REMARK SMILES IDX 22 26 23 28 24 29 25 30 77 31 26 32 76 33 27 34 28 35 29 36
REMARK SMILES IDX 70 37 30 38 75 39 69 40 71 41 31 42 74 43 68 44 67 45 32 47
REMARK SMILES IDX 58 48 41 49 57 50 42 51 45 52 56 53 72 54 43 55 44 56 55 58
REMARK SMILES IDX 73 59 46 60 33 61 34 62 39 63 35 64 36 65 38 66 40 67 37 68
REMARK SMILES IDX 59 69 60 70 65 71 61 72 62 73 64 74 66 75 63 76 47 77 48 78
REMARK SMILES IDX 53 79 49 80 50 81 52 82 54 83 51 84
REMARK H PARENT 14 6 4 20 21 27 71 46 45 57
REMARK Flexibility Score: inf
ROOT
ATOM      1  C   UNL A   1      34.191  25.483  25.604  1.00  0.00     0.021 C 
ENDROOT
BRANCH   1   2
ATOM      2  C   UNL A   1      33.423  24.249  26.083  1.00  0.00     0.116 C 
BRANCH   2   3
ATOM      3  N   UNL A   1      33.509  23.133  25.153  1.00  0.00    -0.352 N 
ATOM      4  C   UNL A   1      32.983  22.982  23.889  1.00  0.00     0.251 C 
ATOM      5  O   UNL A   1      33.057  21.893  23.328  1.00  0.00    -0.269 OA
ATOM      6  H   UNL A   1      34.026  22.362  25.480  1.00  0.00     0.163 HD
BRANCH   4   7
ATOM      7  C   UNL A   1      32.281  24.101  23.219  1.00  0.00     0.040 A 
ATOM      8  C   UNL A   1      31.092  26.454  22.294  1.00  0.00     0.119 A 
ATOM      9  C   UNL A   1      30.413  25.636  23.201  1.00  0.00     0.047 A 
ATOM     10  C   UNL A   1      32.247  25.971  21.687  1.00  0.00     0.047 A 
ATOM     11  C   UNL A   1      31.002  24.454  23.660  1.00  0.00     0.017 A 
ATOM     12  C   UNL A   1      32.862  24.811  22.168  1.00  0.00     0.017 A 
BRANCH   8  13
ATOM     13  O   UNL A   1      30.592  27.721  22.173  1.00  0.00    -0.493 OA
BRANCH  13  14
ATOM     14  C   UNL A   1      29.509  28.135  23.012  1.00  0.00     0.232 C 
BRANCH  14  15
ATOM     15  C   UNL A   1      29.313  29.660  23.180  1.00  0.00     0.076 C 
BRANCH  15  16
ATOM     16  C   UNL A   1      27.984  30.293  22.703  1.00  0.00     0.062 C 
ATOM     17  C   UNL A   1      28.028  30.682  21.222  1.00  0.00     0.042 C 
ATOM     18  C   UNL A   1      27.653  31.563  23.501  1.00  0.00     0.042 C 
BRANCH  16  19
ATOM     19  O   UNL A   1      26.909  29.393  22.966  1.00  0.00    -0.390 OA
ATOM     20  H   UNL A   1      26.805  29.286  23.924  1.00  0.00     0.211 HD
ENDBRANCH  16  19
ENDBRANCH  15  16
ENDBRANCH  14  15
ENDBRANCH  13  14
ENDBRANCH   8  13
ENDBRANCH   4   7
ENDBRANCH   2   3
ENDBRANCH   1   2
BRANCH   1  21
ATOM     21  C   UNL A   1      33.431  26.812  25.704  1.00  0.00     0.002 C 
BRANCH  21  22
ATOM     22  C   UNL A   1      33.652  27.792  24.548  1.00  0.00     0.002 C 
BRANCH  22  23
ATOM     23  C   UNL A   1      32.953  29.148  24.682  1.00  0.00     0.021 C 
BRANCH  23  24
ATOM     24  C   UNL A   1      32.361  29.443  26.058  1.00  0.00     0.116 C 
BRANCH  24  25
ATOM     25  N   UNL A   1      32.114  30.861  26.269  1.00  0.00    -0.352 N 
ATOM     26  C   UNL A   1      32.783  31.761  27.061  1.00  0.00     0.251 C 
ATOM     27  H   UNL A   1      31.352  31.233  25.768  1.00  0.00     0.163 HD
ATOM     28  O   UNL A   1      32.312  32.882  27.251  1.00  0.00    -0.269 OA
BRANCH  26  29
ATOM     29  C   UNL A   1      34.059  31.387  27.707  1.00  0.00     0.039 A 
ATOM     30  C   UNL A   1      34.988  32.388  28.001  1.00  0.00     0.014 A 
ATOM     31  C   UNL A   1      34.352  30.053  28.007  1.00  0.00     0.014 A 
ATOM     32  C   UNL A   1      36.180  32.062  28.654  1.00  0.00     0.010 A 
ATOM     33  C   UNL A   1      35.504  29.739  28.724  1.00  0.00     0.010 A 
ATOM     34  C   UNL A   1      36.431  30.739  29.054  1.00  0.00    -0.014 A 
BRANCH  34  35
ATOM     35  C   UNL A   1      37.654  30.386  29.822  1.00  0.00     0.031 A 
ATOM     36  C   UNL A   1      38.692  29.479  29.224  1.00  0.00     0.074 A 
ATOM     37  C   UNL A   1      37.798  30.835  31.085  1.00  0.00     0.049 A 
ATOM     38  N   UNL A   1      39.789  29.007  29.764  1.00  0.00    -0.248 NA
ATOM     39  C   UNL A   1      38.456  29.017  27.847  1.00  0.00     0.031 C 
ATOM     40  C   UNL A   1      36.842  31.687  31.794  1.00  0.00     0.029 A 
ATOM     41  N   UNL A   1      38.800  30.628  32.001  1.00  0.00    -0.354 N 
ATOM     42  C   UNL A   1      40.365  28.190  28.799  1.00  0.00     0.074 A 
ATOM     43  C   UNL A   1      39.468  28.182  27.663  1.00  0.00     0.031 C 
ATOM     44  C   UNL A   1      37.314  31.951  33.023  1.00  0.00     0.029 A 
ATOM     45  C   UNL A   1      38.583  31.252  33.205  1.00  0.00     0.049 A 
ATOM     46  H   UNL A   1      39.599  30.085  31.811  1.00  0.00     0.167 HD
ATOM     47  C   UNL A   1      41.544  27.524  28.846  1.00  0.00     0.037 A 
ATOM     48  C   UNL A   1      39.318  31.253  34.335  1.00  0.00     0.037 A 
ATOM     49  C   UNL A   1      42.440  27.546  29.972  1.00  0.00     0.049 A 
ATOM     50  C   UNL A   1      40.611  30.486  34.369  1.00  0.00     0.074 A 
ATOM     51  C   UNL A   1      43.683  26.949  30.096  1.00  0.00     0.029 A 
ATOM     52  N   UNL A   1      42.188  28.194  31.172  1.00  0.00    -0.354 N 
ATOM     53  N   UNL A   1      41.176  29.773  33.425  1.00  0.00    -0.248 NA
ATOM     54  C   UNL A   1      41.373  30.530  35.625  1.00  0.00     0.031 C 
ATOM     55  C   UNL A   1      44.157  27.188  31.390  1.00  0.00     0.029 A 
ATOM     56  C   UNL A   1      43.238  27.988  32.051  1.00  0.00     0.049 A 
ATOM     57  H   UNL A   1      41.381  28.723  31.370  1.00  0.00     0.167 HD
ATOM     58  C   UNL A   1      42.372  29.311  33.960  1.00  0.00     0.074 A 
ATOM     59  C   UNL A   1      42.457  29.836  35.307  1.00  0.00     0.031 C 
ATOM     60  C   UNL A   1      43.315  28.523  33.388  1.00  0.00     0.037 A 
BRANCH  47  61
ATOM     61  C   UNL A   1      41.930  26.712  27.643  1.00  0.00     0.057 A 
ATOM     62  C   UNL A   1      41.621  25.349  27.537  1.00  0.00     0.134 A 
ATOM     63  C   UNL A   1      42.585  27.308  26.557  1.00  0.00     0.134 A 
ATOM     64  F   UNL A   1      41.003  24.713  28.544  1.00  0.00    -0.206 F 
ATOM     65  C   UNL A   1      41.977  24.603  26.413  1.00  0.00     0.040 A 
ATOM     66  C   UNL A   1      42.918  26.580  25.413  1.00  0.00     0.040 A 
ATOM     67  F   UNL A   1      42.905  28.611  26.585  1.00  0.00    -0.206 F 
ATOM     68  C   UNL A   1      42.620  25.221  25.343  1.00  0.00     0.006 A 
ENDBRANCH  47  61
BRANCH  48  69
ATOM     69  C   UNL A   1      38.857  32.016  35.522  1.00  0.00     0.057 A 
ATOM     70  C   UNL A   1      38.153  31.389  36.557  1.00  0.00     0.134 A 
ATOM     71  C   UNL A   1      39.095  33.391  35.647  1.00  0.00     0.134 A 
ATOM     72  F   UNL A   1      37.878  30.078  36.489  1.00  0.00    -0.206 F 
ATOM     73  C   UNL A   1      37.683  32.103  37.661  1.00  0.00     0.040 A 
ATOM     74  C   UNL A   1      38.655  34.111  36.758  1.00  0.00     0.040 A 
ATOM     75  F   UNL A   1      39.770  34.051  34.694  1.00  0.00    -0.206 F 
ATOM     76  C   UNL A   1      37.938  33.468  37.766  1.00  0.00     0.006 A 
ENDBRANCH  48  69
BRANCH  60  77
ATOM     77  C   UNL A   1      44.540  28.213  34.199  1.00  0.00     0.057 A 
ATOM     78  C   UNL A   1      44.633  27.067  34.999  1.00  0.00     0.134 A 
ATOM     79  C   UNL A   1      45.658  29.057  34.148  1.00  0.00     0.134 A 
ATOM     80  F   UNL A   1      43.594  26.224  35.102  1.00  0.00    -0.206 F 
ATOM     81  C   UNL A   1      45.783  26.785  35.740  1.00  0.00     0.040 A 
ATOM     82  C   UNL A   1      46.823  28.770  34.859  1.00  0.00     0.040 A 
ATOM     83  F   UNL A   1      45.640  30.167  33.395  1.00  0.00    -0.206 F 
ATOM     84  C   UNL A   1      46.886  27.633  35.663  1.00  0.00     0.006 A 
ENDBRANCH  60  77
ENDBRANCH  34  35
ENDBRANCH  26  29
ENDBRANCH  24  25
ENDBRANCH  23  24
ENDBRANCH  22  23
ENDBRANCH  21  22
ENDBRANCH   1  21
TORSDOF 18
ENDMDL
