MODEL 1
REMARK VINA RESULT:     -12.3      0.000      0.000
REMARK SMILES CC(=O)Nc1cccc(-c2cc(F)ccc2C(=O)NCCCCCCNC(=O)c2ccc(-c3c4nc(c(-c5c(F)cccc5F)c5ccc([nH]5)c(-c5c(F)cccc5F)c5nc(c(-c6c(F)cccc6F)c6ccc3[nH]6)C=C5)C=C4)cc2)c1
REMARK SMILES IDX 22 1 21 2 20 3 19 4 17 5 18 6 16 8 10 9 11 10 12 11 15 12
REMARK SMILES IDX 13 13 14 14 9 15 5 16 6 17 83 18 7 19 8 20 4 21 1 22 2 23
REMARK SMILES IDX 3 24 23 26 24 27 25 28 26 29 27 30 28 32 29 33 30 34 82 35
REMARK SMILES IDX 31 36 81 37 32 38 33 39 34 40 75 41 35 42 80 43 74 44 76 45
REMARK SMILES IDX 36 46 79 47 73 48 72 49 37 51 63 52 46 53 62 54 47 55 50 56
REMARK SMILES IDX 61 57 77 58 48 59 49 60 60 62 78 63 51 64 38 65 39 66 44 67
REMARK SMILES IDX 40 68 41 69 43 70 45 71 42 72 64 73 65 74 70 75 66 76 67 77
REMARK SMILES IDX 69 78 71 79 68 80 52 81 53 82 58 83 54 84 55 85 57 86 59 87
REMARK SMILES IDX 56 88
REMARK H PARENT 19 7 4 25 26 31 76 50 50 61
REMARK Flexibility Score: inf
ROOT
ATOM      1  C   UNL A   1      40.007  21.587  26.535  1.00  0.00     0.002 C 
ENDROOT
BRANCH   1   2
ATOM      2  C   UNL A   1      38.728  22.320  26.110  1.00  0.00     0.021 C 
BRANCH   2   3
ATOM      3  C   UNL A   1      37.604  21.512  25.466  1.00  0.00     0.116 C 
BRANCH   3   4
ATOM      4  N   UNL A   1      37.163  21.941  24.165  1.00  0.00    -0.352 N 
ATOM      5  C   UNL A   1      36.047  22.632  23.758  1.00  0.00     0.251 C 
ATOM      6  O   UNL A   1      36.039  22.983  22.573  1.00  0.00    -0.269 OA
ATOM      7  H   UNL A   1      37.772  21.693  23.432  1.00  0.00     0.163 HD
BRANCH   5   8
ATOM      8  C   UNL A   1      34.815  22.940  24.571  1.00  0.00     0.047 A 
ATOM      9  C   UNL A   1      33.703  22.116  24.882  1.00  0.00    -0.003 A 
ATOM     10  C   UNL A   1      32.717  22.623  25.771  1.00  0.00     0.048 A 
ATOM     11  C   UNL A   1      32.817  23.884  26.341  1.00  0.00     0.123 A 
ATOM     12  C   UNL A   1      34.878  24.226  25.179  1.00  0.00     0.017 A 
ATOM     13  F   UNL A   1      31.868  24.307  27.185  1.00  0.00    -0.207 F 
ATOM     14  C   UNL A   1      33.894  24.695  26.052  1.00  0.00     0.040 A 
BRANCH   9  15
ATOM     15  C   UNL A   1      33.462  20.751  24.394  1.00  0.00    -0.015 A 
ATOM     16  C   UNL A   1      34.038  18.386  24.290  1.00  0.00     0.041 A 
ATOM     17  C   UNL A   1      33.038  18.199  23.324  1.00  0.00     0.026 A 
ATOM     18  C   UNL A   1      34.226  19.659  24.839  1.00  0.00     0.034 A 
ATOM     19  C   UNL A   1      32.233  19.258  22.913  1.00  0.00     0.003 A 
ATOM     20  C   UNL A   1      32.441  20.523  23.449  1.00  0.00     0.009 A 
BRANCH  16  21
ATOM     21  N   UNL A   1      34.880  17.289  24.531  1.00  0.00    -0.326 N 
ATOM     22  C   UNL A   1      33.313  15.571  25.432  1.00  0.00     0.114 C 
ATOM     23  C   UNL A   1      34.693  16.097  25.164  1.00  0.00     0.221 C 
ATOM     24  O   UNL A   1      35.689  15.433  25.463  1.00  0.00    -0.275 OA
ATOM     25  H   UNL A   1      35.788  17.403  24.170  1.00  0.00     0.169 HD
ENDBRANCH  16  21
ENDBRANCH   9  15
ENDBRANCH   5   8
ENDBRANCH   3   4
ENDBRANCH   2   3
ENDBRANCH   1   2
BRANCH   1  26
ATOM     26  C   UNL A   1      40.802  22.089  27.748  1.00  0.00     0.002 C 
BRANCH  26  27
ATOM     27  C   UNL A   1      42.329  22.101  27.676  1.00  0.00     0.021 C 
BRANCH  27  28
ATOM     28  C   UNL A   1      43.025  23.429  27.394  1.00  0.00     0.116 C 
BRANCH  28  29
ATOM     29  N   UNL A   1      42.513  24.111  26.221  1.00  0.00    -0.352 N 
ATOM     30  C   UNL A   1      41.809  25.283  26.085  1.00  0.00     0.251 C 
ATOM     31  H   UNL A   1      42.706  23.653  25.371  1.00  0.00     0.163 HD
ATOM     32  O   UNL A   1      41.405  25.600  24.967  1.00  0.00    -0.269 OA
BRANCH  30  33
ATOM     33  C   UNL A   1      41.497  26.174  27.236  1.00  0.00     0.039 A 
ATOM     34  C   UNL A   1      42.306  27.303  27.427  1.00  0.00     0.014 A 
ATOM     35  C   UNL A   1      40.502  25.888  28.174  1.00  0.00     0.014 A 
ATOM     36  C   UNL A   1      42.097  28.154  28.520  1.00  0.00     0.010 A 
ATOM     37  C   UNL A   1      40.255  26.771  29.236  1.00  0.00     0.010 A 
ATOM     38  C   UNL A   1      41.055  27.909  29.426  1.00  0.00    -0.014 A 
BRANCH  38  39
ATOM     39  C   UNL A   1      40.812  28.820  30.580  1.00  0.00     0.031 A 
ATOM     40  C   UNL A   1      39.718  29.855  30.523  1.00  0.00     0.074 A 
ATOM     41  C   UNL A   1      41.595  28.748  31.675  1.00  0.00     0.049 A 
ATOM     42  N   UNL A   1      39.397  30.770  31.405  1.00  0.00    -0.248 NA
ATOM     43  C   UNL A   1      38.887  29.875  29.309  1.00  0.00     0.031 C 
ATOM     44  C   UNL A   1      42.707  27.814  31.860  1.00  0.00     0.029 A 
ATOM     45  N   UNL A   1      41.579  29.480  32.837  1.00  0.00    -0.354 N 
ATOM     46  C   UNL A   1      38.344  31.485  30.847  1.00  0.00     0.074 A 
ATOM     47  C   UNL A   1      38.100  30.918  29.536  1.00  0.00     0.031 C 
ATOM     48  C   UNL A   1      43.259  28.023  33.067  1.00  0.00     0.029 A 
ATOM     49  C   UNL A   1      42.562  29.121  33.730  1.00  0.00     0.049 A 
ATOM     50  H   UNL A   1      40.927  30.195  33.014  1.00  0.00     0.167 HD
ATOM     51  C   UNL A   1      37.632  32.506  31.380  1.00  0.00     0.037 A 
ATOM     52  C   UNL A   1      42.870  29.621  34.941  1.00  0.00     0.037 A 
ATOM     53  C   UNL A   1      37.836  33.048  32.698  1.00  0.00     0.049 A 
ATOM     54  C   UNL A   1      42.060  30.752  35.514  1.00  0.00     0.074 A 
ATOM     55  C   UNL A   1      37.115  34.040  33.343  1.00  0.00     0.029 A 
ATOM     56  N   UNL A   1      38.827  32.642  33.576  1.00  0.00    -0.354 N 
ATOM     57  N   UNL A   1      41.034  31.379  34.992  1.00  0.00    -0.248 NA
ATOM     58  C   UNL A   1      42.448  31.240  36.845  1.00  0.00     0.031 C 
ATOM     59  C   UNL A   1      37.692  34.257  34.600  1.00  0.00     0.029 A 
ATOM     60  C   UNL A   1      38.749  33.376  34.748  1.00  0.00     0.049 A 
ATOM     61  H   UNL A   1      39.491  31.937  33.393  1.00  0.00     0.167 HD
ATOM     62  C   UNL A   1      40.639  32.314  35.940  1.00  0.00     0.074 A 
ATOM     63  C   UNL A   1      41.527  32.167  37.073  1.00  0.00     0.031 C 
ATOM     64  C   UNL A   1      39.629  33.215  35.875  1.00  0.00     0.037 A 
BRANCH  51  65
ATOM     65  C   UNL A   1      36.549  33.114  30.539  1.00  0.00     0.057 A 
ATOM     66  C   UNL A   1      36.838  33.999  29.493  1.00  0.00     0.134 A 
ATOM     67  C   UNL A   1      35.208  32.757  30.734  1.00  0.00     0.134 A 
ATOM     68  F   UNL A   1      38.101  34.386  29.260  1.00  0.00    -0.206 F 
ATOM     69  C   UNL A   1      35.831  34.521  28.681  1.00  0.00     0.040 A 
ATOM     70  C   UNL A   1      34.194  33.256  29.914  1.00  0.00     0.040 A 
ATOM     71  F   UNL A   1      34.865  31.907  31.713  1.00  0.00    -0.206 F 
ATOM     72  C   UNL A   1      34.505  34.143  28.885  1.00  0.00     0.006 A 
ENDBRANCH  51  65
BRANCH  52  73
ATOM     73  C   UNL A   1      44.002  29.052  35.716  1.00  0.00     0.057 A 
ATOM     74  C   UNL A   1      45.307  29.526  35.540  1.00  0.00     0.134 A 
ATOM     75  C   UNL A   1      43.809  28.006  36.625  1.00  0.00     0.134 A 
ATOM     76  F   UNL A   1      45.555  30.511  34.665  1.00  0.00    -0.206 F 
ATOM     77  C   UNL A   1      46.386  28.966  36.226  1.00  0.00     0.040 A 
ATOM     78  C   UNL A   1      44.876  27.451  37.334  1.00  0.00     0.040 A 
ATOM     79  F   UNL A   1      42.582  27.510  36.837  1.00  0.00    -0.206 F 
ATOM     80  C   UNL A   1      46.170  27.926  37.129  1.00  0.00     0.006 A 
ENDBRANCH  52  73
BRANCH  64  81
ATOM     81  C   UNL A   1      39.409  34.088  37.074  1.00  0.00     0.057 A 
ATOM     82  C   UNL A   1      38.724  33.626  38.205  1.00  0.00     0.134 A 
ATOM     83  C   UNL A   1      39.916  35.393  37.111  1.00  0.00     0.134 A 
ATOM     84  F   UNL A   1      38.202  32.390  38.226  1.00  0.00    -0.206 F 
ATOM     85  C   UNL A   1      38.536  34.439  39.324  1.00  0.00     0.040 A 
ATOM     86  C   UNL A   1      39.753  36.207  38.232  1.00  0.00     0.040 A 
ATOM     87  F   UNL A   1      40.588  35.891  36.062  1.00  0.00    -0.206 F 
ATOM     88  C   UNL A   1      39.056  35.732  39.342  1.00  0.00     0.006 A 
ENDBRANCH  64  81
ENDBRANCH  38  39
ENDBRANCH  30  33
ENDBRANCH  28  29
ENDBRANCH  27  28
ENDBRANCH  26  27
ENDBRANCH   1  26
TORSDOF 15
ENDMDL
MODEL 2
REMARK VINA RESULT:     -12.2      4.426      8.992
REMARK SMILES CC(=O)Nc1cccc(-c2cc(F)ccc2C(=O)NCCCCCCNC(=O)c2ccc(-c3c4nc(c(-c5c(F)cccc5F)c5ccc([nH]5)c(-c5c(F)cccc5F)c5nc(c(-c6c(F)cccc6F)c6ccc3[nH]6)C=C5)C=C4)cc2)c1
REMARK SMILES IDX 22 1 21 2 20 3 19 4 17 5 18 6 16 8 10 9 11 10 12 11 15 12
REMARK SMILES IDX 13 13 14 14 9 15 5 16 6 17 83 18 7 19 8 20 4 21 1 22 2 23
REMARK SMILES IDX 3 24 23 26 24 27 25 28 26 29 27 30 28 32 29 33 30 34 82 35
REMARK SMILES IDX 31 36 81 37 32 38 33 39 34 40 75 41 35 42 80 43 74 44 76 45
REMARK SMILES IDX 36 46 79 47 73 48 72 49 37 51 63 52 46 53 62 54 47 55 50 56
REMARK SMILES IDX 61 57 77 58 48 59 49 60 60 62 78 63 51 64 38 65 39 66 44 67
REMARK SMILES IDX 40 68 41 69 43 70 45 71 42 72 64 73 65 74 70 75 66 76 67 77
REMARK SMILES IDX 69 78 71 79 68 80 52 81 53 82 58 83 54 84 55 85 57 86 59 87
REMARK SMILES IDX 56 88
REMARK H PARENT 19 7 4 25 26 31 76 50 50 61
REMARK Flexibility Score: inf
ROOT
ATOM      1  C   UNL A   1      38.030  22.474  25.634  1.00  0.00     0.002 C 
ENDROOT
BRANCH   1   2
ATOM      2  C   UNL A   1      37.286  23.805  25.800  1.00  0.00     0.021 C 
BRANCH   2   3
ATOM      3  C   UNL A   1      35.760  23.796  25.770  1.00  0.00     0.116 C 
BRANCH   3   4
ATOM      4  N   UNL A   1      35.133  24.378  24.613  1.00  0.00    -0.352 N 
ATOM      5  C   UNL A   1      33.827  24.718  24.353  1.00  0.00     0.251 C 
ATOM      6  O   UNL A   1      33.638  25.349  23.306  1.00  0.00    -0.269 OA
ATOM      7  H   UNL A   1      35.753  24.566  23.871  1.00  0.00     0.163 HD
BRANCH   5   8
ATOM      8  C   UNL A   1      32.607  24.344  25.156  1.00  0.00     0.047 A 
ATOM      9  C   UNL A   1      31.565  25.164  25.659  1.00  0.00    -0.003 A 
ATOM     10  C   UNL A   1      30.460  24.535  26.296  1.00  0.00     0.048 A 
ATOM     11  C   UNL A   1      30.375  23.156  26.430  1.00  0.00     0.123 A 
ATOM     12  C   UNL A   1      32.477  22.935  25.314  1.00  0.00     0.017 A 
ATOM     13  F   UNL A   1      29.305  22.614  27.025  1.00  0.00    -0.207 F 
ATOM     14  C   UNL A   1      31.378  22.346  25.942  1.00  0.00     0.040 A 
BRANCH   9  15
ATOM     15  C   UNL A   1      31.484  26.629  25.571  1.00  0.00    -0.015 A 
ATOM     16  C   UNL A   1      31.030  28.673  24.325  1.00  0.00     0.041 A 
ATOM     17  C   UNL A   1      31.482  29.424  25.421  1.00  0.00     0.026 A 
ATOM     18  C   UNL A   1      31.010  27.277  24.418  1.00  0.00     0.034 A 
ATOM     19  C   UNL A   1      31.901  28.800  26.593  1.00  0.00     0.003 A 
ATOM     20  C   UNL A   1      31.897  27.412  26.667  1.00  0.00     0.009 A 
BRANCH  16  21
ATOM     21  N   UNL A   1      30.761  29.392  23.151  1.00  0.00    -0.326 N 
ATOM     22  C   UNL A   1      28.277  29.263  22.973  1.00  0.00     0.114 C 
ATOM     23  C   UNL A   1      29.634  29.566  22.406  1.00  0.00     0.221 C 
ATOM     24  O   UNL A   1      29.751  30.031  21.269  1.00  0.00    -0.275 OA
ATOM     25  H   UNL A   1      31.545  29.866  22.791  1.00  0.00     0.169 HD
ENDBRANCH  16  21
ENDBRANCH   9  15
ENDBRANCH   5   8
ENDBRANCH   3   4
ENDBRANCH   2   3
ENDBRANCH   1   2
BRANCH   1  26
ATOM     26  C   UNL A   1      37.457  21.396  24.704  1.00  0.00     0.002 C 
BRANCH  26  27
ATOM     27  C   UNL A   1      38.076  19.997  24.726  1.00  0.00     0.021 C 
BRANCH  27  28
ATOM     28  C   UNL A   1      38.786  19.546  25.999  1.00  0.00     0.116 C 
BRANCH  28  29
ATOM     29  N   UNL A   1      40.092  18.966  25.756  1.00  0.00    -0.352 N 
ATOM     30  C   UNL A   1      41.359  19.473  25.924  1.00  0.00     0.251 C 
ATOM     31  H   UNL A   1      40.068  18.044  25.412  1.00  0.00     0.163 HD
ATOM     32  O   UNL A   1      42.317  18.799  25.549  1.00  0.00    -0.269 OA
BRANCH  30  33
ATOM     33  C   UNL A   1      41.619  20.812  26.520  1.00  0.00     0.039 A 
ATOM     34  C   UNL A   1      42.052  21.836  25.666  1.00  0.00     0.014 A 
ATOM     35  C   UNL A   1      41.539  21.064  27.892  1.00  0.00     0.014 A 
ATOM     36  C   UNL A   1      42.362  23.104  26.172  1.00  0.00     0.010 A 
ATOM     37  C   UNL A   1      41.794  22.350  28.392  1.00  0.00     0.010 A 
ATOM     38  C   UNL A   1      42.217  23.382  27.540  1.00  0.00    -0.014 A 
BRANCH  38  39
ATOM     39  C   UNL A   1      42.525  24.735  28.084  1.00  0.00     0.031 A 
ATOM     40  C   UNL A   1      43.924  25.085  28.521  1.00  0.00     0.074 A 
ATOM     41  C   UNL A   1      41.543  25.647  28.222  1.00  0.00     0.049 A 
ATOM     42  N   UNL A   1      44.368  26.189  29.069  1.00  0.00    -0.248 NA
ATOM     43  C   UNL A   1      44.956  24.054  28.330  1.00  0.00     0.031 C 
ATOM     44  C   UNL A   1      40.138  25.441  27.866  1.00  0.00     0.029 A 
ATOM     45  N   UNL A   1      41.576  26.933  28.708  1.00  0.00    -0.354 N 
ATOM     46  C   UNL A   1      45.721  25.980  29.308  1.00  0.00     0.074 A 
ATOM     47  C   UNL A   1      46.019  24.631  28.873  1.00  0.00     0.031 C 
ATOM     48  C   UNL A   1      39.447  26.561  28.135  1.00  0.00     0.029 A 
ATOM     49  C   UNL A   1      40.350  27.555  28.708  1.00  0.00     0.049 A 
ATOM     50  H   UNL A   1      42.400  27.366  29.027  1.00  0.00     0.167 HD
ATOM     51  C   UNL A   1      46.636  26.835  29.824  1.00  0.00     0.037 A 
ATOM     52  C   UNL A   1      39.991  28.784  29.127  1.00  0.00     0.037 A 
ATOM     53  C   UNL A   1      46.361  28.192  30.218  1.00  0.00     0.049 A 
ATOM     54  C   UNL A   1      41.029  29.716  29.690  1.00  0.00     0.074 A 
ATOM     55  C   UNL A   1      47.246  29.148  30.689  1.00  0.00     0.029 A 
ATOM     56  N   UNL A   1      45.112  28.787  30.183  1.00  0.00    -0.354 N 
ATOM     57  N   UNL A   1      42.313  29.517  29.858  1.00  0.00    -0.248 NA
ATOM     58  C   UNL A   1      40.566  31.045  30.117  1.00  0.00     0.031 C 
ATOM     59  C   UNL A   1      46.524  30.314  30.970  1.00  0.00     0.029 A 
ATOM     60  C   UNL A   1      45.198  30.092  30.641  1.00  0.00     0.049 A 
ATOM     61  H   UNL A   1      44.284  28.349  29.879  1.00  0.00     0.167 HD
ATOM     62  C   UNL A   1      42.814  30.701  30.383  1.00  0.00     0.074 A 
ATOM     63  C   UNL A   1      41.700  31.618  30.497  1.00  0.00     0.031 C 
ATOM     64  C   UNL A   1      44.086  31.001  30.740  1.00  0.00     0.037 A 
BRANCH  51  65
ATOM     65  C   UNL A   1      48.040  26.333  29.992  1.00  0.00     0.057 A 
ATOM     66  C   UNL A   1      48.989  26.442  28.968  1.00  0.00     0.134 A 
ATOM     67  C   UNL A   1      48.466  25.796  31.215  1.00  0.00     0.134 A 
ATOM     68  F   UNL A   1      48.642  26.940  27.771  1.00  0.00    -0.206 F 
ATOM     69  C   UNL A   1      50.306  26.021  29.147  1.00  0.00     0.040 A 
ATOM     70  C   UNL A   1      49.787  25.392  31.413  1.00  0.00     0.040 A 
ATOM     71  F   UNL A   1      47.609  25.673  32.239  1.00  0.00    -0.206 F 
ATOM     72  C   UNL A   1      50.711  25.502  30.376  1.00  0.00     0.006 A 
ENDBRANCH  51  65
BRANCH  52  73
ATOM     73  C   UNL A   1      38.576  29.222  29.023  1.00  0.00     0.057 A 
ATOM     74  C   UNL A   1      37.722  29.169  30.130  1.00  0.00     0.134 A 
ATOM     75  C   UNL A   1      38.041  29.674  27.812  1.00  0.00     0.134 A 
ATOM     76  F   UNL A   1      38.174  28.721  31.310  1.00  0.00    -0.206 F 
ATOM     77  C   UNL A   1      36.378  29.532  30.033  1.00  0.00     0.040 A 
ATOM     78  C   UNL A   1      36.703  30.061  27.706  1.00  0.00     0.040 A 
ATOM     79  F   UNL A   1      38.810  29.748  26.716  1.00  0.00    -0.206 F 
ATOM     80  C   UNL A   1      35.866  29.983  28.817  1.00  0.00     0.006 A 
ENDBRANCH  52  73
BRANCH  64  81
ATOM     81  C   UNL A   1      44.349  32.384  31.254  1.00  0.00     0.057 A 
ATOM     82  C   UNL A   1      44.307  32.681  32.622  1.00  0.00     0.134 A 
ATOM     83  C   UNL A   1      44.681  33.422  30.375  1.00  0.00     0.134 A 
ATOM     84  F   UNL A   1      43.981  31.733  33.514  1.00  0.00    -0.206 F 
ATOM     85  C   UNL A   1      44.568  33.968  33.096  1.00  0.00     0.040 A 
ATOM     86  C   UNL A   1      44.965  34.708  30.839  1.00  0.00     0.040 A 
ATOM     87  F   UNL A   1      44.745  33.201  29.053  1.00  0.00    -0.206 F 
ATOM     88  C   UNL A   1      44.904  34.985  32.203  1.00  0.00     0.006 A 
ENDBRANCH  64  81
ENDBRANCH  38  39
ENDBRANCH  30  33
ENDBRANCH  28  29
ENDBRANCH  27  28
ENDBRANCH  26  27
ENDBRANCH   1  26
TORSDOF 15
ENDMDL
MODEL 3
REMARK VINA RESULT:     -12.2      4.319      8.721
REMARK SMILES CC(=O)Nc1cccc(-c2cc(F)ccc2C(=O)NCCCCCCNC(=O)c2ccc(-c3c4nc(c(-c5c(F)cccc5F)c5ccc([nH]5)c(-c5c(F)cccc5F)c5nc(c(-c6c(F)cccc6F)c6ccc3[nH]6)C=C5)C=C4)cc2)c1
REMARK SMILES IDX 22 1 21 2 20 3 19 4 17 5 18 6 16 8 10 9 11 10 12 11 15 12
REMARK SMILES IDX 13 13 14 14 9 15 5 16 6 17 83 18 7 19 8 20 4 21 1 22 2 23
REMARK SMILES IDX 3 24 23 26 24 27 25 28 26 29 27 30 28 32 29 33 30 34 82 35
REMARK SMILES IDX 31 36 81 37 32 38 33 39 34 40 75 41 35 42 80 43 74 44 76 45
REMARK SMILES IDX 36 46 79 47 73 48 72 49 37 51 63 52 46 53 62 54 47 55 50 56
REMARK SMILES IDX 61 57 77 58 48 59 49 60 60 62 78 63 51 64 38 65 39 66 44 67
REMARK SMILES IDX 40 68 41 69 43 70 45 71 42 72 64 73 65 74 70 75 66 76 67 77
REMARK SMILES IDX 69 78 71 79 68 80 52 81 53 82 58 83 54 84 55 85 57 86 59 87
REMARK SMILES IDX 56 88
REMARK H PARENT 19 7 4 25 26 31 76 50 50 61
REMARK Flexibility Score: inf
ROOT
ATOM      1  C   UNL A   1      32.923  23.605  25.421  1.00  0.00     0.002 C 
ENDROOT
BRANCH   1   2
ATOM      2  C   UNL A   1      31.751  23.140  24.548  1.00  0.00     0.021 C 
BRANCH   2   3
ATOM      3  C   UNL A   1      30.773  24.187  24.021  1.00  0.00     0.116 C 
BRANCH   3   4
ATOM      4  N   UNL A   1      31.037  24.715  22.708  1.00  0.00    -0.352 N 
ATOM      5  C   UNL A   1      31.696  25.847  22.291  1.00  0.00     0.251 C 
ATOM      6  O   UNL A   1      31.886  25.935  21.073  1.00  0.00    -0.269 OA
ATOM      7  H   UNL A   1      30.680  24.164  21.974  1.00  0.00     0.163 HD
BRANCH   5   8
ATOM      8  C   UNL A   1      32.138  27.012  23.139  1.00  0.00     0.047 A 
ATOM      9  C   UNL A   1      31.432  28.184  23.512  1.00  0.00    -0.003 A 
ATOM     10  C   UNL A   1      32.051  29.083  24.423  1.00  0.00     0.048 A 
ATOM     11  C   UNL A   1      33.309  28.842  24.956  1.00  0.00     0.123 A 
ATOM     12  C   UNL A   1      33.425  26.804  23.711  1.00  0.00     0.017 A 
ATOM     13  F   UNL A   1      33.840  29.714  25.822  1.00  0.00    -0.207 F 
ATOM     14  C   UNL A   1      34.006  27.705  24.607  1.00  0.00     0.040 A 
BRANCH   9  15
ATOM     15  C   UNL A   1      30.085  28.573  23.068  1.00  0.00    -0.015 A 
ATOM     16  C   UNL A   1      28.576  30.080  21.891  1.00  0.00     0.041 A 
ATOM     17  C   UNL A   1      27.486  29.339  22.370  1.00  0.00     0.026 A 
ATOM     18  C   UNL A   1      29.873  29.675  22.223  1.00  0.00     0.034 A 
ATOM     19  C   UNL A   1      27.679  28.210  23.161  1.00  0.00     0.003 A 
ATOM     20  C   UNL A   1      28.971  27.828  23.504  1.00  0.00     0.009 A 
BRANCH  16  21
ATOM     21  N   UNL A   1      28.267  31.272  21.219  1.00  0.00    -0.326 N 
ATOM     22  C   UNL A   1      28.740  33.019  22.934  1.00  0.00     0.114 C 
ATOM     23  C   UNL A   1      28.153  32.566  21.628  1.00  0.00     0.221 C 
ATOM     24  O   UNL A   1      27.603  33.372  20.873  1.00  0.00    -0.275 OA
ATOM     25  H   UNL A   1      28.097  31.149  20.257  1.00  0.00     0.169 HD
ENDBRANCH  16  21
ENDBRANCH   9  15
ENDBRANCH   5   8
ENDBRANCH   3   4
ENDBRANCH   2   3
ENDBRANCH   1   2
BRANCH   1  26
ATOM     26  C   UNL A   1      34.318  23.005  25.200  1.00  0.00     0.002 C 
BRANCH  26  27
ATOM     27  C   UNL A   1      35.530  23.710  25.811  1.00  0.00     0.021 C 
BRANCH  27  28
ATOM     28  C   UNL A   1      36.788  23.844  24.958  1.00  0.00     0.116 C 
BRANCH  28  29
ATOM     29  N   UNL A   1      37.800  22.852  25.262  1.00  0.00    -0.352 N 
ATOM     30  C   UNL A   1      38.969  22.936  25.980  1.00  0.00     0.251 C 
ATOM     31  H   UNL A   1      37.618  21.960  24.889  1.00  0.00     0.163 HD
ATOM     32  O   UNL A   1      39.712  21.956  26.011  1.00  0.00    -0.269 OA
BRANCH  30  33
ATOM     33  C   UNL A   1      39.384  24.169  26.704  1.00  0.00     0.039 A 
ATOM     34  C   UNL A   1      38.950  24.328  28.028  1.00  0.00     0.014 A 
ATOM     35  C   UNL A   1      40.102  25.204  26.099  1.00  0.00     0.014 A 
ATOM     36  C   UNL A   1      39.264  25.487  28.747  1.00  0.00     0.010 A 
ATOM     37  C   UNL A   1      40.465  26.340  26.837  1.00  0.00     0.010 A 
ATOM     38  C   UNL A   1      40.043  26.499  28.167  1.00  0.00    -0.014 A 
BRANCH  38  39
ATOM     39  C   UNL A   1      40.399  27.727  28.932  1.00  0.00     0.031 A 
ATOM     40  C   UNL A   1      41.736  27.844  29.617  1.00  0.00     0.074 A 
ATOM     41  C   UNL A   1      39.510  28.734  29.045  1.00  0.00     0.049 A 
ATOM     42  N   UNL A   1      42.198  28.810  30.372  1.00  0.00    -0.248 NA
ATOM     43  C   UNL A   1      42.671  26.721  29.443  1.00  0.00     0.031 C 
ATOM     44  C   UNL A   1      38.169  28.750  28.458  1.00  0.00     0.029 A 
ATOM     45  N   UNL A   1      39.598  29.937  29.703  1.00  0.00    -0.354 N 
ATOM     46  C   UNL A   1      43.464  28.404  30.780  1.00  0.00     0.074 A 
ATOM     47  C   UNL A   1      43.685  27.090  30.213  1.00  0.00     0.031 C 
ATOM     48  C   UNL A   1      37.566  29.909  28.772  1.00  0.00     0.029 A 
ATOM     49  C   UNL A   1      38.462  30.705  29.605  1.00  0.00     0.049 A 
ATOM     50  H   UNL A   1      40.399  30.223  30.198  1.00  0.00     0.167 HD
ATOM     51  C   UNL A   1      44.366  29.069  31.539  1.00  0.00     0.037 A 
ATOM     52  C   UNL A   1      38.171  31.911  30.130  1.00  0.00     0.037 A 
ATOM     53  C   UNL A   1      44.176  30.394  32.071  1.00  0.00     0.049 A 
ATOM     54  C   UNL A   1      39.194  32.631  30.965  1.00  0.00     0.074 A 
ATOM     55  C   UNL A   1      45.066  31.168  32.795  1.00  0.00     0.029 A 
ATOM     56  N   UNL A   1      43.019  31.142  31.931  1.00  0.00    -0.354 N 
ATOM     57  N   UNL A   1      40.405  32.253  31.294  1.00  0.00    -0.248 NA
ATOM     58  C   UNL A   1      38.811  33.947  31.496  1.00  0.00     0.031 C 
ATOM     59  C   UNL A   1      44.436  32.374  33.123  1.00  0.00     0.029 A 
ATOM     60  C   UNL A   1      43.167  32.362  32.572  1.00  0.00     0.049 A 
ATOM     61  H   UNL A   1      42.211  30.851  31.449  1.00  0.00     0.167 HD
ATOM     62  C   UNL A   1      40.935  33.293  32.046  1.00  0.00     0.074 A 
ATOM     63  C   UNL A   1      39.921  34.323  32.117  1.00  0.00     0.031 C 
ATOM     64  C   UNL A   1      42.156  33.385  32.627  1.00  0.00     0.037 A 
BRANCH  51  65
ATOM     65  C   UNL A   1      45.662  28.378  31.845  1.00  0.00     0.057 A 
ATOM     66  C   UNL A   1      46.789  28.531  31.028  1.00  0.00     0.134 A 
ATOM     67  C   UNL A   1      45.803  27.605  33.005  1.00  0.00     0.134 A 
ATOM     68  F   UNL A   1      46.717  29.253  29.900  1.00  0.00    -0.206 F 
ATOM     69  C   UNL A   1      48.007  27.928  31.345  1.00  0.00     0.040 A 
ATOM     70  C   UNL A   1      47.022  27.014  33.344  1.00  0.00     0.040 A 
ATOM     71  F   UNL A   1      44.764  27.426  33.835  1.00  0.00    -0.206 F 
ATOM     72  C   UNL A   1      48.127  27.173  32.511  1.00  0.00     0.006 A 
ENDBRANCH  51  65
BRANCH  52  73
ATOM     73  C   UNL A   1      36.847  32.533  29.877  1.00  0.00     0.057 A 
ATOM     74  C   UNL A   1      35.746  32.243  30.691  1.00  0.00     0.134 A 
ATOM     75  C   UNL A   1      36.646  33.407  28.802  1.00  0.00     0.134 A 
ATOM     76  F   UNL A   1      35.873  31.393  31.720  1.00  0.00    -0.206 F 
ATOM     77  C   UNL A   1      34.485  32.783  30.434  1.00  0.00     0.040 A 
ATOM     78  C   UNL A   1      35.396  33.972  28.547  1.00  0.00     0.040 A 
ATOM     79  F   UNL A   1      37.663  33.725  27.988  1.00  0.00    -0.206 F 
ATOM     80  C   UNL A   1      34.309  33.654  29.359  1.00  0.00     0.006 A 
ENDBRANCH  52  73
BRANCH  64  81
ATOM     81  C   UNL A   1      42.475  34.654  33.360  1.00  0.00     0.057 A 
ATOM     82  C   UNL A   1      43.047  35.755  32.710  1.00  0.00     0.134 A 
ATOM     83  C   UNL A   1      42.176  34.786  34.721  1.00  0.00     0.134 A 
ATOM     84  F   UNL A   1      43.369  35.686  31.410  1.00  0.00    -0.206 F 
ATOM     85  C   UNL A   1      43.326  36.939  33.395  1.00  0.00     0.040 A 
ATOM     86  C   UNL A   1      42.432  35.972  35.411  1.00  0.00     0.040 A 
ATOM     87  F   UNL A   1      41.621  33.770  35.399  1.00  0.00    -0.206 F 
ATOM     88  C   UNL A   1      43.014  37.051  34.749  1.00  0.00     0.006 A 
ENDBRANCH  64  81
ENDBRANCH  38  39
ENDBRANCH  30  33
ENDBRANCH  28  29
ENDBRANCH  27  28
ENDBRANCH  26  27
ENDBRANCH   1  26
TORSDOF 15
ENDMDL
