MODEL 1
REMARK VINA RESULT:     -11.6      0.000      0.000
REMARK SMILES Cc1nc(C)c(C(=O)N2CCC([C@H](C)C(=O)NCCCCCCNC(=O)c3ccc(-c4c5nc(c(-c6c(F)cccc6F)c6ccc([nH]6)c(-c6c(F)cccc6F)c6nc(c(-c7c(F)cccc7F)c7ccc4[nH]7)C=C6)C=C5)cc3)CC2)s1
REMARK SMILES IDX 20 1 19 2 18 3 17 4 15 5 16 6 13 8 14 9 12 10 7 11 8 12 9 13
REMARK SMILES IDX 10 14 82 15 11 16 81 17 6 18 1 19 2 20 3 21 83 22 4 23 5 24
REMARK SMILES IDX 21 25 22 26 23 27 24 28 25 29 26 31 27 32 28 33 80 34 29 35
REMARK SMILES IDX 79 36 30 37 31 38 32 39 73 40 33 41 78 42 72 43 74 44 34 45
REMARK SMILES IDX 77 46 71 47 70 48 35 50 61 51 44 52 60 53 45 54 48 55 59 56
REMARK SMILES IDX 75 57 46 58 47 59 58 61 76 62 49 63 36 64 37 65 42 66 38 67
REMARK SMILES IDX 39 68 41 69 43 70 40 71 62 72 63 73 68 74 64 75 65 76 67 77
REMARK SMILES IDX 69 78 66 79 50 80 51 81 56 82 52 83 53 84 55 85 57 86 54 87
REMARK H PARENT 17 7 24 30 74 49 48 60
REMARK Flexibility Score: inf
ROOT
ATOM      1  C   UNL A   1      32.107  30.373  26.564  1.00  0.00     0.002 C 
ENDROOT
BRANCH   1   2
ATOM      2  C   UNL A   1      31.542  29.997  25.195  1.00  0.00     0.021 C 
BRANCH   2   3
ATOM      3  C   UNL A   1      32.521  29.267  24.292  1.00  0.00     0.116 C 
BRANCH   3   4
ATOM      4  N   UNL A   1      31.926  28.846  23.046  1.00  0.00    -0.356 N 
ATOM      5  C   UNL A   1      30.924  27.956  22.827  1.00  0.00     0.223 C 
ATOM      6  O   UNL A   1      30.505  27.840  21.672  1.00  0.00    -0.275 OA
ATOM      7  H   UNL A   1      32.302  29.264  22.239  1.00  0.00     0.163 HD
BRANCH   5   8
ATOM      8  C   UNL A   1      30.311  27.124  23.960  1.00  0.00     0.078 C 
ATOM      9  C   UNL A   1      28.779  27.118  23.869  1.00  0.00     0.018 C 
BRANCH   8  10
ATOM     10  C   UNL A   1      31.013  25.760  24.279  1.00  0.00     0.005 C 
ATOM     11  C   UNL A   1      34.158  23.202  23.241  1.00  0.00     0.265 C 
ATOM     12  O   UNL A   1      34.148  23.195  22.008  1.00  0.00    -0.268 OA
ATOM     13  N   UNL A   1      33.069  23.738  23.930  1.00  0.00    -0.338 N 
ATOM     14  C   UNL A   1      31.730  23.447  23.462  1.00  0.00     0.120 C 
ATOM     15  C   UNL A   1      33.164  24.600  25.102  1.00  0.00     0.120 C 
ATOM     16  C   UNL A   1      30.957  24.715  23.146  1.00  0.00     0.026 C 
ATOM     17  C   UNL A   1      32.440  25.923  24.856  1.00  0.00     0.026 C 
BRANCH  11  18
ATOM     18  C   UNL A   1      35.217  22.563  24.013  1.00  0.00     0.115 A 
ATOM     19  C   UNL A   1      38.575  22.131  25.930  1.00  0.00     0.079 C 
ATOM     20  C   UNL A   1      37.230  22.086  25.299  1.00  0.00     0.091 A 
ATOM     21  N   UNL A   1      36.346  21.133  25.490  1.00  0.00    -0.246 NA
ATOM     22  S   UNL A   1      36.725  23.353  24.276  1.00  0.00    -0.113 S 
ATOM     23  C   UNL A   1      35.175  21.409  24.788  1.00  0.00     0.061 A 
ATOM     24  C   UNL A   1      34.043  20.463  24.989  1.00  0.00     0.068 C 
ENDBRANCH  11  18
ENDBRANCH   8  10
ENDBRANCH   5   8
ENDBRANCH   3   4
ENDBRANCH   2   3
ENDBRANCH   1   2
BRANCH   1  25
ATOM     25  C   UNL A   1      32.428  29.191  27.485  1.00  0.00     0.002 C 
BRANCH  25  26
ATOM     26  C   UNL A   1      33.828  28.592  27.323  1.00  0.00     0.021 C 
BRANCH  26  27
ATOM     27  C   UNL A   1      34.969  29.593  27.450  1.00  0.00     0.116 C 
BRANCH  27  28
ATOM     28  N   UNL A   1      34.997  30.238  28.753  1.00  0.00    -0.352 N 
ATOM     29  C   UNL A   1      36.005  30.270  29.681  1.00  0.00     0.251 C 
ATOM     30  H   UNL A   1      34.176  30.721  29.004  1.00  0.00     0.163 HD
ATOM     31  O   UNL A   1      35.799  30.713  30.808  1.00  0.00    -0.269 OA
BRANCH  29  32
ATOM     32  C   UNL A   1      37.339  29.747  29.326  1.00  0.00     0.039 A 
ATOM     33  C   UNL A   1      37.788  29.880  28.011  1.00  0.00     0.014 A 
ATOM     34  C   UNL A   1      38.146  29.139  30.292  1.00  0.00     0.014 A 
ATOM     35  C   UNL A   1      39.074  29.453  27.677  1.00  0.00     0.010 A 
ATOM     36  C   UNL A   1      39.454  28.786  29.975  1.00  0.00     0.010 A 
ATOM     37  C   UNL A   1      39.929  28.936  28.663  1.00  0.00    -0.014 A 
BRANCH  37  38
ATOM     38  C   UNL A   1      41.325  28.549  28.343  1.00  0.00     0.031 A 
ATOM     39  C   UNL A   1      41.650  27.126  27.985  1.00  0.00     0.074 A 
ATOM     40  C   UNL A   1      42.308  29.464  28.440  1.00  0.00     0.049 A 
ATOM     41  N   UNL A   1      42.815  26.579  27.743  1.00  0.00    -0.248 NA
ATOM     42  C   UNL A   1      40.521  26.185  27.916  1.00  0.00     0.031 C 
ATOM     43  C   UNL A   1      42.126  30.865  28.826  1.00  0.00     0.029 A 
ATOM     44  N   UNL A   1      43.661  29.350  28.237  1.00  0.00    -0.354 N 
ATOM     45  C   UNL A   1      42.559  25.234  27.509  1.00  0.00     0.074 A 
ATOM     46  C   UNL A   1      41.138  25.035  27.691  1.00  0.00     0.031 C 
ATOM     47  C   UNL A   1      43.316  31.483  28.811  1.00  0.00     0.029 A 
ATOM     48  C   UNL A   1      44.352  30.516  28.459  1.00  0.00     0.049 A 
ATOM     49  H   UNL A   1      44.095  28.511  27.957  1.00  0.00     0.167 HD
ATOM     50  C   UNL A   1      43.429  24.258  27.153  1.00  0.00     0.037 A 
ATOM     51  C   UNL A   1      45.672  30.775  28.401  1.00  0.00     0.037 A 
ATOM     52  C   UNL A   1      44.839  24.466  26.956  1.00  0.00     0.049 A 
ATOM     53  C   UNL A   1      46.618  29.669  28.020  1.00  0.00     0.074 A 
ATOM     54  C   UNL A   1      45.793  23.557  26.534  1.00  0.00     0.029 A 
ATOM     55  N   UNL A   1      45.499  25.665  27.177  1.00  0.00    -0.354 N 
ATOM     56  N   UNL A   1      46.354  28.419  27.727  1.00  0.00    -0.248 NA
ATOM     57  C   UNL A   1      48.045  30.012  27.956  1.00  0.00     0.031 C 
ATOM     58  C   UNL A   1      47.039  24.190  26.556  1.00  0.00     0.029 A 
ATOM     59  C   UNL A   1      46.854  25.511  26.931  1.00  0.00     0.049 A 
ATOM     60  H   UNL A   1      45.069  26.502  27.467  1.00  0.00     0.167 HD
ATOM     61  C   UNL A   1      47.575  27.834  27.415  1.00  0.00     0.074 A 
ATOM     62  C   UNL A   1      48.578  28.870  27.542  1.00  0.00     0.031 C 
ATOM     63  C   UNL A   1      47.841  26.554  27.056  1.00  0.00     0.037 A 
BRANCH  50  64
ATOM     64  C   UNL A   1      42.876  22.874  26.958  1.00  0.00     0.057 A 
ATOM     65  C   UNL A   1      42.692  22.321  25.683  1.00  0.00     0.134 A 
ATOM     66  C   UNL A   1      42.555  22.072  28.060  1.00  0.00     0.134 A 
ATOM     67  F   UNL A   1      42.970  23.038  24.583  1.00  0.00    -0.206 F 
ATOM     68  C   UNL A   1      42.180  21.033  25.512  1.00  0.00     0.040 A 
ATOM     69  C   UNL A   1      42.072  20.772  27.903  1.00  0.00     0.040 A 
ATOM     70  F   UNL A   1      42.714  22.534  29.310  1.00  0.00    -0.206 F 
ATOM     71  C   UNL A   1      41.876  20.252  26.624  1.00  0.00     0.006 A 
ENDBRANCH  50  64
BRANCH  51  72
ATOM     72  C   UNL A   1      46.176  32.138  28.701  1.00  0.00     0.057 A 
ATOM     73  C   UNL A   1      46.317  33.098  27.691  1.00  0.00     0.134 A 
ATOM     74  C   UNL A   1      46.534  32.516  30.001  1.00  0.00     0.134 A 
ATOM     75  F   UNL A   1      46.008  32.791  26.423  1.00  0.00    -0.206 F 
ATOM     76  C   UNL A   1      46.816  34.374  27.958  1.00  0.00     0.040 A 
ATOM     77  C   UNL A   1      47.006  33.798  30.288  1.00  0.00     0.040 A 
ATOM     78  F   UNL A   1      46.415  31.647  31.016  1.00  0.00    -0.206 F 
ATOM     79  C   UNL A   1      47.157  34.728  29.262  1.00  0.00     0.006 A 
ENDBRANCH  51  72
BRANCH  63  80
ATOM     80  C   UNL A   1      49.267  26.210  26.735  1.00  0.00     0.057 A 
ATOM     81  C   UNL A   1      50.118  25.618  27.677  1.00  0.00     0.134 A 
ATOM     82  C   UNL A   1      49.780  26.431  25.450  1.00  0.00     0.134 A 
ATOM     83  F   UNL A   1      49.694  25.390  28.929  1.00  0.00    -0.206 F 
ATOM     84  C   UNL A   1      51.435  25.279  27.359  1.00  0.00     0.040 A 
ATOM     85  C   UNL A   1      51.084  26.069  25.112  1.00  0.00     0.040 A 
ATOM     86  F   UNL A   1      49.015  26.986  24.498  1.00  0.00    -0.206 F 
ATOM     87  C   UNL A   1      51.918  25.497  26.069  1.00  0.00     0.006 A 
ENDBRANCH  63  80
ENDBRANCH  37  38
ENDBRANCH  29  32
ENDBRANCH  27  28
ENDBRANCH  26  27
ENDBRANCH  25  26
ENDBRANCH   1  25
TORSDOF 15
ENDMDL
MODEL 2
REMARK VINA RESULT:     -11.5      5.784      9.367
REMARK SMILES Cc1nc(C)c(C(=O)N2CCC([C@H](C)C(=O)NCCCCCCNC(=O)c3ccc(-c4c5nc(c(-c6c(F)cccc6F)c6ccc([nH]6)c(-c6c(F)cccc6F)c6nc(c(-c7c(F)cccc7F)c7ccc4[nH]7)C=C6)C=C5)cc3)CC2)s1
REMARK SMILES IDX 20 1 19 2 18 3 17 4 15 5 16 6 13 8 14 9 12 10 7 11 8 12 9 13
REMARK SMILES IDX 10 14 82 15 11 16 81 17 6 18 1 19 2 20 3 21 83 22 4 23 5 24
REMARK SMILES IDX 21 25 22 26 23 27 24 28 25 29 26 31 27 32 28 33 80 34 29 35
REMARK SMILES IDX 79 36 30 37 31 38 32 39 73 40 33 41 78 42 72 43 74 44 34 45
REMARK SMILES IDX 77 46 71 47 70 48 35 50 61 51 44 52 60 53 45 54 48 55 59 56
REMARK SMILES IDX 75 57 46 58 47 59 58 61 76 62 49 63 36 64 37 65 42 66 38 67
REMARK SMILES IDX 39 68 41 69 43 70 40 71 62 72 63 73 68 74 64 75 65 76 67 77
REMARK SMILES IDX 69 78 66 79 50 80 51 81 56 82 52 83 53 84 55 85 57 86 54 87
REMARK H PARENT 17 7 24 30 74 49 48 60
REMARK Flexibility Score: inf
ROOT
ATOM      1  C   UNL A   1      34.742  32.706  28.594  1.00  0.00     0.002 C 
ENDROOT
BRANCH   1   2
ATOM      2  C   UNL A   1      35.658  31.636  28.000  1.00  0.00     0.021 C 
BRANCH   2   3
ATOM      3  C   UNL A   1      34.940  30.373  27.557  1.00  0.00     0.116 C 
BRANCH   3   4
ATOM      4  N   UNL A   1      33.870  30.635  26.624  1.00  0.00    -0.356 N 
ATOM      5  C   UNL A   1      32.773  29.888  26.337  1.00  0.00     0.223 C 
ATOM      6  O   UNL A   1      31.932  30.374  25.577  1.00  0.00    -0.275 OA
ATOM      7  H   UNL A   1      33.947  31.479  26.124  1.00  0.00     0.163 HD
BRANCH   5   8
ATOM      8  C   UNL A   1      32.561  28.491  26.934  1.00  0.00     0.078 C 
ATOM      9  C   UNL A   1      31.423  28.502  27.963  1.00  0.00     0.018 C 
BRANCH   8  10
ATOM     10  C   UNL A   1      32.603  27.291  25.928  1.00  0.00     0.005 C 
ATOM     11  C   UNL A   1      34.399  23.612  25.060  1.00  0.00     0.265 C 
ATOM     12  O   UNL A   1      35.598  23.804  25.271  1.00  0.00    -0.268 OA
ATOM     13  N   UNL A   1      33.534  24.705  24.988  1.00  0.00    -0.338 N 
ATOM     14  C   UNL A   1      33.963  25.892  24.277  1.00  0.00     0.120 C 
ATOM     15  C   UNL A   1      32.209  24.764  25.591  1.00  0.00     0.120 C 
ATOM     16  C   UNL A   1      33.934  27.121  25.167  1.00  0.00     0.026 C 
ATOM     17  C   UNL A   1      32.104  25.960  26.539  1.00  0.00     0.026 C 
BRANCH  11  18
ATOM     18  C   UNL A   1      33.864  22.288  24.769  1.00  0.00     0.115 A 
ATOM     19  C   UNL A   1      32.580  18.663  25.365  1.00  0.00     0.079 C 
ATOM     20  C   UNL A   1      32.974  20.025  24.918  1.00  0.00     0.091 A 
ATOM     21  N   UNL A   1      32.700  20.532  23.737  1.00  0.00    -0.246 NA
ATOM     22  S   UNL A   1      33.808  21.064  25.981  1.00  0.00    -0.113 S 
ATOM     23  C   UNL A   1      33.173  21.839  23.648  1.00  0.00     0.061 A 
ATOM     24  C   UNL A   1      32.847  22.579  22.397  1.00  0.00     0.068 C 
ENDBRANCH  11  18
ENDBRANCH   8  10
ENDBRANCH   5   8
ENDBRANCH   3   4
ENDBRANCH   2   3
ENDBRANCH   1   2
BRANCH   1  25
ATOM     25  C   UNL A   1      35.309  34.129  28.585  1.00  0.00     0.002 C 
BRANCH  25  26
ATOM     26  C   UNL A   1      34.316  35.235  28.951  1.00  0.00     0.021 C 
BRANCH  26  27
ATOM     27  C   UNL A   1      32.993  34.742  29.524  1.00  0.00     0.116 C 
BRANCH  27  28
ATOM     28  N   UNL A   1      32.475  35.624  30.557  1.00  0.00    -0.352 N 
ATOM     29  C   UNL A   1      32.845  35.727  31.872  1.00  0.00     0.251 C 
ATOM     30  H   UNL A   1      31.756  36.233  30.271  1.00  0.00     0.163 HD
ATOM     31  O   UNL A   1      32.181  36.404  32.654  1.00  0.00    -0.269 OA
BRANCH  29  32
ATOM     32  C   UNL A   1      34.037  35.002  32.353  1.00  0.00     0.039 A 
ATOM     33  C   UNL A   1      33.878  33.725  32.895  1.00  0.00     0.014 A 
ATOM     34  C   UNL A   1      35.308  35.576  32.256  1.00  0.00     0.014 A 
ATOM     35  C   UNL A   1      35.002  33.000  33.290  1.00  0.00     0.010 A 
ATOM     36  C   UNL A   1      36.432  34.822  32.576  1.00  0.00     0.010 A 
ATOM     37  C   UNL A   1      36.289  33.528  33.100  1.00  0.00    -0.014 A 
BRANCH  37  38
ATOM     38  C   UNL A   1      37.500  32.740  33.442  1.00  0.00     0.031 A 
ATOM     39  C   UNL A   1      38.260  33.034  34.706  1.00  0.00     0.074 A 
ATOM     40  C   UNL A   1      37.951  31.807  32.582  1.00  0.00     0.049 A 
ATOM     41  N   UNL A   1      39.376  32.506  35.141  1.00  0.00    -0.248 NA
ATOM     42  C   UNL A   1      37.709  34.079  35.583  1.00  0.00     0.031 C 
ATOM     43  C   UNL A   1      37.329  31.464  31.302  1.00  0.00     0.029 A 
ATOM     44  N   UNL A   1      39.049  30.985  32.648  1.00  0.00    -0.354 N 
ATOM     45  C   UNL A   1      39.665  33.163  36.331  1.00  0.00     0.074 A 
ATOM     46  C   UNL A   1      38.639  34.165  36.521  1.00  0.00     0.031 C 
ATOM     47  C   UNL A   1      38.041  30.491  30.714  1.00  0.00     0.029 A 
ATOM     48  C   UNL A   1      39.193  30.171  31.552  1.00  0.00     0.049 A 
ATOM     49  H   UNL A   1      39.672  30.979  33.410  1.00  0.00     0.167 HD
ATOM     50  C   UNL A   1      40.682  32.936  37.196  1.00  0.00     0.037 A 
ATOM     51  C   UNL A   1      40.153  29.278  31.247  1.00  0.00     0.037 A 
ATOM     52  C   UNL A   1      41.689  31.925  37.010  1.00  0.00     0.049 A 
ATOM     53  C   UNL A   1      41.282  29.056  32.217  1.00  0.00     0.074 A 
ATOM     54  C   UNL A   1      42.724  31.573  37.859  1.00  0.00     0.029 A 
ATOM     55  N   UNL A   1      41.794  31.110  35.892  1.00  0.00    -0.354 N 
ATOM     56  N   UNL A   1      41.501  29.630  33.375  1.00  0.00    -0.248 NA
ATOM     57  C   UNL A   1      42.292  28.058  31.841  1.00  0.00     0.031 C 
ATOM     58  C   UNL A   1      43.489  30.587  37.229  1.00  0.00     0.029 A 
ATOM     59  C   UNL A   1      42.895  30.278  36.016  1.00  0.00     0.049 A 
ATOM     60  H   UNL A   1      41.177  31.121  35.125  1.00  0.00     0.167 HD
ATOM     61  C   UNL A   1      42.656  29.044  33.879  1.00  0.00     0.074 A 
ATOM     62  C   UNL A   1      43.082  28.059  32.906  1.00  0.00     0.031 C 
ATOM     63  C   UNL A   1      43.304  29.298  35.042  1.00  0.00     0.037 A 
BRANCH  50  64
ATOM     64  C   UNL A   1      40.756  33.801  38.422  1.00  0.00     0.057 A 
ATOM     65  C   UNL A   1      41.554  34.953  38.471  1.00  0.00     0.134 A 
ATOM     66  C   UNL A   1      39.994  33.499  39.558  1.00  0.00     0.134 A 
ATOM     67  F   UNL A   1      42.317  35.297  37.421  1.00  0.00    -0.206 F 
ATOM     68  C   UNL A   1      41.615  35.753  39.613  1.00  0.00     0.040 A 
ATOM     69  C   UNL A   1      40.023  34.307  40.694  1.00  0.00     0.040 A 
ATOM     70  F   UNL A   1      39.202  32.416  39.578  1.00  0.00    -0.206 F 
ATOM     71  C   UNL A   1      40.842  35.434  40.727  1.00  0.00     0.006 A 
ENDBRANCH  50  64
BRANCH  51  72
ATOM     72  C   UNL A   1      40.086  28.519  29.973  1.00  0.00     0.057 A 
ATOM     73  C   UNL A   1      39.354  27.329  29.875  1.00  0.00     0.134 A 
ATOM     74  C   UNL A   1      40.752  28.959  28.822  1.00  0.00     0.134 A 
ATOM     75  F   UNL A   1      38.709  26.845  30.947  1.00  0.00    -0.206 F 
ATOM     76  C   UNL A   1      39.306  26.593  28.690  1.00  0.00     0.040 A 
ATOM     77  C   UNL A   1      40.689  28.250  27.622  1.00  0.00     0.040 A 
ATOM     78  F   UNL A   1      41.464  30.096  28.846  1.00  0.00    -0.206 F 
ATOM     79  C   UNL A   1      39.971  27.058  27.557  1.00  0.00     0.006 A 
ENDBRANCH  51  72
BRANCH  63  80
ATOM     80  C   UNL A   1      44.520  28.472  35.348  1.00  0.00     0.057 A 
ATOM     81  C   UNL A   1      44.437  27.252  36.031  1.00  0.00     0.134 A 
ATOM     82  C   UNL A   1      45.787  28.883  34.911  1.00  0.00     0.134 A 
ATOM     83  F   UNL A   1      43.257  26.807  36.488  1.00  0.00    -0.206 F 
ATOM     84  C   UNL A   1      45.572  26.481  36.288  1.00  0.00     0.040 A 
ATOM     85  C   UNL A   1      46.924  28.106  35.134  1.00  0.00     0.040 A 
ATOM     86  F   UNL A   1      45.935  30.036  34.243  1.00  0.00    -0.206 F 
ATOM     87  C   UNL A   1      46.819  26.904  35.830  1.00  0.00     0.006 A 
ENDBRANCH  63  80
ENDBRANCH  37  38
ENDBRANCH  29  32
ENDBRANCH  27  28
ENDBRANCH  26  27
ENDBRANCH  25  26
ENDBRANCH   1  25
TORSDOF 15
ENDMDL
MODEL 3
REMARK VINA RESULT:     -11.5      1.133      2.076
REMARK SMILES Cc1nc(C)c(C(=O)N2CCC([C@H](C)C(=O)NCCCCCCNC(=O)c3ccc(-c4c5nc(c(-c6c(F)cccc6F)c6ccc([nH]6)c(-c6c(F)cccc6F)c6nc(c(-c7c(F)cccc7F)c7ccc4[nH]7)C=C6)C=C5)cc3)CC2)s1
REMARK SMILES IDX 20 1 19 2 18 3 17 4 15 5 16 6 13 8 14 9 12 10 7 11 8 12 9 13
REMARK SMILES IDX 10 14 82 15 11 16 81 17 6 18 1 19 2 20 3 21 83 22 4 23 5 24
REMARK SMILES IDX 21 25 22 26 23 27 24 28 25 29 26 31 27 32 28 33 80 34 29 35
REMARK SMILES IDX 79 36 30 37 31 38 32 39 73 40 33 41 78 42 72 43 74 44 34 45
REMARK SMILES IDX 77 46 71 47 70 48 35 50 61 51 44 52 60 53 45 54 48 55 59 56
REMARK SMILES IDX 75 57 46 58 47 59 58 61 76 62 49 63 36 64 37 65 42 66 38 67
REMARK SMILES IDX 39 68 41 69 43 70 40 71 62 72 63 73 68 74 64 75 65 76 67 77
REMARK SMILES IDX 69 78 66 79 50 80 51 81 56 82 52 83 53 84 55 85 57 86 54 87
REMARK H PARENT 17 7 24 30 74 49 48 60
REMARK Flexibility Score: inf
ROOT
ATOM      1  C   UNL A   1      32.492  30.326  26.757  1.00  0.00     0.002 C 
ENDROOT
BRANCH   1   2
ATOM      2  C   UNL A   1      31.642  30.094  25.508  1.00  0.00     0.021 C 
BRANCH   2   3
ATOM      3  C   UNL A   1      32.381  29.427  24.362  1.00  0.00     0.116 C 
BRANCH   3   4
ATOM      4  N   UNL A   1      31.535  29.178  23.219  1.00  0.00    -0.356 N 
ATOM      5  C   UNL A   1      30.580  28.228  23.044  1.00  0.00     0.223 C 
ATOM      6  O   UNL A   1      29.903  28.281  22.013  1.00  0.00    -0.275 OA
ATOM      7  H   UNL A   1      31.669  29.785  22.457  1.00  0.00     0.163 HD
BRANCH   5   8
ATOM      8  C   UNL A   1      30.328  27.126  24.080  1.00  0.00     0.078 C 
ATOM      9  C   UNL A   1      28.947  26.489  23.878  1.00  0.00     0.018 C 
BRANCH   8  10
ATOM     10  C   UNL A   1      31.525  26.158  24.372  1.00  0.00     0.005 C 
ATOM     11  C   UNL A   1      32.664  22.583  26.225  1.00  0.00     0.265 C 
ATOM     12  O   UNL A   1      32.095  22.614  27.317  1.00  0.00    -0.268 OA
ATOM     13  N   UNL A   1      32.726  23.744  25.453  1.00  0.00    -0.338 N 
ATOM     14  C   UNL A   1      33.008  25.005  26.105  1.00  0.00     0.120 C 
ATOM     15  C   UNL A   1      32.511  23.803  24.012  1.00  0.00     0.120 C 
ATOM     16  C   UNL A   1      31.910  26.024  25.860  1.00  0.00     0.026 C 
ATOM     17  C   UNL A   1      31.388  24.784  23.676  1.00  0.00     0.026 C 
BRANCH  11  18
ATOM     18  C   UNL A   1      33.379  21.403  25.754  1.00  0.00     0.115 A 
ATOM     19  C   UNL A   1      34.008  17.960  24.052  1.00  0.00     0.079 C 
ATOM     20  C   UNL A   1      34.008  19.296  24.704  1.00  0.00     0.091 A 
ATOM     21  N   UNL A   1      35.087  19.990  24.987  1.00  0.00    -0.246 NA
ATOM     22  S   UNL A   1      32.532  20.051  25.103  1.00  0.00    -0.113 S 
ATOM     23  C   UNL A   1      34.743  21.213  25.557  1.00  0.00     0.061 A 
ATOM     24  C   UNL A   1      35.864  22.152  25.841  1.00  0.00     0.068 C 
ENDBRANCH  11  18
ENDBRANCH   8  10
ENDBRANCH   5   8
ENDBRANCH   3   4
ENDBRANCH   2   3
ENDBRANCH   1   2
BRANCH   1  25
ATOM     25  C   UNL A   1      33.140  29.070  27.349  1.00  0.00     0.002 C 
BRANCH  25  26
ATOM     26  C   UNL A   1      34.658  28.972  27.180  1.00  0.00     0.021 C 
BRANCH  26  27
ATOM     27  C   UNL A   1      35.441  30.154  27.738  1.00  0.00     0.116 C 
BRANCH  27  28
ATOM     28  N   UNL A   1      35.329  30.260  29.184  1.00  0.00    -0.352 N 
ATOM     29  C   UNL A   1      36.275  30.014  30.144  1.00  0.00     0.251 C 
ATOM     30  H   UNL A   1      34.450  30.549  29.520  1.00  0.00     0.163 HD
ATOM     31  O   UNL A   1      35.961  29.982  31.332  1.00  0.00    -0.269 OA
BRANCH  29  32
ATOM     32  C   UNL A   1      37.673  29.765  29.743  1.00  0.00     0.039 A 
ATOM     33  C   UNL A   1      38.577  29.298  30.700  1.00  0.00     0.014 A 
ATOM     34  C   UNL A   1      38.086  29.980  28.425  1.00  0.00     0.014 A 
ATOM     35  C   UNL A   1      39.884  28.993  30.320  1.00  0.00     0.010 A 
ATOM     36  C   UNL A   1      39.366  29.601  28.032  1.00  0.00     0.010 A 
ATOM     37  C   UNL A   1      40.278  29.108  28.977  1.00  0.00    -0.014 A 
BRANCH  37  38
ATOM     38  C   UNL A   1      41.641  28.714  28.540  1.00  0.00     0.031 A 
ATOM     39  C   UNL A   1      41.929  27.290  28.156  1.00  0.00     0.074 A 
ATOM     40  C   UNL A   1      42.632  29.625  28.553  1.00  0.00     0.049 A 
ATOM     41  N   UNL A   1      43.067  26.738  27.817  1.00  0.00    -0.248 NA
ATOM     42  C   UNL A   1      40.794  26.353  28.184  1.00  0.00     0.031 C 
ATOM     43  C   UNL A   1      42.489  31.027  28.952  1.00  0.00     0.029 A 
ATOM     44  N   UNL A   1      43.963  29.506  28.236  1.00  0.00    -0.354 N 
ATOM     45  C   UNL A   1      42.786  25.394  27.606  1.00  0.00     0.074 A 
ATOM     46  C   UNL A   1      41.385  25.202  27.908  1.00  0.00     0.031 C 
ATOM     47  C   UNL A   1      43.676  31.641  28.836  1.00  0.00     0.029 A 
ATOM     48  C   UNL A   1      44.674  30.669  28.398  1.00  0.00     0.049 A 
ATOM     49  H   UNL A   1      44.367  28.666  27.921  1.00  0.00     0.167 HD
ATOM     50  C   UNL A   1      43.618  24.415  27.178  1.00  0.00     0.037 A 
ATOM     51  C   UNL A   1      45.985  30.922  28.229  1.00  0.00     0.037 A 
ATOM     52  C   UNL A   1      45.008  24.617  26.862  1.00  0.00     0.049 A 
ATOM     53  C   UNL A   1      46.892  29.813  27.770  1.00  0.00     0.074 A 
ATOM     54  C   UNL A   1      45.920  23.704  26.361  1.00  0.00     0.029 A 
ATOM     55  N   UNL A   1      45.690  25.814  27.027  1.00  0.00    -0.354 N 
ATOM     56  N   UNL A   1      46.599  28.564  27.500  1.00  0.00    -0.248 NA
ATOM     57  C   UNL A   1      48.310  30.150  27.585  1.00  0.00     0.031 C 
ATOM     58  C   UNL A   1      47.166  24.332  26.278  1.00  0.00     0.029 A 
ATOM     59  C   UNL A   1      47.018  25.654  26.666  1.00  0.00     0.049 A 
ATOM     60  H   UNL A   1      45.289  26.653  27.351  1.00  0.00     0.167 HD
ATOM     61  C   UNL A   1      47.787  27.974  27.087  1.00  0.00     0.074 A 
ATOM     62  C   UNL A   1      48.801  29.006  27.128  1.00  0.00     0.031 C 
ATOM     63  C   UNL A   1      48.016  26.693  26.707  1.00  0.00     0.037 A 
BRANCH  50  64
ATOM     64  C   UNL A   1      43.046  23.033  27.032  1.00  0.00     0.057 A 
ATOM     65  C   UNL A   1      42.792  22.213  28.140  1.00  0.00     0.134 A 
ATOM     66  C   UNL A   1      42.713  22.528  25.768  1.00  0.00     0.134 A 
ATOM     67  F   UNL A   1      43.096  22.631  29.379  1.00  0.00    -0.206 F 
ATOM     68  C   UNL A   1      42.258  20.932  27.995  1.00  0.00     0.040 A 
ATOM     69  C   UNL A   1      42.150  21.261  25.613  1.00  0.00     0.040 A 
ATOM     70  F   UNL A   1      42.923  23.261  24.664  1.00  0.00    -0.206 F 
ATOM     71  C   UNL A   1      41.928  20.455  26.728  1.00  0.00     0.006 A 
ENDBRANCH  50  64
BRANCH  51  72
ATOM     72  C   UNL A   1      46.519  32.284  28.484  1.00  0.00     0.057 A 
ATOM     73  C   UNL A   1      46.969  32.660  29.756  1.00  0.00     0.134 A 
ATOM     74  C   UNL A   1      46.589  33.245  27.468  1.00  0.00     0.134 A 
ATOM     75  F   UNL A   1      46.912  31.790  30.775  1.00  0.00    -0.206 F 
ATOM     76  C   UNL A   1      47.448  33.946  30.013  1.00  0.00     0.040 A 
ATOM     77  C   UNL A   1      47.093  34.525  27.703  1.00  0.00     0.040 A 
ATOM     78  F   UNL A   1      46.181  32.946  26.225  1.00  0.00    -0.206 F 
ATOM     79  C   UNL A   1      47.516  34.880  28.982  1.00  0.00     0.006 A 
ENDBRANCH  51  72
BRANCH  63  80
ATOM     80  C   UNL A   1      49.409  26.343  26.267  1.00  0.00     0.057 A 
ATOM     81  C   UNL A   1      50.302  25.661  27.102  1.00  0.00     0.134 A 
ATOM     82  C   UNL A   1      49.843  26.651  24.971  1.00  0.00     0.134 A 
ATOM     83  F   UNL A   1      49.954  25.347  28.359  1.00  0.00    -0.206 F 
ATOM     84  C   UNL A   1      51.586  25.319  26.673  1.00  0.00     0.040 A 
ATOM     85  C   UNL A   1      51.112  26.287  24.520  1.00  0.00     0.040 A 
ATOM     86  F   UNL A   1      49.033  27.294  24.116  1.00  0.00    -0.206 F 
ATOM     87  C   UNL A   1      51.990  25.624  25.374  1.00  0.00     0.006 A 
ENDBRANCH  63  80
ENDBRANCH  37  38
ENDBRANCH  29  32
ENDBRANCH  27  28
ENDBRANCH  26  27
ENDBRANCH  25  26
ENDBRANCH   1  25
TORSDOF 15
ENDMDL
