MODEL 1
REMARK VINA RESULT:      -9.7      0.000      0.000
REMARK SMILES C[C@]1(C(=O)N2CCC(CC(=O)NCCCCCCNC(=O)c3ccc(-c4c5nc(c(-c6c(F)cccc6F)c6ccc([nH]6)c(-c6c(F)cccc6F)c6nc(c(-c7c(F)cccc7F)c7ccc4[nH]7)C=C6)C=C5)cc3)CC2)CCC[NH2+]1
REMARK SMILES IDX 15 1 14 2 13 3 12 4 10 5 11 6 9 8 8 9 3 10 4 11 5 12 6 13
REMARK SMILES IDX 77 14 7 15 76 16 2 17 1 18 78 19 81 20 79 21 80 22 16 25
REMARK SMILES IDX 17 26 18 27 19 28 20 29 21 31 22 32 23 33 75 34 24 35 74 36
REMARK SMILES IDX 25 37 26 38 27 39 68 40 28 41 73 42 67 43 69 44 29 45 72 46
REMARK SMILES IDX 66 47 65 48 30 50 56 51 39 52 55 53 40 54 43 55 54 56 70 57
REMARK SMILES IDX 41 58 42 59 53 61 71 62 44 63 31 64 32 65 37 66 33 67 34 68
REMARK SMILES IDX 36 69 38 70 35 71 57 72 58 73 63 74 59 75 60 76 62 77 64 78
REMARK SMILES IDX 61 79 45 80 46 81 51 82 47 83 48 84 50 85 52 86 49 87
REMARK H PARENT 12 7 81 23 81 24 19 30 69 49 43 60
REMARK Flexibility Score: inf
ROOT
ATOM      1  C   UNL A   1      35.181  34.616  34.127  1.00  0.00     0.002 C 
ENDROOT
BRANCH   1   2
ATOM      2  C   UNL A   1      36.072  33.375  34.078  1.00  0.00     0.021 C 
BRANCH   2   3
ATOM      3  C   UNL A   1      37.384  33.492  34.865  1.00  0.00     0.116 C 
BRANCH   3   4
ATOM      4  N   UNL A   1      37.614  32.305  35.676  1.00  0.00    -0.356 N 
ATOM      5  C   UNL A   1      38.352  31.184  35.427  1.00  0.00     0.220 C 
ATOM      6  O   UNL A   1      38.304  30.262  36.243  1.00  0.00    -0.275 OA
ATOM      7  H   UNL A   1      37.162  32.312  36.552  1.00  0.00     0.163 HD
BRANCH   5   8
ATOM      8  C   UNL A   1      39.209  31.070  34.177  1.00  0.00     0.103 C 
BRANCH   8   9
ATOM      9  C   UNL A   1      40.572  30.393  34.418  1.00  0.00     0.002 C 
ATOM     10  C   UNL A   1      41.849  27.208  36.590  1.00  0.00     0.283 C 
ATOM     11  O   UNL A   1      40.814  27.081  37.246  1.00  0.00    -0.268 OA
ATOM     12  N   UNL A   1      42.030  28.266  35.726  1.00  0.00    -0.337 N 
ATOM     13  C   UNL A   1      42.159  29.597  36.255  1.00  0.00     0.120 C 
ATOM     14  C   UNL A   1      41.800  28.145  34.301  1.00  0.00     0.120 C 
ATOM     15  C   UNL A   1      40.941  30.426  35.907  1.00  0.00     0.026 C 
ATOM     16  C   UNL A   1      40.555  28.940  33.891  1.00  0.00     0.026 C 
BRANCH  10  17
ATOM     17  C   UNL A   1      43.074  26.275  36.778  1.00  0.00     0.173 C 
ATOM     18  C   UNL A   1      42.960  25.137  35.750  1.00  0.00     0.090 C 
ATOM     19  C   UNL A   1      44.382  27.048  36.626  1.00  0.00     0.084 C 
ATOM     20  N   UNL A   1      43.121  25.686  38.152  1.00  0.00    -0.334 N 
ATOM     21  C   UNL A   1      45.336  26.306  37.540  1.00  0.00     0.068 C 
ATOM     22  C   UNL A   1      44.455  25.908  38.704  1.00  0.00     0.261 C 
ATOM     23  H   UNL A   1      42.929  24.686  38.104  1.00  0.00     0.347 HD
ATOM     24  H   UNL A   1      42.418  26.127  38.745  1.00  0.00     0.347 HD
ENDBRANCH  10  17
ENDBRANCH   8   9
ENDBRANCH   5   8
ENDBRANCH   3   4
ENDBRANCH   2   3
ENDBRANCH   1   2
BRANCH   1  25
ATOM     25  C   UNL A   1      34.981  35.324  32.787  1.00  0.00     0.002 C 
BRANCH  25  26
ATOM     26  C   UNL A   1      33.537  35.399  32.275  1.00  0.00     0.021 C 
BRANCH  26  27
ATOM     27  C   UNL A   1      33.319  36.224  31.007  1.00  0.00     0.116 C 
BRANCH  27  28
ATOM     28  N   UNL A   1      32.700  35.453  29.943  1.00  0.00    -0.352 N 
ATOM     29  C   UNL A   1      33.209  34.452  29.155  1.00  0.00     0.251 C 
ATOM     30  H   UNL A   1      31.763  35.686  29.757  1.00  0.00     0.163 HD
ATOM     31  O   UNL A   1      32.564  34.057  28.189  1.00  0.00    -0.269 OA
BRANCH  29  32
ATOM     32  C   UNL A   1      34.528  33.845  29.445  1.00  0.00     0.039 A 
ATOM     33  C   UNL A   1      35.656  34.373  28.809  1.00  0.00     0.014 A 
ATOM     34  C   UNL A   1      34.657  32.723  30.271  1.00  0.00     0.014 A 
ATOM     35  C   UNL A   1      36.912  33.804  29.028  1.00  0.00     0.010 A 
ATOM     36  C   UNL A   1      35.921  32.191  30.536  1.00  0.00     0.010 A 
ATOM     37  C   UNL A   1      37.058  32.717  29.905  1.00  0.00    -0.014 A 
BRANCH  37  38
ATOM     38  C   UNL A   1      38.396  32.120  30.144  1.00  0.00     0.031 A 
ATOM     39  C   UNL A   1      39.390  32.806  31.039  1.00  0.00     0.074 A 
ATOM     40  C   UNL A   1      38.722  30.959  29.545  1.00  0.00     0.049 A 
ATOM     41  N   UNL A   1      40.590  32.418  31.393  1.00  0.00    -0.248 NA
ATOM     42  C   UNL A   1      38.994  34.111  31.592  1.00  0.00     0.031 C 
ATOM     43  C   UNL A   1      37.866  30.218  28.616  1.00  0.00     0.029 A 
ATOM     44  N   UNL A   1      39.860  30.197  29.631  1.00  0.00    -0.354 N 
ATOM     45  C   UNL A   1      41.091  33.430  32.203  1.00  0.00     0.074 A 
ATOM     46  C   UNL A   1      40.089  34.472  32.244  1.00  0.00     0.031 C 
ATOM     47  C   UNL A   1      38.494  29.090  28.249  1.00  0.00     0.029 A 
ATOM     48  C   UNL A   1      39.801  29.038  28.897  1.00  0.00     0.049 A 
ATOM     49  H   UNL A   1      40.643  30.456  30.168  1.00  0.00     0.167 HD
ATOM     50  C   UNL A   1      42.269  33.477  32.870  1.00  0.00     0.037 A 
ATOM     51  C   UNL A   1      40.693  28.037  28.774  1.00  0.00     0.037 A 
ATOM     52  C   UNL A   1      43.260  32.432  32.846  1.00  0.00     0.049 A 
ATOM     53  C   UNL A   1      41.983  28.101  29.542  1.00  0.00     0.074 A 
ATOM     54  C   UNL A   1      44.465  32.367  33.522  1.00  0.00     0.029 A 
ATOM     55  N   UNL A   1      43.154  31.264  32.105  1.00  0.00    -0.354 N 
ATOM     56  N   UNL A   1      42.417  29.033  30.354  1.00  0.00    -0.248 NA
ATOM     57  C   UNL A   1      42.901  26.964  29.386  1.00  0.00     0.031 C 
ATOM     58  C   UNL A   1      45.103  31.171  33.169  1.00  0.00     0.029 A 
ATOM     59  C   UNL A   1      44.277  30.477  32.300  1.00  0.00     0.049 A 
ATOM     60  H   UNL A   1      42.394  31.030  31.525  1.00  0.00     0.167 HD
ATOM     61  C   UNL A   1      43.641  28.584  30.829  1.00  0.00     0.074 A 
ATOM     62  C   UNL A   1      43.877  27.290  30.221  1.00  0.00     0.031 C 
ATOM     63  C   UNL A   1      44.492  29.187  31.695  1.00  0.00     0.037 A 
BRANCH  50  64
ATOM     64  C   UNL A   1      42.545  34.703  33.690  1.00  0.00     0.057 A 
ATOM     65  C   UNL A   1      42.230  34.759  35.055  1.00  0.00     0.134 A 
ATOM     66  C   UNL A   1      43.144  35.831  33.119  1.00  0.00     0.134 A 
ATOM     67  F   UNL A   1      41.643  33.717  35.661  1.00  0.00    -0.206 F 
ATOM     68  C   UNL A   1      42.475  35.906  35.814  1.00  0.00     0.040 A 
ATOM     69  C   UNL A   1      43.416  36.975  33.873  1.00  0.00     0.040 A 
ATOM     70  F   UNL A   1      43.476  35.842  31.819  1.00  0.00    -0.206 F 
ATOM     71  C   UNL A   1      43.074  37.016  35.223  1.00  0.00     0.006 A 
ENDBRANCH  50  64
BRANCH  51  72
ATOM     72  C   UNL A   1      40.367  26.858  27.936  1.00  0.00     0.057 A 
ATOM     73  C   UNL A   1      40.888  26.731  26.643  1.00  0.00     0.134 A 
ATOM     74  C   UNL A   1      39.541  25.831  28.405  1.00  0.00     0.134 A 
ATOM     75  F   UNL A   1      41.673  27.692  26.135  1.00  0.00    -0.206 F 
ATOM     76  C   UNL A   1      40.589  25.631  25.840  1.00  0.00     0.040 A 
ATOM     77  C   UNL A   1      39.249  24.714  27.620  1.00  0.00     0.040 A 
ATOM     78  F   UNL A   1      39.018  25.893  29.638  1.00  0.00    -0.206 F 
ATOM     79  C   UNL A   1      39.771  24.615  26.331  1.00  0.00     0.006 A 
ENDBRANCH  51  72
BRANCH  63  80
ATOM     80  C   UNL A   1      45.737  28.437  32.063  1.00  0.00     0.057 A 
ATOM     81  C   UNL A   1      45.723  27.396  32.999  1.00  0.00     0.134 A 
ATOM     82  C   UNL A   1      46.960  28.746  31.455  1.00  0.00     0.134 A 
ATOM     83  F   UNL A   1      44.585  27.061  33.627  1.00  0.00    -0.206 F 
ATOM     84  C   UNL A   1      46.887  26.704  33.336  1.00  0.00     0.040 A 
ATOM     85  C   UNL A   1      48.126  28.046  31.766  1.00  0.00     0.040 A 
ATOM     86  F   UNL A   1      47.038  29.728  30.544  1.00  0.00    -0.206 F 
ATOM     87  C   UNL A   1      48.093  27.026  32.714  1.00  0.00     0.006 A 
ENDBRANCH  63  80
ENDBRANCH  37  38
ENDBRANCH  29  32
ENDBRANCH  27  28
ENDBRANCH  26  27
ENDBRANCH  25  26
ENDBRANCH   1  25
TORSDOF 15
ENDMDL
MODEL 2
REMARK VINA RESULT:      -9.7      5.517     12.323
REMARK SMILES C[C@]1(C(=O)N2CCC(CC(=O)NCCCCCCNC(=O)c3ccc(-c4c5nc(c(-c6c(F)cccc6F)c6ccc([nH]6)c(-c6c(F)cccc6F)c6nc(c(-c7c(F)cccc7F)c7ccc4[nH]7)C=C6)C=C5)cc3)CC2)CCC[NH2+]1
REMARK SMILES IDX 15 1 14 2 13 3 12 4 10 5 11 6 9 8 8 9 3 10 4 11 5 12 6 13
REMARK SMILES IDX 77 14 7 15 76 16 2 17 1 18 78 19 81 20 79 21 80 22 16 25
REMARK SMILES IDX 17 26 18 27 19 28 20 29 21 31 22 32 23 33 75 34 24 35 74 36
REMARK SMILES IDX 25 37 26 38 27 39 68 40 28 41 73 42 67 43 69 44 29 45 72 46
REMARK SMILES IDX 66 47 65 48 30 50 56 51 39 52 55 53 40 54 43 55 54 56 70 57
REMARK SMILES IDX 41 58 42 59 53 61 71 62 44 63 31 64 32 65 37 66 33 67 34 68
REMARK SMILES IDX 36 69 38 70 35 71 57 72 58 73 63 74 59 75 60 76 62 77 64 78
REMARK SMILES IDX 61 79 45 80 46 81 51 82 47 83 48 84 50 85 52 86 49 87
REMARK H PARENT 12 7 81 23 81 24 19 30 69 49 43 60
REMARK Flexibility Score: inf
ROOT
ATOM      1  C   UNL A   1      37.357  22.003  24.995  1.00  0.00     0.002 C 
ENDROOT
BRANCH   1   2
ATOM      2  C   UNL A   1      36.335  22.948  24.364  1.00  0.00     0.021 C 
BRANCH   2   3
ATOM      3  C   UNL A   1      35.837  24.068  25.287  1.00  0.00     0.116 C 
BRANCH   3   4
ATOM      4  N   UNL A   1      34.596  23.689  25.945  1.00  0.00    -0.356 N 
ATOM      5  C   UNL A   1      33.309  24.083  25.717  1.00  0.00     0.220 C 
ATOM      6  O   UNL A   1      32.433  23.691  26.490  1.00  0.00    -0.275 OA
ATOM      7  H   UNL A   1      34.701  23.040  26.678  1.00  0.00     0.163 HD
BRANCH   5   8
ATOM      8  C   UNL A   1      32.960  24.986  24.544  1.00  0.00     0.103 C 
BRANCH   8   9
ATOM      9  C   UNL A   1      31.820  25.979  24.844  1.00  0.00     0.002 C 
ATOM     10  C   UNL A   1      29.683  28.643  22.646  1.00  0.00     0.283 C 
ATOM     11  O   UNL A   1      30.425  28.615  21.662  1.00  0.00    -0.268 OA
ATOM     12  N   UNL A   1      30.005  27.977  23.809  1.00  0.00    -0.337 N 
ATOM     13  C   UNL A   1      31.124  28.424  24.594  1.00  0.00     0.120 C 
ATOM     14  C   UNL A   1      29.459  26.673  24.127  1.00  0.00     0.120 C 
ATOM     15  C   UNL A   1      32.253  27.417  24.529  1.00  0.00     0.026 C 
ATOM     16  C   UNL A   1      30.552  25.602  24.045  1.00  0.00     0.026 C 
BRANCH  10  17
ATOM     17  C   UNL A   1      28.410  29.526  22.706  1.00  0.00     0.173 C 
ATOM     18  C   UNL A   1      27.250  28.645  23.196  1.00  0.00     0.090 C 
ATOM     19  C   UNL A   1      28.622  30.738  23.609  1.00  0.00     0.084 C 
ATOM     20  N   UNL A   1      28.058  30.089  21.365  1.00  0.00    -0.334 N 
ATOM     21  C   UNL A   1      27.732  31.797  22.991  1.00  0.00     0.068 C 
ATOM     22  C   UNL A   1      27.862  31.530  21.507  1.00  0.00     0.261 C 
ATOM     23  H   UNL A   1      27.201  29.655  21.024  1.00  0.00     0.347 HD
ATOM     24  H   UNL A   1      28.809  29.901  20.700  1.00  0.00     0.347 HD
ENDBRANCH  10  17
ENDBRANCH   8   9
ENDBRANCH   5   8
ENDBRANCH   3   4
ENDBRANCH   2   3
ENDBRANCH   1   2
BRANCH   1  25
ATOM     25  C   UNL A   1      37.012  20.516  24.897  1.00  0.00     0.002 C 
BRANCH  25  26
ATOM     26  C   UNL A   1      38.193  19.543  25.009  1.00  0.00     0.021 C 
BRANCH  26  27
ATOM     27  C   UNL A   1      39.226  19.868  26.086  1.00  0.00     0.116 C 
BRANCH  27  28
ATOM     28  N   UNL A   1      40.473  19.148  25.895  1.00  0.00    -0.352 N 
ATOM     29  C   UNL A   1      41.772  19.583  25.955  1.00  0.00     0.251 C 
ATOM     30  H   UNL A   1      40.369  18.192  25.687  1.00  0.00     0.163 HD
ATOM     31  O   UNL A   1      42.676  18.842  25.580  1.00  0.00    -0.269 OA
BRANCH  29  32
ATOM     32  C   UNL A   1      42.105  20.935  26.458  1.00  0.00     0.039 A 
ATOM     33  C   UNL A   1      42.123  21.143  27.841  1.00  0.00     0.014 A 
ATOM     34  C   UNL A   1      42.325  22.010  25.591  1.00  0.00     0.014 A 
ATOM     35  C   UNL A   1      42.395  22.413  28.353  1.00  0.00     0.010 A 
ATOM     36  C   UNL A   1      42.657  23.266  26.103  1.00  0.00     0.010 A 
ATOM     37  C   UNL A   1      42.680  23.483  27.489  1.00  0.00    -0.014 A 
BRANCH  37  38
ATOM     38  C   UNL A   1      42.980  24.830  28.036  1.00  0.00     0.031 A 
ATOM     39  C   UNL A   1      44.402  25.258  28.276  1.00  0.00     0.074 A 
ATOM     40  C   UNL A   1      41.969  25.669  28.329  1.00  0.00     0.049 A 
ATOM     41  N   UNL A   1      44.858  26.405  28.712  1.00  0.00    -0.248 NA
ATOM     42  C   UNL A   1      45.448  24.258  28.011  1.00  0.00     0.031 C 
ATOM     43  C   UNL A   1      40.545  25.357  28.187  1.00  0.00     0.029 A 
ATOM     44  N   UNL A   1      41.983  26.957  28.800  1.00  0.00    -0.354 N 
ATOM     45  C   UNL A   1      46.238  26.263  28.779  1.00  0.00     0.074 A 
ATOM     46  C   UNL A   1      46.541  24.903  28.390  1.00  0.00     0.031 C 
ATOM     47  C   UNL A   1      39.825  26.437  28.529  1.00  0.00     0.029 A 
ATOM     48  C   UNL A   1      40.732  27.508  28.932  1.00  0.00     0.049 A 
ATOM     49  H   UNL A   1      42.811  27.441  29.024  1.00  0.00     0.167 HD
ATOM     50  C   UNL A   1      47.170  27.188  29.112  1.00  0.00     0.037 A 
ATOM     51  C   UNL A   1      40.360  28.743  29.316  1.00  0.00     0.037 A 
ATOM     52  C   UNL A   1      46.872  28.548  29.480  1.00  0.00     0.049 A 
ATOM     53  C   UNL A   1      41.412  29.759  29.658  1.00  0.00     0.074 A 
ATOM     54  C   UNL A   1      47.749  29.572  29.792  1.00  0.00     0.029 A 
ATOM     55  N   UNL A   1      45.592  29.073  29.583  1.00  0.00    -0.354 N 
ATOM     56  N   UNL A   1      42.717  29.630  29.655  1.00  0.00    -0.248 NA
ATOM     57  C   UNL A   1      40.940  31.096  30.044  1.00  0.00     0.031 C 
ATOM     58  C   UNL A   1      46.998  30.710  30.111  1.00  0.00     0.029 A 
ATOM     59  C   UNL A   1      45.656  30.403  29.963  1.00  0.00     0.049 A 
ATOM     60  H   UNL A   1      44.762  28.573  29.412  1.00  0.00     0.167 HD
ATOM     61  C   UNL A   1      43.221  30.875  30.007  1.00  0.00     0.074 A 
ATOM     62  C   UNL A   1      42.082  31.747  30.208  1.00  0.00     0.031 C 
ATOM     63  C   UNL A   1      44.513  31.261  30.148  1.00  0.00     0.037 A 
BRANCH  50  64
ATOM     64  C   UNL A   1      48.607  26.754  29.084  1.00  0.00     0.057 A 
ATOM     65  C   UNL A   1      49.397  26.904  27.936  1.00  0.00     0.134 A 
ATOM     66  C   UNL A   1      49.213  26.199  30.216  1.00  0.00     0.134 A 
ATOM     67  F   UNL A   1      48.874  27.418  26.813  1.00  0.00    -0.206 F 
ATOM     68  C   UNL A   1      50.729  26.488  27.907  1.00  0.00     0.040 A 
ATOM     69  C   UNL A   1      50.552  25.802  30.208  1.00  0.00     0.040 A 
ATOM     70  F   UNL A   1      48.515  26.033  31.351  1.00  0.00    -0.206 F 
ATOM     71  C   UNL A   1      51.311  25.939  29.048  1.00  0.00     0.006 A 
ENDBRANCH  50  64
BRANCH  51  72
ATOM     72  C   UNL A   1      38.921  29.106  29.336  1.00  0.00     0.057 A 
ATOM     73  C   UNL A   1      38.172  29.000  30.514  1.00  0.00     0.134 A 
ATOM     74  C   UNL A   1      38.267  29.573  28.192  1.00  0.00     0.134 A 
ATOM     75  F   UNL A   1      38.742  28.542  31.638  1.00  0.00    -0.206 F 
ATOM     76  C   UNL A   1      36.818  29.333  30.549  1.00  0.00     0.040 A 
ATOM     77  C   UNL A   1      36.918  29.929  28.218  1.00  0.00     0.040 A 
ATOM     78  F   UNL A   1      38.935  29.703  27.036  1.00  0.00    -0.206 F 
ATOM     79  C   UNL A   1      36.188  29.805  29.399  1.00  0.00     0.006 A 
ENDBRANCH  51  72
BRANCH  63  80
ATOM     80  C   UNL A   1      44.761  32.697  30.499  1.00  0.00     0.057 A 
ATOM     81  C   UNL A   1      44.889  33.122  31.827  1.00  0.00     0.134 A 
ATOM     82  C   UNL A   1      44.897  33.662  29.494  1.00  0.00     0.134 A 
ATOM     83  F   UNL A   1      44.756  32.247  32.837  1.00  0.00    -0.206 F 
ATOM     84  C   UNL A   1      45.120  34.461  32.145  1.00  0.00     0.040 A 
ATOM     85  C   UNL A   1      45.150  35.000  29.798  1.00  0.00     0.040 A 
ATOM     86  F   UNL A   1      44.793  33.318  28.201  1.00  0.00    -0.206 F 
ATOM     87  C   UNL A   1      45.256  35.404  31.127  1.00  0.00     0.006 A 
ENDBRANCH  63  80
ENDBRANCH  37  38
ENDBRANCH  29  32
ENDBRANCH  27  28
ENDBRANCH  26  27
ENDBRANCH  25  26
ENDBRANCH   1  25
TORSDOF 15
ENDMDL
MODEL 3
REMARK VINA RESULT:      -9.6      5.509     12.293
REMARK SMILES C[C@]1(C(=O)N2CCC(CC(=O)NCCCCCCNC(=O)c3ccc(-c4c5nc(c(-c6c(F)cccc6F)c6ccc([nH]6)c(-c6c(F)cccc6F)c6nc(c(-c7c(F)cccc7F)c7ccc4[nH]7)C=C6)C=C5)cc3)CC2)CCC[NH2+]1
REMARK SMILES IDX 15 1 14 2 13 3 12 4 10 5 11 6 9 8 8 9 3 10 4 11 5 12 6 13
REMARK SMILES IDX 77 14 7 15 76 16 2 17 1 18 78 19 81 20 79 21 80 22 16 25
REMARK SMILES IDX 17 26 18 27 19 28 20 29 21 31 22 32 23 33 75 34 24 35 74 36
REMARK SMILES IDX 25 37 26 38 27 39 68 40 28 41 73 42 67 43 69 44 29 45 72 46
REMARK SMILES IDX 66 47 65 48 30 50 56 51 39 52 55 53 40 54 43 55 54 56 70 57
REMARK SMILES IDX 41 58 42 59 53 61 71 62 44 63 31 64 32 65 37 66 33 67 34 68
REMARK SMILES IDX 36 69 38 70 35 71 57 72 58 73 63 74 59 75 60 76 62 77 64 78
REMARK SMILES IDX 61 79 45 80 46 81 51 82 47 83 48 84 50 85 52 86 49 87
REMARK H PARENT 12 7 81 23 81 24 19 30 69 49 43 60
REMARK Flexibility Score: inf
ROOT
ATOM      1  C   UNL A   1      36.451  21.699  24.609  1.00  0.00     0.002 C 
ENDROOT
BRANCH   1   2
ATOM      2  C   UNL A   1      35.110  22.428  24.674  1.00  0.00     0.021 C 
BRANCH   2   3
ATOM      3  C   UNL A   1      35.053  23.583  25.682  1.00  0.00     0.116 C 
BRANCH   3   4
ATOM      4  N   UNL A   1      33.854  23.502  26.503  1.00  0.00    -0.356 N 
ATOM      5  C   UNL A   1      32.599  24.001  26.301  1.00  0.00     0.220 C 
ATOM      6  O   UNL A   1      31.773  23.883  27.208  1.00  0.00    -0.275 OA
ATOM      7  H   UNL A   1      33.966  23.004  27.345  1.00  0.00     0.163 HD
BRANCH   5   8
ATOM      8  C   UNL A   1      32.227  24.688  24.997  1.00  0.00     0.103 C 
BRANCH   8   9
ATOM      9  C   UNL A   1      31.170  25.798  25.161  1.00  0.00     0.002 C 
ATOM     10  C   UNL A   1      29.517  28.571  22.698  1.00  0.00     0.283 C 
ATOM     11  O   UNL A   1      30.337  28.435  21.788  1.00  0.00    -0.268 OA
ATOM     12  N   UNL A   1      29.664  27.922  23.905  1.00  0.00    -0.337 N 
ATOM     13  C   UNL A   1      30.748  28.288  24.777  1.00  0.00     0.120 C 
ATOM     14  C   UNL A   1      28.964  26.691  24.208  1.00  0.00     0.120 C 
ATOM     15  C   UNL A   1      31.771  27.174  24.846  1.00  0.00     0.026 C 
ATOM     16  C   UNL A   1      29.947  25.516  24.259  1.00  0.00     0.026 C 
BRANCH  10  17
ATOM     17  C   UNL A   1      28.338  29.576  22.614  1.00  0.00     0.173 C 
ATOM     18  C   UNL A   1      27.071  28.855  23.103  1.00  0.00     0.090 C 
ATOM     19  C   UNL A   1      28.626  30.832  23.430  1.00  0.00     0.084 C 
ATOM     20  N   UNL A   1      28.113  30.056  21.215  1.00  0.00    -0.334 N 
ATOM     21  C   UNL A   1      27.880  31.917  22.680  1.00  0.00     0.068 C 
ATOM     22  C   UNL A   1      28.057  31.516  21.232  1.00  0.00     0.261 C 
ATOM     23  H   UNL A   1      27.235  29.680  20.859  1.00  0.00     0.347 HD
ATOM     24  H   UNL A   1      28.874  29.741  20.612  1.00  0.00     0.347 HD
ENDBRANCH  10  17
ENDBRANCH   8   9
ENDBRANCH   5   8
ENDBRANCH   3   4
ENDBRANCH   2   3
ENDBRANCH   1   2
BRANCH   1  25
ATOM     25  C   UNL A   1      36.400  20.213  24.970  1.00  0.00     0.002 C 
BRANCH  25  26
ATOM     26  C   UNL A   1      37.737  19.463  24.922  1.00  0.00     0.021 C 
BRANCH  26  27
ATOM     27  C   UNL A   1      38.900  20.125  25.659  1.00  0.00     0.116 C 
BRANCH  27  28
ATOM     28  N   UNL A   1      40.045  19.241  25.796  1.00  0.00    -0.352 N 
ATOM     29  C   UNL A   1      41.351  19.516  26.111  1.00  0.00     0.251 C 
ATOM     30  H   UNL A   1      39.853  18.290  25.635  1.00  0.00     0.163 HD
ATOM     31  O   UNL A   1      42.199  18.637  25.996  1.00  0.00    -0.269 OA
BRANCH  29  32
ATOM     32  C   UNL A   1      41.759  20.860  26.582  1.00  0.00     0.039 A 
ATOM     33  C   UNL A   1      41.652  21.145  27.947  1.00  0.00     0.014 A 
ATOM     34  C   UNL A   1      42.172  21.858  25.694  1.00  0.00     0.014 A 
ATOM     35  C   UNL A   1      41.991  22.412  28.425  1.00  0.00     0.010 A 
ATOM     36  C   UNL A   1      42.569  23.106  26.179  1.00  0.00     0.010 A 
ATOM     37  C   UNL A   1      42.467  23.399  27.547  1.00  0.00    -0.014 A 
BRANCH  37  38
ATOM     38  C   UNL A   1      42.838  24.743  28.058  1.00  0.00     0.031 A 
ATOM     39  C   UNL A   1      41.786  25.793  28.283  1.00  0.00     0.074 A 
ATOM     40  C   UNL A   1      44.131  25.025  28.310  1.00  0.00     0.049 A 
ATOM     41  N   UNL A   1      41.916  27.007  28.757  1.00  0.00    -0.248 NA
ATOM     42  C   UNL A   1      40.408  25.440  27.907  1.00  0.00     0.031 C 
ATOM     43  C   UNL A   1      45.253  24.110  28.088  1.00  0.00     0.029 A 
ATOM     44  N   UNL A   1      44.717  26.158  28.814  1.00  0.00    -0.354 N 
ATOM     45  C   UNL A   1      40.643  27.563  28.730  1.00  0.00     0.074 A 
ATOM     46  C   UNL A   1      39.764  26.573  28.145  1.00  0.00     0.031 C 
ATOM     47  C   UNL A   1      46.387  24.706  28.488  1.00  0.00     0.029 A 
ATOM     48  C   UNL A   1      46.077  26.047  28.974  1.00  0.00     0.049 A 
ATOM     49  H   UNL A   1      44.213  26.973  29.037  1.00  0.00     0.167 HD
ATOM     50  C   UNL A   1      40.238  28.776  29.174  1.00  0.00     0.037 A 
ATOM     51  C   UNL A   1      46.969  26.922  29.475  1.00  0.00     0.037 A 
ATOM     52  C   UNL A   1      41.107  29.754  29.775  1.00  0.00     0.049 A 
ATOM     53  C   UNL A   1      46.494  28.253  29.982  1.00  0.00     0.074 A 
ATOM     54  C   UNL A   1      40.785  30.995  30.295  1.00  0.00     0.029 A 
ATOM     55  N   UNL A   1      42.476  29.596  29.938  1.00  0.00    -0.354 N 
ATOM     56  N   UNL A   1      45.277  28.740  30.010  1.00  0.00    -0.248 NA
ATOM     57  C   UNL A   1      47.514  29.151  30.541  1.00  0.00     0.031 C 
ATOM     58  C   UNL A   1      41.964  31.601  30.748  1.00  0.00     0.029 A 
ATOM     59  C   UNL A   1      43.013  30.721  30.542  1.00  0.00     0.049 A 
ATOM     60  H   UNL A   1      42.989  28.802  29.664  1.00  0.00     0.167 HD
ATOM     61  C   UNL A   1      45.381  29.986  30.615  1.00  0.00     0.074 A 
ATOM     62  C   UNL A   1      46.778  30.175  30.947  1.00  0.00     0.031 C 
ATOM     63  C   UNL A   1      44.405  30.890  30.875  1.00  0.00     0.037 A 
BRANCH  50  64
ATOM     64  C   UNL A   1      38.782  29.109  29.029  1.00  0.00     0.057 A 
ATOM     65  C   UNL A   1      37.893  28.998  30.107  1.00  0.00     0.134 A 
ATOM     66  C   UNL A   1      38.264  29.560  27.809  1.00  0.00     0.134 A 
ATOM     67  F   UNL A   1      38.321  28.560  31.299  1.00  0.00    -0.206 F 
ATOM     68  C   UNL A   1      36.535  29.295  29.967  1.00  0.00     0.040 A 
ATOM     69  C   UNL A   1      36.914  29.884  27.664  1.00  0.00     0.040 A 
ATOM     70  F   UNL A   1      39.062  29.695  26.739  1.00  0.00    -0.206 F 
ATOM     71  C   UNL A   1      36.044  29.744  28.743  1.00  0.00     0.006 A 
ENDBRANCH  50  64
BRANCH  51  72
ATOM     72  C   UNL A   1      48.398  26.538  29.578  1.00  0.00     0.057 A 
ATOM     73  C   UNL A   1      49.309  26.886  28.574  1.00  0.00     0.134 A 
ATOM     74  C   UNL A   1      48.889  25.828  30.679  1.00  0.00     0.134 A 
ATOM     75  F   UNL A   1      48.892  27.552  27.487  1.00  0.00    -0.206 F 
ATOM     76  C   UNL A   1      50.655  26.529  28.653  1.00  0.00     0.040 A 
ATOM     77  C   UNL A   1      50.238  25.482  30.781  1.00  0.00     0.040 A 
ATOM     78  F   UNL A   1      48.066  25.473  31.677  1.00  0.00    -0.206 F 
ATOM     79  C   UNL A   1      51.124  25.830  29.763  1.00  0.00     0.006 A 
ENDBRANCH  51  72
BRANCH  63  80
ATOM     80  C   UNL A   1      44.810  32.146  31.586  1.00  0.00     0.057 A 
ATOM     81  C   UNL A   1      45.216  33.291  30.890  1.00  0.00     0.134 A 
ATOM     82  C   UNL A   1      44.772  32.216  32.984  1.00  0.00     0.134 A 
ATOM     83  F   UNL A   1      45.286  33.282  29.549  1.00  0.00    -0.206 F 
ATOM     84  C   UNL A   1      45.592  34.456  31.560  1.00  0.00     0.040 A 
ATOM     85  C   UNL A   1      45.124  33.382  33.665  1.00  0.00     0.040 A 
ATOM     86  F   UNL A   1      44.385  31.156  33.709  1.00  0.00    -0.206 F 
ATOM     87  C   UNL A   1      45.542  34.504  32.952  1.00  0.00     0.006 A 
ENDBRANCH  63  80
ENDBRANCH  37  38
ENDBRANCH  29  32
ENDBRANCH  27  28
ENDBRANCH  26  27
ENDBRANCH  25  26
ENDBRANCH   1  25
TORSDOF 15
ENDMDL
