MODEL 1
REMARK VINA RESULT:     -11.2      0.000      0.000
REMARK SMILES CC(C)N(c1cc2c(cc1Cl)C=C(C(=O)NCCCCCCNC(=O)c1ccc(-c3c4nc(c(-c5c(F)cccc5F)c5ccc([nH]5)c(-c5c(F)cccc5F)c5nc(c(-c6c(F)cccc6F)c6ccc3[nH]6)C=C5)C=C4)cc1)[C@@H](C(F)(F)F)O2)C(C)C
REMARK SMILES IDX 19 1 18 2 17 3 16 4 14 5 15 6 13 8 5 9 6 10 10 11 7 12 9 13
REMARK SMILES IDX 11 14 8 15 85 16 12 17 80 18 4 19 2 20 1 21 3 22 86 23 87 24
REMARK SMILES IDX 88 25 81 26 82 27 83 28 84 29 20 30 21 31 22 32 23 33 24 34
REMARK SMILES IDX 25 36 26 37 27 38 79 39 28 40 78 41 29 42 30 43 31 44 72 45
REMARK SMILES IDX 32 46 77 47 71 48 73 49 33 50 76 51 70 52 69 53 34 55 60 56
REMARK SMILES IDX 43 57 59 58 44 59 47 60 58 61 74 62 45 63 46 64 57 66 75 67
REMARK SMILES IDX 48 68 35 69 36 70 41 71 37 72 38 73 40 74 42 75 39 76 61 77
REMARK SMILES IDX 62 78 67 79 63 80 64 81 66 82 68 83 65 84 49 85 50 86 55 87
REMARK SMILES IDX 51 88 52 89 54 90 56 91 53 92
REMARK H PARENT 16 7 23 35 73 54 47 65
REMARK Flexibility Score: inf
ROOT
ATOM      1  C   UNL A   1      35.866  21.985  24.183  1.00  0.00     0.002 C 
ENDROOT
BRANCH   1   2
ATOM      2  C   UNL A   1      35.030  21.879  25.465  1.00  0.00     0.021 C 
BRANCH   2   3
ATOM      3  C   UNL A   1      34.045  20.714  25.480  1.00  0.00     0.116 C 
BRANCH   3   4
ATOM      4  N   UNL A   1      33.317  20.606  24.227  1.00  0.00    -0.352 N 
ATOM      5  C   UNL A   1      32.491  21.378  23.485  1.00  0.00     0.251 C 
ATOM      6  O   UNL A   1      32.111  20.863  22.428  1.00  0.00    -0.270 OA
ATOM      7  H   UNL A   1      33.466  19.731  23.803  1.00  0.00     0.163 HD
BRANCH   5   8
ATOM      8  C   UNL A   1      32.026  22.753  23.841  1.00  0.00     0.067 C 
ATOM      9  C   UNL A   1      31.599  27.796  24.286  1.00  0.00     0.060 A 
ATOM     10  C   UNL A   1      30.765  26.691  24.539  1.00  0.00     0.074 A 
ATOM     11  C   UNL A   1      32.864  27.516  23.716  1.00  0.00     0.065 A 
ATOM     12  C   UNL A   1      31.173  25.386  24.265  1.00  0.00     0.130 A 
ATOM     13  C   UNL A   1      33.250  26.204  23.395  1.00  0.00     0.034 A 
ATOM     14  Cl  UNL A   1      34.064  28.740  23.452  1.00  0.00    -0.082 Cl
ATOM     15  C   UNL A   1      32.404  25.132  23.674  1.00  0.00     0.019 A 
ATOM     16  O   UNL A   1      30.289  24.392  24.575  1.00  0.00    -0.475 OA
ATOM     17  C   UNL A   1      32.768  23.761  23.343  1.00  0.00     0.025 C 
ATOM     18  C   UNL A   1      30.853  23.058  24.728  1.00  0.00     0.314 C 
BRANCH   9  19
ATOM     19  N   UNL A   1      31.144  29.088  24.619  1.00  0.00    -0.365 N 
BRANCH  19  20
ATOM     20  C   UNL A   1      30.141  29.695  23.717  1.00  0.00     0.076 C 
ATOM     21  C   UNL A   1      29.725  31.101  24.147  1.00  0.00     0.030 C 
ATOM     22  C   UNL A   1      30.562  29.678  22.249  1.00  0.00     0.030 C 
ENDBRANCH  19  20
BRANCH  19  23
ATOM     23  C   UNL A   1      31.580  29.621  25.931  1.00  0.00     0.076 C 
ATOM     24  C   UNL A   1      31.609  28.553  27.020  1.00  0.00     0.030 C 
ATOM     25  C   UNL A   1      32.893  30.395  25.875  1.00  0.00     0.030 C 
ENDBRANCH  19  23
ENDBRANCH   9  19
BRANCH  18  26
ATOM     26  C   UNL A   1      31.153  22.796  26.216  1.00  0.00     0.429 C 
ATOM     27  F   UNL A   1      31.207  21.463  26.465  1.00  0.00    -0.167 F 
ATOM     28  F   UNL A   1      32.351  23.302  26.598  1.00  0.00    -0.167 F 
ATOM     29  F   UNL A   1      30.221  23.325  27.038  1.00  0.00    -0.167 F 
ENDBRANCH  18  26
ENDBRANCH   5   8
ENDBRANCH   3   4
ENDBRANCH   2   3
ENDBRANCH   1   2
BRANCH   1  30
ATOM     30  C   UNL A   1      37.382  21.821  24.357  1.00  0.00     0.002 C 
BRANCH  30  31
ATOM     31  C   UNL A   1      37.849  20.466  24.893  1.00  0.00     0.021 C 
BRANCH  31  32
ATOM     32  C   UNL A   1      38.907  20.532  25.987  1.00  0.00     0.116 C 
BRANCH  32  33
ATOM     33  N   UNL A   1      39.933  19.512  25.842  1.00  0.00    -0.352 N 
ATOM     34  C   UNL A   1      41.287  19.613  26.053  1.00  0.00     0.251 C 
ATOM     35  H   UNL A   1      39.614  18.627  25.552  1.00  0.00     0.163 HD
ATOM     36  O   UNL A   1      42.038  18.690  25.755  1.00  0.00    -0.269 OA
BRANCH  34  37
ATOM     37  C   UNL A   1      41.843  20.867  26.606  1.00  0.00     0.039 A 
ATOM     38  C   UNL A   1      41.906  21.066  27.987  1.00  0.00     0.014 A 
ATOM     39  C   UNL A   1      42.258  21.871  25.727  1.00  0.00     0.014 A 
ATOM     40  C   UNL A   1      42.229  22.324  28.485  1.00  0.00     0.010 A 
ATOM     41  C   UNL A   1      42.651  23.113  26.234  1.00  0.00     0.010 A 
ATOM     42  C   UNL A   1      42.588  23.366  27.613  1.00  0.00    -0.014 A 
BRANCH  42  43
ATOM     43  C   UNL A   1      42.859  24.719  28.161  1.00  0.00     0.031 A 
ATOM     44  C   UNL A   1      44.265  25.143  28.491  1.00  0.00     0.074 A 
ATOM     45  C   UNL A   1      41.841  25.588  28.315  1.00  0.00     0.049 A 
ATOM     46  N   UNL A   1      44.693  26.283  28.973  1.00  0.00    -0.248 NA
ATOM     47  C   UNL A   1      45.331  24.158  28.252  1.00  0.00     0.031 C 
ATOM     48  C   UNL A   1      40.437  25.301  28.021  1.00  0.00     0.029 A 
ATOM     49  N   UNL A   1      41.835  26.891  28.739  1.00  0.00    -0.354 N 
ATOM     50  C   UNL A   1      46.069  26.145  29.117  1.00  0.00     0.074 A 
ATOM     51  C   UNL A   1      46.403  24.803  28.691  1.00  0.00     0.031 C 
ATOM     52  C   UNL A   1      39.710  26.409  28.235  1.00  0.00     0.029 A 
ATOM     53  C   UNL A   1      40.588  27.464  28.729  1.00  0.00     0.049 A 
ATOM     54  H   UNL A   1      42.647  27.370  29.023  1.00  0.00     0.167 HD
ATOM     55  C   UNL A   1      46.971  27.055  29.553  1.00  0.00     0.037 A 
ATOM     56  C   UNL A   1      40.192  28.697  29.092  1.00  0.00     0.037 A 
ATOM     57  C   UNL A   1      46.644  28.401  29.950  1.00  0.00     0.049 A 
ATOM     58  C   UNL A   1      41.209  29.677  29.603  1.00  0.00     0.074 A 
ATOM     59  C   UNL A   1      47.496  29.407  30.374  1.00  0.00     0.029 A 
ATOM     60  N   UNL A   1      45.362  28.926  29.970  1.00  0.00    -0.354 N 
ATOM     61  N   UNL A   1      42.506  29.533  29.722  1.00  0.00    -0.248 NA
ATOM     62  C   UNL A   1      40.703  30.985  30.038  1.00  0.00     0.031 C 
ATOM     63  C   UNL A   1      46.723  30.533  30.682  1.00  0.00     0.029 A 
ATOM     64  C   UNL A   1      45.396  30.237  30.418  1.00  0.00     0.049 A 
ATOM     65  H   UNL A   1      44.548  28.441  29.706  1.00  0.00     0.167 HD
ATOM     66  C   UNL A   1      42.973  30.733  30.241  1.00  0.00     0.074 A 
ATOM     67  C   UNL A   1      41.823  31.601  30.389  1.00  0.00     0.031 C 
ATOM     68  C   UNL A   1      44.240  31.083  30.569  1.00  0.00     0.037 A 
BRANCH  55  69
ATOM     69  C   UNL A   1      48.405  26.621  29.638  1.00  0.00     0.057 A 
ATOM     70  C   UNL A   1      48.898  26.015  30.801  1.00  0.00     0.134 A 
ATOM     71  C   UNL A   1      49.305  26.829  28.586  1.00  0.00     0.134 A 
ATOM     72  F   UNL A   1      48.088  25.791  31.847  1.00  0.00    -0.206 F 
ATOM     73  C   UNL A   1      50.235  25.633  30.914  1.00  0.00     0.040 A 
ATOM     74  C   UNL A   1      50.640  26.433  28.679  1.00  0.00     0.040 A 
ATOM     75  F   UNL A   1      48.892  27.390  27.439  1.00  0.00    -0.206 F 
ATOM     76  C   UNL A   1      51.110  25.837  29.849  1.00  0.00     0.006 A 
ENDBRANCH  55  69
BRANCH  56  77
ATOM     77  C   UNL A   1      38.761  29.072  28.996  1.00  0.00     0.057 A 
ATOM     78  C   UNL A   1      37.911  28.984  30.105  1.00  0.00     0.134 A 
ATOM     79  C   UNL A   1      38.212  29.524  27.792  1.00  0.00     0.134 A 
ATOM     80  F   UNL A   1      38.380  28.553  31.285  1.00  0.00    -0.206 F 
ATOM     81  C   UNL A   1      36.560  29.322  30.017  1.00  0.00     0.040 A 
ATOM     82  C   UNL A   1      36.868  29.888  27.696  1.00  0.00     0.040 A 
ATOM     83  F   UNL A   1      38.983  29.647  26.702  1.00  0.00    -0.206 F 
ATOM     84  C   UNL A   1      36.037  29.780  28.810  1.00  0.00     0.006 A 
ENDBRANCH  56  77
BRANCH  68  85
ATOM     85  C   UNL A   1      44.441  32.465  31.111  1.00  0.00     0.057 A 
ATOM     86  C   UNL A   1      44.388  32.710  32.488  1.00  0.00     0.134 A 
ATOM     87  C   UNL A   1      44.672  33.556  30.265  1.00  0.00     0.134 A 
ATOM     88  F   UNL A   1      44.165  31.706  33.351  1.00  0.00    -0.206 F 
ATOM     89  C   UNL A   1      44.560  33.993  33.006  1.00  0.00     0.040 A 
ATOM     90  C   UNL A   1      44.866  34.842  30.772  1.00  0.00     0.040 A 
ATOM     91  F   UNL A   1      44.750  33.383  28.937  1.00  0.00    -0.206 F 
ATOM     92  C   UNL A   1      44.807  35.063  32.147  1.00  0.00     0.006 A 
ENDBRANCH  68  85
ENDBRANCH  42  43
ENDBRANCH  34  37
ENDBRANCH  32  33
ENDBRANCH  31  32
ENDBRANCH  30  31
ENDBRANCH   1  30
TORSDOF 17
ENDMDL
MODEL 2
REMARK VINA RESULT:     -11.2      4.073      7.861
REMARK SMILES CC(C)N(c1cc2c(cc1Cl)C=C(C(=O)NCCCCCCNC(=O)c1ccc(-c3c4nc(c(-c5c(F)cccc5F)c5ccc([nH]5)c(-c5c(F)cccc5F)c5nc(c(-c6c(F)cccc6F)c6ccc3[nH]6)C=C5)C=C4)cc1)[C@@H](C(F)(F)F)O2)C(C)C
REMARK SMILES IDX 19 1 18 2 17 3 16 4 14 5 15 6 13 8 5 9 6 10 10 11 7 12 9 13
REMARK SMILES IDX 11 14 8 15 85 16 12 17 80 18 4 19 2 20 1 21 3 22 86 23 87 24
REMARK SMILES IDX 88 25 81 26 82 27 83 28 84 29 20 30 21 31 22 32 23 33 24 34
REMARK SMILES IDX 25 36 26 37 27 38 79 39 28 40 78 41 29 42 30 43 31 44 72 45
REMARK SMILES IDX 32 46 77 47 71 48 73 49 33 50 76 51 70 52 69 53 34 55 60 56
REMARK SMILES IDX 43 57 59 58 44 59 47 60 58 61 74 62 45 63 46 64 57 66 75 67
REMARK SMILES IDX 48 68 35 69 36 70 41 71 37 72 38 73 40 74 42 75 39 76 61 77
REMARK SMILES IDX 62 78 67 79 63 80 64 81 66 82 68 83 65 84 49 85 50 86 55 87
REMARK SMILES IDX 51 88 52 89 54 90 56 91 53 92
REMARK H PARENT 16 7 23 35 73 54 47 65
REMARK Flexibility Score: inf
ROOT
ATOM      1  C   UNL A   1      37.214  22.927  25.340  1.00  0.00     0.002 C 
ENDROOT
BRANCH   1   2
ATOM      2  C   UNL A   1      36.726  21.561  25.839  1.00  0.00     0.021 C 
BRANCH   2   3
ATOM      3  C   UNL A   1      36.636  20.491  24.755  1.00  0.00     0.116 C 
BRANCH   3   4
ATOM      4  N   UNL A   1      35.427  19.695  24.881  1.00  0.00    -0.352 N 
ATOM      5  C   UNL A   1      34.096  19.914  24.980  1.00  0.00     0.251 C 
ATOM      6  O   UNL A   1      33.407  18.890  25.046  1.00  0.00    -0.270 OA
ATOM      7  H   UNL A   1      35.634  18.733  24.900  1.00  0.00     0.163 HD
BRANCH   5   8
ATOM      8  C   UNL A   1      33.430  21.251  25.014  1.00  0.00     0.067 C 
ATOM      9  C   UNL A   1      31.863  25.951  23.888  1.00  0.00     0.060 A 
ATOM     10  C   UNL A   1      31.482  24.959  24.809  1.00  0.00     0.074 A 
ATOM     11  C   UNL A   1      32.896  25.608  22.982  1.00  0.00     0.065 A 
ATOM     12  C   UNL A   1      32.104  23.711  24.845  1.00  0.00     0.130 A 
ATOM     13  C   UNL A   1      33.485  24.333  22.989  1.00  0.00     0.034 A 
ATOM     14  Cl  UNL A   1      33.576  26.745  21.862  1.00  0.00    -0.082 Cl
ATOM     15  C   UNL A   1      33.092  23.380  23.926  1.00  0.00     0.019 A 
ATOM     16  O   UNL A   1      31.667  22.837  25.798  1.00  0.00    -0.475 OA
ATOM     17  C   UNL A   1      33.673  22.045  23.953  1.00  0.00     0.025 C 
ATOM     18  C   UNL A   1      32.579  21.756  26.145  1.00  0.00     0.314 C 
BRANCH   9  19
ATOM     19  N   UNL A   1      31.221  27.205  23.926  1.00  0.00    -0.365 N 
BRANCH  19  20
ATOM     20  C   UNL A   1      29.935  27.318  23.203  1.00  0.00     0.076 C 
ATOM     21  C   UNL A   1      28.781  26.630  23.930  1.00  0.00     0.030 C 
ATOM     22  C   UNL A   1      29.570  28.755  22.842  1.00  0.00     0.030 C 
ENDBRANCH  19  20
BRANCH  19  23
ATOM     23  C   UNL A   1      31.809  28.218  24.834  1.00  0.00     0.076 C 
ATOM     24  C   UNL A   1      32.355  27.609  26.121  1.00  0.00     0.030 C 
ATOM     25  C   UNL A   1      32.841  29.119  24.163  1.00  0.00     0.030 C 
ENDBRANCH  19  23
ENDBRANCH   9  19
BRANCH  18  26
ATOM     26  C   UNL A   1      33.411  22.161  27.375  1.00  0.00     0.429 C 
ATOM     27  F   UNL A   1      32.601  22.488  28.414  1.00  0.00    -0.167 F 
ATOM     28  F   UNL A   1      34.205  21.156  27.816  1.00  0.00    -0.167 F 
ATOM     29  F   UNL A   1      34.213  23.223  27.137  1.00  0.00    -0.167 F 
ENDBRANCH  18  26
ENDBRANCH   5   8
ENDBRANCH   3   4
ENDBRANCH   2   3
ENDBRANCH   1   2
BRANCH   1  30
ATOM     30  C   UNL A   1      38.284  23.611  26.203  1.00  0.00     0.002 C 
BRANCH  30  31
ATOM     31  C   UNL A   1      39.451  22.724  26.644  1.00  0.00     0.021 C 
BRANCH  31  32
ATOM     32  C   UNL A   1      40.672  23.473  27.163  1.00  0.00     0.116 C 
BRANCH  32  33
ATOM     33  N   UNL A   1      41.454  24.082  26.099  1.00  0.00    -0.352 N 
ATOM     34  C   UNL A   1      41.737  25.410  25.887  1.00  0.00     0.251 C 
ATOM     35  H   UNL A   1      41.833  23.458  25.439  1.00  0.00     0.163 HD
ATOM     36  O   UNL A   1      42.303  25.774  24.862  1.00  0.00    -0.269 OA
BRANCH  34  37
ATOM     37  C   UNL A   1      41.315  26.410  26.891  1.00  0.00     0.039 A 
ATOM     38  C   UNL A   1      41.839  27.705  26.867  1.00  0.00     0.014 A 
ATOM     39  C   UNL A   1      40.422  26.028  27.896  1.00  0.00     0.014 A 
ATOM     40  C   UNL A   1      41.598  28.564  27.935  1.00  0.00     0.010 A 
ATOM     41  C   UNL A   1      40.125  26.918  28.931  1.00  0.00     0.010 A 
ATOM     42  C   UNL A   1      40.753  28.173  28.986  1.00  0.00    -0.014 A 
BRANCH  42  43
ATOM     43  C   UNL A   1      40.567  29.076  30.150  1.00  0.00     0.031 A 
ATOM     44  C   UNL A   1      39.456  30.092  30.160  1.00  0.00     0.074 A 
ATOM     45  C   UNL A   1      41.369  28.947  31.224  1.00  0.00     0.049 A 
ATOM     46  N   UNL A   1      39.138  30.961  31.087  1.00  0.00    -0.248 NA
ATOM     47  C   UNL A   1      38.589  30.143  28.972  1.00  0.00     0.031 C 
ATOM     48  C   UNL A   1      42.473  27.994  31.342  1.00  0.00     0.029 A 
ATOM     49  N   UNL A   1      41.367  29.607  32.426  1.00  0.00    -0.354 N 
ATOM     50  C   UNL A   1      38.056  31.675  30.587  1.00  0.00     0.074 A 
ATOM     51  C   UNL A   1      37.782  31.153  29.266  1.00  0.00     0.031 C 
ATOM     52  C   UNL A   1      43.016  28.102  32.564  1.00  0.00     0.029 A 
ATOM     53  C   UNL A   1      42.334  29.166  33.294  1.00  0.00     0.049 A 
ATOM     54  H   UNL A   1      40.734  30.328  32.644  1.00  0.00     0.167 HD
ATOM     55  C   UNL A   1      37.348  32.666  31.179  1.00  0.00     0.037 A 
ATOM     56  C   UNL A   1      42.648  29.581  34.534  1.00  0.00     0.037 A 
ATOM     57  C   UNL A   1      37.600  33.167  32.506  1.00  0.00     0.049 A 
ATOM     58  C   UNL A   1      41.867  30.703  35.154  1.00  0.00     0.074 A 
ATOM     59  C   UNL A   1      36.914  34.147  33.204  1.00  0.00     0.029 A 
ATOM     60  N   UNL A   1      38.620  32.725  33.334  1.00  0.00    -0.354 N 
ATOM     61  N   UNL A   1      40.841  31.359  34.672  1.00  0.00    -0.248 NA
ATOM     62  C   UNL A   1      42.297  31.148  36.486  1.00  0.00     0.031 C 
ATOM     63  C   UNL A   1      37.541  34.320  34.444  1.00  0.00     0.029 A 
ATOM     64  C   UNL A   1      38.595  33.425  34.529  1.00  0.00     0.049 A 
ATOM     65  H   UNL A   1      39.267  32.019  33.106  1.00  0.00     0.167 HD
ATOM     66  C   UNL A   1      40.498  32.291  35.642  1.00  0.00     0.074 A 
ATOM     67  C   UNL A   1      41.411  32.097  36.750  1.00  0.00     0.031 C 
ATOM     68  C   UNL A   1      39.517  33.226  35.617  1.00  0.00     0.037 A 
BRANCH  55  69
ATOM     69  C   UNL A   1      36.235  33.288  30.387  1.00  0.00     0.057 A 
ATOM     70  C   UNL A   1      34.900  32.955  30.651  1.00  0.00     0.134 A 
ATOM     71  C   UNL A   1      36.484  34.189  29.345  1.00  0.00     0.134 A 
ATOM     72  F   UNL A   1      34.595  32.094  31.634  1.00  0.00    -0.206 F 
ATOM     73  C   UNL A   1      33.853  33.497  29.905  1.00  0.00     0.040 A 
ATOM     74  C   UNL A   1      35.443  34.752  28.604  1.00  0.00     0.040 A 
ATOM     75  F   UNL A   1      37.739  34.560  29.051  1.00  0.00    -0.206 F 
ATOM     76  C   UNL A   1      34.122  34.402  28.881  1.00  0.00     0.006 A 
ENDBRANCH  55  69
BRANCH  56  77
ATOM     77  C   UNL A   1      43.763  28.937  35.269  1.00  0.00     0.057 A 
ATOM     78  C   UNL A   1      43.533  27.877  36.154  1.00  0.00     0.134 A 
ATOM     79  C   UNL A   1      45.083  29.369  35.103  1.00  0.00     0.134 A 
ATOM     80  F   UNL A   1      42.288  27.421  36.357  1.00  0.00    -0.206 F 
ATOM     81  C   UNL A   1      44.577  27.275  36.858  1.00  0.00     0.040 A 
ATOM     82  C   UNL A   1      46.139  28.762  35.784  1.00  0.00     0.040 A 
ATOM     83  F   UNL A   1      45.364  30.367  34.254  1.00  0.00    -0.206 F 
ATOM     84  C   UNL A   1      45.885  27.715  36.670  1.00  0.00     0.006 A 
ENDBRANCH  56  77
BRANCH  68  85
ATOM     85  C   UNL A   1      39.384  34.099  36.827  1.00  0.00     0.057 A 
ATOM     86  C   UNL A   1      39.950  35.379  36.853  1.00  0.00     0.134 A 
ATOM     87  C   UNL A   1      38.706  33.663  37.972  1.00  0.00     0.134 A 
ATOM     88  F   UNL A   1      40.615  35.853  35.789  1.00  0.00    -0.206 F 
ATOM     89  C   UNL A   1      39.844  36.198  37.977  1.00  0.00     0.040 A 
ATOM     90  C   UNL A   1      38.577  34.481  39.096  1.00  0.00     0.040 A 
ATOM     91  F   UNL A   1      38.129  32.453  38.001  1.00  0.00    -0.206 F 
ATOM     92  C   UNL A   1      39.149  35.751  39.101  1.00  0.00     0.006 A 
ENDBRANCH  68  85
ENDBRANCH  42  43
ENDBRANCH  34  37
ENDBRANCH  32  33
ENDBRANCH  31  32
ENDBRANCH  30  31
ENDBRANCH   1  30
TORSDOF 17
ENDMDL
MODEL 3
REMARK VINA RESULT:     -11.2      2.433      3.316
REMARK SMILES CC(C)N(c1cc2c(cc1Cl)C=C(C(=O)NCCCCCCNC(=O)c1ccc(-c3c4nc(c(-c5c(F)cccc5F)c5ccc([nH]5)c(-c5c(F)cccc5F)c5nc(c(-c6c(F)cccc6F)c6ccc3[nH]6)C=C5)C=C4)cc1)[C@@H](C(F)(F)F)O2)C(C)C
REMARK SMILES IDX 19 1 18 2 17 3 16 4 14 5 15 6 13 8 5 9 6 10 10 11 7 12 9 13
REMARK SMILES IDX 11 14 8 15 85 16 12 17 80 18 4 19 2 20 1 21 3 22 86 23 87 24
REMARK SMILES IDX 88 25 81 26 82 27 83 28 84 29 20 30 21 31 22 32 23 33 24 34
REMARK SMILES IDX 25 36 26 37 27 38 79 39 28 40 78 41 29 42 30 43 31 44 72 45
REMARK SMILES IDX 32 46 77 47 71 48 73 49 33 50 76 51 70 52 69 53 34 55 60 56
REMARK SMILES IDX 43 57 59 58 44 59 47 60 58 61 74 62 45 63 46 64 57 66 75 67
REMARK SMILES IDX 48 68 35 69 36 70 41 71 37 72 38 73 40 74 42 75 39 76 61 77
REMARK SMILES IDX 62 78 67 79 63 80 64 81 66 82 68 83 65 84 49 85 50 86 55 87
REMARK SMILES IDX 51 88 52 89 54 90 56 91 53 92
REMARK H PARENT 16 7 23 35 73 54 47 65
REMARK Flexibility Score: inf
ROOT
ATOM      1  C   UNL A   1      39.479  21.807  26.176  1.00  0.00     0.002 C 
ENDROOT
BRANCH   1   2
ATOM      2  C   UNL A   1      38.579  20.804  25.443  1.00  0.00     0.021 C 
BRANCH   2   3
ATOM      3  C   UNL A   1      37.291  21.404  24.887  1.00  0.00     0.116 C 
BRANCH   3   4
ATOM      4  N   UNL A   1      36.211  20.431  24.859  1.00  0.00    -0.352 N 
ATOM      5  C   UNL A   1      34.859  20.443  24.866  1.00  0.00     0.251 C 
ATOM      6  O   UNL A   1      34.331  19.328  24.804  1.00  0.00    -0.270 OA
ATOM      7  H   UNL A   1      36.561  19.512  24.826  1.00  0.00     0.163 HD
BRANCH   5   8
ATOM      8  C   UNL A   1      33.996  21.661  24.940  1.00  0.00     0.067 C 
ATOM      9  C   UNL A   1      31.842  26.176  24.052  1.00  0.00     0.060 A 
ATOM     10  C   UNL A   1      31.531  25.052  24.840  1.00  0.00     0.074 A 
ATOM     11  C   UNL A   1      32.996  26.077  23.238  1.00  0.00     0.065 A 
ATOM     12  C   UNL A   1      32.331  23.909  24.837  1.00  0.00     0.130 A 
ATOM     13  C   UNL A   1      33.770  24.905  23.201  1.00  0.00     0.034 A 
ATOM     14  Cl  UNL A   1      33.596  27.406  22.299  1.00  0.00    -0.082 Cl
ATOM     15  C   UNL A   1      33.440  23.817  24.006  1.00  0.00     0.019 A 
ATOM     16  O   UNL A   1      31.944  22.891  25.660  1.00  0.00    -0.475 OA
ATOM     17  C   UNL A   1      34.214  22.583  23.983  1.00  0.00     0.025 C 
ATOM     18  C   UNL A   1      32.974  21.923  26.010  1.00  0.00     0.314 C 
BRANCH   9  19
ATOM     19  N   UNL A   1      31.015  27.314  24.126  1.00  0.00    -0.365 N 
BRANCH  19  20
ATOM     20  C   UNL A   1      29.860  27.361  23.202  1.00  0.00     0.076 C 
ATOM     21  C   UNL A   1      28.599  26.729  23.791  1.00  0.00     0.030 C 
ATOM     22  C   UNL A   1      29.568  28.762  22.671  1.00  0.00     0.030 C 
ENDBRANCH  19  20
BRANCH  19  23
ATOM     23  C   UNL A   1      31.283  28.251  25.242  1.00  0.00     0.076 C 
ATOM     24  C   UNL A   1      31.518  27.536  26.568  1.00  0.00     0.030 C 
ATOM     25  C   UNL A   1      32.393  29.256  24.948  1.00  0.00     0.030 C 
ENDBRANCH  19  23
ENDBRANCH   9  19
BRANCH  18  26
ATOM     26  C   UNL A   1      33.614  22.319  27.354  1.00  0.00     0.429 C 
ATOM     27  F   UNL A   1      32.661  22.490  28.305  1.00  0.00    -0.167 F 
ATOM     28  F   UNL A   1      34.454  21.367  27.827  1.00  0.00    -0.167 F 
ATOM     29  F   UNL A   1      34.322  23.467  27.277  1.00  0.00    -0.167 F 
ENDBRANCH  18  26
ENDBRANCH   5   8
ENDBRANCH   3   4
ENDBRANCH   2   3
ENDBRANCH   1   2
BRANCH   1  30
ATOM     30  C   UNL A   1      40.911  21.336  26.463  1.00  0.00     0.002 C 
BRANCH  30  31
ATOM     31  C   UNL A   1      41.217  19.879  26.109  1.00  0.00     0.021 C 
BRANCH  31  32
ATOM     32  C   UNL A   1      42.632  19.418  26.433  1.00  0.00     0.116 C 
BRANCH  32  33
ATOM     33  N   UNL A   1      43.342  18.913  25.269  1.00  0.00    -0.352 N 
ATOM     34  C   UNL A   1      44.215  19.572  24.437  1.00  0.00     0.251 C 
ATOM     35  H   UNL A   1      43.174  17.969  25.045  1.00  0.00     0.163 HD
ATOM     36  O   UNL A   1      44.628  19.037  23.413  1.00  0.00    -0.269 OA
BRANCH  34  37
ATOM     37  C   UNL A   1      44.623  20.955  24.763  1.00  0.00     0.039 A 
ATOM     38  C   UNL A   1      45.541  21.201  25.788  1.00  0.00     0.014 A 
ATOM     39  C   UNL A   1      44.041  22.017  24.067  1.00  0.00     0.014 A 
ATOM     40  C   UNL A   1      45.752  22.505  26.223  1.00  0.00     0.010 A 
ATOM     41  C   UNL A   1      44.309  23.331  24.460  1.00  0.00     0.010 A 
ATOM     42  C   UNL A   1      45.124  23.582  25.575  1.00  0.00    -0.014 A 
BRANCH  42  43
ATOM     43  C   UNL A   1      45.306  24.959  26.100  1.00  0.00     0.031 A 
ATOM     44  C   UNL A   1      46.644  25.642  26.008  1.00  0.00     0.074 A 
ATOM     45  C   UNL A   1      44.249  25.616  26.617  1.00  0.00     0.049 A 
ATOM     46  N   UNL A   1      46.990  26.841  26.409  1.00  0.00    -0.248 NA
ATOM     47  C   UNL A   1      47.739  24.882  25.388  1.00  0.00     0.031 C 
ATOM     48  C   UNL A   1      42.900  25.068  26.753  1.00  0.00     0.029 A 
ATOM     49  N   UNL A   1      44.143  26.892  27.108  1.00  0.00    -0.354 N 
ATOM     50  C   UNL A   1      48.341  26.968  26.113  1.00  0.00     0.074 A 
ATOM     51  C   UNL A   1      48.760  25.717  25.517  1.00  0.00     0.031 C 
ATOM     52  C   UNL A   1      42.091  26.014  27.252  1.00  0.00     0.029 A 
ATOM     53  C   UNL A   1      42.875  27.215  27.521  1.00  0.00     0.049 A 
ATOM     54  H   UNL A   1      44.903  27.515  27.159  1.00  0.00     0.167 HD
ATOM     55  C   UNL A   1      49.156  28.032  26.309  1.00  0.00     0.037 A 
ATOM     56  C   UNL A   1      42.398  28.348  28.068  1.00  0.00     0.037 A 
ATOM     57  C   UNL A   1      48.734  29.287  26.875  1.00  0.00     0.049 A 
ATOM     58  C   UNL A   1      43.330  29.501  28.304  1.00  0.00     0.074 A 
ATOM     59  C   UNL A   1      49.480  30.435  27.081  1.00  0.00     0.029 A 
ATOM     60  N   UNL A   1      47.452  29.557  27.324  1.00  0.00    -0.354 N 
ATOM     61  N   UNL A   1      44.602  29.607  28.008  1.00  0.00    -0.248 NA
ATOM     62  C   UNL A   1      42.761  30.685  28.959  1.00  0.00     0.031 C 
ATOM     63  C   UNL A   1      48.655  31.390  27.686  1.00  0.00     0.029 A 
ATOM     64  C   UNL A   1      47.388  30.847  27.825  1.00  0.00     0.049 A 
ATOM     65  H   UNL A   1      46.697  28.926  27.292  1.00  0.00     0.167 HD
ATOM     66  C   UNL A   1      44.985  30.871  28.435  1.00  0.00     0.074 A 
ATOM     67  C   UNL A   1      43.804  31.502  28.988  1.00  0.00     0.031 C 
ATOM     68  C   UNL A   1      46.207  31.455  28.380  1.00  0.00     0.037 A 
BRANCH  55  69
ATOM     69  C   UNL A   1      50.597  27.879  25.919  1.00  0.00     0.057 A 
ATOM     70  C   UNL A   1      51.569  27.587  26.885  1.00  0.00     0.134 A 
ATOM     71  C   UNL A   1      51.028  28.052  24.598  1.00  0.00     0.134 A 
ATOM     72  F   UNL A   1      51.222  27.414  28.169  1.00  0.00    -0.206 F 
ATOM     73  C   UNL A   1      52.919  27.473  26.550  1.00  0.00     0.040 A 
ATOM     74  C   UNL A   1      52.373  27.921  24.248  1.00  0.00     0.040 A 
ATOM     75  F   UNL A   1      50.146  28.318  23.624  1.00  0.00    -0.206 F 
ATOM     76  C   UNL A   1      53.324  27.635  25.226  1.00  0.00     0.006 A 
ENDBRANCH  55  69
BRANCH  56  77
ATOM     77  C   UNL A   1      40.966  28.442  28.442  1.00  0.00     0.057 A 
ATOM     78  C   UNL A   1      40.530  28.112  29.731  1.00  0.00     0.134 A 
ATOM     79  C   UNL A   1      40.004  28.862  27.519  1.00  0.00     0.134 A 
ATOM     80  F   UNL A   1      41.406  27.699  30.659  1.00  0.00    -0.206 F 
ATOM     81  C   UNL A   1      39.182  28.186  30.085  1.00  0.00     0.040 A 
ATOM     82  C   UNL A   1      38.656  28.962  27.866  1.00  0.00     0.040 A 
ATOM     83  F   UNL A   1      40.368  29.208  26.276  1.00  0.00    -0.206 F 
ATOM     84  C   UNL A   1      38.242  28.617  29.152  1.00  0.00     0.006 A 
ENDBRANCH  56  77
BRANCH  68  85
ATOM     85  C   UNL A   1      46.315  32.847  28.923  1.00  0.00     0.057 A 
ATOM     86  C   UNL A   1      46.084  33.957  28.102  1.00  0.00     0.134 A 
ATOM     87  C   UNL A   1      46.664  33.087  30.258  1.00  0.00     0.134 A 
ATOM     88  F   UNL A   1      45.750  33.794  26.813  1.00  0.00    -0.206 F 
ATOM     89  C   UNL A   1      46.193  35.259  28.591  1.00  0.00     0.040 A 
ATOM     90  C   UNL A   1      46.757  34.384  30.764  1.00  0.00     0.040 A 
ATOM     91  F   UNL A   1      46.882  32.064  31.098  1.00  0.00    -0.206 F 
ATOM     92  C   UNL A   1      46.524  35.474  29.928  1.00  0.00     0.006 A 
ENDBRANCH  68  85
ENDBRANCH  42  43
ENDBRANCH  34  37
ENDBRANCH  32  33
ENDBRANCH  31  32
ENDBRANCH  30  31
ENDBRANCH   1  30
TORSDOF 17
ENDMDL
