MODEL 1
REMARK VINA RESULT:     -12.4      0.000      0.000
REMARK SMILES Cc1cc(N2N=C(C(=O)NCCCCCCNC(=O)c3ccc(-c4c5nc(c(-c6c(F)cccc6F)c6ccc([nH]6)c(-c6c(F)cccc6F)c6nc(c(-c7c(F)cccc7F)c7ccc4[nH]7)C=C6)C=C5)cc3)C[C@H]2c2ccccc2)c([N+](=O)[O-])cc1C
REMARK SMILES IDX 13 1 12 2 11 3 10 4 8 5 9 6 7 8 5 9 6 10 75 11 74 12 4 13
REMARK SMILES IDX 1 14 2 15 3 16 87 17 86 18 88 19 82 20 83 21 84 22 85 23
REMARK SMILES IDX 76 24 77 25 81 26 78 27 80 28 79 29 14 30 15 31 16 32 17 33
REMARK SMILES IDX 18 34 19 36 20 37 21 38 73 39 22 40 72 41 23 42 24 43 25 44
REMARK SMILES IDX 66 45 26 46 71 47 65 48 67 49 27 50 70 51 64 52 63 53 28 55
REMARK SMILES IDX 54 56 37 57 53 58 38 59 41 60 52 61 68 62 39 63 40 64 51 66
REMARK SMILES IDX 69 67 42 68 29 69 30 70 35 71 31 72 32 73 34 74 36 75 33 76
REMARK SMILES IDX 55 77 56 78 61 79 57 80 58 81 60 82 62 83 59 84 43 85 44 86
REMARK SMILES IDX 49 87 45 88 46 89 48 90 50 91 47 92
REMARK H PARENT 10 7 17 35 67 54 41 65
REMARK Flexibility Score: inf
ROOT
ATOM      1  C   UNL A   1      36.373  22.176  24.158  1.00  0.00     0.002 C 
ENDROOT
BRANCH   1   2
ATOM      2  C   UNL A   1      34.920  22.416  23.752  1.00  0.00     0.021 C 
BRANCH   2   3
ATOM      3  C   UNL A   1      34.155  23.366  24.665  1.00  0.00     0.116 C 
BRANCH   3   4
ATOM      4  N   UNL A   1      32.837  22.862  24.983  1.00  0.00    -0.351 N 
ATOM      5  C   UNL A   1      31.650  23.451  25.336  1.00  0.00     0.267 C 
ATOM      6  O   UNL A   1      30.701  22.708  25.585  1.00  0.00    -0.268 OA
ATOM      7  H   UNL A   1      32.780  21.880  24.937  1.00  0.00     0.163 HD
BRANCH   5   8
ATOM      8  C   UNL A   1      31.427  24.956  25.385  1.00  0.00     0.128 C 
ATOM      9  N   UNL A   1      31.205  26.952  24.653  1.00  0.00    -0.250 N 
ATOM     10  N   UNL A   1      31.302  25.646  24.290  1.00  0.00    -0.171 NA
ATOM     11  C   UNL A   1      31.203  27.165  26.106  1.00  0.00     0.144 C 
ATOM     12  C   UNL A   1      31.295  25.739  26.648  1.00  0.00     0.096 C 
BRANCH   9  13
ATOM     13  C   UNL A   1      30.532  27.846  23.820  1.00  0.00     0.138 A 
ATOM     14  C   UNL A   1      26.836  28.524  23.180  1.00  0.00     0.045 C 
ATOM     15  C   UNL A   1      28.329  28.656  23.059  1.00  0.00    -0.046 A 
ATOM     16  C   UNL A   1      29.132  27.880  23.911  1.00  0.00     0.039 A 
ATOM     17  C   UNL A   1      28.945  29.506  22.125  1.00  0.00    -0.041 A 
ATOM     18  C   UNL A   1      30.347  29.525  22.049  1.00  0.00     0.091 A 
ATOM     19  C   UNL A   1      28.170  30.413  21.209  1.00  0.00     0.045 C 
ATOM     20  C   UNL A   1      31.124  28.692  22.877  1.00  0.00     0.294 A 
BRANCH  20  21
ATOM     21  N   UNL A   1      32.563  28.680  22.644  1.00  0.00     0.065 N 
ATOM     22  O   UNL A   1      32.999  27.849  21.832  1.00  0.00    -0.258 OA
ATOM     23  O   UNL A   1      33.274  29.412  23.355  1.00  0.00    -0.258 OA
ENDBRANCH  20  21
ENDBRANCH   9  13
BRANCH  11  24
ATOM     24  C   UNL A   1      32.314  28.115  26.545  1.00  0.00    -0.023 A 
ATOM     25  C   UNL A   1      33.679  27.783  26.539  1.00  0.00     0.006 A 
ATOM     26  C   UNL A   1      31.962  29.415  26.960  1.00  0.00     0.006 A 
ATOM     27  C   UNL A   1      34.648  28.699  26.959  1.00  0.00     0.000 A 
ATOM     28  C   UNL A   1      32.934  30.346  27.329  1.00  0.00     0.000 A 
ATOM     29  C   UNL A   1      34.276  29.985  27.342  1.00  0.00     0.000 A 
ENDBRANCH  11  24
ENDBRANCH   5   8
ENDBRANCH   3   4
ENDBRANCH   2   3
ENDBRANCH   1   2
BRANCH   1  30
ATOM     30  C   UNL A   1      36.593  21.042  25.164  1.00  0.00     0.002 C 
BRANCH  30  31
ATOM     31  C   UNL A   1      37.804  20.146  24.891  1.00  0.00     0.021 C 
BRANCH  31  32
ATOM     32  C   UNL A   1      39.015  20.425  25.773  1.00  0.00     0.116 C 
BRANCH  32  33
ATOM     33  N   UNL A   1      39.926  19.295  25.829  1.00  0.00    -0.352 N 
ATOM     34  C   UNL A   1      41.285  19.294  26.028  1.00  0.00     0.251 C 
ATOM     35  H   UNL A   1      39.514  18.410  25.710  1.00  0.00     0.163 HD
ATOM     36  O   UNL A   1      41.940  18.270  25.865  1.00  0.00    -0.269 OA
BRANCH  34  37
ATOM     37  C   UNL A   1      41.956  20.549  26.419  1.00  0.00     0.039 A 
ATOM     38  C   UNL A   1      42.341  21.453  25.426  1.00  0.00     0.014 A 
ATOM     39  C   UNL A   1      42.175  20.840  27.768  1.00  0.00     0.014 A 
ATOM     40  C   UNL A   1      42.888  22.686  25.792  1.00  0.00     0.010 A 
ATOM     41  C   UNL A   1      42.653  22.094  28.131  1.00  0.00     0.010 A 
ATOM     42  C   UNL A   1      43.011  23.030  27.147  1.00  0.00    -0.014 A 
BRANCH  42  43
ATOM     43  C   UNL A   1      43.513  24.360  27.575  1.00  0.00     0.031 A 
ATOM     44  C   UNL A   1      42.542  25.407  28.043  1.00  0.00     0.074 A 
ATOM     45  C   UNL A   1      44.821  24.659  27.442  1.00  0.00     0.049 A 
ATOM     46  N   UNL A   1      42.748  26.673  28.300  1.00  0.00    -0.248 NA
ATOM     47  C   UNL A   1      41.143  24.979  28.215  1.00  0.00     0.031 C 
ATOM     48  C   UNL A   1      45.857  23.741  26.966  1.00  0.00     0.029 A 
ATOM     49  N   UNL A   1      45.496  25.833  27.667  1.00  0.00    -0.354 N 
ATOM     50  C   UNL A   1      41.507  27.196  28.634  1.00  0.00     0.074 A 
ATOM     51  C   UNL A   1      40.545  26.123  28.511  1.00  0.00     0.031 C 
ATOM     52  C   UNL A   1      47.035  24.384  26.935  1.00  0.00     0.029 A 
ATOM     53  C   UNL A   1      46.830  25.771  27.341  1.00  0.00     0.049 A 
ATOM     54  H   UNL A   1      45.067  26.642  28.027  1.00  0.00     0.167 HD
ATOM     55  C   UNL A   1      41.200  28.457  29.022  1.00  0.00     0.037 A 
ATOM     56  C   UNL A   1      47.776  26.731  27.341  1.00  0.00     0.037 A 
ATOM     57  C   UNL A   1      42.166  29.511  29.177  1.00  0.00     0.049 A 
ATOM     58  C   UNL A   1      47.406  28.126  27.768  1.00  0.00     0.074 A 
ATOM     59  C   UNL A   1      41.966  30.800  29.636  1.00  0.00     0.029 A 
ATOM     60  N   UNL A   1      43.514  29.397  28.872  1.00  0.00    -0.354 N 
ATOM     61  N   UNL A   1      46.240  28.592  28.146  1.00  0.00    -0.248 NA
ATOM     62  C   UNL A   1      48.481  29.129  27.771  1.00  0.00     0.031 C 
ATOM     63  C   UNL A   1      43.182  31.484  29.560  1.00  0.00     0.029 A 
ATOM     64  C   UNL A   1      44.152  30.604  29.108  1.00  0.00     0.049 A 
ATOM     65  H   UNL A   1      43.953  28.582  28.539  1.00  0.00     0.167 HD
ATOM     66  C   UNL A   1      46.448  29.929  28.463  1.00  0.00     0.074 A 
ATOM     67  C   UNL A   1      47.853  30.198  28.241  1.00  0.00     0.031 C 
ATOM     68  C   UNL A   1      45.556  30.850  28.901  1.00  0.00     0.037 A 
BRANCH  55  69
ATOM     69  C   UNL A   1      39.760  28.771  29.306  1.00  0.00     0.057 A 
ATOM     70  C   UNL A   1      39.195  28.583  30.573  1.00  0.00     0.134 A 
ATOM     71  C   UNL A   1      38.944  29.326  28.310  1.00  0.00     0.134 A 
ATOM     72  F   UNL A   1      39.918  28.046  31.567  1.00  0.00    -0.206 F 
ATOM     73  C   UNL A   1      37.865  28.916  30.836  1.00  0.00     0.040 A 
ATOM     74  C   UNL A   1      37.622  29.689  28.568  1.00  0.00     0.040 A 
ATOM     75  F   UNL A   1      39.425  29.539  27.076  1.00  0.00    -0.206 F 
ATOM     76  C   UNL A   1      37.077  29.479  29.833  1.00  0.00     0.006 A 
ENDBRANCH  55  69
BRANCH  56  77
ATOM     77  C   UNL A   1      49.163  26.415  26.916  1.00  0.00     0.057 A 
ATOM     78  C   UNL A   1      49.548  26.505  25.573  1.00  0.00     0.134 A 
ATOM     79  C   UNL A   1      50.132  25.992  27.835  1.00  0.00     0.134 A 
ATOM     80  F   UNL A   1      48.661  26.886  24.642  1.00  0.00    -0.206 F 
ATOM     81  C   UNL A   1      50.835  26.160  25.155  1.00  0.00     0.040 A 
ATOM     82  C   UNL A   1      51.431  25.671  27.435  1.00  0.00     0.040 A 
ATOM     83  F   UNL A   1      49.832  25.892  29.139  1.00  0.00    -0.206 F 
ATOM     84  C   UNL A   1      51.781  25.746  26.089  1.00  0.00     0.006 A 
ENDBRANCH  56  77
BRANCH  68  85
ATOM     85  C   UNL A   1      46.073  32.221  29.220  1.00  0.00     0.057 A 
ATOM     86  C   UNL A   1      46.646  32.529  30.459  1.00  0.00     0.134 A 
ATOM     87  C   UNL A   1      46.061  33.227  28.245  1.00  0.00     0.134 A 
ATOM     88  F   UNL A   1      46.678  31.615  31.441  1.00  0.00    -0.206 F 
ATOM     89  C   UNL A   1      47.180  33.792  30.721  1.00  0.00     0.040 A 
ATOM     90  C   UNL A   1      46.616  34.484  28.485  1.00  0.00     0.040 A 
ATOM     91  F   UNL A   1      45.534  32.993  27.032  1.00  0.00    -0.206 F 
ATOM     92  C   UNL A   1      47.176  34.770  29.728  1.00  0.00     0.006 A 
ENDBRANCH  68  85
ENDBRANCH  42  43
ENDBRANCH  34  37
ENDBRANCH  32  33
ENDBRANCH  31  32
ENDBRANCH  30  31
ENDBRANCH   1  30
TORSDOF 16
ENDMDL
MODEL 2
REMARK VINA RESULT:     -12.2      5.712     10.604
REMARK SMILES Cc1cc(N2N=C(C(=O)NCCCCCCNC(=O)c3ccc(-c4c5nc(c(-c6c(F)cccc6F)c6ccc([nH]6)c(-c6c(F)cccc6F)c6nc(c(-c7c(F)cccc7F)c7ccc4[nH]7)C=C6)C=C5)cc3)C[C@H]2c2ccccc2)c([N+](=O)[O-])cc1C
REMARK SMILES IDX 13 1 12 2 11 3 10 4 8 5 9 6 7 8 5 9 6 10 75 11 74 12 4 13
REMARK SMILES IDX 1 14 2 15 3 16 87 17 86 18 88 19 82 20 83 21 84 22 85 23
REMARK SMILES IDX 76 24 77 25 81 26 78 27 80 28 79 29 14 30 15 31 16 32 17 33
REMARK SMILES IDX 18 34 19 36 20 37 21 38 73 39 22 40 72 41 23 42 24 43 25 44
REMARK SMILES IDX 66 45 26 46 71 47 65 48 67 49 27 50 70 51 64 52 63 53 28 55
REMARK SMILES IDX 54 56 37 57 53 58 38 59 41 60 52 61 68 62 39 63 40 64 51 66
REMARK SMILES IDX 69 67 42 68 29 69 30 70 35 71 31 72 32 73 34 74 36 75 33 76
REMARK SMILES IDX 55 77 56 78 61 79 57 80 58 81 60 82 62 83 59 84 43 85 44 86
REMARK SMILES IDX 49 87 45 88 46 89 48 90 50 91 47 92
REMARK H PARENT 10 7 17 35 67 54 41 65
REMARK Flexibility Score: inf
ROOT
ATOM      1  C   UNL A   1      34.394  32.674  28.661  1.00  0.00     0.002 C 
ENDROOT
BRANCH   1   2
ATOM      2  C   UNL A   1      33.179  32.476  27.756  1.00  0.00     0.021 C 
BRANCH   2   3
ATOM      3  C   UNL A   1      33.134  31.132  27.039  1.00  0.00     0.116 C 
BRANCH   3   4
ATOM      4  N   UNL A   1      34.366  30.393  27.201  1.00  0.00    -0.351 N 
ATOM      5  C   UNL A   1      34.709  29.071  27.080  1.00  0.00     0.267 C 
ATOM      6  O   UNL A   1      35.871  28.762  27.335  1.00  0.00    -0.268 OA
ATOM      7  H   UNL A   1      35.127  30.966  27.455  1.00  0.00     0.163 HD
BRANCH   5   8
ATOM      8  C   UNL A   1      33.756  27.984  26.602  1.00  0.00     0.128 C 
ATOM      9  N   UNL A   1      33.094  26.263  25.520  1.00  0.00    -0.250 N 
ATOM     10  N   UNL A   1      34.180  27.012  25.849  1.00  0.00    -0.171 NA
ATOM     11  C   UNL A   1      31.846  26.722  26.144  1.00  0.00     0.144 C 
ATOM     12  C   UNL A   1      32.313  27.917  26.976  1.00  0.00     0.096 C 
BRANCH   9  13
ATOM     13  C   UNL A   1      33.261  24.912  25.216  1.00  0.00     0.138 A 
ATOM     14  C   UNL A   1      34.200  21.871  27.314  1.00  0.00     0.045 C 
ATOM     15  C   UNL A   1      33.820  22.679  26.104  1.00  0.00    -0.046 A 
ATOM     16  C   UNL A   1      33.528  24.041  26.284  1.00  0.00     0.039 A 
ATOM     17  C   UNL A   1      33.762  22.132  24.812  1.00  0.00    -0.041 A 
ATOM     18  C   UNL A   1      33.448  22.974  23.732  1.00  0.00     0.091 A 
ATOM     19  C   UNL A   1      34.004  20.675  24.529  1.00  0.00     0.045 C 
ATOM     20  C   UNL A   1      33.218  24.348  23.937  1.00  0.00     0.294 A 
BRANCH  20  21
ATOM     21  N   UNL A   1      33.026  25.173  22.751  1.00  0.00     0.065 N 
ATOM     22  O   UNL A   1      31.863  25.319  22.344  1.00  0.00    -0.258 OA
ATOM     23  O   UNL A   1      34.038  25.578  22.153  1.00  0.00    -0.258 OA
ENDBRANCH  20  21
ENDBRANCH   9  13
BRANCH  11  24
ATOM     24  C   UNL A   1      30.765  27.018  25.108  1.00  0.00    -0.023 A 
ATOM     25  C   UNL A   1      29.644  26.199  24.887  1.00  0.00     0.006 A 
ATOM     26  C   UNL A   1      30.875  28.192  24.338  1.00  0.00     0.006 A 
ATOM     27  C   UNL A   1      28.692  26.525  23.917  1.00  0.00     0.000 A 
ATOM     28  C   UNL A   1      29.897  28.543  23.406  1.00  0.00     0.000 A 
ATOM     29  C   UNL A   1      28.812  27.703  23.186  1.00  0.00     0.000 A 
ENDBRANCH  11  24
ENDBRANCH   5   8
ENDBRANCH   3   4
ENDBRANCH   2   3
ENDBRANCH   1   2
BRANCH   1  30
ATOM     30  C   UNL A   1      34.594  34.100  29.184  1.00  0.00     0.002 C 
BRANCH  30  31
ATOM     31  C   UNL A   1      33.373  35.016  29.078  1.00  0.00     0.021 C 
BRANCH  31  32
ATOM     32  C   UNL A   1      33.520  36.360  29.782  1.00  0.00     0.116 C 
BRANCH  32  33
ATOM     33  N   UNL A   1      32.504  36.561  30.801  1.00  0.00    -0.352 N 
ATOM     34  C   UNL A   1      32.417  36.000  32.051  1.00  0.00     0.251 C 
ATOM     35  H   UNL A   1      31.781  37.184  30.563  1.00  0.00     0.163 HD
ATOM     36  O   UNL A   1      31.399  36.129  32.725  1.00  0.00    -0.269 OA
BRANCH  34  37
ATOM     37  C   UNL A   1      33.556  35.219  32.572  1.00  0.00     0.039 A 
ATOM     38  C   UNL A   1      33.353  33.893  32.957  1.00  0.00     0.014 A 
ATOM     39  C   UNL A   1      34.828  35.794  32.649  1.00  0.00     0.014 A 
ATOM     40  C   UNL A   1      34.443  33.116  33.357  1.00  0.00     0.010 A 
ATOM     41  C   UNL A   1      35.921  35.000  32.979  1.00  0.00     0.010 A 
ATOM     42  C   UNL A   1      35.740  33.654  33.334  1.00  0.00    -0.014 A 
BRANCH  42  43
ATOM     43  C   UNL A   1      36.932  32.839  33.676  1.00  0.00     0.031 A 
ATOM     44  C   UNL A   1      37.693  33.127  34.939  1.00  0.00     0.074 A 
ATOM     45  C   UNL A   1      37.388  31.917  32.805  1.00  0.00     0.049 A 
ATOM     46  N   UNL A   1      38.844  32.652  35.339  1.00  0.00    -0.248 NA
ATOM     47  C   UNL A   1      37.094  34.107  35.861  1.00  0.00     0.031 C 
ATOM     48  C   UNL A   1      36.758  31.569  31.529  1.00  0.00     0.029 A 
ATOM     49  N   UNL A   1      38.509  31.125  32.847  1.00  0.00    -0.354 N 
ATOM     50  C   UNL A   1      39.120  33.292  36.540  1.00  0.00     0.074 A 
ATOM     51  C   UNL A   1      38.036  34.219  36.786  1.00  0.00     0.031 C 
ATOM     52  C   UNL A   1      37.499  30.636  30.912  1.00  0.00     0.029 A 
ATOM     53  C   UNL A   1      38.680  30.353  31.722  1.00  0.00     0.049 A 
ATOM     54  H   UNL A   1      39.130  31.109  33.610  1.00  0.00     0.167 HD
ATOM     55  C   UNL A   1      40.175  33.113  37.369  1.00  0.00     0.037 A 
ATOM     56  C   UNL A   1      39.690  29.533  31.369  1.00  0.00     0.037 A 
ATOM     57  C   UNL A   1      41.231  32.165  37.137  1.00  0.00     0.049 A 
ATOM     58  C   UNL A   1      40.856  29.359  32.306  1.00  0.00     0.074 A 
ATOM     59  C   UNL A   1      42.304  31.856  37.953  1.00  0.00     0.029 A 
ATOM     60  N   UNL A   1      41.349  31.376  36.002  1.00  0.00    -0.354 N 
ATOM     61  N   UNL A   1      41.071  29.922  33.470  1.00  0.00    -0.248 NA
ATOM     62  C   UNL A   1      41.918  28.436  31.881  1.00  0.00     0.031 C 
ATOM     63  C   UNL A   1      43.101  30.918  37.291  1.00  0.00     0.029 A 
ATOM     64  C   UNL A   1      42.493  30.600  36.087  1.00  0.00     0.049 A 
ATOM     65  H   UNL A   1      40.714  31.367  35.251  1.00  0.00     0.167 HD
ATOM     66  C   UNL A   1      42.272  29.397  33.931  1.00  0.00     0.074 A 
ATOM     67  C   UNL A   1      42.734  28.465  32.925  1.00  0.00     0.031 C 
ATOM     68  C   UNL A   1      42.930  29.661  35.085  1.00  0.00     0.037 A 
BRANCH  55  69
ATOM     69  C   UNL A   1      40.246  33.960  38.606  1.00  0.00     0.057 A 
ATOM     70  C   UNL A   1      40.926  35.185  38.630  1.00  0.00     0.134 A 
ATOM     71  C   UNL A   1      39.572  33.572  39.772  1.00  0.00     0.134 A 
ATOM     72  F   UNL A   1      41.600  35.609  37.550  1.00  0.00    -0.206 F 
ATOM     73  C   UNL A   1      40.952  35.982  39.775  1.00  0.00     0.040 A 
ATOM     74  C   UNL A   1      39.567  34.374  40.913  1.00  0.00     0.040 A 
ATOM     75  F   UNL A   1      38.896  32.414  39.815  1.00  0.00    -0.206 F 
ATOM     76  C   UNL A   1      40.263  35.581  40.919  1.00  0.00     0.006 A 
ENDBRANCH  55  69
BRANCH  56  77
ATOM     77  C   UNL A   1      39.653  28.818  30.068  1.00  0.00     0.057 A 
ATOM     78  C   UNL A   1      39.099  27.537  29.961  1.00  0.00     0.134 A 
ATOM     79  C   UNL A   1      40.190  29.385  28.906  1.00  0.00     0.134 A 
ATOM     80  F   UNL A   1      38.585  26.932  31.043  1.00  0.00    -0.206 F 
ATOM     81  C   UNL A   1      39.105  26.835  28.754  1.00  0.00     0.040 A 
ATOM     82  C   UNL A   1      40.178  28.706  27.686  1.00  0.00     0.040 A 
ATOM     83  F   UNL A   1      40.729  30.613  28.937  1.00  0.00    -0.206 F 
ATOM     84  C   UNL A   1      39.642  27.422  27.611  1.00  0.00     0.006 A 
ENDBRANCH  56  77
BRANCH  68  85
ATOM     85  C   UNL A   1      44.195  28.902  35.354  1.00  0.00     0.057 A 
ATOM     86  C   UNL A   1      45.449  29.391  34.975  1.00  0.00     0.134 A 
ATOM     87  C   UNL A   1      44.159  27.698  36.071  1.00  0.00     0.134 A 
ATOM     88  F   UNL A   1      45.552  30.532  34.277  1.00  0.00    -0.206 F 
ATOM     89  C   UNL A   1      46.623  28.704  35.288  1.00  0.00     0.040 A 
ATOM     90  C   UNL A   1      45.327  27.017  36.413  1.00  0.00     0.040 A 
ATOM     91  F   UNL A   1      42.988  27.179  36.473  1.00  0.00    -0.206 F 
ATOM     92  C   UNL A   1      46.565  27.519  36.019  1.00  0.00     0.006 A 
ENDBRANCH  68  85
ENDBRANCH  42  43
ENDBRANCH  34  37
ENDBRANCH  32  33
ENDBRANCH  31  32
ENDBRANCH  30  31
ENDBRANCH   1  30
TORSDOF 16
ENDMDL
MODEL 3
REMARK VINA RESULT:     -12.0      4.166      8.457
REMARK SMILES Cc1cc(N2N=C(C(=O)NCCCCCCNC(=O)c3ccc(-c4c5nc(c(-c6c(F)cccc6F)c6ccc([nH]6)c(-c6c(F)cccc6F)c6nc(c(-c7c(F)cccc7F)c7ccc4[nH]7)C=C6)C=C5)cc3)C[C@H]2c2ccccc2)c([N+](=O)[O-])cc1C
REMARK SMILES IDX 13 1 12 2 11 3 10 4 8 5 9 6 7 8 5 9 6 10 75 11 74 12 4 13
REMARK SMILES IDX 1 14 2 15 3 16 87 17 86 18 88 19 82 20 83 21 84 22 85 23
REMARK SMILES IDX 76 24 77 25 81 26 78 27 80 28 79 29 14 30 15 31 16 32 17 33
REMARK SMILES IDX 18 34 19 36 20 37 21 38 73 39 22 40 72 41 23 42 24 43 25 44
REMARK SMILES IDX 66 45 26 46 71 47 65 48 67 49 27 50 70 51 64 52 63 53 28 55
REMARK SMILES IDX 54 56 37 57 53 58 38 59 41 60 52 61 68 62 39 63 40 64 51 66
REMARK SMILES IDX 69 67 42 68 29 69 30 70 35 71 31 72 32 73 34 74 36 75 33 76
REMARK SMILES IDX 55 77 56 78 61 79 57 80 58 81 60 82 62 83 59 84 43 85 44 86
REMARK SMILES IDX 49 87 45 88 46 89 48 90 50 91 47 92
REMARK H PARENT 10 7 17 35 67 54 41 65
REMARK Flexibility Score: inf
ROOT
ATOM      1  C   UNL A   1      40.397  20.794  26.737  1.00  0.00     0.002 C 
ENDROOT
BRANCH   1   2
ATOM      2  C   UNL A   1      39.360  20.189  25.792  1.00  0.00     0.021 C 
BRANCH   2   3
ATOM      3  C   UNL A   1      38.192  21.109  25.458  1.00  0.00     0.116 C 
BRANCH   3   4
ATOM      4  N   UNL A   1      38.328  22.402  26.091  1.00  0.00    -0.351 N 
ATOM      5  C   UNL A   1      37.631  23.581  26.011  1.00  0.00     0.267 C 
ATOM      6  O   UNL A   1      38.048  24.531  26.672  1.00  0.00    -0.268 OA
ATOM      7  H   UNL A   1      39.087  22.447  26.716  1.00  0.00     0.163 HD
BRANCH   5   8
ATOM      8  C   UNL A   1      36.356  23.764  25.200  1.00  0.00     0.128 C 
ATOM      9  N   UNL A   1      34.355  24.380  24.763  1.00  0.00    -0.250 N 
ATOM     10  N   UNL A   1      35.371  24.477  25.663  1.00  0.00    -0.171 NA
ATOM     11  C   UNL A   1      34.694  23.594  23.570  1.00  0.00     0.144 C 
ATOM     12  C   UNL A   1      36.146  23.198  23.836  1.00  0.00     0.096 C 
BRANCH   9  13
ATOM     13  C   UNL A   1      33.422  25.412  24.673  1.00  0.00     0.138 A 
ATOM     14  C   UNL A   1      33.605  28.975  23.331  1.00  0.00     0.045 C 
ATOM     15  C   UNL A   1      33.021  27.738  23.955  1.00  0.00    -0.046 A 
ATOM     16  C   UNL A   1      33.825  26.589  24.024  1.00  0.00     0.039 A 
ATOM     17  C   UNL A   1      31.719  27.694  24.481  1.00  0.00    -0.041 A 
ATOM     18  C   UNL A   1      31.274  26.510  25.092  1.00  0.00     0.091 A 
ATOM     19  C   UNL A   1      30.766  28.856  24.406  1.00  0.00     0.045 C 
ATOM     20  C   UNL A   1      32.125  25.394  25.198  1.00  0.00     0.294 A 
BRANCH  20  21
ATOM     21  N   UNL A   1      31.632  24.252  25.959  1.00  0.00     0.065 N 
ATOM     22  O   UNL A   1      31.062  23.351  25.323  1.00  0.00    -0.258 OA
ATOM     23  O   UNL A   1      31.702  24.304  27.199  1.00  0.00    -0.258 OA
ENDBRANCH  20  21
ENDBRANCH   9  13
BRANCH  11  24
ATOM     24  C   UNL A   1      33.721  22.437  23.355  1.00  0.00    -0.023 A 
ATOM     25  C   UNL A   1      32.793  22.378  22.301  1.00  0.00     0.006 A 
ATOM     26  C   UNL A   1      33.764  21.347  24.246  1.00  0.00     0.006 A 
ATOM     27  C   UNL A   1      31.925  21.290  22.163  1.00  0.00     0.000 A 
ATOM     28  C   UNL A   1      32.933  20.238  24.077  1.00  0.00     0.000 A 
ATOM     29  C   UNL A   1      32.004  20.215  23.043  1.00  0.00     0.000 A 
ENDBRANCH  11  24
ENDBRANCH   5   8
ENDBRANCH   3   4
ENDBRANCH   2   3
ENDBRANCH   1   2
BRANCH   1  30
ATOM     30  C   UNL A   1      41.747  20.070  26.775  1.00  0.00     0.002 C 
BRANCH  30  31
ATOM     31  C   UNL A   1      42.942  20.884  26.273  1.00  0.00     0.021 C 
BRANCH  31  32
ATOM     32  C   UNL A   1      42.604  22.298  25.815  1.00  0.00     0.116 C 
BRANCH  32  33
ATOM     33  N   UNL A   1      43.719  22.936  25.135  1.00  0.00    -0.352 N 
ATOM     34  C   UNL A   1      44.123  24.247  25.190  1.00  0.00     0.251 C 
ATOM     35  H   UNL A   1      44.258  22.350  24.558  1.00  0.00     0.163 HD
ATOM     36  O   UNL A   1      44.973  24.673  24.414  1.00  0.00    -0.269 OA
BRANCH  34  37
ATOM     37  C   UNL A   1      43.506  25.150  26.182  1.00  0.00     0.039 A 
ATOM     38  C   UNL A   1      42.676  24.612  27.168  1.00  0.00     0.014 A 
ATOM     39  C   UNL A   1      43.775  26.521  26.151  1.00  0.00     0.014 A 
ATOM     40  C   UNL A   1      42.168  25.443  28.169  1.00  0.00     0.010 A 
ATOM     41  C   UNL A   1      43.326  27.332  27.186  1.00  0.00     0.010 A 
ATOM     42  C   UNL A   1      42.520  26.802  28.207  1.00  0.00    -0.014 A 
BRANCH  42  43
ATOM     43  C   UNL A   1      42.065  27.699  29.297  1.00  0.00     0.031 A 
ATOM     44  C   UNL A   1      42.731  27.634  30.643  1.00  0.00     0.074 A 
ATOM     45  C   UNL A   1      40.990  28.491  29.111  1.00  0.00     0.049 A 
ATOM     46  N   UNL A   1      42.384  28.204  31.768  1.00  0.00    -0.248 NA
ATOM     47  C   UNL A   1      43.932  26.788  30.743  1.00  0.00     0.031 C 
ATOM     48  C   UNL A   1      40.236  28.618  27.862  1.00  0.00     0.029 A 
ATOM     49  N   UNL A   1      40.327  29.318  29.983  1.00  0.00    -0.354 N 
ATOM     50  C   UNL A   1      43.302  27.764  32.712  1.00  0.00     0.074 A 
ATOM     51  C   UNL A   1      44.199  26.850  32.040  1.00  0.00     0.031 C 
ATOM     52  C   UNL A   1      39.216  29.470  28.048  1.00  0.00     0.029 A 
ATOM     53  C   UNL A   1      39.214  29.913  29.440  1.00  0.00     0.049 A 
ATOM     54  H   UNL A   1      40.621  29.471  30.910  1.00  0.00     0.167 HD
ATOM     55  C   UNL A   1      43.396  28.104  34.020  1.00  0.00     0.037 A 
ATOM     56  C   UNL A   1      38.279  30.703  30.005  1.00  0.00     0.037 A 
ATOM     57  C   UNL A   1      42.522  29.040  34.674  1.00  0.00     0.049 A 
ATOM     58  C   UNL A   1      38.403  31.058  31.463  1.00  0.00     0.074 A 
ATOM     59  C   UNL A   1      42.581  29.506  35.975  1.00  0.00     0.029 A 
ATOM     60  N   UNL A   1      41.428  29.649  34.078  1.00  0.00    -0.354 N 
ATOM     61  N   UNL A   1      39.315  30.688  32.328  1.00  0.00    -0.248 NA
ATOM     62  C   UNL A   1      37.369  31.940  32.022  1.00  0.00     0.031 C 
ATOM     63  C   UNL A   1      41.493  30.358  36.183  1.00  0.00     0.029 A 
ATOM     64  C   UNL A   1      40.789  30.467  34.995  1.00  0.00     0.049 A 
ATOM     65  H   UNL A   1      41.149  29.522  33.143  1.00  0.00     0.167 HD
ATOM     66  C   UNL A   1      38.986  31.317  33.522  1.00  0.00     0.074 A 
ATOM     67  C   UNL A   1      37.794  32.099  33.268  1.00  0.00     0.031 C 
ATOM     68  C   UNL A   1      39.615  31.255  34.720  1.00  0.00     0.037 A 
BRANCH  55  69
ATOM     69  C   UNL A   1      44.479  27.459  34.835  1.00  0.00     0.057 A 
ATOM     70  C   UNL A   1      44.285  26.239  35.495  1.00  0.00     0.134 A 
ATOM     71  C   UNL A   1      45.752  28.040  34.910  1.00  0.00     0.134 A 
ATOM     72  F   UNL A   1      43.087  25.636  35.471  1.00  0.00    -0.206 F 
ATOM     73  C   UNL A   1      45.312  25.630  36.218  1.00  0.00     0.040 A 
ATOM     74  C   UNL A   1      46.794  27.426  35.605  1.00  0.00     0.040 A 
ATOM     75  F   UNL A   1      46.007  29.205  34.295  1.00  0.00    -0.206 F 
ATOM     76  C   UNL A   1      46.574  26.220  36.267  1.00  0.00     0.006 A 
ENDBRANCH  55  69
BRANCH  56  77
ATOM     77  C   UNL A   1      37.139  31.208  29.198  1.00  0.00     0.057 A 
ATOM     78  C   UNL A   1      37.117  32.524  28.721  1.00  0.00     0.134 A 
ATOM     79  C   UNL A   1      36.035  30.399  28.904  1.00  0.00     0.134 A 
ATOM     80  F   UNL A   1      38.136  33.355  28.986  1.00  0.00    -0.206 F 
ATOM     81  C   UNL A   1      36.027  33.026  28.007  1.00  0.00     0.040 A 
ATOM     82  C   UNL A   1      34.952  30.878  28.166  1.00  0.00     0.040 A 
ATOM     83  F   UNL A   1      35.997  29.126  29.324  1.00  0.00    -0.206 F 
ATOM     84  C   UNL A   1      34.942  32.200  27.723  1.00  0.00     0.006 A 
ENDBRANCH  56  77
BRANCH  68  85
ATOM     85  C   UNL A   1      39.065  32.089  35.839  1.00  0.00     0.057 A 
ATOM     86  C   UNL A   1      38.191  31.563  36.797  1.00  0.00     0.134 A 
ATOM     87  C   UNL A   1      39.477  33.419  35.999  1.00  0.00     0.134 A 
ATOM     88  F   UNL A   1      37.749  30.301  36.694  1.00  0.00    -0.206 F 
ATOM     89  C   UNL A   1      37.737  32.333  37.868  1.00  0.00     0.040 A 
ATOM     90  C   UNL A   1      39.052  34.190  37.081  1.00  0.00     0.040 A 
ATOM     91  F   UNL A   1      40.322  33.981  35.120  1.00  0.00    -0.206 F 
ATOM     92  C   UNL A   1      38.177  33.647  38.019  1.00  0.00     0.006 A 
ENDBRANCH  68  85
ENDBRANCH  42  43
ENDBRANCH  34  37
ENDBRANCH  32  33
ENDBRANCH  31  32
ENDBRANCH  30  31
ENDBRANCH   1  30
TORSDOF 16
ENDMDL
