MODEL 1
REMARK VINA RESULT:     -11.4      0.000      0.000
REMARK SMILES O=C(NCCCCCCNC(=O)[C@@H]1CC[C@@H](CNC(=O)c2ccno2)O1)c1ccc(-c2c3nc(c(-c4c(F)cccc4F)c4ccc([nH]4)c(-c4c(F)cccc4F)c4nc(c(-c5c(F)cccc5F)c5ccc2[nH]5)C=C4)C=C3)cc1
REMARK SMILES IDX 7 1 6 2 5 3 4 4 3 5 1 6 2 7 27 9 28 10 80 11 29 12 79 13
REMARK SMILES IDX 30 14 31 15 32 16 73 17 33 18 78 19 72 20 74 21 34 22 77 23
REMARK SMILES IDX 71 24 70 25 35 27 61 28 44 29 60 30 45 31 48 32 59 33 75 34
REMARK SMILES IDX 46 35 47 36 58 38 76 39 49 40 36 41 37 42 42 43 38 44 39 45
REMARK SMILES IDX 41 46 43 47 40 48 62 49 63 50 68 51 64 52 65 53 67 54 69 55
REMARK SMILES IDX 66 56 50 57 51 58 56 59 52 60 53 61 55 62 57 63 54 64 8 65
REMARK SMILES IDX 9 66 10 67 11 68 12 70 13 71 14 72 26 73 15 74 16 75 17 76
REMARK SMILES IDX 18 77 19 78 20 80 21 81 22 82 25 83 23 84 24 85
REMARK H PARENT 3 8 74 26 48 37 10 69 18 79
REMARK Flexibility Score: inf
ROOT
ATOM      1  C   UNL A   1      32.762  29.398  25.933  1.00  0.00     0.002 C 
ENDROOT
BRANCH   1   2
ATOM      2  C   UNL A   1      31.416  30.104  25.728  1.00  0.00     0.002 C 
BRANCH   2   3
ATOM      3  C   UNL A   1      31.334  31.578  26.133  1.00  0.00     0.021 C 
BRANCH   3   4
ATOM      4  C   UNL A   1      32.499  32.123  26.955  1.00  0.00     0.116 C 
BRANCH   4   5
ATOM      5  N   UNL A   1      32.301  33.491  27.397  1.00  0.00    -0.352 N 
ATOM      6  O   UNL A   1      32.655  35.353  28.614  1.00  0.00    -0.269 OA
ATOM      7  C   UNL A   1      33.040  34.233  28.288  1.00  0.00     0.251 C 
ATOM      8  H   UNL A   1      31.527  33.954  27.002  1.00  0.00     0.163 HD
BRANCH   7   9
ATOM      9  C   UNL A   1      34.279  33.684  28.892  1.00  0.00     0.039 A 
ATOM     10  C   UNL A   1      35.546  34.160  28.540  1.00  0.00     0.014 A 
ATOM     11  C   UNL A   1      34.160  32.687  29.870  1.00  0.00     0.014 A 
ATOM     12  C   UNL A   1      36.689  33.571  29.084  1.00  0.00     0.010 A 
ATOM     13  C   UNL A   1      35.305  32.122  30.442  1.00  0.00     0.010 A 
ATOM     14  C   UNL A   1      36.578  32.538  30.028  1.00  0.00    -0.014 A 
BRANCH  14  15
ATOM     15  C   UNL A   1      37.807  31.909  30.568  1.00  0.00     0.031 A 
ATOM     16  C   UNL A   1      38.292  32.238  31.952  1.00  0.00     0.074 A 
ATOM     17  C   UNL A   1      38.469  30.999  29.830  1.00  0.00     0.049 A 
ATOM     18  N   UNL A   1      39.283  31.709  32.625  1.00  0.00    -0.248 NA
ATOM     19  C   UNL A   1      37.574  33.301  32.671  1.00  0.00     0.031 C 
ATOM     20  C   UNL A   1      38.121  30.606  28.465  1.00  0.00     0.029 A 
ATOM     21  N   UNL A   1      39.558  30.224  30.138  1.00  0.00    -0.354 N 
ATOM     22  C   UNL A   1      39.319  32.382  33.839  1.00  0.00     0.074 A 
ATOM     23  C   UNL A   1      38.252  33.362  33.810  1.00  0.00     0.031 C 
ATOM     24  C   UNL A   1      38.954  29.629  28.068  1.00  0.00     0.029 A 
ATOM     25  C   UNL A   1      39.891  29.334  29.148  1.00  0.00     0.049 A 
ATOM     26  H   UNL A   1      40.050  30.298  30.988  1.00  0.00     0.167 HD
ATOM     27  C   UNL A   1      40.159  32.200  34.885  1.00  0.00     0.037 A 
ATOM     28  C   UNL A   1      40.830  28.371  29.124  1.00  0.00     0.037 A 
ATOM     29  C   UNL A   1      41.203  31.213  34.942  1.00  0.00     0.049 A 
ATOM     30  C   UNL A   1      41.707  28.146  30.318  1.00  0.00     0.074 A 
ATOM     31  C   UNL A   1      42.084  30.945  35.975  1.00  0.00     0.029 A 
ATOM     32  N   UNL A   1      41.499  30.323  33.923  1.00  0.00    -0.354 N 
ATOM     33  N   UNL A   1      41.712  28.773  31.467  1.00  0.00    -0.248 NA
ATOM     34  C   UNL A   1      42.707  27.073  30.212  1.00  0.00     0.031 C 
ATOM     35  C   UNL A   1      42.917  29.891  35.580  1.00  0.00     0.029 A 
ATOM     36  C   UNL A   1      42.549  29.503  34.303  1.00  0.00     0.049 A 
ATOM     37  H   UNL A   1      41.034  30.281  33.057  1.00  0.00     0.167 HD
ATOM     38  C   UNL A   1      42.706  28.170  32.223  1.00  0.00     0.074 A 
ATOM     39  C   UNL A   1      43.284  27.124  31.406  1.00  0.00     0.031 C 
ATOM     40  C   UNL A   1      43.104  28.461  33.484  1.00  0.00     0.037 A 
BRANCH  27  41
ATOM     41  C   UNL A   1      39.977  33.101  36.065  1.00  0.00     0.057 A 
ATOM     42  C   UNL A   1      39.094  32.770  37.099  1.00  0.00     0.134 A 
ATOM     43  C   UNL A   1      40.709  34.288  36.179  1.00  0.00     0.134 A 
ATOM     44  F   UNL A   1      38.360  31.650  37.034  1.00  0.00    -0.206 F 
ATOM     45  C   UNL A   1      38.941  33.598  38.211  1.00  0.00     0.040 A 
ATOM     46  C   UNL A   1      40.568  35.123  37.287  1.00  0.00     0.040 A 
ATOM     47  F   UNL A   1      41.565  34.655  35.213  1.00  0.00    -0.206 F 
ATOM     48  C   UNL A   1      39.681  34.777  38.307  1.00  0.00     0.006 A 
ENDBRANCH  27  41
BRANCH  28  49
ATOM     49  C   UNL A   1      40.951  27.504  27.933  1.00  0.00     0.057 A 
ATOM     50  C   UNL A   1      40.263  26.287  27.862  1.00  0.00     0.134 A 
ATOM     51  C   UNL A   1      41.744  27.877  26.843  1.00  0.00     0.134 A 
ATOM     52  F   UNL A   1      39.500  25.884  28.888  1.00  0.00    -0.206 F 
ATOM     53  C   UNL A   1      40.360  25.464  26.742  1.00  0.00     0.040 A 
ATOM     54  C   UNL A   1      41.847  27.066  25.714  1.00  0.00     0.040 A 
ATOM     55  F   UNL A   1      42.426  29.030  26.867  1.00  0.00    -0.206 F 
ATOM     56  C   UNL A   1      41.154  25.855  25.663  1.00  0.00     0.006 A 
ENDBRANCH  28  49
BRANCH  40  57
ATOM     57  C   UNL A   1      44.209  27.631  34.054  1.00  0.00     0.057 A 
ATOM     58  C   UNL A   1      43.949  26.391  34.648  1.00  0.00     0.134 A 
ATOM     59  C   UNL A   1      45.539  28.063  33.989  1.00  0.00     0.134 A 
ATOM     60  F   UNL A   1      42.691  25.934  34.746  1.00  0.00    -0.206 F 
ATOM     61  C   UNL A   1      44.979  25.606  35.167  1.00  0.00     0.040 A 
ATOM     62  C   UNL A   1      46.578  27.287  34.500  1.00  0.00     0.040 A 
ATOM     63  F   UNL A   1      45.843  29.247  33.436  1.00  0.00    -0.206 F 
ATOM     64  C   UNL A   1      46.298  26.054  35.091  1.00  0.00     0.006 A 
ENDBRANCH  40  57
ENDBRANCH  14  15
ENDBRANCH   7   9
ENDBRANCH   4   5
ENDBRANCH   3   4
ENDBRANCH   2   3
ENDBRANCH   1   2
BRANCH   1  65
ATOM     65  C   UNL A   1      32.742  28.056  26.676  1.00  0.00     0.021 C 
BRANCH  65  66
ATOM     66  C   UNL A   1      32.430  26.824  25.829  1.00  0.00     0.116 C 
BRANCH  66  67
ATOM     67  N   UNL A   1      31.653  25.829  26.539  1.00  0.00    -0.354 N 
ATOM     68  C   UNL A   1      31.705  24.464  26.456  1.00  0.00     0.249 C 
ATOM     69  H   UNL A   1      30.991  26.185  27.174  1.00  0.00     0.163 HD
ATOM     70  O   UNL A   1      31.028  23.809  27.252  1.00  0.00    -0.272 OA
BRANCH  68  71
ATOM     71  C   UNL A   1      32.540  23.793  25.348  1.00  0.00     0.207 C 
ATOM     72  C   UNL A   1      31.717  23.737  24.062  1.00  0.00     0.045 C 
ATOM     73  O   UNL A   1      32.895  22.439  25.683  1.00  0.00    -0.363 OA
ATOM     74  C   UNL A   1      31.900  22.319  23.573  1.00  0.00     0.037 C 
ATOM     75  C   UNL A   1      32.111  21.558  24.870  1.00  0.00     0.138 C 
BRANCH  75  76
ATOM     76  C   UNL A   1      32.785  20.183  24.736  1.00  0.00     0.148 C 
BRANCH  76  77
ATOM     77  N   UNL A   1      32.305  19.382  23.618  1.00  0.00    -0.347 N 
ATOM     78  C   UNL A   1      32.723  18.163  23.136  1.00  0.00     0.289 C 
ATOM     79  H   UNL A   1      31.555  19.782  23.121  1.00  0.00     0.164 HD
ATOM     80  O   UNL A   1      32.328  17.875  22.004  1.00  0.00    -0.266 OA
BRANCH  78  81
ATOM     81  C   UNL A   1      33.565  17.290  23.916  1.00  0.00     0.224 A 
ATOM     82  C   UNL A   1      34.865  17.329  24.372  1.00  0.00     0.079 A 
ATOM     83  O   UNL A   1      32.976  16.157  24.412  1.00  0.00    -0.351 OA
ATOM     84  C   UNL A   1      35.013  16.153  25.127  1.00  0.00     0.159 A 
ATOM     85  N   UNL A   1      33.893  15.432  25.156  1.00  0.00    -0.088 NA
ENDBRANCH  78  81
ENDBRANCH  76  77
ENDBRANCH  75  76
ENDBRANCH  68  71
ENDBRANCH  66  67
ENDBRANCH  65  66
ENDBRANCH   1  65
TORSDOF 16
ENDMDL
MODEL 2
REMARK VINA RESULT:     -11.3      5.424     10.187
REMARK SMILES O=C(NCCCCCCNC(=O)[C@@H]1CC[C@@H](CNC(=O)c2ccno2)O1)c1ccc(-c2c3nc(c(-c4c(F)cccc4F)c4ccc([nH]4)c(-c4c(F)cccc4F)c4nc(c(-c5c(F)cccc5F)c5ccc2[nH]5)C=C4)C=C3)cc1
REMARK SMILES IDX 7 1 6 2 5 3 4 4 3 5 1 6 2 7 27 9 28 10 80 11 29 12 79 13
REMARK SMILES IDX 30 14 31 15 32 16 73 17 33 18 78 19 72 20 74 21 34 22 77 23
REMARK SMILES IDX 71 24 70 25 35 27 61 28 44 29 60 30 45 31 48 32 59 33 75 34
REMARK SMILES IDX 46 35 47 36 58 38 76 39 49 40 36 41 37 42 42 43 38 44 39 45
REMARK SMILES IDX 41 46 43 47 40 48 62 49 63 50 68 51 64 52 65 53 67 54 69 55
REMARK SMILES IDX 66 56 50 57 51 58 56 59 52 60 53 61 55 62 57 63 54 64 8 65
REMARK SMILES IDX 9 66 10 67 11 68 12 70 13 71 14 72 26 73 15 74 16 75 17 76
REMARK SMILES IDX 18 77 19 78 20 80 21 81 22 82 25 83 23 84 24 85
REMARK H PARENT 3 8 74 26 48 37 10 69 18 79
REMARK Flexibility Score: inf
ROOT
ATOM      1  C   UNL A   1      47.096  27.177  31.030  1.00  0.00     0.002 C 
ENDROOT
BRANCH   1   2
ATOM      2  C   UNL A   1      46.812  25.887  31.810  1.00  0.00     0.002 C 
BRANCH   2   3
ATOM      3  C   UNL A   1      47.921  25.373  32.732  1.00  0.00     0.021 C 
BRANCH   3   4
ATOM      4  C   UNL A   1      48.787  26.431  33.409  1.00  0.00     0.116 C 
BRANCH   4   5
ATOM      5  N   UNL A   1      48.707  26.400  34.857  1.00  0.00    -0.352 N 
ATOM      6  O   UNL A   1      47.840  26.793  36.899  1.00  0.00    -0.269 OA
ATOM      7  C   UNL A   1      47.683  26.806  35.681  1.00  0.00     0.251 C 
ATOM      8  H   UNL A   1      49.498  26.035  35.317  1.00  0.00     0.163 HD
BRANCH   7   9
ATOM      9  C   UNL A   1      46.401  27.298  35.116  1.00  0.00     0.039 A 
ATOM     10  C   UNL A   1      45.223  26.550  35.200  1.00  0.00     0.014 A 
ATOM     11  C   UNL A   1      46.377  28.566  34.520  1.00  0.00     0.014 A 
ATOM     12  C   UNL A   1      44.054  27.019  34.598  1.00  0.00     0.010 A 
ATOM     13  C   UNL A   1      45.196  29.052  33.948  1.00  0.00     0.010 A 
ATOM     14  C   UNL A   1      44.035  28.268  33.956  1.00  0.00    -0.014 A 
BRANCH  14  15
ATOM     15  C   UNL A   1      42.789  28.731  33.299  1.00  0.00     0.031 A 
ATOM     16  C   UNL A   1      41.847  29.660  34.011  1.00  0.00     0.074 A 
ATOM     17  C   UNL A   1      42.522  28.352  32.035  1.00  0.00     0.049 A 
ATOM     18  N   UNL A   1      40.769  30.248  33.556  1.00  0.00    -0.248 NA
ATOM     19  C   UNL A   1      42.154  29.966  35.416  1.00  0.00     0.031 C 
ATOM     20  C   UNL A   1      43.337  27.435  31.239  1.00  0.00     0.029 A 
ATOM     21  N   UNL A   1      41.501  28.714  31.194  1.00  0.00    -0.354 N 
ATOM     22  C   UNL A   1      40.259  30.981  34.619  1.00  0.00     0.074 A 
ATOM     23  C   UNL A   1      41.143  30.761  35.745  1.00  0.00     0.031 C 
ATOM     24  C   UNL A   1      42.809  27.341  30.007  1.00  0.00     0.029 A 
ATOM     25  C   UNL A   1      41.620  28.186  29.933  1.00  0.00     0.049 A 
ATOM     26  H   UNL A   1      40.756  29.297  31.468  1.00  0.00     0.167 HD
ATOM     27  C   UNL A   1      39.158  31.768  34.656  1.00  0.00     0.037 A 
ATOM     28  C   UNL A   1      40.871  28.382  28.833  1.00  0.00     0.037 A 
ATOM     29  C   UNL A   1      38.287  32.020  33.539  1.00  0.00     0.049 A 
ATOM     30  C   UNL A   1      39.693  29.307  28.881  1.00  0.00     0.074 A 
ATOM     31  C   UNL A   1      37.162  32.825  33.485  1.00  0.00     0.029 A 
ATOM     32  N   UNL A   1      38.451  31.475  32.277  1.00  0.00    -0.354 N 
ATOM     33  N   UNL A   1      39.239  30.012  29.886  1.00  0.00    -0.248 NA
ATOM     34  C   UNL A   1      38.927  29.467  27.636  1.00  0.00     0.031 C 
ATOM     35  C   UNL A   1      36.643  32.768  32.185  1.00  0.00     0.029 A 
ATOM     36  C   UNL A   1      37.449  31.929  31.434  1.00  0.00     0.049 A 
ATOM     37  H   UNL A   1      39.171  30.857  32.017  1.00  0.00     0.167 HD
ATOM     38  C   UNL A   1      38.141  30.704  29.397  1.00  0.00     0.074 A 
ATOM     39  C   UNL A   1      37.996  30.338  28.004  1.00  0.00     0.031 C 
ATOM     40  C   UNL A   1      37.325  31.565  30.049  1.00  0.00     0.037 A 
BRANCH  27  41
ATOM     41  C   UNL A   1      38.834  32.419  35.962  1.00  0.00     0.057 A 
ATOM     42  C   UNL A   1      39.205  33.743  36.223  1.00  0.00     0.134 A 
ATOM     43  C   UNL A   1      38.123  31.728  36.950  1.00  0.00     0.134 A 
ATOM     44  F   UNL A   1      39.897  34.447  35.315  1.00  0.00    -0.206 F 
ATOM     45  C   UNL A   1      38.883  34.359  37.432  1.00  0.00     0.040 A 
ATOM     46  C   UNL A   1      37.792  32.333  38.162  1.00  0.00     0.040 A 
ATOM     47  F   UNL A   1      37.749  30.455  36.753  1.00  0.00    -0.206 F 
ATOM     48  C   UNL A   1      38.172  33.653  38.404  1.00  0.00     0.006 A 
ENDBRANCH  27  41
BRANCH  28  49
ATOM     49  C   UNL A   1      41.252  27.719  27.568  1.00  0.00     0.057 A 
ATOM     50  C   UNL A   1      42.101  28.356  26.656  1.00  0.00     0.134 A 
ATOM     51  C   UNL A   1      40.784  26.440  27.250  1.00  0.00     0.134 A 
ATOM     52  F   UNL A   1      42.565  29.588  26.913  1.00  0.00    -0.206 F 
ATOM     53  C   UNL A   1      42.476  27.740  25.464  1.00  0.00     0.040 A 
ATOM     54  C   UNL A   1      41.154  25.810  26.063  1.00  0.00     0.040 A 
ATOM     55  F   UNL A   1      39.963  25.793  28.089  1.00  0.00    -0.206 F 
ATOM     56  C   UNL A   1      42.002  26.462  25.166  1.00  0.00     0.006 A 
ENDBRANCH  28  49
BRANCH  40  57
ATOM     57  C   UNL A   1      36.211  32.173  29.258  1.00  0.00     0.057 A 
ATOM     58  C   UNL A   1      35.103  31.413  28.868  1.00  0.00     0.134 A 
ATOM     59  C   UNL A   1      36.239  33.527  28.905  1.00  0.00     0.134 A 
ATOM     60  F   UNL A   1      35.031  30.109  29.173  1.00  0.00    -0.206 F 
ATOM     61  C   UNL A   1      34.054  31.982  28.144  1.00  0.00     0.040 A 
ATOM     62  C   UNL A   1      35.196  34.108  28.184  1.00  0.00     0.040 A 
ATOM     63  F   UNL A   1      37.281  34.298  29.247  1.00  0.00    -0.206 F 
ATOM     64  C   UNL A   1      34.099  33.333  27.803  1.00  0.00     0.006 A 
ENDBRANCH  40  57
ENDBRANCH  14  15
ENDBRANCH   7   9
ENDBRANCH   4   5
ENDBRANCH   3   4
ENDBRANCH   2   3
ENDBRANCH   1   2
BRANCH   1  65
ATOM     65  C   UNL A   1      46.912  27.129  29.508  1.00  0.00     0.021 C 
BRANCH  65  66
ATOM     66  C   UNL A   1      46.806  25.737  28.888  1.00  0.00     0.116 C 
BRANCH  66  67
ATOM     67  N   UNL A   1      45.438  25.321  28.656  1.00  0.00    -0.354 N 
ATOM     68  C   UNL A   1      44.912  24.604  27.617  1.00  0.00     0.249 C 
ATOM     69  H   UNL A   1      44.792  25.594  29.347  1.00  0.00     0.163 HD
ATOM     70  O   UNL A   1      43.729  24.259  27.691  1.00  0.00    -0.272 OA
BRANCH  68  71
ATOM     71  C   UNL A   1      45.772  24.310  26.373  1.00  0.00     0.207 C 
ATOM     72  C   UNL A   1      44.912  24.456  25.119  1.00  0.00     0.045 C 
ATOM     73  O   UNL A   1      46.289  22.966  26.379  1.00  0.00    -0.363 OA
ATOM     74  C   UNL A   1      45.233  23.220  24.310  1.00  0.00     0.037 C 
ATOM     75  C   UNL A   1      45.577  22.211  25.390  1.00  0.00     0.138 C 
BRANCH  75  76
ATOM     76  C   UNL A   1      46.393  20.993  24.931  1.00  0.00     0.148 C 
BRANCH  76  77
ATOM     77  N   UNL A   1      45.826  20.279  23.795  1.00  0.00    -0.347 N 
ATOM     78  C   UNL A   1      44.926  19.239  23.740  1.00  0.00     0.289 C 
ATOM     79  H   UNL A   1      46.140  20.593  22.917  1.00  0.00     0.164 HD
ATOM     80  O   UNL A   1      44.861  18.650  22.659  1.00  0.00    -0.266 OA
BRANCH  78  81
ATOM     81  C   UNL A   1      44.120  18.876  24.879  1.00  0.00     0.224 A 
ATOM     82  C   UNL A   1      42.897  19.267  25.380  1.00  0.00     0.079 A 
ATOM     83  O   UNL A   1      44.592  17.856  25.661  1.00  0.00    -0.351 OA
ATOM     84  C   UNL A   1      42.697  18.451  26.508  1.00  0.00     0.159 A 
ATOM     85  N   UNL A   1      43.707  17.603  26.697  1.00  0.00    -0.088 NA
ENDBRANCH  78  81
ENDBRANCH  76  77
ENDBRANCH  75  76
ENDBRANCH  68  71
ENDBRANCH  66  67
ENDBRANCH  65  66
ENDBRANCH   1  65
TORSDOF 16
ENDMDL
MODEL 3
REMARK VINA RESULT:     -11.3      5.483     11.132
REMARK SMILES O=C(NCCCCCCNC(=O)[C@@H]1CC[C@@H](CNC(=O)c2ccno2)O1)c1ccc(-c2c3nc(c(-c4c(F)cccc4F)c4ccc([nH]4)c(-c4c(F)cccc4F)c4nc(c(-c5c(F)cccc5F)c5ccc2[nH]5)C=C4)C=C3)cc1
REMARK SMILES IDX 7 1 6 2 5 3 4 4 3 5 1 6 2 7 27 9 28 10 80 11 29 12 79 13
REMARK SMILES IDX 30 14 31 15 32 16 73 17 33 18 78 19 72 20 74 21 34 22 77 23
REMARK SMILES IDX 71 24 70 25 35 27 61 28 44 29 60 30 45 31 48 32 59 33 75 34
REMARK SMILES IDX 46 35 47 36 58 38 76 39 49 40 36 41 37 42 42 43 38 44 39 45
REMARK SMILES IDX 41 46 43 47 40 48 62 49 63 50 68 51 64 52 65 53 67 54 69 55
REMARK SMILES IDX 66 56 50 57 51 58 56 59 52 60 53 61 55 62 57 63 54 64 8 65
REMARK SMILES IDX 9 66 10 67 11 68 12 70 13 71 14 72 26 73 15 74 16 75 17 76
REMARK SMILES IDX 18 77 19 78 20 80 21 81 22 82 25 83 23 84 24 85
REMARK H PARENT 3 8 74 26 48 37 10 69 18 79
REMARK Flexibility Score: inf
ROOT
ATOM      1  C   UNL A   1      38.183  33.442  29.120  1.00  0.00     0.002 C 
ENDROOT
BRANCH   1   2
ATOM      2  C   UNL A   1      36.776  34.046  29.200  1.00  0.00     0.002 C 
BRANCH   2   3
ATOM      3  C   UNL A   1      35.644  33.261  28.530  1.00  0.00     0.021 C 
BRANCH   3   4
ATOM      4  C   UNL A   1      34.911  32.247  29.403  1.00  0.00     0.116 C 
BRANCH   4   5
ATOM      5  N   UNL A   1      34.327  31.154  28.648  1.00  0.00    -0.352 N 
ATOM      6  O   UNL A   1      34.285  29.267  27.418  1.00  0.00    -0.269 OA
ATOM      7  C   UNL A   1      34.935  30.041  28.118  1.00  0.00     0.251 C 
ATOM      8  H   UNL A   1      33.356  31.219  28.493  1.00  0.00     0.163 HD
BRANCH   7   9
ATOM      9  C   UNL A   1      36.377  29.778  28.347  1.00  0.00     0.039 A 
ATOM     10  C   UNL A   1      37.331  29.966  27.343  1.00  0.00     0.014 A 
ATOM     11  C   UNL A   1      36.786  29.367  29.624  1.00  0.00     0.014 A 
ATOM     12  C   UNL A   1      38.668  29.644  27.581  1.00  0.00     0.010 A 
ATOM     13  C   UNL A   1      38.132  29.080  29.873  1.00  0.00     0.010 A 
ATOM     14  C   UNL A   1      39.078  29.185  28.844  1.00  0.00    -0.014 A 
BRANCH  14  15
ATOM     15  C   UNL A   1      40.498  28.822  29.062  1.00  0.00     0.031 A 
ATOM     16  C   UNL A   1      41.025  27.485  28.622  1.00  0.00     0.074 A 
ATOM     17  C   UNL A   1      41.335  29.717  29.619  1.00  0.00     0.049 A 
ATOM     18  N   UNL A   1      42.255  27.039  28.638  1.00  0.00    -0.248 NA
ATOM     19  C   UNL A   1      40.041  26.525  28.100  1.00  0.00     0.031 C 
ATOM     20  C   UNL A   1      40.951  31.039  30.113  1.00  0.00     0.029 A 
ATOM     21  N   UNL A   1      42.688  29.655  29.837  1.00  0.00    -0.354 N 
ATOM     22  C   UNL A   1      42.195  25.743  28.144  1.00  0.00     0.074 A 
ATOM     23  C   UNL A   1      40.805  25.472  27.840  1.00  0.00     0.031 C 
ATOM     24  C   UNL A   1      42.052  31.682  30.537  1.00  0.00     0.029 A 
ATOM     25  C   UNL A   1      43.212  30.816  30.347  1.00  0.00     0.049 A 
ATOM     26  H   UNL A   1      43.230  28.855  29.646  1.00  0.00     0.167 HD
ATOM     27  C   UNL A   1      43.204  24.860  27.956  1.00  0.00     0.037 A 
ATOM     28  C   UNL A   1      44.488  31.155  30.606  1.00  0.00     0.037 A 
ATOM     29  C   UNL A   1      44.591  25.124  28.223  1.00  0.00     0.049 A 
ATOM     30  C   UNL A   1      45.594  30.183  30.331  1.00  0.00     0.074 A 
ATOM     31  C   UNL A   1      45.682  24.291  28.036  1.00  0.00     0.029 A 
ATOM     32  N   UNL A   1      45.081  26.317  28.726  1.00  0.00    -0.354 N 
ATOM     33  N   UNL A   1      45.524  28.971  29.840  1.00  0.00    -0.248 NA
ATOM     34  C   UNL A   1      46.961  30.630  30.641  1.00  0.00     0.031 C 
ATOM     35  C   UNL A   1      46.835  24.982  28.428  1.00  0.00     0.029 A 
ATOM     36  C   UNL A   1      46.459  26.245  28.855  1.00  0.00     0.049 A 
ATOM     37  H   UNL A   1      44.532  27.100  28.959  1.00  0.00     0.167 HD
ATOM     38  C   UNL A   1      46.832  28.512  29.775  1.00  0.00     0.074 A 
ATOM     39  C   UNL A   1      47.678  29.575  30.274  1.00  0.00     0.031 C 
ATOM     40  C   UNL A   1      47.287  27.313  29.342  1.00  0.00     0.037 A 
BRANCH  27  41
ATOM     41  C   UNL A   1      42.833  23.510  27.429  1.00  0.00     0.057 A 
ATOM     42  C   UNL A   1      42.960  23.204  26.069  1.00  0.00     0.134 A 
ATOM     43  C   UNL A   1      42.373  22.507  28.289  1.00  0.00     0.134 A 
ATOM     44  F   UNL A   1      43.385  24.132  25.199  1.00  0.00    -0.206 F 
ATOM     45  C   UNL A   1      42.637  21.938  25.580  1.00  0.00     0.040 A 
ATOM     46  C   UNL A   1      42.049  21.236  27.814  1.00  0.00     0.040 A 
ATOM     47  F   UNL A   1      42.227  22.751  29.600  1.00  0.00    -0.206 F 
ATOM     48  C   UNL A   1      42.182  20.950  26.455  1.00  0.00     0.006 A 
ENDBRANCH  27  41
BRANCH  28  49
ATOM     49  C   UNL A   1      44.791  32.509  31.113  1.00  0.00     0.057 A 
ATOM     50  C   UNL A   1      45.202  33.523  30.241  1.00  0.00     0.134 A 
ATOM     51  C   UNL A   1      44.668  32.819  32.472  1.00  0.00     0.134 A 
ATOM     52  F   UNL A   1      45.345  33.269  28.932  1.00  0.00    -0.206 F 
ATOM     53  C   UNL A   1      45.482  34.808  30.703  1.00  0.00     0.040 A 
ATOM     54  C   UNL A   1      44.941  34.100  32.948  1.00  0.00     0.040 A 
ATOM     55  F   UNL A   1      44.284  31.879  33.347  1.00  0.00    -0.206 F 
ATOM     56  C   UNL A   1      45.350  35.099  32.061  1.00  0.00     0.006 A 
ENDBRANCH  28  49
BRANCH  40  57
ATOM     57  C   UNL A   1      48.766  27.096  29.381  1.00  0.00     0.057 A 
ATOM     58  C   UNL A   1      49.384  26.538  30.506  1.00  0.00     0.134 A 
ATOM     59  C   UNL A   1      49.569  27.427  28.284  1.00  0.00     0.134 A 
ATOM     60  F   UNL A   1      48.662  26.213  31.588  1.00  0.00    -0.206 F 
ATOM     61  C   UNL A   1      50.762  26.319  30.540  1.00  0.00     0.040 A 
ATOM     62  C   UNL A   1      50.947  27.210  28.304  1.00  0.00     0.040 A 
ATOM     63  F   UNL A   1      49.028  27.972  27.184  1.00  0.00    -0.206 F 
ATOM     64  C   UNL A   1      51.545  26.654  29.436  1.00  0.00     0.006 A 
ENDBRANCH  40  57
ENDBRANCH  14  15
ENDBRANCH   7   9
ENDBRANCH   4   5
ENDBRANCH   3   4
ENDBRANCH   2   3
ENDBRANCH   1   2
BRANCH   1  65
ATOM     65  C   UNL A   1      39.347  34.311  29.615  1.00  0.00     0.021 C 
BRANCH  65  66
ATOM     66  C   UNL A   1      39.404  34.561  31.120  1.00  0.00     0.116 C 
BRANCH  66  67
ATOM     67  N   UNL A   1      39.132  33.374  31.904  1.00  0.00    -0.354 N 
ATOM     68  C   UNL A   1      38.087  33.109  32.747  1.00  0.00     0.249 C 
ATOM     69  H   UNL A   1      39.795  32.651  31.818  1.00  0.00     0.163 HD
ATOM     70  O   UNL A   1      37.997  31.973  33.219  1.00  0.00    -0.272 OA
BRANCH  68  71
ATOM     71  C   UNL A   1      37.108  34.235  33.133  1.00  0.00     0.207 C 
ATOM     72  C   UNL A   1      36.809  34.151  34.629  1.00  0.00     0.045 C 
ATOM     73  O   UNL A   1      35.850  34.117  32.442  1.00  0.00    -0.363 OA
ATOM     74  C   UNL A   1      35.305  34.278  34.708  1.00  0.00     0.037 C 
ATOM     75  C   UNL A   1      34.863  33.681  33.385  1.00  0.00     0.138 C 
BRANCH  75  76
ATOM     76  C   UNL A   1      33.449  34.060  32.919  1.00  0.00     0.148 C 
BRANCH  76  77
ATOM     77  N   UNL A   1      33.112  35.467  33.093  1.00  0.00    -0.347 N 
ATOM     78  C   UNL A   1      33.072  36.504  32.189  1.00  0.00     0.289 C 
ATOM     79  H   UNL A   1      32.874  35.719  34.014  1.00  0.00     0.164 HD
ATOM     80  O   UNL A   1      33.043  37.634  32.679  1.00  0.00    -0.266 OA
BRANCH  78  81
ATOM     81  C   UNL A   1      33.062  36.267  30.767  1.00  0.00     0.224 A 
ATOM     82  C   UNL A   1      33.577  36.908  29.661  1.00  0.00     0.079 A 
ATOM     83  O   UNL A   1      32.468  35.107  30.345  1.00  0.00    -0.351 OA
ATOM     84  C   UNL A   1      33.227  36.084  28.577  1.00  0.00     0.159 A 
ATOM     85  N   UNL A   1      32.554  35.003  28.966  1.00  0.00    -0.088 NA
ENDBRANCH  78  81
ENDBRANCH  76  77
ENDBRANCH  75  76
ENDBRANCH  68  71
ENDBRANCH  66  67
ENDBRANCH  65  66
ENDBRANCH   1  65
TORSDOF 16
ENDMDL
