MODEL 1
REMARK VINA RESULT:     -10.3      0.000      0.000
REMARK SMILES O=C(CCCCCC(F)(F)c1ccccc1)NCCCCCCNC(=O)c1ccc(-c2c3nc(c(-c4c(F)cccc4F)c4ccc([nH]4)c(-c4c(F)cccc4F)c4nc(c(-c5c(F)cccc5F)c5ccc2[nH]5)C=C4)C=C3)cc1
REMARK SMILES IDX 18 1 17 2 1 3 2 4 3 6 4 7 5 8 6 9 7 10 8 11 9 12 10 13 11 14
REMARK SMILES IDX 12 15 16 16 13 17 15 18 14 19 19 20 20 21 21 22 22 23 23 24
REMARK SMILES IDX 24 25 25 26 26 28 27 29 28 30 80 31 29 32 79 33 30 34 31 35
REMARK SMILES IDX 32 36 73 37 33 38 78 39 72 40 74 41 34 42 77 43 71 44 70 45
REMARK SMILES IDX 35 47 61 48 44 49 60 50 45 51 48 52 59 53 75 54 46 55 47 56
REMARK SMILES IDX 58 58 76 59 49 60 36 61 37 62 42 63 38 64 39 65 41 66 43 67
REMARK SMILES IDX 40 68 62 69 63 70 68 71 64 72 65 73 67 74 69 75 66 76 50 77
REMARK SMILES IDX 51 78 56 79 52 80 53 81 55 82 57 83 54 84
REMARK H PARENT 17 5 24 27 74 46 48 57
REMARK Flexibility Score: inf
ROOT
ATOM      1  C   UNL A   1      35.616  24.162  24.926  1.00  0.00     0.116 C 
ENDROOT
BRANCH   1   2
ATOM      2  N   UNL A   1      34.676  24.964  25.675  1.00  0.00    -0.356 N 
ATOM      3  O   UNL A   1      33.406  25.602  23.871  1.00  0.00    -0.275 OA
ATOM      4  C   UNL A   1      33.562  25.513  25.084  1.00  0.00     0.219 C 
ATOM      5  H   UNL A   1      34.836  25.122  26.632  1.00  0.00     0.163 HD
BRANCH   4   6
ATOM      6  C   UNL A   1      32.476  25.872  26.080  1.00  0.00     0.100 C 
BRANCH   6   7
ATOM      7  C   UNL A   1      31.206  25.077  25.756  1.00  0.00     0.010 C 
BRANCH   7   8
ATOM      8  C   UNL A   1      31.220  23.636  26.281  1.00  0.00     0.001 C 
BRANCH   8   9
ATOM      9  C   UNL A   1      31.052  22.547  25.229  1.00  0.00     0.007 C 
BRANCH   9  10
ATOM     10  C   UNL A   1      31.770  21.211  25.471  1.00  0.00     0.082 C 
BRANCH  10  11
ATOM     11  C   UNL A   1      33.133  21.005  24.778  1.00  0.00     0.273 C 
ATOM     12  F   UNL A   1      33.300  21.999  23.857  1.00  0.00    -0.201 F 
ATOM     13  F   UNL A   1      34.083  21.261  25.737  1.00  0.00    -0.201 F 
BRANCH  11  14
ATOM     14  C   UNL A   1      33.345  19.620  24.196  1.00  0.00     0.021 A 
ATOM     15  C   UNL A   1      32.501  19.103  23.201  1.00  0.00     0.010 A 
ATOM     16  C   UNL A   1      34.415  18.824  24.633  1.00  0.00     0.010 A 
ATOM     17  C   UNL A   1      32.637  17.788  22.754  1.00  0.00     0.001 A 
ATOM     18  C   UNL A   1      34.591  17.528  24.139  1.00  0.00     0.001 A 
ATOM     19  C   UNL A   1      33.682  17.000  23.226  1.00  0.00     0.000 A 
ENDBRANCH  11  14
ENDBRANCH  10  11
ENDBRANCH   9  10
ENDBRANCH   8   9
ENDBRANCH   7   8
ENDBRANCH   6   7
ENDBRANCH   4   6
ENDBRANCH   1   2
BRANCH   1  20
ATOM     20  C   UNL A   1      36.707  23.594  25.832  1.00  0.00     0.021 C 
BRANCH  20  21
ATOM     21  C   UNL A   1      37.697  22.650  25.131  1.00  0.00     0.002 C 
BRANCH  21  22
ATOM     22  C   UNL A   1      37.119  21.315  24.647  1.00  0.00     0.002 C 
BRANCH  22  23
ATOM     23  C   UNL A   1      37.942  20.075  25.000  1.00  0.00     0.021 C 
BRANCH  23  24
ATOM     24  C   UNL A   1      39.173  20.335  25.862  1.00  0.00     0.116 C 
BRANCH  24  25
ATOM     25  N   UNL A   1      40.097  19.212  25.887  1.00  0.00    -0.352 N 
ATOM     26  C   UNL A   1      41.459  19.217  26.072  1.00  0.00     0.251 C 
ATOM     27  H   UNL A   1      39.692  18.325  25.753  1.00  0.00     0.163 HD
ATOM     28  O   UNL A   1      42.112  18.187  25.925  1.00  0.00    -0.269 OA
BRANCH  26  29
ATOM     29  C   UNL A   1      42.148  20.480  26.413  1.00  0.00     0.039 A 
ATOM     30  C   UNL A   1      42.652  21.276  25.380  1.00  0.00     0.014 A 
ATOM     31  C   UNL A   1      42.270  20.896  27.742  1.00  0.00     0.014 A 
ATOM     32  C   UNL A   1      43.201  22.526  25.674  1.00  0.00     0.010 A 
ATOM     33  C   UNL A   1      42.749  22.172  28.027  1.00  0.00     0.010 A 
ATOM     34  C   UNL A   1      43.210  23.004  26.995  1.00  0.00    -0.014 A 
BRANCH  34  35
ATOM     35  C   UNL A   1      43.658  24.386  27.310  1.00  0.00     0.031 A 
ATOM     36  C   UNL A   1      42.662  25.441  27.695  1.00  0.00     0.074 A 
ATOM     37  C   UNL A   1      44.958  24.710  27.169  1.00  0.00     0.049 A 
ATOM     38  N   UNL A   1      42.854  26.716  27.928  1.00  0.00    -0.248 NA
ATOM     39  C   UNL A   1      41.259  25.015  27.809  1.00  0.00     0.031 C 
ATOM     40  C   UNL A   1      46.017  23.790  26.748  1.00  0.00     0.029 A 
ATOM     41  N   UNL A   1      45.608  25.906  27.346  1.00  0.00    -0.354 N 
ATOM     42  C   UNL A   1      41.600  27.243  28.209  1.00  0.00     0.074 A 
ATOM     43  C   UNL A   1      40.647  26.164  28.058  1.00  0.00     0.031 C 
ATOM     44  C   UNL A   1      47.184  24.452  26.709  1.00  0.00     0.029 A 
ATOM     45  C   UNL A   1      46.951  25.849  27.059  1.00  0.00     0.049 A 
ATOM     46  H   UNL A   1      45.156  26.726  27.649  1.00  0.00     0.167 HD
ATOM     47  C   UNL A   1      41.275  28.504  28.578  1.00  0.00     0.037 A 
ATOM     48  C   UNL A   1      47.888  26.816  27.059  1.00  0.00     0.037 A 
ATOM     49  C   UNL A   1      42.227  29.576  28.728  1.00  0.00     0.049 A 
ATOM     50  C   UNL A   1      47.502  28.216  27.447  1.00  0.00     0.074 A 
ATOM     51  C   UNL A   1      42.004  30.874  29.153  1.00  0.00     0.029 A 
ATOM     52  N   UNL A   1      43.581  29.476  28.443  1.00  0.00    -0.354 N 
ATOM     53  N   UNL A   1      46.325  28.683  27.787  1.00  0.00    -0.248 NA
ATOM     54  C   UNL A   1      48.573  29.221  27.458  1.00  0.00     0.031 C 
ATOM     55  C   UNL A   1      43.212  31.575  29.071  1.00  0.00     0.029 A 
ATOM     56  C   UNL A   1      44.200  30.699  28.651  1.00  0.00     0.049 A 
ATOM     57  H   UNL A   1      44.035  28.658  28.139  1.00  0.00     0.167 HD
ATOM     58  C   UNL A   1      46.517  30.030  28.069  1.00  0.00     0.074 A 
ATOM     59  C   UNL A   1      47.926  30.300  27.880  1.00  0.00     0.031 C 
ATOM     60  C   UNL A   1      45.605  30.959  28.451  1.00  0.00     0.037 A 
BRANCH  47  61
ATOM     61  C   UNL A   1      39.823  28.792  28.840  1.00  0.00     0.057 A 
ATOM     62  C   UNL A   1      39.265  28.681  30.122  1.00  0.00     0.134 A 
ATOM     63  C   UNL A   1      38.974  29.199  27.803  1.00  0.00     0.134 A 
ATOM     64  F   UNL A   1      40.019  28.287  31.160  1.00  0.00    -0.206 F 
ATOM     65  C   UNL A   1      37.910  28.924  30.353  1.00  0.00     0.040 A 
ATOM     66  C   UNL A   1      37.624  29.476  28.029  1.00  0.00     0.040 A 
ATOM     67  F   UNL A   1      39.442  29.336  26.553  1.00  0.00    -0.206 F 
ATOM     68  C   UNL A   1      37.087  29.328  29.305  1.00  0.00     0.006 A 
ENDBRANCH  47  61
BRANCH  48  69
ATOM     69  C   UNL A   1      49.284  26.486  26.676  1.00  0.00     0.057 A 
ATOM     70  C   UNL A   1      50.190  25.966  27.607  1.00  0.00     0.134 A 
ATOM     71  C   UNL A   1      49.742  26.669  25.365  1.00  0.00     0.134 A 
ATOM     72  F   UNL A   1      49.816  25.786  28.883  1.00  0.00    -0.206 F 
ATOM     73  C   UNL A   1      51.503  25.651  27.254  1.00  0.00     0.040 A 
ATOM     74  C   UNL A   1      51.044  26.333  24.991  1.00  0.00     0.040 A 
ATOM     75  F   UNL A   1      48.922  27.156  24.423  1.00  0.00    -0.206 F 
ATOM     76  C   UNL A   1      51.931  25.827  25.939  1.00  0.00     0.006 A 
ENDBRANCH  48  69
BRANCH  60  77
ATOM     77  C   UNL A   1      46.105  32.351  28.706  1.00  0.00     0.057 A 
ATOM     78  C   UNL A   1      46.584  32.747  29.961  1.00  0.00     0.134 A 
ATOM     79  C   UNL A   1      46.148  33.294  27.671  1.00  0.00     0.134 A 
ATOM     80  F   UNL A   1      46.558  31.896  30.998  1.00  0.00    -0.206 F 
ATOM     81  C   UNL A   1      47.071  34.036  30.183  1.00  0.00     0.040 A 
ATOM     82  C   UNL A   1      46.659  34.578  27.873  1.00  0.00     0.040 A 
ATOM     83  F   UNL A   1      45.712  32.980  26.443  1.00  0.00    -0.206 F 
ATOM     84  C   UNL A   1      47.117  34.954  29.135  1.00  0.00     0.006 A 
ENDBRANCH  60  77
ENDBRANCH  34  35
ENDBRANCH  26  29
ENDBRANCH  24  25
ENDBRANCH  23  24
ENDBRANCH  22  23
ENDBRANCH  21  22
ENDBRANCH  20  21
ENDBRANCH   1  20
TORSDOF 19
ENDMDL
MODEL 2
REMARK VINA RESULT:     -10.2      0.942      6.286
REMARK SMILES O=C(CCCCCC(F)(F)c1ccccc1)NCCCCCCNC(=O)c1ccc(-c2c3nc(c(-c4c(F)cccc4F)c4ccc([nH]4)c(-c4c(F)cccc4F)c4nc(c(-c5c(F)cccc5F)c5ccc2[nH]5)C=C4)C=C3)cc1
REMARK SMILES IDX 18 1 17 2 1 3 2 4 3 6 4 7 5 8 6 9 7 10 8 11 9 12 10 13 11 14
REMARK SMILES IDX 12 15 16 16 13 17 15 18 14 19 19 20 20 21 21 22 22 23 23 24
REMARK SMILES IDX 24 25 25 26 26 28 27 29 28 30 80 31 29 32 79 33 30 34 31 35
REMARK SMILES IDX 32 36 73 37 33 38 78 39 72 40 74 41 34 42 77 43 71 44 70 45
REMARK SMILES IDX 35 47 61 48 44 49 60 50 45 51 48 52 59 53 75 54 46 55 47 56
REMARK SMILES IDX 58 58 76 59 49 60 36 61 37 62 42 63 38 64 39 65 41 66 43 67
REMARK SMILES IDX 40 68 62 69 63 70 68 71 64 72 65 73 67 74 69 75 66 76 50 77
REMARK SMILES IDX 51 78 56 79 52 80 53 81 55 82 57 83 54 84
REMARK H PARENT 17 5 24 27 74 46 48 57
REMARK Flexibility Score: inf
ROOT
ATOM      1  C   UNL A   1      35.579  23.851  24.290  1.00  0.00     0.116 C 
ENDROOT
BRANCH   1   2
ATOM      2  N   UNL A   1      34.451  24.730  24.497  1.00  0.00    -0.356 N 
ATOM      3  O   UNL A   1      34.011  25.097  22.273  1.00  0.00    -0.275 OA
ATOM      4  C   UNL A   1      33.678  25.175  23.450  1.00  0.00     0.219 C 
ATOM      5  H   UNL A   1      34.229  25.018  25.412  1.00  0.00     0.163 HD
BRANCH   4   6
ATOM      6  C   UNL A   1      32.302  25.644  23.884  1.00  0.00     0.100 C 
BRANCH   6   7
ATOM      7  C   UNL A   1      31.284  24.522  23.653  1.00  0.00     0.010 C 
BRANCH   7   8
ATOM      8  C   UNL A   1      31.371  23.379  24.673  1.00  0.00     0.001 C 
BRANCH   8   9
ATOM      9  C   UNL A   1      31.781  22.023  24.114  1.00  0.00     0.007 C 
BRANCH   9  10
ATOM     10  C   UNL A   1      32.132  20.918  25.120  1.00  0.00     0.082 C 
BRANCH  10  11
ATOM     11  C   UNL A   1      33.533  20.280  25.011  1.00  0.00     0.273 C 
ATOM     12  F   UNL A   1      34.186  20.859  23.960  1.00  0.00    -0.201 F 
ATOM     13  F   UNL A   1      34.224  20.701  26.120  1.00  0.00    -0.201 F 
BRANCH  11  14
ATOM     14  C   UNL A   1      33.535  18.764  24.943  1.00  0.00     0.021 A 
ATOM     15  C   UNL A   1      34.540  18.059  24.264  1.00  0.00     0.010 A 
ATOM     16  C   UNL A   1      32.526  18.025  25.582  1.00  0.00     0.010 A 
ATOM     17  C   UNL A   1      34.470  16.674  24.113  1.00  0.00     0.001 A 
ATOM     18  C   UNL A   1      32.490  16.632  25.484  1.00  0.00     0.001 A 
ATOM     19  C   UNL A   1      33.443  15.960  24.722  1.00  0.00     0.000 A 
ENDBRANCH  11  14
ENDBRANCH  10  11
ENDBRANCH   9  10
ENDBRANCH   8   9
ENDBRANCH   7   8
ENDBRANCH   6   7
ENDBRANCH   4   6
ENDBRANCH   1   2
BRANCH   1  20
ATOM     20  C   UNL A   1      36.160  23.370  25.618  1.00  0.00     0.021 C 
BRANCH  20  21
ATOM     21  C   UNL A   1      37.407  22.481  25.488  1.00  0.00     0.002 C 
BRANCH  21  22
ATOM     22  C   UNL A   1      37.269  21.269  24.558  1.00  0.00     0.002 C 
BRANCH  22  23
ATOM     23  C   UNL A   1      38.013  20.010  25.005  1.00  0.00     0.021 C 
BRANCH  23  24
ATOM     24  C   UNL A   1      39.132  20.238  26.017  1.00  0.00     0.116 C 
BRANCH  24  25
ATOM     25  N   UNL A   1      40.151  19.202  25.981  1.00  0.00    -0.352 N 
ATOM     26  C   UNL A   1      41.516  19.327  26.089  1.00  0.00     0.251 C 
ATOM     27  H   UNL A   1      39.819  18.283  25.863  1.00  0.00     0.163 HD
ATOM     28  O   UNL A   1      42.248  18.360  25.896  1.00  0.00    -0.269 OA
BRANCH  26  29
ATOM     29  C   UNL A   1      42.108  20.646  26.400  1.00  0.00     0.039 A 
ATOM     30  C   UNL A   1      42.448  21.500  25.347  1.00  0.00     0.014 A 
ATOM     31  C   UNL A   1      42.300  21.053  27.724  1.00  0.00     0.014 A 
ATOM     32  C   UNL A   1      42.898  22.793  25.624  1.00  0.00     0.010 A 
ATOM     33  C   UNL A   1      42.678  22.364  27.997  1.00  0.00     0.010 A 
ATOM     34  C   UNL A   1      42.971  23.252  26.949  1.00  0.00    -0.014 A 
BRANCH  34  35
ATOM     35  C   UNL A   1      43.311  24.665  27.257  1.00  0.00     0.031 A 
ATOM     36  C   UNL A   1      44.739  25.130  27.230  1.00  0.00     0.074 A 
ATOM     37  C   UNL A   1      42.337  25.513  27.642  1.00  0.00     0.049 A 
ATOM     38  N   UNL A   1      45.234  26.301  27.546  1.00  0.00    -0.248 NA
ATOM     39  C   UNL A   1      45.747  24.143  26.819  1.00  0.00     0.031 C 
ATOM     40  C   UNL A   1      40.918  25.169  27.762  1.00  0.00     0.029 A 
ATOM     41  N   UNL A   1      42.393  26.830  28.022  1.00  0.00    -0.354 N 
ATOM     42  C   UNL A   1      46.608  26.188  27.378  1.00  0.00     0.074 A 
ATOM     43  C   UNL A   1      46.873  24.819  26.991  1.00  0.00     0.031 C 
ATOM     44  C   UNL A   1      40.238  26.250  28.176  1.00  0.00     0.029 A 
ATOM     45  C   UNL A   1      41.175  27.348  28.392  1.00  0.00     0.049 A 
ATOM     46  H   UNL A   1      43.226  27.354  28.029  1.00  0.00     0.167 HD
ATOM     47  C   UNL A   1      47.559  27.143  27.513  1.00  0.00     0.037 A 
ATOM     48  C   UNL A   1      40.849  28.564  28.870  1.00  0.00     0.037 A 
ATOM     49  C   UNL A   1      47.291  28.505  27.898  1.00  0.00     0.049 A 
ATOM     50  C   UNL A   1      41.923  29.602  29.038  1.00  0.00     0.074 A 
ATOM     51  C   UNL A   1      48.179  29.561  28.007  1.00  0.00     0.029 A 
ATOM     52  N   UNL A   1      46.042  28.996  28.250  1.00  0.00    -0.354 N 
ATOM     53  N   UNL A   1      43.209  29.505  28.799  1.00  0.00    -0.248 NA
ATOM     54  C   UNL A   1      41.502  30.919  29.534  1.00  0.00     0.031 C 
ATOM     55  C   UNL A   1      47.478  30.675  28.480  1.00  0.00     0.029 A 
ATOM     56  C   UNL A   1      46.142  30.331  28.609  1.00  0.00     0.049 A 
ATOM     57  H   UNL A   1      45.208  28.474  28.245  1.00  0.00     0.167 HD
ATOM     58  C   UNL A   1      43.747  30.750  29.099  1.00  0.00     0.074 A 
ATOM     59  C   UNL A   1      42.645  31.592  29.518  1.00  0.00     0.031 C 
ATOM     60  C   UNL A   1      45.039  31.158  29.033  1.00  0.00     0.037 A 
BRANCH  47  61
ATOM     61  C   UNL A   1      48.982  26.738  27.248  1.00  0.00     0.057 A 
ATOM     62  C   UNL A   1      49.838  26.319  28.277  1.00  0.00     0.134 A 
ATOM     63  C   UNL A   1      49.502  26.754  25.947  1.00  0.00     0.134 A 
ATOM     64  F   UNL A   1      49.408  26.288  29.548  1.00  0.00    -0.206 F 
ATOM     65  C   UNL A   1      51.166  25.969  28.027  1.00  0.00     0.040 A 
ATOM     66  C   UNL A   1      50.820  26.375  25.682  1.00  0.00     0.040 A 
ATOM     67  F   UNL A   1      48.738  27.134  24.913  1.00  0.00    -0.206 F 
ATOM     68  C   UNL A   1      51.659  25.992  26.725  1.00  0.00     0.006 A 
ENDBRANCH  47  61
BRANCH  48  69
ATOM     69  C   UNL A   1      39.437  28.860  29.224  1.00  0.00     0.057 A 
ATOM     70  C   UNL A   1      38.943  28.612  30.509  1.00  0.00     0.134 A 
ATOM     71  C   UNL A   1      38.554  29.414  28.290  1.00  0.00     0.134 A 
ATOM     72  F   UNL A   1      39.735  28.064  31.443  1.00  0.00    -0.206 F 
ATOM     73  C   UNL A   1      37.618  28.890  30.849  1.00  0.00     0.040 A 
ATOM     74  C   UNL A   1      37.234  29.724  28.624  1.00  0.00     0.040 A 
ATOM     75  F   UNL A   1      38.968  29.685  27.043  1.00  0.00    -0.206 F 
ATOM     76  C   UNL A   1      36.761  29.455  29.907  1.00  0.00     0.006 A 
ENDBRANCH  48  69
BRANCH  60  77
ATOM     77  C   UNL A   1      45.331  32.583  29.405  1.00  0.00     0.057 A 
ATOM     78  C   UNL A   1      45.202  33.630  28.484  1.00  0.00     0.134 A 
ATOM     79  C   UNL A   1      45.703  32.916  30.714  1.00  0.00     0.134 A 
ATOM     80  F   UNL A   1      44.863  33.378  27.211  1.00  0.00    -0.206 F 
ATOM     81  C   UNL A   1      45.452  34.955  28.845  1.00  0.00     0.040 A 
ATOM     82  C   UNL A   1      45.928  34.240  31.095  1.00  0.00     0.040 A 
ATOM     83  F   UNL A   1      45.837  31.964  31.649  1.00  0.00    -0.206 F 
ATOM     84  C   UNL A   1      45.808  35.264  30.158  1.00  0.00     0.006 A 
ENDBRANCH  60  77
ENDBRANCH  34  35
ENDBRANCH  26  29
ENDBRANCH  24  25
ENDBRANCH  23  24
ENDBRANCH  22  23
ENDBRANCH  21  22
ENDBRANCH  20  21
ENDBRANCH   1  20
TORSDOF 19
ENDMDL
MODEL 3
REMARK VINA RESULT:     -10.2      3.523      7.975
REMARK SMILES O=C(CCCCCC(F)(F)c1ccccc1)NCCCCCCNC(=O)c1ccc(-c2c3nc(c(-c4c(F)cccc4F)c4ccc([nH]4)c(-c4c(F)cccc4F)c4nc(c(-c5c(F)cccc5F)c5ccc2[nH]5)C=C4)C=C3)cc1
REMARK SMILES IDX 18 1 17 2 1 3 2 4 3 6 4 7 5 8 6 9 7 10 8 11 9 12 10 13 11 14
REMARK SMILES IDX 12 15 16 16 13 17 15 18 14 19 19 20 20 21 21 22 22 23 23 24
REMARK SMILES IDX 24 25 25 26 26 28 27 29 28 30 80 31 29 32 79 33 30 34 31 35
REMARK SMILES IDX 32 36 73 37 33 38 78 39 72 40 74 41 34 42 77 43 71 44 70 45
REMARK SMILES IDX 35 47 61 48 44 49 60 50 45 51 48 52 59 53 75 54 46 55 47 56
REMARK SMILES IDX 58 58 76 59 49 60 36 61 37 62 42 63 38 64 39 65 41 66 43 67
REMARK SMILES IDX 40 68 62 69 63 70 68 71 64 72 65 73 67 74 69 75 66 76 50 77
REMARK SMILES IDX 51 78 56 79 52 80 53 81 55 82 57 83 54 84
REMARK H PARENT 17 5 24 27 74 46 48 57
REMARK Flexibility Score: inf
ROOT
ATOM      1  C   UNL A   1      34.051  24.029  26.408  1.00  0.00     0.116 C 
ENDROOT
BRANCH   1   2
ATOM      2  N   UNL A   1      32.964  23.294  25.803  1.00  0.00    -0.356 N 
ATOM      3  O   UNL A   1      31.337  24.022  27.250  1.00  0.00    -0.275 OA
ATOM      4  C   UNL A   1      31.661  23.464  26.208  1.00  0.00     0.219 C 
ATOM      5  H   UNL A   1      33.161  22.654  25.082  1.00  0.00     0.163 HD
BRANCH   4   6
ATOM      6  C   UNL A   1      30.652  23.019  25.167  1.00  0.00     0.100 C 
BRANCH   6   7
ATOM      7  C   UNL A   1      30.943  23.727  23.839  1.00  0.00     0.010 C 
BRANCH   7   8
ATOM      8  C   UNL A   1      30.415  25.165  23.769  1.00  0.00     0.001 C 
BRANCH   8   9
ATOM      9  C   UNL A   1      31.129  26.086  22.788  1.00  0.00     0.007 C 
BRANCH   9  10
ATOM     10  C   UNL A   1      30.412  27.380  22.379  1.00  0.00     0.082 C 
BRANCH  10  11
ATOM     11  C   UNL A   1      30.523  28.584  23.338  1.00  0.00     0.273 C 
ATOM     12  F   UNL A   1      30.322  28.135  24.612  1.00  0.00    -0.201 F 
ATOM     13  F   UNL A   1      31.842  28.964  23.311  1.00  0.00    -0.201 F 
BRANCH  11  14
ATOM     14  C   UNL A   1      29.635  29.762  22.981  1.00  0.00     0.021 A 
ATOM     15  C   UNL A   1      28.915  29.803  21.778  1.00  0.00     0.010 A 
ATOM     16  C   UNL A   1      29.501  30.841  23.869  1.00  0.00     0.010 A 
ATOM     17  C   UNL A   1      28.192  30.938  21.411  1.00  0.00     0.001 A 
ATOM     18  C   UNL A   1      28.725  31.953  23.530  1.00  0.00     0.001 A 
ATOM     19  C   UNL A   1      28.099  32.015  22.287  1.00  0.00     0.000 A 
ENDBRANCH  11  14
ENDBRANCH  10  11
ENDBRANCH   9  10
ENDBRANCH   8   9
ENDBRANCH   7   8
ENDBRANCH   6   7
ENDBRANCH   4   6
ENDBRANCH   1   2
BRANCH   1  20
ATOM     20  C   UNL A   1      34.813  24.850  25.370  1.00  0.00     0.021 C 
BRANCH  20  21
ATOM     21  C   UNL A   1      33.994  25.974  24.713  1.00  0.00     0.002 C 
BRANCH  21  22
ATOM     22  C   UNL A   1      33.179  26.852  25.670  1.00  0.00     0.002 C 
BRANCH  22  23
ATOM     23  C   UNL A   1      33.874  28.131  26.141  1.00  0.00     0.021 C 
BRANCH  23  24
ATOM     24  C   UNL A   1      33.491  28.603  27.541  1.00  0.00     0.116 C 
BRANCH  24  25
ATOM     25  N   UNL A   1      33.586  30.046  27.700  1.00  0.00    -0.352 N 
ATOM     26  C   UNL A   1      34.660  30.803  28.103  1.00  0.00     0.251 C 
ATOM     27  H   UNL A   1      32.767  30.551  27.489  1.00  0.00     0.163 HD
ATOM     28  O   UNL A   1      34.529  32.005  28.320  1.00  0.00    -0.269 OA
BRANCH  26  29
ATOM     29  C   UNL A   1      35.973  30.157  28.315  1.00  0.00     0.039 A 
ATOM     30  C   UNL A   1      36.876  30.097  27.250  1.00  0.00     0.014 A 
ATOM     31  C   UNL A   1      36.327  29.642  29.565  1.00  0.00     0.014 A 
ATOM     32  C   UNL A   1      38.163  29.597  27.462  1.00  0.00     0.010 A 
ATOM     33  C   UNL A   1      37.631  29.212  29.793  1.00  0.00     0.010 A 
ATOM     34  C   UNL A   1      38.567  29.195  28.746  1.00  0.00    -0.014 A 
BRANCH  34  35
ATOM     35  C   UNL A   1      39.971  28.795  29.022  1.00  0.00     0.031 A 
ATOM     36  C   UNL A   1      40.936  29.770  29.633  1.00  0.00     0.074 A 
ATOM     37  C   UNL A   1      40.399  27.574  28.645  1.00  0.00     0.049 A 
ATOM     38  N   UNL A   1      42.215  29.628  29.874  1.00  0.00    -0.248 NA
ATOM     39  C   UNL A   1      40.399  31.088  30.000  1.00  0.00     0.031 C 
ATOM     40  C   UNL A   1      39.575  26.555  27.991  1.00  0.00     0.029 A 
ATOM     41  N   UNL A   1      41.637  26.990  28.738  1.00  0.00    -0.354 N 
ATOM     42  C   UNL A   1      42.636  30.836  30.412  1.00  0.00     0.074 A 
ATOM     43  C   UNL A   1      41.489  31.720  30.407  1.00  0.00     0.031 C 
ATOM     44  C   UNL A   1      40.326  25.469  27.752  1.00  0.00     0.029 A 
ATOM     45  C   UNL A   1      41.693  25.729  28.195  1.00  0.00     0.049 A 
ATOM     46  H   UNL A   1      42.412  27.432  29.155  1.00  0.00     0.167 HD
ATOM     47  C   UNL A   1      43.859  31.173  30.887  1.00  0.00     0.037 A 
ATOM     48  C   UNL A   1      42.730  24.882  28.051  1.00  0.00     0.037 A 
ATOM     49  C   UNL A   1      44.997  30.290  30.890  1.00  0.00     0.049 A 
ATOM     50  C   UNL A   1      44.085  25.285  28.561  1.00  0.00     0.074 A 
ATOM     51  C   UNL A   1      46.263  30.518  31.401  1.00  0.00     0.029 A 
ATOM     52  N   UNL A   1      45.011  29.014  30.345  1.00  0.00    -0.354 N 
ATOM     53  N   UNL A   1      44.451  26.403  29.140  1.00  0.00    -0.248 NA
ATOM     54  C   UNL A   1      45.171  24.307  28.403  1.00  0.00     0.031 C 
ATOM     55  C   UNL A   1      47.059  29.403  31.113  1.00  0.00     0.029 A 
ATOM     56  C   UNL A   1      46.273  28.456  30.476  1.00  0.00     0.049 A 
ATOM     57  H   UNL A   1      44.238  28.571  29.927  1.00  0.00     0.167 HD
ATOM     58  C   UNL A   1      45.801  26.257  29.431  1.00  0.00     0.074 A 
ATOM     59  C   UNL A   1      46.185  24.934  28.983  1.00  0.00     0.031 C 
ATOM     60  C   UNL A   1      46.646  27.140  30.018  1.00  0.00     0.037 A 
BRANCH  47  61
ATOM     61  C   UNL A   1      44.026  32.562  31.435  1.00  0.00     0.057 A 
ATOM     62  C   UNL A   1      43.794  32.858  32.787  1.00  0.00     0.134 A 
ATOM     63  C   UNL A   1      44.436  33.616  30.609  1.00  0.00     0.134 A 
ATOM     64  F   UNL A   1      43.390  31.899  33.633  1.00  0.00    -0.206 F 
ATOM     65  C   UNL A   1      43.926  34.156  33.284  1.00  0.00     0.040 A 
ATOM     66  C   UNL A   1      44.603  34.911  31.103  1.00  0.00     0.040 A 
ATOM     67  F   UNL A   1      44.686  33.404  29.308  1.00  0.00    -0.206 F 
ATOM     68  C   UNL A   1      44.336  35.186  32.442  1.00  0.00     0.006 A 
ENDBRANCH  47  61
BRANCH  48  69
ATOM     69  C   UNL A   1      42.519  23.568  27.392  1.00  0.00     0.057 A 
ATOM     70  C   UNL A   1      42.168  22.433  28.131  1.00  0.00     0.134 A 
ATOM     71  C   UNL A   1      42.649  23.420  26.006  1.00  0.00     0.134 A 
ATOM     72  F   UNL A   1      42.047  22.507  29.465  1.00  0.00    -0.206 F 
ATOM     73  C   UNL A   1      41.966  21.195  27.518  1.00  0.00     0.040 A 
ATOM     74  C   UNL A   1      42.423  22.194  25.376  1.00  0.00     0.040 A 
ATOM     75  F   UNL A   1      42.976  24.471  25.239  1.00  0.00    -0.206 F 
ATOM     76  C   UNL A   1      42.086  21.076  26.134  1.00  0.00     0.006 A 
ENDBRANCH  48  69
BRANCH  60  77
ATOM     77  C   UNL A   1      48.067  26.701  30.226  1.00  0.00     0.057 A 
ATOM     78  C   UNL A   1      48.461  25.980  31.360  1.00  0.00     0.134 A 
ATOM     79  C   UNL A   1      49.044  26.966  29.257  1.00  0.00     0.134 A 
ATOM     80  F   UNL A   1      47.577  25.705  32.331  1.00  0.00    -0.206 F 
ATOM     81  C   UNL A   1      49.779  25.554  31.533  1.00  0.00     0.040 A 
ATOM     82  C   UNL A   1      50.359  26.521  29.405  1.00  0.00     0.040 A 
ATOM     83  F   UNL A   1      48.734  27.645  28.143  1.00  0.00    -0.206 F 
ATOM     84  C   UNL A   1      50.731  25.817  30.549  1.00  0.00     0.006 A 
ENDBRANCH  60  77
ENDBRANCH  34  35
ENDBRANCH  26  29
ENDBRANCH  24  25
ENDBRANCH  23  24
ENDBRANCH  22  23
ENDBRANCH  21  22
ENDBRANCH  20  21
ENDBRANCH   1  20
TORSDOF 19
ENDMDL
