MODEL 1
REMARK VINA RESULT:      -9.8      0.000      0.000
REMARK SMILES Cc1nc(CNC(=O)[C@H]2CCO[C@H]2C)sc1C(=O)NCCCCCCNC(=O)c1ccc(-c2c3nc(c(-c4c(F)cccc4F)c4ccc([nH]4)c(-c4c(F)cccc4F)c4nc(c(-c5c(F)cccc5F)c5ccc2[nH]5)C=C4)C=C3)cc1
REMARK SMILES IDX 22 1 21 2 20 3 19 4 17 5 18 6 16 8 1 9 2 10 3 11 4 12 15 13
REMARK SMILES IDX 5 14 6 15 7 16 8 18 9 19 10 20 13 21 11 22 12 23 14 24 23 25
REMARK SMILES IDX 24 26 25 27 26 28 27 29 28 31 29 32 30 33 82 34 31 35 81 36
REMARK SMILES IDX 32 37 33 38 34 39 75 40 35 41 80 42 74 43 76 44 36 45 79 46
REMARK SMILES IDX 73 47 72 48 37 50 63 51 46 52 62 53 47 54 50 55 61 56 77 57
REMARK SMILES IDX 48 58 49 59 60 61 78 62 51 63 38 64 39 65 44 66 40 67 41 68
REMARK SMILES IDX 43 69 45 70 42 71 64 72 65 73 70 74 66 75 67 76 69 77 71 78
REMARK SMILES IDX 68 79 52 80 53 81 58 82 54 83 55 84 57 85 59 86 56 87
REMARK H PARENT 19 7 6 17 26 30 76 49 50 60
REMARK Flexibility Score: inf
ROOT
ATOM      1  C   UNL A   1      35.143  35.300  33.014  1.00  0.00     0.002 C 
ENDROOT
BRANCH   1   2
ATOM      2  C   UNL A   1      35.285  34.424  34.263  1.00  0.00     0.021 C 
BRANCH   2   3
ATOM      3  C   UNL A   1      36.308  33.294  34.105  1.00  0.00     0.116 C 
BRANCH   3   4
ATOM      4  N   UNL A   1      37.065  33.143  35.321  1.00  0.00    -0.351 N 
ATOM      5  C   UNL A   1      38.052  32.286  35.728  1.00  0.00     0.263 C 
ATOM      6  O   UNL A   1      38.420  32.502  36.891  1.00  0.00    -0.268 OA
ATOM      7  H   UNL A   1      36.819  33.801  36.011  1.00  0.00     0.163 HD
BRANCH   5   8
ATOM      8  C   UNL A   1      38.660  31.248  34.902  1.00  0.00     0.115 A 
ATOM      9  C   UNL A   1      37.022  30.255  33.099  1.00  0.00     0.068 C 
ATOM     10  C   UNL A   1      38.297  30.424  33.838  1.00  0.00     0.061 A 
ATOM     11  N   UNL A   1      39.287  29.543  33.414  1.00  0.00    -0.244 NA
ATOM     12  C   UNL A   1      40.341  29.598  34.189  1.00  0.00     0.113 A 
ATOM     13  S   UNL A   1      40.288  30.814  35.376  1.00  0.00    -0.111 S 
BRANCH  12  14
ATOM     14  C   UNL A   1      41.512  28.668  34.084  1.00  0.00     0.183 C 
BRANCH  14  15
ATOM     15  N   UNL A   1      42.127  28.538  35.397  1.00  0.00    -0.349 N 
ATOM     16  C   UNL A   1      42.495  27.418  36.077  1.00  0.00     0.226 C 
ATOM     17  H   UNL A   1      42.303  29.388  35.862  1.00  0.00     0.163 HD
ATOM     18  O   UNL A   1      42.927  27.547  37.223  1.00  0.00    -0.275 OA
BRANCH  16  19
ATOM     19  C   UNL A   1      42.398  26.069  35.396  1.00  0.00     0.109 C 
ATOM     20  C   UNL A   1      43.522  25.117  35.754  1.00  0.00     0.044 C 
ATOM     21  C   UNL A   1      41.170  25.240  35.758  1.00  0.00     0.127 C 
ATOM     22  C   UNL A   1      42.953  23.787  35.313  1.00  0.00     0.161 C 
ATOM     23  O   UNL A   1      41.525  23.875  35.430  1.00  0.00    -0.378 OA
ATOM     24  C   UNL A   1      40.766  25.253  37.230  1.00  0.00     0.039 C 
ENDBRANCH  16  19
ENDBRANCH  14  15
ENDBRANCH  12  14
ENDBRANCH   5   8
ENDBRANCH   3   4
ENDBRANCH   2   3
ENDBRANCH   1   2
BRANCH   1  25
ATOM     25  C   UNL A   1      34.007  36.328  33.085  1.00  0.00     0.002 C 
BRANCH  25  26
ATOM     26  C   UNL A   1      32.893  36.139  32.051  1.00  0.00     0.021 C 
BRANCH  26  27
ATOM     27  C   UNL A   1      33.299  36.468  30.616  1.00  0.00     0.116 C 
BRANCH  27  28
ATOM     28  N   UNL A   1      32.637  35.592  29.661  1.00  0.00    -0.352 N 
ATOM     29  C   UNL A   1      33.146  34.535  28.950  1.00  0.00     0.251 C 
ATOM     30  H   UNL A   1      31.685  35.786  29.503  1.00  0.00     0.163 HD
ATOM     31  O   UNL A   1      32.519  34.070  28.005  1.00  0.00    -0.269 OA
BRANCH  29  32
ATOM     32  C   UNL A   1      34.455  33.958  29.321  1.00  0.00     0.039 A 
ATOM     33  C   UNL A   1      34.507  32.984  30.322  1.00  0.00     0.014 A 
ATOM     34  C   UNL A   1      35.631  34.400  28.709  1.00  0.00     0.014 A 
ATOM     35  C   UNL A   1      35.734  32.418  30.674  1.00  0.00     0.010 A 
ATOM     36  C   UNL A   1      36.844  33.788  29.013  1.00  0.00     0.010 A 
ATOM     37  C   UNL A   1      36.909  32.797  30.004  1.00  0.00    -0.014 A 
BRANCH  37  38
ATOM     38  C   UNL A   1      38.216  32.175  30.330  1.00  0.00     0.031 A 
ATOM     39  C   UNL A   1      39.187  32.886  31.230  1.00  0.00     0.074 A 
ATOM     40  C   UNL A   1      38.555  31.001  29.762  1.00  0.00     0.049 A 
ATOM     41  N   UNL A   1      40.404  32.545  31.568  1.00  0.00    -0.248 NA
ATOM     42  C   UNL A   1      38.741  34.165  31.808  1.00  0.00     0.031 C 
ATOM     43  C   UNL A   1      37.717  30.236  28.836  1.00  0.00     0.029 A 
ATOM     44  N   UNL A   1      39.700  30.253  29.870  1.00  0.00    -0.354 N 
ATOM     45  C   UNL A   1      40.874  33.571  32.379  1.00  0.00     0.074 A 
ATOM     46  C   UNL A   1      39.829  34.568  32.447  1.00  0.00     0.031 C 
ATOM     47  C   UNL A   1      38.370  29.119  28.474  1.00  0.00     0.029 A 
ATOM     48  C   UNL A   1      39.682  29.107  29.112  1.00  0.00     0.049 A 
ATOM     49  H   UNL A   1      40.461  30.513  30.437  1.00  0.00     0.167 HD
ATOM     50  C   UNL A   1      42.059  33.661  33.028  1.00  0.00     0.037 A 
ATOM     51  C   UNL A   1      40.623  28.159  28.944  1.00  0.00     0.037 A 
ATOM     52  C   UNL A   1      43.084  32.652  32.983  1.00  0.00     0.049 A 
ATOM     53  C   UNL A   1      41.930  28.283  29.677  1.00  0.00     0.074 A 
ATOM     54  C   UNL A   1      44.295  32.622  33.654  1.00  0.00     0.029 A 
ATOM     55  N   UNL A   1      43.018  31.493  32.224  1.00  0.00    -0.354 N 
ATOM     56  N   UNL A   1      42.333  29.227  30.493  1.00  0.00    -0.248 NA
ATOM     57  C   UNL A   1      42.911  27.208  29.470  1.00  0.00     0.031 C 
ATOM     58  C   UNL A   1      44.979  31.465  33.270  1.00  0.00     0.029 A 
ATOM     59  C   UNL A   1      44.175  30.751  32.396  1.00  0.00     0.049 A 
ATOM     60  H   UNL A   1      42.262  31.237  31.650  1.00  0.00     0.167 HD
ATOM     61  C   UNL A   1      43.599  28.845  30.920  1.00  0.00     0.074 A 
ATOM     62  C   UNL A   1      43.891  27.578  30.281  1.00  0.00     0.031 C 
ATOM     63  C   UNL A   1      44.443  29.484  31.764  1.00  0.00     0.037 A 
BRANCH  50  64
ATOM     64  C   UNL A   1      42.310  34.892  33.849  1.00  0.00     0.057 A 
ATOM     65  C   UNL A   1      41.942  34.966  35.199  1.00  0.00     0.134 A 
ATOM     66  C   UNL A   1      42.967  35.998  33.297  1.00  0.00     0.134 A 
ATOM     67  F   UNL A   1      41.298  33.945  35.785  1.00  0.00    -0.206 F 
ATOM     68  C   UNL A   1      42.198  36.105  35.964  1.00  0.00     0.040 A 
ATOM     69  C   UNL A   1      43.253  37.133  34.060  1.00  0.00     0.040 A 
ATOM     70  F   UNL A   1      43.353  35.992  32.012  1.00  0.00    -0.206 F 
ATOM     71  C   UNL A   1      42.862  37.189  35.396  1.00  0.00     0.006 A 
ENDBRANCH  50  64
BRANCH  51  72
ATOM     72  C   UNL A   1      40.359  26.996  28.060  1.00  0.00     0.057 A 
ATOM     73  C   UNL A   1      39.580  25.919  28.499  1.00  0.00     0.134 A 
ATOM     74  C   UNL A   1      40.888  26.924  26.766  1.00  0.00     0.134 A 
ATOM     75  F   UNL A   1      39.061  25.921  29.736  1.00  0.00    -0.206 F 
ATOM     76  C   UNL A   1      39.355  24.802  27.692  1.00  0.00     0.040 A 
ATOM     77  C   UNL A   1      40.651  25.825  25.939  1.00  0.00     0.040 A 
ATOM     78  F   UNL A   1      41.635  27.928  26.283  1.00  0.00    -0.206 F 
ATOM     79  C   UNL A   1      39.889  24.756  26.406  1.00  0.00     0.006 A 
ENDBRANCH  51  72
BRANCH  63  80
ATOM     80  C   UNL A   1      45.744  28.808  32.078  1.00  0.00     0.057 A 
ATOM     81  C   UNL A   1      46.906  29.060  31.340  1.00  0.00     0.134 A 
ATOM     82  C   UNL A   1      45.842  27.921  33.159  1.00  0.00     0.134 A 
ATOM     83  F   UNL A   1      46.876  29.888  30.285  1.00  0.00    -0.206 F 
ATOM     84  C   UNL A   1      48.117  28.437  31.652  1.00  0.00     0.040 A 
ATOM     85  C   UNL A   1      47.050  27.313  33.496  1.00  0.00     0.040 A 
ATOM     86  F   UNL A   1      44.766  27.644  33.911  1.00  0.00    -0.206 F 
ATOM     87  C   UNL A   1      48.192  27.567  32.738  1.00  0.00     0.006 A 
ENDBRANCH  63  80
ENDBRANCH  37  38
ENDBRANCH  29  32
ENDBRANCH  27  28
ENDBRANCH  26  27
ENDBRANCH  25  26
ENDBRANCH   1  25
TORSDOF 16
ENDMDL
MODEL 2
REMARK VINA RESULT:      -9.5      0.766      6.307
REMARK SMILES Cc1nc(CNC(=O)[C@H]2CCO[C@H]2C)sc1C(=O)NCCCCCCNC(=O)c1ccc(-c2c3nc(c(-c4c(F)cccc4F)c4ccc([nH]4)c(-c4c(F)cccc4F)c4nc(c(-c5c(F)cccc5F)c5ccc2[nH]5)C=C4)C=C3)cc1
REMARK SMILES IDX 22 1 21 2 20 3 19 4 17 5 18 6 16 8 1 9 2 10 3 11 4 12 15 13
REMARK SMILES IDX 5 14 6 15 7 16 8 18 9 19 10 20 13 21 11 22 12 23 14 24 23 25
REMARK SMILES IDX 24 26 25 27 26 28 27 29 28 31 29 32 30 33 82 34 31 35 81 36
REMARK SMILES IDX 32 37 33 38 34 39 75 40 35 41 80 42 74 43 76 44 36 45 79 46
REMARK SMILES IDX 73 47 72 48 37 50 63 51 46 52 62 53 47 54 50 55 61 56 77 57
REMARK SMILES IDX 48 58 49 59 60 61 78 62 51 63 38 64 39 65 44 66 40 67 41 68
REMARK SMILES IDX 43 69 45 70 42 71 64 72 65 73 70 74 66 75 67 76 69 77 71 78
REMARK SMILES IDX 68 79 52 80 53 81 58 82 54 83 55 84 57 85 59 86 56 87
REMARK H PARENT 19 7 6 17 26 30 76 49 50 60
REMARK Flexibility Score: inf
ROOT
ATOM      1  C   UNL A   1      35.560  34.929  33.134  1.00  0.00     0.002 C 
ENDROOT
BRANCH   1   2
ATOM      2  C   UNL A   1      35.274  33.628  33.889  1.00  0.00     0.021 C 
BRANCH   2   3
ATOM      3  C   UNL A   1      36.380  32.578  33.740  1.00  0.00     0.116 C 
BRANCH   3   4
ATOM      4  N   UNL A   1      37.250  32.614  34.888  1.00  0.00    -0.351 N 
ATOM      5  C   UNL A   1      38.300  31.844  35.312  1.00  0.00     0.263 C 
ATOM      6  O   UNL A   1      38.764  32.227  36.394  1.00  0.00    -0.268 OA
ATOM      7  H   UNL A   1      37.045  33.355  35.502  1.00  0.00     0.163 HD
BRANCH   5   8
ATOM      8  C   UNL A   1      38.866  30.716  34.580  1.00  0.00     0.115 A 
ATOM      9  C   UNL A   1      37.261  29.760  32.728  1.00  0.00     0.068 C 
ATOM     10  C   UNL A   1      38.500  29.866  33.538  1.00  0.00     0.061 A 
ATOM     11  N   UNL A   1      39.436  28.886  33.223  1.00  0.00    -0.244 NA
ATOM     12  C   UNL A   1      40.442  28.899  34.060  1.00  0.00     0.113 A 
ATOM     13  S   UNL A   1      40.422  30.180  35.177  1.00  0.00    -0.111 S 
BRANCH  12  14
ATOM     14  C   UNL A   1      41.536  27.873  34.077  1.00  0.00     0.183 C 
BRANCH  14  15
ATOM     15  N   UNL A   1      41.068  26.700  34.802  1.00  0.00    -0.349 N 
ATOM     16  C   UNL A   1      41.779  25.681  35.357  1.00  0.00     0.226 C 
ATOM     17  H   UNL A   1      40.091  26.635  34.906  1.00  0.00     0.163 HD
ATOM     18  O   UNL A   1      41.159  24.742  35.856  1.00  0.00    -0.275 OA
BRANCH  16  19
ATOM     19  C   UNL A   1      43.292  25.754  35.377  1.00  0.00     0.109 C 
ATOM     20  C   UNL A   1      43.917  25.208  36.645  1.00  0.00     0.044 C 
ATOM     21  C   UNL A   1      44.001  24.929  34.308  1.00  0.00     0.127 C 
ATOM     22  C   UNL A   1      45.354  25.006  36.219  1.00  0.00     0.161 C 
ATOM     23  O   UNL A   1      45.346  24.738  34.808  1.00  0.00    -0.378 OA
ATOM     24  C   UNL A   1      43.423  23.542  34.043  1.00  0.00     0.039 C 
ENDBRANCH  16  19
ENDBRANCH  14  15
ENDBRANCH  12  14
ENDBRANCH   5   8
ENDBRANCH   3   4
ENDBRANCH   2   3
ENDBRANCH   1   2
BRANCH   1  25
ATOM     25  C   UNL A   1      34.389  35.919  33.106  1.00  0.00     0.002 C 
BRANCH  25  26
ATOM     26  C   UNL A   1      33.252  35.555  32.146  1.00  0.00     0.021 C 
BRANCH  26  27
ATOM     27  C   UNL A   1      33.327  36.244  30.786  1.00  0.00     0.116 C 
BRANCH  27  28
ATOM     28  N   UNL A   1      32.681  35.451  29.751  1.00  0.00    -0.352 N 
ATOM     29  C   UNL A   1      33.206  34.472  28.947  1.00  0.00     0.251 C 
ATOM     30  H   UNL A   1      31.727  35.647  29.606  1.00  0.00     0.163 HD
ATOM     31  O   UNL A   1      32.589  34.087  27.960  1.00  0.00    -0.269 OA
BRANCH  29  32
ATOM     32  C   UNL A   1      34.521  33.879  29.270  1.00  0.00     0.039 A 
ATOM     33  C   UNL A   1      35.670  34.421  28.689  1.00  0.00     0.014 A 
ATOM     34  C   UNL A   1      34.617  32.770  30.116  1.00  0.00     0.014 A 
ATOM     35  C   UNL A   1      36.921  33.882  28.996  1.00  0.00     0.010 A 
ATOM     36  C   UNL A   1      35.869  32.276  30.472  1.00  0.00     0.010 A 
ATOM     37  C   UNL A   1      37.032  32.821  29.909  1.00  0.00    -0.014 A 
BRANCH  37  38
ATOM     38  C   UNL A   1      38.355  32.264  30.284  1.00  0.00     0.031 A 
ATOM     39  C   UNL A   1      38.808  30.948  29.716  1.00  0.00     0.074 A 
ATOM     40  C   UNL A   1      39.119  32.910  31.187  1.00  0.00     0.049 A 
ATOM     41  N   UNL A   1      39.889  30.260  29.981  1.00  0.00    -0.248 NA
ATOM     42  C   UNL A   1      37.915  30.306  28.738  1.00  0.00     0.031 C 
ATOM     43  C   UNL A   1      38.768  34.171  31.844  1.00  0.00     0.029 A 
ATOM     44  N   UNL A   1      40.341  32.587  31.719  1.00  0.00    -0.354 N 
ATOM     45  C   UNL A   1      39.798  29.102  29.220  1.00  0.00     0.074 A 
ATOM     46  C   UNL A   1      38.536  29.156  28.517  1.00  0.00     0.031 C 
ATOM     47  C   UNL A   1      39.761  34.522  32.677  1.00  0.00     0.029 A 
ATOM     48  C   UNL A   1      40.799  33.497  32.641  1.00  0.00     0.049 A 
ATOM     49  H   UNL A   1      40.843  31.779  31.464  1.00  0.00     0.167 HD
ATOM     50  C   UNL A   1      40.697  28.095  29.101  1.00  0.00     0.037 A 
ATOM     51  C   UNL A   1      41.923  33.498  33.381  1.00  0.00     0.037 A 
ATOM     52  C   UNL A   1      41.966  28.059  29.778  1.00  0.00     0.049 A 
ATOM     53  C   UNL A   1      42.904  32.369  33.227  1.00  0.00     0.074 A 
ATOM     54  C   UNL A   1      42.971  27.113  29.676  1.00  0.00     0.029 A 
ATOM     55  N   UNL A   1      42.404  29.013  30.684  1.00  0.00    -0.354 N 
ATOM     56  N   UNL A   1      42.834  31.313  32.453  1.00  0.00    -0.248 NA
ATOM     57  C   UNL A   1      44.123  32.434  34.046  1.00  0.00     0.031 C 
ATOM     58  C   UNL A   1      44.001  27.474  30.549  1.00  0.00     0.029 A 
ATOM     59  C   UNL A   1      43.657  28.668  31.162  1.00  0.00     0.049 A 
ATOM     60  H   UNL A   1      41.899  29.815  30.948  1.00  0.00     0.167 HD
ATOM     61  C   UNL A   1      44.010  30.605  32.669  1.00  0.00     0.074 A 
ATOM     62  C   UNL A   1      44.781  31.359  33.637  1.00  0.00     0.031 C 
ATOM     63  C   UNL A   1      44.416  29.437  32.115  1.00  0.00     0.037 A 
BRANCH  50  64
ATOM     64  C   UNL A   1      40.341  26.951  28.197  1.00  0.00     0.057 A 
ATOM     65  C   UNL A   1      40.861  26.846  26.900  1.00  0.00     0.134 A 
ATOM     66  C   UNL A   1      39.507  25.919  28.644  1.00  0.00     0.134 A 
ATOM     67  F   UNL A   1      41.658  27.806  26.407  1.00  0.00    -0.206 F 
ATOM     68  C   UNL A   1      40.546  25.767  26.072  1.00  0.00     0.040 A 
ATOM     69  C   UNL A   1      39.205  24.822  27.834  1.00  0.00     0.040 A 
ATOM     70  F   UNL A   1      38.979  25.954  29.877  1.00  0.00    -0.206 F 
ATOM     71  C   UNL A   1      39.721  24.748  26.542  1.00  0.00     0.006 A 
ENDBRANCH  50  64
BRANCH  51  72
ATOM     72  C   UNL A   1      42.197  34.615  34.320  1.00  0.00     0.057 A 
ATOM     73  C   UNL A   1      41.953  34.479  35.692  1.00  0.00     0.134 A 
ATOM     74  C   UNL A   1      42.693  35.844  33.871  1.00  0.00     0.134 A 
ATOM     75  F   UNL A   1      41.460  33.331  36.179  1.00  0.00    -0.206 F 
ATOM     76  C   UNL A   1      42.170  35.533  36.581  1.00  0.00     0.040 A 
ATOM     77  C   UNL A   1      42.938  36.899  34.752  1.00  0.00     0.040 A 
ATOM     78  F   UNL A   1      42.956  36.034  32.570  1.00  0.00    -0.206 F 
ATOM     79  C   UNL A   1      42.668  36.746  36.111  1.00  0.00     0.006 A 
ENDBRANCH  51  72
BRANCH  63  80
ATOM     80  C   UNL A   1      45.768  28.923  32.510  1.00  0.00     0.057 A 
ATOM     81  C   UNL A   1      45.978  28.246  33.717  1.00  0.00     0.134 A 
ATOM     82  C   UNL A   1      46.865  29.075  31.652  1.00  0.00     0.134 A 
ATOM     83  F   UNL A   1      44.972  28.081  34.589  1.00  0.00    -0.206 F 
ATOM     84  C   UNL A   1      47.239  27.757  34.067  1.00  0.00     0.040 A 
ATOM     85  C   UNL A   1      48.122  28.567  31.979  1.00  0.00     0.040 A 
ATOM     86  F   UNL A   1      46.728  29.707  30.477  1.00  0.00    -0.206 F 
ATOM     87  C   UNL A   1      48.313  27.910  33.193  1.00  0.00     0.006 A 
ENDBRANCH  63  80
ENDBRANCH  37  38
ENDBRANCH  29  32
ENDBRANCH  27  28
ENDBRANCH  26  27
ENDBRANCH  25  26
ENDBRANCH   1  25
TORSDOF 16
ENDMDL
MODEL 3
REMARK VINA RESULT:      -9.2      6.052     11.930
REMARK SMILES Cc1nc(CNC(=O)[C@H]2CCO[C@H]2C)sc1C(=O)NCCCCCCNC(=O)c1ccc(-c2c3nc(c(-c4c(F)cccc4F)c4ccc([nH]4)c(-c4c(F)cccc4F)c4nc(c(-c5c(F)cccc5F)c5ccc2[nH]5)C=C4)C=C3)cc1
REMARK SMILES IDX 22 1 21 2 20 3 19 4 17 5 18 6 16 8 1 9 2 10 3 11 4 12 15 13
REMARK SMILES IDX 5 14 6 15 7 16 8 18 9 19 10 20 13 21 11 22 12 23 14 24 23 25
REMARK SMILES IDX 24 26 25 27 26 28 27 29 28 31 29 32 30 33 82 34 31 35 81 36
REMARK SMILES IDX 32 37 33 38 34 39 75 40 35 41 80 42 74 43 76 44 36 45 79 46
REMARK SMILES IDX 73 47 72 48 37 50 63 51 46 52 62 53 47 54 50 55 61 56 77 57
REMARK SMILES IDX 48 58 49 59 60 61 78 62 51 63 38 64 39 65 44 66 40 67 41 68
REMARK SMILES IDX 43 69 45 70 42 71 64 72 65 73 70 74 66 75 67 76 69 77 71 78
REMARK SMILES IDX 68 79 52 80 53 81 58 82 54 83 55 84 57 85 59 86 56 87
REMARK H PARENT 19 7 6 17 26 30 76 49 50 60
REMARK Flexibility Score: inf
ROOT
ATOM      1  C   UNL A   1      37.044  21.802  24.417  1.00  0.00     0.002 C 
ENDROOT
BRANCH   1   2
ATOM      2  C   UNL A   1      35.947  22.828  24.717  1.00  0.00     0.021 C 
BRANCH   2   3
ATOM      3  C   UNL A   1      36.053  23.447  26.114  1.00  0.00     0.116 C 
BRANCH   3   4
ATOM      4  N   UNL A   1      35.171  22.761  27.025  1.00  0.00    -0.351 N 
ATOM      5  C   UNL A   1      33.881  22.310  26.944  1.00  0.00     0.263 C 
ATOM      6  O   UNL A   1      33.496  21.779  27.994  1.00  0.00    -0.268 OA
ATOM      7  H   UNL A   1      35.589  22.576  27.896  1.00  0.00     0.163 HD
BRANCH   5   8
ATOM      8  C   UNL A   1      33.034  22.390  25.758  1.00  0.00     0.115 A 
ATOM      9  C   UNL A   1      33.011  20.176  24.339  1.00  0.00     0.068 C 
ATOM     10  C   UNL A   1      32.645  21.567  24.703  1.00  0.00     0.061 A 
ATOM     11  N   UNL A   1      31.802  22.165  23.772  1.00  0.00    -0.244 NA
ATOM     12  C   UNL A   1      31.630  23.437  24.029  1.00  0.00     0.113 A 
ATOM     13  S   UNL A   1      32.330  23.970  25.484  1.00  0.00    -0.111 S 
BRANCH  12  14
ATOM     14  C   UNL A   1      30.900  24.386  23.128  1.00  0.00     0.183 C 
BRANCH  14  15
ATOM     15  N   UNL A   1      31.797  24.807  22.061  1.00  0.00    -0.349 N 
ATOM     16  C   UNL A   1      32.590  25.910  21.977  1.00  0.00     0.226 C 
ATOM     17  H   UNL A   1      31.835  24.202  21.285  1.00  0.00     0.163 HD
ATOM     18  O   UNL A   1      33.209  26.104  20.931  1.00  0.00    -0.275 OA
BRANCH  16  19
ATOM     19  C   UNL A   1      32.712  26.831  23.173  1.00  0.00     0.109 C 
ATOM     20  C   UNL A   1      33.701  27.963  22.978  1.00  0.00     0.044 C 
ATOM     21  C   UNL A   1      31.444  27.595  23.543  1.00  0.00     0.127 C 
ATOM     22  C   UNL A   1      33.303  28.916  24.084  1.00  0.00     0.161 C 
ATOM     23  O   UNL A   1      31.899  28.728  24.322  1.00  0.00    -0.378 OA
ATOM     24  C   UNL A   1      30.637  28.154  22.374  1.00  0.00     0.039 C 
ENDBRANCH  16  19
ENDBRANCH  14  15
ENDBRANCH  12  14
ENDBRANCH   5   8
ENDBRANCH   3   4
ENDBRANCH   2   3
ENDBRANCH   1   2
BRANCH   1  25
ATOM     25  C   UNL A   1      36.761  20.393  24.953  1.00  0.00     0.002 C 
BRANCH  25  26
ATOM     26  C   UNL A   1      37.972  19.458  24.997  1.00  0.00     0.021 C 
BRANCH  26  27
ATOM     27  C   UNL A   1      39.186  20.028  25.726  1.00  0.00     0.116 C 
BRANCH  27  28
ATOM     28  N   UNL A   1      40.238  19.033  25.869  1.00  0.00    -0.352 N 
ATOM     29  C   UNL A   1      41.588  19.210  26.034  1.00  0.00     0.251 C 
ATOM     30  H   UNL A   1      39.937  18.097  25.843  1.00  0.00     0.163 HD
ATOM     31  O   UNL A   1      42.357  18.267  25.883  1.00  0.00    -0.269 OA
BRANCH  29  32
ATOM     32  C   UNL A   1      42.120  20.542  26.392  1.00  0.00     0.039 A 
ATOM     33  C   UNL A   1      42.518  21.410  25.372  1.00  0.00     0.014 A 
ATOM     34  C   UNL A   1      42.258  20.920  27.731  1.00  0.00     0.014 A 
ATOM     35  C   UNL A   1      43.009  22.677  25.694  1.00  0.00     0.010 A 
ATOM     36  C   UNL A   1      42.684  22.207  28.048  1.00  0.00     0.010 A 
ATOM     37  C   UNL A   1      43.071  23.095  27.033  1.00  0.00    -0.014 A 
BRANCH  37  38
ATOM     38  C   UNL A   1      43.546  24.454  27.394  1.00  0.00     0.031 A 
ATOM     39  C   UNL A   1      42.564  25.506  27.828  1.00  0.00     0.074 A 
ATOM     40  C   UNL A   1      44.852  24.759  27.267  1.00  0.00     0.049 A 
ATOM     41  N   UNL A   1      42.772  26.767  28.107  1.00  0.00    -0.248 NA
ATOM     42  C   UNL A   1      41.155  25.092  27.940  1.00  0.00     0.031 C 
ATOM     43  C   UNL A   1      45.896  23.838  26.812  1.00  0.00     0.029 A 
ATOM     44  N   UNL A   1      45.523  25.933  27.496  1.00  0.00    -0.354 N 
ATOM     45  C   UNL A   1      41.524  27.300  28.408  1.00  0.00     0.074 A 
ATOM     46  C   UNL A   1      40.558  26.238  28.234  1.00  0.00     0.031 C 
ATOM     47  C   UNL A   1      47.076  24.477  26.811  1.00  0.00     0.029 A 
ATOM     48  C   UNL A   1      46.869  25.860  27.230  1.00  0.00     0.049 A 
ATOM     49  H   UNL A   1      45.081  26.751  27.819  1.00  0.00     0.167 HD
ATOM     50  C   UNL A   1      41.216  28.554  28.815  1.00  0.00     0.037 A 
ATOM     51  C   UNL A   1      47.824  26.804  27.306  1.00  0.00     0.037 A 
ATOM     52  C   UNL A   1      42.183  29.600  29.017  1.00  0.00     0.049 A 
ATOM     53  C   UNL A   1      47.454  28.189  27.762  1.00  0.00     0.074 A 
ATOM     54  C   UNL A   1      41.978  30.886  29.485  1.00  0.00     0.029 A 
ATOM     55  N   UNL A   1      43.541  29.478  28.761  1.00  0.00    -0.354 N 
ATOM     56  N   UNL A   1      46.280  28.659  28.107  1.00  0.00    -0.248 NA
ATOM     57  C   UNL A   1      48.543  29.173  27.845  1.00  0.00     0.031 C 
ATOM     58  C   UNL A   1      43.205  31.556  29.475  1.00  0.00     0.029 A 
ATOM     59  C   UNL A   1      44.182  30.673  29.045  1.00  0.00     0.049 A 
ATOM     60  H   UNL A   1      43.982  28.665  28.427  1.00  0.00     0.167 HD
ATOM     61  C   UNL A   1      46.494  29.981  28.475  1.00  0.00     0.074 A 
ATOM     62  C   UNL A   1      47.912  30.234  28.324  1.00  0.00     0.031 C 
ATOM     63  C   UNL A   1      45.597  30.903  28.902  1.00  0.00     0.037 A 
BRANCH  50  64
ATOM     64  C   UNL A   1      39.770  28.863  29.076  1.00  0.00     0.057 A 
ATOM     65  C   UNL A   1      38.906  29.270  28.052  1.00  0.00     0.134 A 
ATOM     66  C   UNL A   1      39.226  28.708  30.357  1.00  0.00     0.134 A 
ATOM     67  F   UNL A   1      39.367  29.448  26.804  1.00  0.00    -0.206 F 
ATOM     68  C   UNL A   1      37.557  29.533  28.296  1.00  0.00     0.040 A 
ATOM     69  C   UNL A   1      37.872  28.943  30.608  1.00  0.00     0.040 A 
ATOM     70  F   UNL A   1      39.997  28.316  31.383  1.00  0.00    -0.206 F 
ATOM     71  C   UNL A   1      37.036  29.362  29.576  1.00  0.00     0.006 A 
ENDBRANCH  50  64
BRANCH  51  72
ATOM     72  C   UNL A   1      49.230  26.472  26.963  1.00  0.00     0.057 A 
ATOM     73  C   UNL A   1      49.682  26.529  25.639  1.00  0.00     0.134 A 
ATOM     74  C   UNL A   1      50.149  26.076  27.942  1.00  0.00     0.134 A 
ATOM     75  F   UNL A   1      48.843  26.883  24.655  1.00  0.00    -0.206 F 
ATOM     76  C   UNL A   1      50.990  26.183  25.297  1.00  0.00     0.040 A 
ATOM     77  C   UNL A   1      51.467  25.751  27.618  1.00  0.00     0.040 A 
ATOM     78  F   UNL A   1      49.780  26.011  29.229  1.00  0.00    -0.206 F 
ATOM     79  C   UNL A   1      51.888  25.796  26.290  1.00  0.00     0.006 A 
ENDBRANCH  51  72
BRANCH  63  80
ATOM     80  C   UNL A   1      46.126  32.256  29.273  1.00  0.00     0.057 A 
ATOM     81  C   UNL A   1      46.584  32.543  30.564  1.00  0.00     0.134 A 
ATOM     82  C   UNL A   1      46.213  33.273  28.313  1.00  0.00     0.134 A 
ATOM     83  F   UNL A   1      46.515  31.617  31.532  1.00  0.00    -0.206 F 
ATOM     84  C   UNL A   1      47.091  33.802  30.893  1.00  0.00     0.040 A 
ATOM     85  C   UNL A   1      46.741  34.526  28.623  1.00  0.00     0.040 A 
ATOM     86  F   UNL A   1      45.799  33.059  27.055  1.00  0.00    -0.206 F 
ATOM     87  C   UNL A   1      47.178  34.794  29.919  1.00  0.00     0.006 A 
ENDBRANCH  63  80
ENDBRANCH  37  38
ENDBRANCH  29  32
ENDBRANCH  27  28
ENDBRANCH  26  27
ENDBRANCH  25  26
ENDBRANCH   1  25
TORSDOF 16
ENDMDL
