MODEL 1
REMARK VINA RESULT:     -11.2      0.000      0.000
REMARK SMILES CCCn1ncc(C(=O)N2CCC[C@@H]2C(=O)NCCCCCCNC(=O)c2ccc(-c3c4nc(c(-c5c(F)cccc5F)c5ccc([nH]5)c(-c5c(F)cccc5F)c5nc(c(-c6c(F)cccc6F)c6ccc3[nH]6)C=C5)C=C4)cc2)c1C
REMARK SMILES IDX 19 1 18 2 17 3 15 4 16 5 14 7 10 8 11 9 12 10 13 11 8 12
REMARK SMILES IDX 9 13 7 14 4 15 5 16 81 17 6 18 82 19 3 20 2 21 1 22 20 23
REMARK SMILES IDX 21 24 22 25 23 26 24 27 25 28 26 30 27 31 28 32 80 33 29 34
REMARK SMILES IDX 79 35 30 36 31 37 32 38 73 39 33 40 78 41 72 42 74 43 34 44
REMARK SMILES IDX 77 45 71 46 70 47 35 49 61 50 44 51 60 52 45 53 48 54 59 55
REMARK SMILES IDX 75 56 46 57 47 58 58 60 76 61 49 62 36 63 37 64 42 65 38 66
REMARK SMILES IDX 39 67 41 68 43 69 40 70 62 71 63 72 68 73 64 74 65 75 67 76
REMARK SMILES IDX 69 77 66 78 50 79 51 80 56 81 52 82 53 83 55 84 57 85 54 86
REMARK H PARENT 17 6 24 29 74 48 48 59
REMARK Flexibility Score: inf
ROOT
ATOM      1  C   UNL A   1      38.953  22.722  26.244  1.00  0.00     0.021 C 
ENDROOT
BRANCH   1   2
ATOM      2  C   UNL A   1      37.625  22.585  25.508  1.00  0.00     0.116 C 
BRANCH   2   3
ATOM      3  N   UNL A   1      36.499  22.712  26.406  1.00  0.00    -0.354 N 
ATOM      4  C   UNL A   1      35.192  22.355  26.238  1.00  0.00     0.242 C 
ATOM      5  O   UNL A   1      34.383  22.788  27.064  1.00  0.00    -0.273 OA
ATOM      6  H   UNL A   1      36.708  23.120  27.277  1.00  0.00     0.163 HD
BRANCH   4   7
ATOM      7  C   UNL A   1      34.703  21.602  24.980  1.00  0.00     0.174 C 
ATOM      8  N   UNL A   1      33.930  22.422  24.054  1.00  0.00    -0.327 N 
ATOM      9  C   UNL A   1      32.863  21.639  23.464  1.00  0.00     0.121 C 
ATOM     10  C   UNL A   1      32.476  20.667  24.563  1.00  0.00     0.024 C 
ATOM     11  C   UNL A   1      33.775  20.431  25.340  1.00  0.00     0.037 C 
BRANCH   8  12
ATOM     12  C   UNL A   1      34.542  23.498  23.432  1.00  0.00     0.258 C 
ATOM     13  O   UNL A   1      35.578  23.357  22.788  1.00  0.00    -0.269 OA
BRANCH  12  14
ATOM     14  C   UNL A   1      34.011  24.821  23.756  1.00  0.00     0.080 A 
ATOM     15  N   UNL A   1      33.238  26.887  23.543  1.00  0.00    -0.269 N 
ATOM     16  N   UNL A   1      33.618  26.808  24.831  1.00  0.00    -0.180 NA
ATOM     17  C   UNL A   1      33.376  25.691  22.873  1.00  0.00     0.048 A 
ATOM     18  C   UNL A   1      34.118  25.580  24.940  1.00  0.00     0.149 A 
ATOM     19  C   UNL A   1      32.965  25.481  21.457  1.00  0.00     0.067 C 
BRANCH  15  20
ATOM     20  C   UNL A   1      32.799  28.155  22.983  1.00  0.00     0.144 C 
BRANCH  20  21
ATOM     21  C   UNL A   1      31.777  28.965  23.791  1.00  0.00     0.020 C 
ATOM     22  C   UNL A   1      30.381  28.354  23.810  1.00  0.00     0.006 C 
ENDBRANCH  20  21
ENDBRANCH  15  20
ENDBRANCH  12  14
ENDBRANCH   8  12
ENDBRANCH   4   7
ENDBRANCH   2   3
ENDBRANCH   1   2
BRANCH   1  23
ATOM     23  C   UNL A   1      39.718  21.407  26.395  1.00  0.00     0.002 C 
BRANCH  23  24
ATOM     24  C   UNL A   1      40.917  21.442  27.358  1.00  0.00     0.002 C 
BRANCH  24  25
ATOM     25  C   UNL A   1      42.000  20.372  27.150  1.00  0.00     0.021 C 
BRANCH  25  26
ATOM     26  C   UNL A   1      42.076  19.847  25.726  1.00  0.00     0.116 C 
BRANCH  26  27
ATOM     27  N   UNL A   1      43.454  19.611  25.291  1.00  0.00    -0.352 N 
ATOM     28  C   UNL A   1      44.421  20.531  24.930  1.00  0.00     0.251 C 
ATOM     29  H   UNL A   1      43.730  18.666  25.250  1.00  0.00     0.163 HD
ATOM     30  O   UNL A   1      45.386  20.206  24.260  1.00  0.00    -0.269 OA
BRANCH  28  31
ATOM     31  C   UNL A   1      44.265  21.922  25.386  1.00  0.00     0.039 A 
ATOM     32  C   UNL A   1      43.367  22.801  24.777  1.00  0.00     0.014 A 
ATOM     33  C   UNL A   1      45.032  22.327  26.473  1.00  0.00     0.014 A 
ATOM     34  C   UNL A   1      43.199  24.070  25.325  1.00  0.00     0.010 A 
ATOM     35  C   UNL A   1      44.722  23.485  27.125  1.00  0.00     0.010 A 
ATOM     36  C   UNL A   1      43.875  24.397  26.512  1.00  0.00    -0.014 A 
BRANCH  36  37
ATOM     37  C   UNL A   1      43.652  25.663  27.193  1.00  0.00     0.031 A 
ATOM     38  C   UNL A   1      44.630  26.725  26.848  1.00  0.00     0.074 A 
ATOM     39  C   UNL A   1      42.519  25.920  27.884  1.00  0.00     0.049 A 
ATOM     40  N   UNL A   1      45.535  27.242  27.610  1.00  0.00    -0.248 NA
ATOM     41  C   UNL A   1      44.713  27.163  25.444  1.00  0.00     0.031 C 
ATOM     42  C   UNL A   1      41.322  25.078  28.023  1.00  0.00     0.029 A 
ATOM     43  N   UNL A   1      42.156  27.055  28.537  1.00  0.00    -0.354 N 
ATOM     44  C   UNL A   1      46.152  28.232  26.850  1.00  0.00     0.074 A 
ATOM     45  C   UNL A   1      45.753  27.998  25.488  1.00  0.00     0.031 C 
ATOM     46  C   UNL A   1      40.299  25.813  28.511  1.00  0.00     0.029 A 
ATOM     47  C   UNL A   1      40.813  27.113  28.895  1.00  0.00     0.049 A 
ATOM     48  H   UNL A   1      42.792  27.779  28.741  1.00  0.00     0.167 HD
ATOM     49  C   UNL A   1      46.716  29.318  27.447  1.00  0.00     0.037 A 
ATOM     50  C   UNL A   1      40.168  28.159  29.462  1.00  0.00     0.037 A 
ATOM     51  C   UNL A   1      46.906  29.085  28.859  1.00  0.00     0.049 A 
ATOM     52  C   UNL A   1      41.201  29.041  30.055  1.00  0.00     0.074 A 
ATOM     53  C   UNL A   1      47.619  28.176  29.614  1.00  0.00     0.029 A 
ATOM     54  N   UNL A   1      45.981  29.637  29.711  1.00  0.00    -0.354 N 
ATOM     55  N   UNL A   1      41.943  28.704  31.072  1.00  0.00    -0.248 NA
ATOM     56  C   UNL A   1      41.727  30.113  29.227  1.00  0.00     0.031 C 
ATOM     57  C   UNL A   1      46.783  27.890  30.735  1.00  0.00     0.029 A 
ATOM     58  C   UNL A   1      45.642  28.690  30.641  1.00  0.00     0.049 A 
ATOM     59  H   UNL A   1      45.625  30.553  29.663  1.00  0.00     0.167 HD
ATOM     60  C   UNL A   1      43.203  29.198  30.770  1.00  0.00     0.074 A 
ATOM     61  C   UNL A   1      42.985  30.142  29.675  1.00  0.00     0.031 C 
ATOM     62  C   UNL A   1      44.329  28.579  31.236  1.00  0.00     0.037 A 
BRANCH  49  63
ATOM     63  C   UNL A   1      46.707  30.717  26.869  1.00  0.00     0.057 A 
ATOM     64  C   UNL A   1      47.898  31.466  26.888  1.00  0.00     0.134 A 
ATOM     65  C   UNL A   1      45.543  31.460  26.586  1.00  0.00     0.134 A 
ATOM     66  F   UNL A   1      49.077  30.880  27.148  1.00  0.00    -0.206 F 
ATOM     67  C   UNL A   1      47.916  32.857  26.732  1.00  0.00     0.040 A 
ATOM     68  C   UNL A   1      45.557  32.842  26.378  1.00  0.00     0.040 A 
ATOM     69  F   UNL A   1      44.319  30.922  26.595  1.00  0.00    -0.206 F 
ATOM     70  C   UNL A   1      46.740  33.553  26.488  1.00  0.00     0.006 A 
ENDBRANCH  49  63
BRANCH  50  71
ATOM     71  C   UNL A   1      38.764  28.587  29.281  1.00  0.00     0.057 A 
ATOM     72  C   UNL A   1      37.871  28.642  30.359  1.00  0.00     0.134 A 
ATOM     73  C   UNL A   1      38.346  29.217  28.096  1.00  0.00     0.134 A 
ATOM     74  F   UNL A   1      38.201  28.109  31.543  1.00  0.00    -0.206 F 
ATOM     75  C   UNL A   1      36.638  29.303  30.270  1.00  0.00     0.040 A 
ATOM     76  C   UNL A   1      37.117  29.878  27.992  1.00  0.00     0.040 A 
ATOM     77  F   UNL A   1      39.157  29.289  27.029  1.00  0.00    -0.206 F 
ATOM     78  C   UNL A   1      36.262  29.933  29.086  1.00  0.00     0.006 A 
ENDBRANCH  50  71
BRANCH  62  79
ATOM     79  C   UNL A   1      44.159  27.530  32.304  1.00  0.00     0.057 A 
ATOM     80  C   UNL A   1      44.135  26.148  32.060  1.00  0.00     0.134 A 
ATOM     81  C   UNL A   1      44.174  27.931  33.643  1.00  0.00     0.134 A 
ATOM     82  F   UNL A   1      44.209  25.660  30.816  1.00  0.00    -0.206 F 
ATOM     83  C   UNL A   1      44.092  25.214  33.100  1.00  0.00     0.040 A 
ATOM     84  C   UNL A   1      44.165  27.009  34.692  1.00  0.00     0.040 A 
ATOM     85  F   UNL A   1      44.250  29.235  33.955  1.00  0.00    -0.206 F 
ATOM     86  C   UNL A   1      44.115  25.644  34.422  1.00  0.00     0.006 A 
ENDBRANCH  62  79
ENDBRANCH  36  37
ENDBRANCH  28  31
ENDBRANCH  26  27
ENDBRANCH  25  26
ENDBRANCH  24  25
ENDBRANCH  23  24
ENDBRANCH   1  23
TORSDOF 17
ENDMDL
MODEL 2
REMARK VINA RESULT:     -10.7      2.025      5.844
REMARK SMILES CCCn1ncc(C(=O)N2CCC[C@@H]2C(=O)NCCCCCCNC(=O)c2ccc(-c3c4nc(c(-c5c(F)cccc5F)c5ccc([nH]5)c(-c5c(F)cccc5F)c5nc(c(-c6c(F)cccc6F)c6ccc3[nH]6)C=C5)C=C4)cc2)c1C
REMARK SMILES IDX 19 1 18 2 17 3 15 4 16 5 14 7 10 8 11 9 12 10 13 11 8 12
REMARK SMILES IDX 9 13 7 14 4 15 5 16 81 17 6 18 82 19 3 20 2 21 1 22 20 23
REMARK SMILES IDX 21 24 22 25 23 26 24 27 25 28 26 30 27 31 28 32 80 33 29 34
REMARK SMILES IDX 79 35 30 36 31 37 32 38 73 39 33 40 78 41 72 42 74 43 34 44
REMARK SMILES IDX 77 45 71 46 70 47 35 49 61 50 44 51 60 52 45 53 48 54 59 55
REMARK SMILES IDX 75 56 46 57 47 58 58 60 76 61 49 62 36 63 37 64 42 65 38 66
REMARK SMILES IDX 39 67 41 68 43 69 40 70 62 71 63 72 68 73 64 74 65 75 67 76
REMARK SMILES IDX 69 77 66 78 50 79 51 80 56 81 52 82 53 83 55 84 57 85 54 86
REMARK H PARENT 17 6 24 29 74 48 48 59
REMARK Flexibility Score: inf
ROOT
ATOM      1  C   UNL A   1      37.323  23.275  25.256  1.00  0.00     0.021 C 
ENDROOT
BRANCH   1   2
ATOM      2  C   UNL A   1      36.389  23.810  26.336  1.00  0.00     0.116 C 
BRANCH   2   3
ATOM      3  N   UNL A   1      35.558  22.765  26.889  1.00  0.00    -0.354 N 
ATOM      4  C   UNL A   1      34.330  22.314  26.498  1.00  0.00     0.242 C 
ATOM      5  O   UNL A   1      33.730  21.572  27.282  1.00  0.00    -0.273 OA
ATOM      6  H   UNL A   1      35.937  22.304  27.673  1.00  0.00     0.163 HD
BRANCH   4   7
ATOM      7  C   UNL A   1      33.630  22.841  25.225  1.00  0.00     0.174 C 
ATOM      8  N   UNL A   1      32.203  23.097  25.389  1.00  0.00    -0.327 N 
ATOM      9  C   UNL A   1      31.490  22.744  24.178  1.00  0.00     0.121 C 
ATOM     10  C   UNL A   1      32.279  21.573  23.621  1.00  0.00     0.024 C 
ATOM     11  C   UNL A   1      33.721  21.838  24.065  1.00  0.00     0.037 C 
BRANCH   8  12
ATOM     12  C   UNL A   1      31.789  24.075  26.278  1.00  0.00     0.258 C 
ATOM     13  O   UNL A   1      31.511  23.802  27.442  1.00  0.00    -0.269 OA
BRANCH  12  14
ATOM     14  C   UNL A   1      31.504  25.391  25.708  1.00  0.00     0.080 A 
ATOM     15  N   UNL A   1      31.668  27.540  25.192  1.00  0.00    -0.269 N 
ATOM     16  N   UNL A   1      30.381  27.238  24.943  1.00  0.00    -0.180 NA
ATOM     17  C   UNL A   1      32.408  26.443  25.575  1.00  0.00     0.048 A 
ATOM     18  C   UNL A   1      30.281  25.959  25.294  1.00  0.00     0.149 A 
ATOM     19  C   UNL A   1      33.872  26.481  25.842  1.00  0.00     0.067 C 
BRANCH  15  20
ATOM     20  C   UNL A   1      32.131  28.916  25.102  1.00  0.00     0.144 C 
BRANCH  20  21
ATOM     21  C   UNL A   1      31.986  29.789  26.355  1.00  0.00     0.020 C 
ATOM     22  C   UNL A   1      33.314  30.257  26.939  1.00  0.00     0.006 C 
ENDBRANCH  20  21
ENDBRANCH  15  20
ENDBRANCH  12  14
ENDBRANCH   8  12
ENDBRANCH   4   7
ENDBRANCH   2   3
ENDBRANCH   1   2
BRANCH   1  23
ATOM     23  C   UNL A   1      38.061  21.996  25.650  1.00  0.00     0.002 C 
BRANCH  23  24
ATOM     24  C   UNL A   1      37.633  20.723  24.901  1.00  0.00     0.002 C 
BRANCH  24  25
ATOM     25  C   UNL A   1      38.581  19.517  24.992  1.00  0.00     0.021 C 
BRANCH  25  26
ATOM     26  C   UNL A   1      39.592  19.617  26.123  1.00  0.00     0.116 C 
BRANCH  26  27
ATOM     27  N   UNL A   1      40.874  18.997  25.782  1.00  0.00    -0.352 N 
ATOM     28  C   UNL A   1      42.119  19.586  25.663  1.00  0.00     0.251 C 
ATOM     29  H   UNL A   1      40.844  18.027  25.613  1.00  0.00     0.163 HD
ATOM     30  O   UNL A   1      43.017  19.048  25.039  1.00  0.00    -0.269 OA
BRANCH  28  31
ATOM     31  C   UNL A   1      42.343  20.883  26.324  1.00  0.00     0.039 A 
ATOM     32  C   UNL A   1      42.591  22.048  25.594  1.00  0.00     0.014 A 
ATOM     33  C   UNL A   1      42.273  20.912  27.711  1.00  0.00     0.014 A 
ATOM     34  C   UNL A   1      42.693  23.255  26.280  1.00  0.00     0.010 A 
ATOM     35  C   UNL A   1      42.171  22.110  28.357  1.00  0.00     0.010 A 
ATOM     36  C   UNL A   1      42.467  23.275  27.666  1.00  0.00    -0.014 A 
BRANCH  36  37
ATOM     37  C   UNL A   1      42.447  24.521  28.417  1.00  0.00     0.031 A 
ATOM     38  C   UNL A   1      41.219  25.333  28.226  1.00  0.00     0.074 A 
ATOM     39  C   UNL A   1      43.350  24.793  29.386  1.00  0.00     0.049 A 
ATOM     40  N   UNL A   1      41.112  26.473  27.629  1.00  0.00    -0.248 NA
ATOM     41  C   UNL A   1      39.928  24.741  28.615  1.00  0.00     0.031 C 
ATOM     42  C   UNL A   1      44.418  23.928  29.909  1.00  0.00     0.029 A 
ATOM     43  N   UNL A   1      43.439  25.885  30.189  1.00  0.00    -0.354 N 
ATOM     44  C   UNL A   1      39.779  26.849  27.766  1.00  0.00     0.074 A 
ATOM     45  C   UNL A   1      39.070  25.671  28.189  1.00  0.00     0.031 C 
ATOM     46  C   UNL A   1      44.885  24.430  31.073  1.00  0.00     0.029 A 
ATOM     47  C   UNL A   1      44.291  25.736  31.278  1.00  0.00     0.049 A 
ATOM     48  H   UNL A   1      42.941  26.717  30.014  1.00  0.00     0.167 HD
ATOM     49  C   UNL A   1      39.425  28.164  27.781  1.00  0.00     0.037 A 
ATOM     50  C   UNL A   1      44.489  26.622  32.282  1.00  0.00     0.037 A 
ATOM     51  C   UNL A   1      40.495  28.988  27.274  1.00  0.00     0.049 A 
ATOM     52  C   UNL A   1      44.018  27.942  31.800  1.00  0.00     0.074 A 
ATOM     53  C   UNL A   1      41.176  29.083  26.077  1.00  0.00     0.029 A 
ATOM     54  N   UNL A   1      41.277  29.633  28.201  1.00  0.00    -0.354 N 
ATOM     55  N   UNL A   1      44.596  28.611  30.842  1.00  0.00    -0.248 NA
ATOM     56  C   UNL A   1      42.635  28.302  32.066  1.00  0.00     0.031 C 
ATOM     57  C   UNL A   1      42.528  29.358  26.440  1.00  0.00     0.029 A 
ATOM     58  C   UNL A   1      42.587  29.485  27.829  1.00  0.00     0.049 A 
ATOM     59  H   UNL A   1      40.953  30.118  28.994  1.00  0.00     0.167 HD
ATOM     60  C   UNL A   1      43.550  29.149  30.107  1.00  0.00     0.074 A 
ATOM     61  C   UNL A   1      42.375  29.012  30.966  1.00  0.00     0.031 C 
ATOM     62  C   UNL A   1      43.684  29.385  28.767  1.00  0.00     0.037 A 
BRANCH  49  63
ATOM     63  C   UNL A   1      38.312  28.743  28.627  1.00  0.00     0.057 A 
ATOM     64  C   UNL A   1      37.453  29.701  28.055  1.00  0.00     0.134 A 
ATOM     65  C   UNL A   1      38.235  28.642  30.031  1.00  0.00     0.134 A 
ATOM     66  F   UNL A   1      37.430  29.899  26.728  1.00  0.00    -0.206 F 
ATOM     67  C   UNL A   1      36.654  30.553  28.826  1.00  0.00     0.040 A 
ATOM     68  C   UNL A   1      37.402  29.454  30.806  1.00  0.00     0.040 A 
ATOM     69  F   UNL A   1      39.026  27.834  30.744  1.00  0.00    -0.206 F 
ATOM     70  C   UNL A   1      36.635  30.439  30.209  1.00  0.00     0.006 A 
ENDBRANCH  49  63
BRANCH  50  71
ATOM     71  C   UNL A   1      44.788  26.355  33.706  1.00  0.00     0.057 A 
ATOM     72  C   UNL A   1      43.799  25.898  34.587  1.00  0.00     0.134 A 
ATOM     73  C   UNL A   1      46.114  26.276  34.165  1.00  0.00     0.134 A 
ATOM     74  F   UNL A   1      42.510  25.892  34.219  1.00  0.00    -0.206 F 
ATOM     75  C   UNL A   1      44.112  25.374  35.848  1.00  0.00     0.040 A 
ATOM     76  C   UNL A   1      46.440  25.758  35.424  1.00  0.00     0.040 A 
ATOM     77  F   UNL A   1      47.141  26.615  33.372  1.00  0.00    -0.206 F 
ATOM     78  C   UNL A   1      45.438  25.292  36.266  1.00  0.00     0.006 A 
ENDBRANCH  50  71
BRANCH  62  79
ATOM     79  C   UNL A   1      45.068  29.309  28.178  1.00  0.00     0.057 A 
ATOM     80  C   UNL A   1      45.625  28.156  27.604  1.00  0.00     0.134 A 
ATOM     81  C   UNL A   1      45.805  30.491  28.052  1.00  0.00     0.134 A 
ATOM     82  F   UNL A   1      44.958  26.995  27.593  1.00  0.00    -0.206 F 
ATOM     83  C   UNL A   1      46.870  28.172  26.968  1.00  0.00     0.040 A 
ATOM     84  C   UNL A   1      47.035  30.529  27.390  1.00  0.00     0.040 A 
ATOM     85  F   UNL A   1      45.314  31.646  28.528  1.00  0.00    -0.206 F 
ATOM     86  C   UNL A   1      47.576  29.364  26.852  1.00  0.00     0.006 A 
ENDBRANCH  62  79
ENDBRANCH  36  37
ENDBRANCH  28  31
ENDBRANCH  26  27
ENDBRANCH  25  26
ENDBRANCH  24  25
ENDBRANCH  23  24
ENDBRANCH   1  23
TORSDOF 17
ENDMDL
MODEL 3
REMARK VINA RESULT:     -10.4      3.708      8.989
REMARK SMILES CCCn1ncc(C(=O)N2CCC[C@@H]2C(=O)NCCCCCCNC(=O)c2ccc(-c3c4nc(c(-c5c(F)cccc5F)c5ccc([nH]5)c(-c5c(F)cccc5F)c5nc(c(-c6c(F)cccc6F)c6ccc3[nH]6)C=C5)C=C4)cc2)c1C
REMARK SMILES IDX 19 1 18 2 17 3 15 4 16 5 14 7 10 8 11 9 12 10 13 11 8 12
REMARK SMILES IDX 9 13 7 14 4 15 5 16 81 17 6 18 82 19 3 20 2 21 1 22 20 23
REMARK SMILES IDX 21 24 22 25 23 26 24 27 25 28 26 30 27 31 28 32 80 33 29 34
REMARK SMILES IDX 79 35 30 36 31 37 32 38 73 39 33 40 78 41 72 42 74 43 34 44
REMARK SMILES IDX 77 45 71 46 70 47 35 49 61 50 44 51 60 52 45 53 48 54 59 55
REMARK SMILES IDX 75 56 46 57 47 58 58 60 76 61 49 62 36 63 37 64 42 65 38 66
REMARK SMILES IDX 39 67 41 68 43 69 40 70 62 71 63 72 68 73 64 74 65 75 67 76
REMARK SMILES IDX 69 77 66 78 50 79 51 80 56 81 52 82 53 83 55 84 57 85 54 86
REMARK H PARENT 17 6 24 29 74 48 48 59
REMARK Flexibility Score: inf
ROOT
ATOM      1  C   UNL A   1      34.249  29.432  27.633  1.00  0.00     0.021 C 
ENDROOT
BRANCH   1   2
ATOM      2  C   UNL A   1      34.090  28.407  26.515  1.00  0.00     0.116 C 
BRANCH   2   3
ATOM      3  N   UNL A   1      34.116  29.029  25.210  1.00  0.00    -0.354 N 
ATOM      4  C   UNL A   1      33.381  28.764  24.092  1.00  0.00     0.242 C 
ATOM      5  O   UNL A   1      33.761  29.279  23.036  1.00  0.00    -0.273 OA
ATOM      6  H   UNL A   1      34.768  29.761  25.113  1.00  0.00     0.163 HD
BRANCH   4   7
ATOM      7  C   UNL A   1      32.237  27.725  24.089  1.00  0.00     0.174 C 
ATOM      8  N   UNL A   1      32.234  26.839  22.930  1.00  0.00    -0.327 N 
ATOM      9  C   UNL A   1      30.873  26.554  22.523  1.00  0.00     0.121 C 
ATOM     10  C   UNL A   1      30.120  27.828  22.860  1.00  0.00     0.024 C 
ATOM     11  C   UNL A   1      30.855  28.397  24.077  1.00  0.00     0.037 C 
BRANCH   8  12
ATOM     12  C   UNL A   1      33.302  25.978  22.735  1.00  0.00     0.258 C 
ATOM     13  O   UNL A   1      33.885  25.920  21.657  1.00  0.00    -0.269 OA
BRANCH  12  14
ATOM     14  C   UNL A   1      33.554  25.008  23.800  1.00  0.00     0.080 A 
ATOM     15  N   UNL A   1      33.383  23.225  25.104  1.00  0.00    -0.269 N 
ATOM     16  N   UNL A   1      34.115  24.092  25.825  1.00  0.00    -0.180 NA
ATOM     17  C   UNL A   1      33.090  23.695  23.842  1.00  0.00     0.048 A 
ATOM     18  C   UNL A   1      34.179  25.174  25.054  1.00  0.00     0.149 A 
ATOM     19  C   UNL A   1      32.353  22.910  22.814  1.00  0.00     0.067 C 
BRANCH  15  20
ATOM     20  C   UNL A   1      32.937  21.972  25.692  1.00  0.00     0.144 C 
BRANCH  20  21
ATOM     21  C   UNL A   1      33.859  20.756  25.539  1.00  0.00     0.020 C 
ATOM     22  C   UNL A   1      33.329  19.695  24.582  1.00  0.00     0.006 C 
ENDBRANCH  20  21
ENDBRANCH  15  20
ENDBRANCH  12  14
ENDBRANCH   8  12
ENDBRANCH   4   7
ENDBRANCH   2   3
ENDBRANCH   1   2
BRANCH   1  23
ATOM     23  C   UNL A   1      33.761  30.833  27.265  1.00  0.00     0.002 C 
BRANCH  23  24
ATOM     24  C   UNL A   1      32.237  30.991  27.125  1.00  0.00     0.002 C 
BRANCH  24  25
ATOM     25  C   UNL A   1      31.702  32.426  26.991  1.00  0.00     0.021 C 
BRANCH  25  26
ATOM     26  C   UNL A   1      32.778  33.493  27.103  1.00  0.00     0.116 C 
BRANCH  26  27
ATOM     27  N   UNL A   1      32.463  34.498  28.120  1.00  0.00    -0.352 N 
ATOM     28  C   UNL A   1      33.027  34.675  29.370  1.00  0.00     0.251 C 
ATOM     29  H   UNL A   1      31.750  35.135  27.881  1.00  0.00     0.163 HD
ATOM     30  O   UNL A   1      32.450  35.300  30.243  1.00  0.00    -0.269 OA
BRANCH  28  31
ATOM     31  C   UNL A   1      34.358  34.099  29.622  1.00  0.00     0.039 A 
ATOM     32  C   UNL A   1      34.558  33.097  30.575  1.00  0.00     0.014 A 
ATOM     33  C   UNL A   1      35.415  34.573  28.854  1.00  0.00     0.014 A 
ATOM     34  C   UNL A   1      35.824  32.528  30.689  1.00  0.00     0.010 A 
ATOM     35  C   UNL A   1      36.592  33.882  28.824  1.00  0.00     0.010 A 
ATOM     36  C   UNL A   1      36.833  32.921  29.795  1.00  0.00    -0.014 A 
BRANCH  36  37
ATOM     37  C   UNL A   1      38.140  32.282  29.791  1.00  0.00     0.031 A 
ATOM     38  C   UNL A   1      38.157  30.926  29.188  1.00  0.00     0.074 A 
ATOM     39  C   UNL A   1      39.274  32.958  30.083  1.00  0.00     0.049 A 
ATOM     40  N   UNL A   1      38.353  29.799  29.787  1.00  0.00    -0.248 NA
ATOM     41  C   UNL A   1      37.764  30.788  27.776  1.00  0.00     0.031 C 
ATOM     42  C   UNL A   1      39.437  34.392  30.368  1.00  0.00     0.029 A 
ATOM     43  N   UNL A   1      40.558  32.512  30.088  1.00  0.00    -0.354 N 
ATOM     44  C   UNL A   1      38.333  28.829  28.789  1.00  0.00     0.074 A 
ATOM     45  C   UNL A   1      37.770  29.462  27.626  1.00  0.00     0.031 C 
ATOM     46  C   UNL A   1      40.742  34.729  30.289  1.00  0.00     0.029 A 
ATOM     47  C   UNL A   1      41.519  33.515  30.139  1.00  0.00     0.049 A 
ATOM     48  H   UNL A   1      40.789  31.555  30.057  1.00  0.00     0.167 HD
ATOM     49  C   UNL A   1      39.033  27.670  28.930  1.00  0.00     0.037 A 
ATOM     50  C   UNL A   1      42.862  33.358  30.057  1.00  0.00     0.037 A 
ATOM     51  C   UNL A   1      39.417  27.468  30.307  1.00  0.00     0.049 A 
ATOM     52  C   UNL A   1      43.156  31.940  30.368  1.00  0.00     0.074 A 
ATOM     53  C   UNL A   1      38.739  27.320  31.500  1.00  0.00     0.029 A 
ATOM     54  N   UNL A   1      40.709  27.785  30.646  1.00  0.00    -0.354 N 
ATOM     55  N   UNL A   1      42.976  31.403  31.543  1.00  0.00    -0.248 NA
ATOM     56  C   UNL A   1      43.213  31.004  29.257  1.00  0.00     0.031 C 
ATOM     57  C   UNL A   1      39.532  28.013  32.464  1.00  0.00     0.029 A 
ATOM     58  C   UNL A   1      40.679  28.484  31.824  1.00  0.00     0.049 A 
ATOM     59  H   UNL A   1      41.516  27.551  30.133  1.00  0.00     0.167 HD
ATOM     60  C   UNL A   1      42.464  30.141  31.280  1.00  0.00     0.074 A 
ATOM     61  C   UNL A   1      42.729  29.915  29.860  1.00  0.00     0.031 C 
ATOM     62  C   UNL A   1      41.619  29.530  32.163  1.00  0.00     0.037 A 
BRANCH  49  63
ATOM     63  C   UNL A   1      39.731  26.946  27.799  1.00  0.00     0.057 A 
ATOM     64  C   UNL A   1      39.664  25.541  27.750  1.00  0.00     0.134 A 
ATOM     65  C   UNL A   1      40.700  27.523  26.953  1.00  0.00     0.134 A 
ATOM     66  F   UNL A   1      38.787  24.866  28.509  1.00  0.00    -0.206 F 
ATOM     67  C   UNL A   1      40.554  24.770  26.993  1.00  0.00     0.040 A 
ATOM     68  C   UNL A   1      41.559  26.764  26.154  1.00  0.00     0.040 A 
ATOM     69  F   UNL A   1      40.945  28.837  26.923  1.00  0.00    -0.206 F 
ATOM     70  C   UNL A   1      41.515  25.381  26.199  1.00  0.00     0.006 A 
ENDBRANCH  49  63
BRANCH  50  71
ATOM     71  C   UNL A   1      43.863  34.267  29.459  1.00  0.00     0.057 A 
ATOM     72  C   UNL A   1      43.654  34.867  28.210  1.00  0.00     0.134 A 
ATOM     73  C   UNL A   1      44.921  34.785  30.227  1.00  0.00     0.134 A 
ATOM     74  F   UNL A   1      42.641  34.471  27.428  1.00  0.00    -0.206 F 
ATOM     75  C   UNL A   1      44.441  35.934  27.757  1.00  0.00     0.040 A 
ATOM     76  C   UNL A   1      45.717  35.848  29.784  1.00  0.00     0.040 A 
ATOM     77  F   UNL A   1      45.159  34.334  31.468  1.00  0.00    -0.206 F 
ATOM     78  C   UNL A   1      45.470  36.436  28.550  1.00  0.00     0.006 A 
ENDBRANCH  50  71
BRANCH  62  79
ATOM     79  C   UNL A   1      41.487  30.133  33.538  1.00  0.00     0.057 A 
ATOM     80  C   UNL A   1      40.521  31.086  33.896  1.00  0.00     0.134 A 
ATOM     81  C   UNL A   1      42.273  29.616  34.572  1.00  0.00     0.134 A 
ATOM     82  F   UNL A   1      39.660  31.576  32.996  1.00  0.00    -0.206 F 
ATOM     83  C   UNL A   1      40.369  31.526  35.215  1.00  0.00     0.040 A 
ATOM     84  C   UNL A   1      42.110  30.022  35.899  1.00  0.00     0.040 A 
ATOM     85  F   UNL A   1      43.182  28.662  34.316  1.00  0.00    -0.206 F 
ATOM     86  C   UNL A   1      41.161  30.987  36.223  1.00  0.00     0.006 A 
ENDBRANCH  62  79
ENDBRANCH  36  37
ENDBRANCH  28  31
ENDBRANCH  26  27
ENDBRANCH  25  26
ENDBRANCH  24  25
ENDBRANCH  23  24
ENDBRANCH   1  23
TORSDOF 17
ENDMDL
