MODEL 1
REMARK VINA RESULT:     -11.6      0.000      0.000
REMARK SMILES CC(C)(C)Nc1ncnc(N2CCC(C(=O)NCCCCCCNC(=O)c3ccc(-c4c5nc(c(-c6c(F)cccc6F)c6ccc([nH]6)c(-c6c(F)cccc6F)c6nc(c(-c7c(F)cccc7F)c7ccc4[nH]7)C=C6)C=C5)cc3)CC2)c1N
REMARK SMILES IDX 20 1 19 2 18 3 17 4 15 5 16 6 14 8 11 9 12 10 82 11 13 12
REMARK SMILES IDX 81 13 10 14 6 15 7 16 83 17 8 18 9 19 5 20 2 22 1 23 3 24
REMARK SMILES IDX 4 25 84 26 21 29 22 30 23 31 24 32 25 33 26 35 27 36 28 37
REMARK SMILES IDX 80 38 29 39 79 40 30 41 31 42 32 43 73 44 33 45 78 46 72 47
REMARK SMILES IDX 74 48 34 49 77 50 71 51 70 52 35 54 61 55 44 56 60 57 45 58
REMARK SMILES IDX 48 59 59 60 75 61 46 62 47 63 58 65 76 66 49 67 36 68 37 69
REMARK SMILES IDX 42 70 38 71 39 72 41 73 43 74 40 75 62 76 63 77 68 78 64 79
REMARK SMILES IDX 65 80 67 81 69 82 66 83 50 84 51 85 56 86 52 87 53 88 55 89
REMARK SMILES IDX 57 90 54 91
REMARK H PARENT 17 7 5 21 84 27 84 28 24 34 74 53 48 64
REMARK Flexibility Score: inf
ROOT
ATOM      1  C   UNL A   1      31.784  29.728  25.301  1.00  0.00     0.002 C 
ENDROOT
BRANCH   1   2
ATOM      2  C   UNL A   1      30.645  30.039  24.326  1.00  0.00     0.021 C 
BRANCH   2   3
ATOM      3  C   UNL A   1      30.460  28.979  23.245  1.00  0.00     0.116 C 
BRANCH   3   4
ATOM      4  N   UNL A   1      31.729  28.663  22.608  1.00  0.00    -0.356 N 
ATOM      5  C   UNL A   1      32.475  27.524  22.641  1.00  0.00     0.223 C 
ATOM      6  O   UNL A   1      33.562  27.519  22.060  1.00  0.00    -0.275 OA
ATOM      7  H   UNL A   1      32.112  29.389  22.065  1.00  0.00     0.163 HD
BRANCH   5   8
ATOM      8  C   UNL A   1      31.966  26.275  23.344  1.00  0.00     0.082 C 
ATOM      9  N   UNL A   1      32.870  23.770  24.279  1.00  0.00    -0.355 N 
ATOM     10  C   UNL A   1      31.979  23.719  23.135  1.00  0.00     0.119 C 
ATOM     11  C   UNL A   1      32.579  24.752  25.303  1.00  0.00     0.119 C 
ATOM     12  C   UNL A   1      32.000  25.054  22.408  1.00  0.00     0.035 C 
ATOM     13  C   UNL A   1      32.678  26.140  24.701  1.00  0.00     0.035 C 
BRANCH   9  14
ATOM     14  C   UNL A   1      33.635  22.640  24.523  1.00  0.00     0.157 A 
ATOM     15  C   UNL A   1      33.988  20.389  25.223  1.00  0.00     0.155 A 
ATOM     16  N   UNL A   1      35.301  20.502  24.970  1.00  0.00    -0.217 NA
ATOM     17  C   UNL A   1      33.099  21.462  25.074  1.00  0.00     0.118 A 
ATOM     18  C   UNL A   1      35.707  21.676  24.475  1.00  0.00     0.226 A 
ATOM     19  N   UNL A   1      34.938  22.736  24.197  1.00  0.00    -0.217 NA
BRANCH  15  20
ATOM     20  N   UNL A   1      33.607  19.121  25.638  1.00  0.00    -0.364 N 
ATOM     21  H   UNL A   1      33.461  18.996  26.603  1.00  0.00     0.162 HD
BRANCH  20  22
ATOM     22  C   UNL A   1      33.397  17.942  24.773  1.00  0.00     0.030 C 
ATOM     23  C   UNL A   1      34.674  17.231  24.300  1.00  0.00     0.034 C 
ATOM     24  C   UNL A   1      32.538  18.377  23.574  1.00  0.00     0.034 C 
ATOM     25  C   UNL A   1      32.582  16.906  25.579  1.00  0.00     0.034 C 
ENDBRANCH  20  22
ENDBRANCH  15  20
BRANCH  17  26
ATOM     26  N   UNL A   1      31.771  21.375  25.517  1.00  0.00    -0.393 N 
ATOM     27  H   UNL A   1      31.456  20.559  25.967  1.00  0.00     0.156 HD
ATOM     28  H   UNL A   1      31.156  22.131  25.379  1.00  0.00     0.156 HD
ENDBRANCH  17  26
ENDBRANCH   9  14
ENDBRANCH   5   8
ENDBRANCH   3   4
ENDBRANCH   2   3
ENDBRANCH   1   2
BRANCH   1  29
ATOM     29  C   UNL A   1      31.635  30.369  26.685  1.00  0.00     0.002 C 
BRANCH  29  30
ATOM     30  C   UNL A   1      31.548  31.895  26.678  1.00  0.00     0.021 C 
BRANCH  30  31
ATOM     31  C   UNL A   1      32.838  32.596  27.083  1.00  0.00     0.116 C 
BRANCH  31  32
ATOM     32  N   UNL A   1      32.594  33.947  27.563  1.00  0.00    -0.352 N 
ATOM     33  C   UNL A   1      33.149  34.597  28.636  1.00  0.00     0.251 C 
ATOM     34  H   UNL A   1      31.937  34.467  27.046  1.00  0.00     0.163 HD
ATOM     35  O   UNL A   1      32.684  35.658  29.032  1.00  0.00    -0.269 OA
BRANCH  33  36
ATOM     36  C   UNL A   1      34.310  33.995  29.322  1.00  0.00     0.039 A 
ATOM     37  C   UNL A   1      34.086  33.056  30.331  1.00  0.00     0.014 A 
ATOM     38  C   UNL A   1      35.613  34.353  28.962  1.00  0.00     0.014 A 
ATOM     39  C   UNL A   1      35.175  32.440  30.947  1.00  0.00     0.010 A 
ATOM     40  C   UNL A   1      36.692  33.680  29.520  1.00  0.00     0.010 A 
ATOM     41  C   UNL A   1      36.484  32.728  30.528  1.00  0.00    -0.014 A 
BRANCH  41  42
ATOM     42  C   UNL A   1      37.648  32.056  31.151  1.00  0.00     0.031 A 
ATOM     43  C   UNL A   1      38.378  30.975  30.407  1.00  0.00     0.074 A 
ATOM     44  C   UNL A   1      38.018  32.385  32.402  1.00  0.00     0.049 A 
ATOM     45  N   UNL A   1      39.401  30.255  30.791  1.00  0.00    -0.248 NA
ATOM     46  C   UNL A   1      37.877  30.639  29.065  1.00  0.00     0.031 C 
ATOM     47  C   UNL A   1      37.357  33.387  33.240  1.00  0.00     0.029 A 
ATOM     48  N   UNL A   1      39.037  31.912  33.188  1.00  0.00    -0.354 N 
ATOM     49  C   UNL A   1      39.658  29.380  29.744  1.00  0.00     0.074 A 
ATOM     50  C   UNL A   1      38.647  29.614  28.738  1.00  0.00     0.031 C 
ATOM     51  C   UNL A   1      38.006  33.474  34.411  1.00  0.00     0.029 A 
ATOM     52  C   UNL A   1      39.104  32.510  34.421  1.00  0.00     0.049 A 
ATOM     53  H   UNL A   1      39.662  31.210  32.895  1.00  0.00     0.167 HD
ATOM     54  C   UNL A   1      40.663  28.481  29.623  1.00  0.00     0.037 A 
ATOM     55  C   UNL A   1      39.951  32.306  35.448  1.00  0.00     0.037 A 
ATOM     56  C   UNL A   1      41.676  28.268  30.623  1.00  0.00     0.049 A 
ATOM     57  C   UNL A   1      41.051  31.292  35.301  1.00  0.00     0.074 A 
ATOM     58  C   UNL A   1      42.776  27.431  30.568  1.00  0.00     0.029 A 
ATOM     59  N   UNL A   1      41.705  28.887  31.864  1.00  0.00    -0.354 N 
ATOM     60  N   UNL A   1      41.333  30.526  34.275  1.00  0.00    -0.248 NA
ATOM     61  C   UNL A   1      41.952  31.118  36.448  1.00  0.00     0.031 C 
ATOM     62  C   UNL A   1      43.435  27.497  31.799  1.00  0.00     0.029 A 
ATOM     63  C   UNL A   1      42.783  28.420  32.599  1.00  0.00     0.049 A 
ATOM     64  H   UNL A   1      41.056  29.559  32.177  1.00  0.00     0.167 HD
ATOM     65  C   UNL A   1      42.449  29.787  34.646  1.00  0.00     0.074 A 
ATOM     66  C   UNL A   1      42.804  30.212  35.985  1.00  0.00     0.031 C 
ATOM     67  C   UNL A   1      43.117  28.842  33.939  1.00  0.00     0.037 A 
BRANCH  54  68
ATOM     68  C   UNL A   1      40.710  27.660  28.366  1.00  0.00     0.057 A 
ATOM     69  C   UNL A   1      41.448  28.060  27.245  1.00  0.00     0.134 A 
ATOM     70  C   UNL A   1      40.026  26.441  28.284  1.00  0.00     0.134 A 
ATOM     71  F   UNL A   1      42.117  29.224  27.250  1.00  0.00    -0.206 F 
ATOM     72  C   UNL A   1      41.479  27.295  26.077  1.00  0.00     0.040 A 
ATOM     73  C   UNL A   1      40.075  25.651  27.134  1.00  0.00     0.040 A 
ATOM     74  F   UNL A   1      39.303  25.992  29.323  1.00  0.00    -0.206 F 
ATOM     75  C   UNL A   1      40.796  26.083  26.023  1.00  0.00     0.006 A 
ENDBRANCH  54  68
BRANCH  55  76
ATOM     76  C   UNL A   1      39.799  33.116  36.681  1.00  0.00     0.057 A 
ATOM     77  C   UNL A   1      40.533  34.292  36.867  1.00  0.00     0.134 A 
ATOM     78  C   UNL A   1      38.863  32.776  37.667  1.00  0.00     0.134 A 
ATOM     79  F   UNL A   1      41.456  34.660  35.965  1.00  0.00    -0.206 F 
ATOM     80  C   UNL A   1      40.338  35.107  37.983  1.00  0.00     0.040 A 
ATOM     81  C   UNL A   1      38.641  33.594  38.777  1.00  0.00     0.040 A 
ATOM     82  F   UNL A   1      38.122  31.665  37.542  1.00  0.00    -0.206 F 
ATOM     83  C   UNL A   1      39.380  34.764  38.936  1.00  0.00     0.006 A 
ENDBRANCH  55  76
BRANCH  67  84
ATOM     84  C   UNL A   1      44.302  28.192  34.592  1.00  0.00     0.057 A 
ATOM     85  C   UNL A   1      45.581  28.759  34.529  1.00  0.00     0.134 A 
ATOM     86  C   UNL A   1      44.148  27.032  35.365  1.00  0.00     0.134 A 
ATOM     87  F   UNL A   1      45.799  29.864  33.799  1.00  0.00    -0.206 F 
ATOM     88  C   UNL A   1      46.665  28.192  35.201  1.00  0.00     0.040 A 
ATOM     89  C   UNL A   1      45.217  26.472  36.064  1.00  0.00     0.040 A 
ATOM     90  F   UNL A   1      42.947  26.444  35.478  1.00  0.00    -0.206 F 
ATOM     91  C   UNL A   1      46.481  27.052  35.981  1.00  0.00     0.006 A 
ENDBRANCH  67  84
ENDBRANCH  41  42
ENDBRANCH  33  36
ENDBRANCH  31  32
ENDBRANCH  30  31
ENDBRANCH  29  30
ENDBRANCH   1  29
TORSDOF 17
ENDMDL
MODEL 2
REMARK VINA RESULT:     -11.4      3.719      7.457
REMARK SMILES CC(C)(C)Nc1ncnc(N2CCC(C(=O)NCCCCCCNC(=O)c3ccc(-c4c5nc(c(-c6c(F)cccc6F)c6ccc([nH]6)c(-c6c(F)cccc6F)c6nc(c(-c7c(F)cccc7F)c7ccc4[nH]7)C=C6)C=C5)cc3)CC2)c1N
REMARK SMILES IDX 20 1 19 2 18 3 17 4 15 5 16 6 14 8 11 9 12 10 82 11 13 12
REMARK SMILES IDX 81 13 10 14 6 15 7 16 83 17 8 18 9 19 5 20 2 22 1 23 3 24
REMARK SMILES IDX 4 25 84 26 21 29 22 30 23 31 24 32 25 33 26 35 27 36 28 37
REMARK SMILES IDX 80 38 29 39 79 40 30 41 31 42 32 43 73 44 33 45 78 46 72 47
REMARK SMILES IDX 74 48 34 49 77 50 71 51 70 52 35 54 61 55 44 56 60 57 45 58
REMARK SMILES IDX 48 59 59 60 75 61 46 62 47 63 58 65 76 66 49 67 36 68 37 69
REMARK SMILES IDX 42 70 38 71 39 72 41 73 43 74 40 75 62 76 63 77 68 78 64 79
REMARK SMILES IDX 65 80 67 81 69 82 66 83 50 84 51 85 56 86 52 87 53 88 55 89
REMARK SMILES IDX 57 90 54 91
REMARK H PARENT 17 7 5 21 84 27 84 28 24 34 74 53 48 64
REMARK Flexibility Score: inf
ROOT
ATOM      1  C   UNL A   1      33.744  28.593  23.680  1.00  0.00     0.002 C 
ENDROOT
BRANCH   1   2
ATOM      2  C   UNL A   1      33.809  27.754  22.400  1.00  0.00     0.021 C 
BRANCH   2   3
ATOM      3  C   UNL A   1      32.596  26.850  22.201  1.00  0.00     0.116 C 
BRANCH   3   4
ATOM      4  N   UNL A   1      31.375  27.636  22.108  1.00  0.00    -0.356 N 
ATOM      5  C   UNL A   1      30.166  27.465  22.711  1.00  0.00     0.223 C 
ATOM      6  O   UNL A   1      29.253  28.241  22.421  1.00  0.00    -0.275 OA
ATOM      7  H   UNL A   1      31.431  28.418  21.513  1.00  0.00     0.163 HD
BRANCH   5   8
ATOM      8  C   UNL A   1      29.954  26.369  23.743  1.00  0.00     0.082 C 
ATOM      9  N   UNL A   1      31.415  24.649  25.438  1.00  0.00    -0.355 N 
ATOM     10  C   UNL A   1      30.737  24.000  24.332  1.00  0.00     0.119 C 
ATOM     11  C   UNL A   1      30.717  25.734  26.098  1.00  0.00     0.119 C 
ATOM     12  C   UNL A   1      30.466  25.012  23.230  1.00  0.00     0.035 C 
ATOM     13  C   UNL A   1      30.486  26.854  25.102  1.00  0.00     0.035 C 
BRANCH   9  14
ATOM     14  C   UNL A   1      32.435  23.937  26.048  1.00  0.00     0.157 A 
ATOM     15  C   UNL A   1      34.672  23.143  26.274  1.00  0.00     0.155 A 
ATOM     16  N   UNL A   1      34.330  22.453  27.374  1.00  0.00    -0.217 NA
ATOM     17  C   UNL A   1      33.736  23.867  25.521  1.00  0.00     0.118 A 
ATOM     18  C   UNL A   1      33.059  22.569  27.771  1.00  0.00     0.226 A 
ATOM     19  N   UNL A   1      32.103  23.308  27.193  1.00  0.00    -0.217 NA
BRANCH  15  20
ATOM     20  N   UNL A   1      36.022  23.069  25.966  1.00  0.00    -0.364 N 
ATOM     21  H   UNL A   1      36.601  23.772  26.337  1.00  0.00     0.162 HD
BRANCH  20  22
ATOM     22  C   UNL A   1      36.676  22.035  25.136  1.00  0.00     0.030 C 
ATOM     23  C   UNL A   1      35.934  20.694  25.042  1.00  0.00     0.034 C 
ATOM     24  C   UNL A   1      38.105  21.833  25.666  1.00  0.00     0.034 C 
ATOM     25  C   UNL A   1      36.786  22.587  23.697  1.00  0.00     0.034 C 
ENDBRANCH  20  22
ENDBRANCH  15  20
BRANCH  17  26
ATOM     26  N   UNL A   1      34.077  24.425  24.280  1.00  0.00    -0.393 N 
ATOM     27  H   UNL A   1      33.955  23.903  23.456  1.00  0.00     0.156 HD
ATOM     28  H   UNL A   1      34.436  25.341  24.235  1.00  0.00     0.156 HD
ENDBRANCH  17  26
ENDBRANCH   9  14
ENDBRANCH   5   8
ENDBRANCH   3   4
ENDBRANCH   2   3
ENDBRANCH   1   2
BRANCH   1  29
ATOM     29  C   UNL A   1      33.661  27.779  24.975  1.00  0.00     0.002 C 
BRANCH  29  30
ATOM     30  C   UNL A   1      34.535  28.302  26.117  1.00  0.00     0.021 C 
BRANCH  30  31
ATOM     31  C   UNL A   1      33.782  28.541  27.419  1.00  0.00     0.116 C 
BRANCH  31  32
ATOM     32  N   UNL A   1      33.715  29.954  27.755  1.00  0.00    -0.352 N 
ATOM     33  C   UNL A   1      34.657  30.743  28.365  1.00  0.00     0.251 C 
ATOM     34  H   UNL A   1      32.876  30.408  27.511  1.00  0.00     0.163 HD
ATOM     35  O   UNL A   1      34.368  31.863  28.766  1.00  0.00    -0.269 OA
BRANCH  33  36
ATOM     36  C   UNL A   1      36.027  30.221  28.547  1.00  0.00     0.039 A 
ATOM     37  C   UNL A   1      36.942  30.347  27.501  1.00  0.00     0.014 A 
ATOM     38  C   UNL A   1      36.403  29.619  29.751  1.00  0.00     0.014 A 
ATOM     39  C   UNL A   1      38.253  29.909  27.681  1.00  0.00     0.010 A 
ATOM     40  C   UNL A   1      37.729  29.257  29.957  1.00  0.00     0.010 A 
ATOM     41  C   UNL A   1      38.663  29.385  28.918  1.00  0.00    -0.014 A 
BRANCH  41  42
ATOM     42  C   UNL A   1      40.062  28.947  29.135  1.00  0.00     0.031 A 
ATOM     43  C   UNL A   1      41.052  29.881  29.769  1.00  0.00     0.074 A 
ATOM     44  C   UNL A   1      40.451  27.728  28.717  1.00  0.00     0.049 A 
ATOM     45  N   UNL A   1      42.322  29.690  30.020  1.00  0.00    -0.248 NA
ATOM     46  C   UNL A   1      40.558  31.213  30.148  1.00  0.00     0.031 C 
ATOM     47  C   UNL A   1      39.590  26.753  28.047  1.00  0.00     0.029 A 
ATOM     48  N   UNL A   1      41.669  27.103  28.793  1.00  0.00    -0.354 N 
ATOM     49  C   UNL A   1      42.776  30.878  30.576  1.00  0.00     0.074 A 
ATOM     50  C   UNL A   1      41.665  31.803  30.567  1.00  0.00     0.031 C 
ATOM     51  C   UNL A   1      40.300  25.641  27.801  1.00  0.00     0.029 A 
ATOM     52  C   UNL A   1      41.672  25.839  28.260  1.00  0.00     0.049 A 
ATOM     53  H   UNL A   1      42.465  27.522  29.193  1.00  0.00     0.167 HD
ATOM     54  C   UNL A   1      44.003  31.162  31.074  1.00  0.00     0.037 A 
ATOM     55  C   UNL A   1      42.668  24.939  28.150  1.00  0.00     0.037 A 
ATOM     56  C   UNL A   1      45.098  30.229  31.095  1.00  0.00     0.049 A 
ATOM     57  C   UNL A   1      44.027  25.278  28.693  1.00  0.00     0.074 A 
ATOM     58  C   UNL A   1      46.359  30.394  31.638  1.00  0.00     0.029 A 
ATOM     59  N   UNL A   1      45.066  28.959  30.536  1.00  0.00    -0.354 N 
ATOM     60  N   UNL A   1      44.426  26.376  29.289  1.00  0.00    -0.248 NA
ATOM     61  C   UNL A   1      45.072  24.255  28.555  1.00  0.00     0.031 C 
ATOM     62  C   UNL A   1      47.109  29.250  31.354  1.00  0.00     0.029 A 
ATOM     63  C   UNL A   1      46.299  28.345  30.688  1.00  0.00     0.049 A 
ATOM     64  H   UNL A   1      44.282  28.554  30.097  1.00  0.00     0.167 HD
ATOM     65  C   UNL A   1      45.762  26.175  29.608  1.00  0.00     0.074 A 
ATOM     66  C   UNL A   1      46.101  24.839  29.156  1.00  0.00     0.031 C 
ATOM     67  C   UNL A   1      46.628  27.019  30.220  1.00  0.00     0.037 A 
BRANCH  54  68
ATOM     68  C   UNL A   1      44.223  32.540  31.630  1.00  0.00     0.057 A 
ATOM     69  C   UNL A   1      44.688  33.596  30.835  1.00  0.00     0.134 A 
ATOM     70  C   UNL A   1      43.945  32.821  32.974  1.00  0.00     0.134 A 
ATOM     71  F   UNL A   1      44.986  33.394  29.542  1.00  0.00    -0.206 F 
ATOM     72  C   UNL A   1      44.897  34.872  31.362  1.00  0.00     0.040 A 
ATOM     73  C   UNL A   1      44.120  34.100  33.505  1.00  0.00     0.040 A 
ATOM     74  F   UNL A   1      43.491  31.858  33.792  1.00  0.00    -0.206 F 
ATOM     75  C   UNL A   1      44.606  35.127  32.699  1.00  0.00     0.006 A 
ENDBRANCH  54  68
BRANCH  55  76
ATOM     76  C   UNL A   1      42.385  23.622  27.529  1.00  0.00     0.057 A 
ATOM     77  C   UNL A   1      42.049  22.513  28.313  1.00  0.00     0.134 A 
ATOM     78  C   UNL A   1      42.367  23.458  26.138  1.00  0.00     0.134 A 
ATOM     79  F   UNL A   1      42.064  22.603  29.651  1.00  0.00    -0.206 F 
ATOM     80  C   UNL A   1      41.698  21.291  27.738  1.00  0.00     0.040 A 
ATOM     81  C   UNL A   1      41.995  22.248  25.548  1.00  0.00     0.040 A 
ATOM     82  F   UNL A   1      42.670  24.487  25.332  1.00  0.00    -0.206 F 
ATOM     83  C   UNL A   1      41.658  21.160  26.350  1.00  0.00     0.006 A 
ENDBRANCH  55  76
BRANCH  67  84
ATOM     84  C   UNL A   1      48.033  26.539  30.439  1.00  0.00     0.057 A 
ATOM     85  C   UNL A   1      48.400  25.839  31.595  1.00  0.00     0.134 A 
ATOM     86  C   UNL A   1      49.010  26.703  29.446  1.00  0.00     0.134 A 
ATOM     87  F   UNL A   1      47.516  25.656  32.588  1.00  0.00    -0.206 F 
ATOM     88  C   UNL A   1      49.689  25.328  31.761  1.00  0.00     0.040 A 
ATOM     89  C   UNL A   1      50.292  26.171  29.588  1.00  0.00     0.040 A 
ATOM     90  F   UNL A   1      48.722  27.353  28.308  1.00  0.00    -0.206 F 
ATOM     91  C   UNL A   1      50.634  25.483  30.750  1.00  0.00     0.006 A 
ENDBRANCH  67  84
ENDBRANCH  41  42
ENDBRANCH  33  36
ENDBRANCH  31  32
ENDBRANCH  30  31
ENDBRANCH  29  30
ENDBRANCH   1  29
TORSDOF 17
ENDMDL
MODEL 3
REMARK VINA RESULT:     -11.4      0.519      6.078
REMARK SMILES CC(C)(C)Nc1ncnc(N2CCC(C(=O)NCCCCCCNC(=O)c3ccc(-c4c5nc(c(-c6c(F)cccc6F)c6ccc([nH]6)c(-c6c(F)cccc6F)c6nc(c(-c7c(F)cccc7F)c7ccc4[nH]7)C=C6)C=C5)cc3)CC2)c1N
REMARK SMILES IDX 20 1 19 2 18 3 17 4 15 5 16 6 14 8 11 9 12 10 82 11 13 12
REMARK SMILES IDX 81 13 10 14 6 15 7 16 83 17 8 18 9 19 5 20 2 22 1 23 3 24
REMARK SMILES IDX 4 25 84 26 21 29 22 30 23 31 24 32 25 33 26 35 27 36 28 37
REMARK SMILES IDX 80 38 29 39 79 40 30 41 31 42 32 43 73 44 33 45 78 46 72 47
REMARK SMILES IDX 74 48 34 49 77 50 71 51 70 52 35 54 61 55 44 56 60 57 45 58
REMARK SMILES IDX 48 59 59 60 75 61 46 62 47 63 58 65 76 66 49 67 36 68 37 69
REMARK SMILES IDX 42 70 38 71 39 72 41 73 43 74 40 75 62 76 63 77 68 78 64 79
REMARK SMILES IDX 65 80 67 81 69 82 66 83 50 84 51 85 56 86 52 87 53 88 55 89
REMARK SMILES IDX 57 90 54 91
REMARK H PARENT 17 7 5 21 84 27 84 28 24 34 74 53 48 64
REMARK Flexibility Score: inf
ROOT
ATOM      1  C   UNL A   1      31.761  29.719  25.117  1.00  0.00     0.002 C 
ENDROOT
BRANCH   1   2
ATOM      2  C   UNL A   1      30.470  29.692  24.294  1.00  0.00     0.021 C 
BRANCH   2   3
ATOM      3  C   UNL A   1      30.632  29.037  22.926  1.00  0.00     0.116 C 
BRANCH   3   4
ATOM      4  N   UNL A   1      32.037  28.816  22.621  1.00  0.00    -0.356 N 
ATOM      5  C   UNL A   1      32.815  27.711  22.788  1.00  0.00     0.223 C 
ATOM      6  O   UNL A   1      34.012  27.788  22.506  1.00  0.00    -0.275 OA
ATOM      7  H   UNL A   1      32.503  29.590  22.230  1.00  0.00     0.163 HD
BRANCH   5   8
ATOM      8  C   UNL A   1      32.217  26.400  23.275  1.00  0.00     0.082 C 
ATOM      9  N   UNL A   1      32.998  23.834  24.156  1.00  0.00    -0.355 N 
ATOM     10  C   UNL A   1      32.341  23.872  22.863  1.00  0.00     0.119 C 
ATOM     11  C   UNL A   1      32.491  24.721  25.183  1.00  0.00     0.119 C 
ATOM     12  C   UNL A   1      32.462  25.265  22.265  1.00  0.00     0.035 C 
ATOM     13  C   UNL A   1      32.663  26.157  24.728  1.00  0.00     0.035 C 
BRANCH   9  14
ATOM     14  C   UNL A   1      33.733  22.697  24.447  1.00  0.00     0.157 A 
ATOM     15  C   UNL A   1      34.023  20.455  25.204  1.00  0.00     0.155 A 
ATOM     16  N   UNL A   1      35.346  20.539  24.990  1.00  0.00    -0.217 NA
ATOM     17  C   UNL A   1      33.160  21.541  25.006  1.00  0.00     0.118 A 
ATOM     18  C   UNL A   1      35.788  21.694  24.483  1.00  0.00     0.226 A 
ATOM     19  N   UNL A   1      35.048  22.762  24.159  1.00  0.00    -0.217 NA
BRANCH  15  20
ATOM     20  N   UNL A   1      33.607  19.204  25.635  1.00  0.00    -0.364 N 
ATOM     21  H   UNL A   1      33.421  19.104  26.596  1.00  0.00     0.162 HD
BRANCH  20  22
ATOM     22  C   UNL A   1      33.413  18.006  24.791  1.00  0.00     0.030 C 
ATOM     23  C   UNL A   1      34.699  17.300  24.338  1.00  0.00     0.034 C 
ATOM     24  C   UNL A   1      32.556  18.411  23.579  1.00  0.00     0.034 C 
ATOM     25  C   UNL A   1      32.603  16.978  25.611  1.00  0.00     0.034 C 
ENDBRANCH  20  22
ENDBRANCH  15  20
BRANCH  17  26
ATOM     26  N   UNL A   1      31.818  21.487  25.410  1.00  0.00    -0.393 N 
ATOM     27  H   UNL A   1      31.394  20.618  25.594  1.00  0.00     0.156 HD
ATOM     28  H   UNL A   1      31.301  22.318  25.511  1.00  0.00     0.156 HD
ENDBRANCH  17  26
ENDBRANCH   9  14
ENDBRANCH   5   8
ENDBRANCH   3   4
ENDBRANCH   2   3
ENDBRANCH   1   2
BRANCH   1  29
ATOM     29  C   UNL A   1      31.602  30.266  26.540  1.00  0.00     0.002 C 
BRANCH  29  30
ATOM     30  C   UNL A   1      31.470  31.786  26.630  1.00  0.00     0.021 C 
BRANCH  30  31
ATOM     31  C   UNL A   1      32.779  32.510  26.919  1.00  0.00     0.116 C 
BRANCH  31  32
ATOM     32  N   UNL A   1      32.554  33.835  27.475  1.00  0.00    -0.352 N 
ATOM     33  C   UNL A   1      33.153  34.432  28.555  1.00  0.00     0.251 C 
ATOM     34  H   UNL A   1      31.877  34.379  27.012  1.00  0.00     0.163 HD
ATOM     35  O   UNL A   1      32.705  35.471  29.022  1.00  0.00    -0.269 OA
BRANCH  33  36
ATOM     36  C   UNL A   1      34.342  33.799  29.163  1.00  0.00     0.039 A 
ATOM     37  C   UNL A   1      34.161  32.869  30.189  1.00  0.00     0.014 A 
ATOM     38  C   UNL A   1      35.626  34.120  28.712  1.00  0.00     0.014 A 
ATOM     39  C   UNL A   1      35.272  32.225  30.731  1.00  0.00     0.010 A 
ATOM     40  C   UNL A   1      36.722  33.417  29.197  1.00  0.00     0.010 A 
ATOM     41  C   UNL A   1      36.556  32.474  30.222  1.00  0.00    -0.014 A 
BRANCH  41  42
ATOM     42  C   UNL A   1      37.742  31.770  30.766  1.00  0.00     0.031 A 
ATOM     43  C   UNL A   1      38.259  32.116  32.132  1.00  0.00     0.074 A 
ATOM     44  C   UNL A   1      38.379  30.856  30.011  1.00  0.00     0.049 A 
ATOM     45  N   UNL A   1      39.293  31.630  32.770  1.00  0.00    -0.248 NA
ATOM     46  C   UNL A   1      37.536  33.163  32.870  1.00  0.00     0.031 C 
ATOM     47  C   UNL A   1      37.996  30.471  28.652  1.00  0.00     0.029 A 
ATOM     48  N   UNL A   1      39.482  30.087  30.279  1.00  0.00    -0.354 N 
ATOM     49  C   UNL A   1      39.348  32.318  33.975  1.00  0.00     0.074 A 
ATOM     50  C   UNL A   1      38.284  33.297  33.953  1.00  0.00     0.031 C 
ATOM     51  C   UNL A   1      38.833  29.517  28.217  1.00  0.00     0.029 A 
ATOM     52  C   UNL A   1      39.832  29.250  29.249  1.00  0.00     0.049 A 
ATOM     53  H   UNL A   1      39.977  30.131  31.129  1.00  0.00     0.167 HD
ATOM     54  C   UNL A   1      40.192  32.130  35.016  1.00  0.00     0.037 A 
ATOM     55  C   UNL A   1      40.844  28.368  29.144  1.00  0.00     0.037 A 
ATOM     56  C   UNL A   1      41.237  31.141  35.036  1.00  0.00     0.049 A 
ATOM     57  C   UNL A   1      41.782  28.186  30.304  1.00  0.00     0.074 A 
ATOM     58  C   UNL A   1      42.102  30.825  36.068  1.00  0.00     0.029 A 
ATOM     59  N   UNL A   1      41.567  30.317  33.969  1.00  0.00    -0.354 N 
ATOM     60  N   UNL A   1      41.776  28.785  31.470  1.00  0.00    -0.248 NA
ATOM     61  C   UNL A   1      42.861  27.203  30.138  1.00  0.00     0.031 C 
ATOM     62  C   UNL A   1      42.995  29.853  35.605  1.00  0.00     0.029 A 
ATOM     63  C   UNL A   1      42.649  29.520  34.306  1.00  0.00     0.049 A 
ATOM     64  H   UNL A   1      41.101  30.301  33.102  1.00  0.00     0.167 HD
ATOM     65  C   UNL A   1      42.840  28.247  32.182  1.00  0.00     0.074 A 
ATOM     66  C   UNL A   1      43.458  27.257  31.322  1.00  0.00     0.031 C 
ATOM     67  C   UNL A   1      43.264  28.547  33.434  1.00  0.00     0.037 A 
BRANCH  54  68
ATOM     68  C   UNL A   1      40.021  33.019  36.215  1.00  0.00     0.057 A 
ATOM     69  C   UNL A   1      40.737  34.215  36.360  1.00  0.00     0.134 A 
ATOM     70  C   UNL A   1      39.113  32.686  37.227  1.00  0.00     0.134 A 
ATOM     71  F   UNL A   1      41.633  34.589  35.434  1.00  0.00    -0.206 F 
ATOM     72  C   UNL A   1      40.578  35.031  37.482  1.00  0.00     0.040 A 
ATOM     73  C   UNL A   1      38.922  33.510  38.338  1.00  0.00     0.040 A 
ATOM     74  F   UNL A   1      38.389  31.558  37.151  1.00  0.00    -0.206 F 
ATOM     75  C   UNL A   1      39.663  34.682  38.471  1.00  0.00     0.006 A 
ENDBRANCH  54  68
BRANCH  55  76
ATOM     76  C   UNL A   1      40.982  27.573  27.900  1.00  0.00     0.057 A 
ATOM     77  C   UNL A   1      41.769  28.028  26.836  1.00  0.00     0.134 A 
ATOM     78  C   UNL A   1      40.397  26.306  27.774  1.00  0.00     0.134 A 
ATOM     79  F   UNL A   1      42.341  29.239  26.891  1.00  0.00    -0.206 F 
ATOM     80  C   UNL A   1      41.975  27.251  25.695  1.00  0.00     0.040 A 
ATOM     81  C   UNL A   1      40.614  25.508  26.649  1.00  0.00     0.040 A 
ATOM     82  F   UNL A   1      39.639  25.810  28.763  1.00  0.00    -0.206 F 
ATOM     83  C   UNL A   1      41.407  25.981  25.605  1.00  0.00     0.006 A 
ENDBRANCH  55  76
BRANCH  67  84
ATOM     84  C   UNL A   1      44.458  27.805  33.962  1.00  0.00     0.057 A 
ATOM     85  C   UNL A   1      44.333  26.556  34.582  1.00  0.00     0.134 A 
ATOM     86  C   UNL A   1      45.754  28.304  33.771  1.00  0.00     0.134 A 
ATOM     87  F   UNL A   1      43.120  26.025  34.803  1.00  0.00    -0.206 F 
ATOM     88  C   UNL A   1      45.452  25.834  35.003  1.00  0.00     0.040 A 
ATOM     89  C   UNL A   1      46.881  27.580  34.161  1.00  0.00     0.040 A 
ATOM     90  F   UNL A   1      45.946  29.490  33.173  1.00  0.00    -0.206 F 
ATOM     91  C   UNL A   1      46.730  26.341  34.781  1.00  0.00     0.006 A 
ENDBRANCH  67  84
ENDBRANCH  41  42
ENDBRANCH  33  36
ENDBRANCH  31  32
ENDBRANCH  30  31
ENDBRANCH  29  30
ENDBRANCH   1  29
TORSDOF 17
ENDMDL
