MODEL 1
REMARK VINA RESULT:     -11.7      0.000      0.000
REMARK SMILES Cc1ccc(S(=O)(=O)Nc2cc3c(cc2C(=O)NCCCCCCNC(=O)c2ccc(-c4c5nc(c(-c6c(F)cccc6F)c6ccc([nH]6)c(-c6c(F)cccc6F)c6nc(c(-c7c(F)cccc7F)c7ccc4[nH]7)C=C6)C=C5)cc2)OCCO3)s1
REMARK SMILES IDX 21 1 20 2 19 3 18 4 16 5 17 6 15 8 10 9 11 10 12 11 14 12
REMARK SMILES IDX 13 13 85 14 82 15 84 16 83 17 9 18 6 20 7 21 8 22 5 23 1 24
REMARK SMILES IDX 2 25 3 26 86 27 4 28 22 29 23 30 24 31 25 32 26 33 27 35
REMARK SMILES IDX 28 36 29 37 81 38 30 39 80 40 31 41 32 42 33 43 74 44 34 45
REMARK SMILES IDX 79 46 73 47 75 48 35 49 78 50 72 51 71 52 36 54 62 55 45 56
REMARK SMILES IDX 61 57 46 58 49 59 60 60 76 61 47 62 48 63 59 65 77 66 50 67
REMARK SMILES IDX 37 68 38 69 43 70 39 71 40 72 42 73 44 74 41 75 63 76 64 77
REMARK SMILES IDX 69 78 65 79 66 80 68 81 70 82 67 83 51 84 52 85 57 86 53 87
REMARK SMILES IDX 54 88 56 89 58 90 55 91
REMARK H PARENT 18 7 9 19 25 34 75 53 49 64
REMARK Flexibility Score: inf
ROOT
ATOM      1  C   UNL A   1      38.301  22.332  25.832  1.00  0.00     0.002 C 
ENDROOT
BRANCH   1   2
ATOM      2  C   UNL A   1      37.637  23.708  25.852  1.00  0.00     0.021 C 
BRANCH   2   3
ATOM      3  C   UNL A   1      36.114  23.761  25.808  1.00  0.00     0.116 C 
BRANCH   3   4
ATOM      4  N   UNL A   1      35.550  24.069  24.508  1.00  0.00    -0.352 N 
ATOM      5  C   UNL A   1      34.506  23.488  23.823  1.00  0.00     0.253 C 
ATOM      6  O   UNL A   1      34.104  24.029  22.797  1.00  0.00    -0.269 OA
ATOM      7  H   UNL A   1      35.983  24.818  24.038  1.00  0.00     0.163 HD
BRANCH   5   8
ATOM      8  C   UNL A   1      33.880  22.224  24.295  1.00  0.00     0.067 A 
ATOM      9  C   UNL A   1      32.552  22.213  24.772  1.00  0.00     0.066 A 
ATOM     10  C   UNL A   1      31.962  21.006  25.170  1.00  0.00     0.078 A 
ATOM     11  C   UNL A   1      32.686  19.816  25.083  1.00  0.00     0.163 A 
ATOM     12  C   UNL A   1      34.619  21.036  24.299  1.00  0.00     0.066 A 
ATOM     13  C   UNL A   1      34.006  19.832  24.633  1.00  0.00     0.162 A 
ATOM     14  O   UNL A   1      32.032  18.665  25.439  1.00  0.00    -0.486 OA
ATOM     15  O   UNL A   1      34.763  18.699  24.475  1.00  0.00    -0.486 OA
ATOM     16  C   UNL A   1      32.930  17.553  25.567  1.00  0.00     0.271 C 
ATOM     17  C   UNL A   1      33.932  17.533  24.426  1.00  0.00     0.271 C 
BRANCH   9  18
ATOM     18  N   UNL A   1      31.787  23.424  24.838  1.00  0.00    -0.278 N 
ATOM     19  H   UNL A   1      31.309  23.761  24.046  1.00  0.00     0.180 HD
BRANCH  18  20
ATOM     20  S   UNL A   1      31.725  24.259  26.304  1.00  0.00     0.271 S 
ATOM     21  O   UNL A   1      32.679  23.642  27.195  1.00  0.00    -0.200 OA
ATOM     22  O   UNL A   1      30.326  24.356  26.676  1.00  0.00    -0.200 OA
BRANCH  20  23
ATOM     23  C   UNL A   1      32.220  25.949  26.037  1.00  0.00     0.140 A 
ATOM     24  C   UNL A   1      31.732  29.699  24.990  1.00  0.00     0.056 C 
ATOM     25  C   UNL A   1      32.164  28.342  25.432  1.00  0.00     0.003 A 
ATOM     26  C   UNL A   1      33.437  27.917  25.748  1.00  0.00     0.016 A 
ATOM     27  S   UNL A   1      31.017  27.081  25.605  1.00  0.00    -0.127 S 
ATOM     28  C   UNL A   1      33.469  26.540  26.098  1.00  0.00     0.034 A 
ENDBRANCH  20  23
ENDBRANCH  18  20
ENDBRANCH   9  18
ENDBRANCH   5   8
ENDBRANCH   3   4
ENDBRANCH   2   3
ENDBRANCH   1   2
BRANCH   1  29
ATOM     29  C   UNL A   1      37.757  21.320  24.825  1.00  0.00     0.002 C 
BRANCH  29  30
ATOM     30  C   UNL A   1      38.322  19.901  24.909  1.00  0.00     0.021 C 
BRANCH  30  31
ATOM     31  C   UNL A   1      39.170  19.581  26.136  1.00  0.00     0.116 C 
BRANCH  31  32
ATOM     32  N   UNL A   1      40.452  18.984  25.812  1.00  0.00    -0.352 N 
ATOM     33  C   UNL A   1      41.712  19.524  25.897  1.00  0.00     0.251 C 
ATOM     34  H   UNL A   1      40.413  18.058  25.482  1.00  0.00     0.163 HD
ATOM     35  O   UNL A   1      42.681  18.893  25.485  1.00  0.00    -0.269 OA
BRANCH  33  36
ATOM     36  C   UNL A   1      41.909  20.882  26.454  1.00  0.00     0.039 A 
ATOM     37  C   UNL A   1      41.848  21.050  27.841  1.00  0.00     0.014 A 
ATOM     38  C   UNL A   1      42.146  21.985  25.626  1.00  0.00     0.014 A 
ATOM     39  C   UNL A   1      42.091  22.305  28.402  1.00  0.00     0.010 A 
ATOM     40  C   UNL A   1      42.444  23.225  26.190  1.00  0.00     0.010 A 
ATOM     41  C   UNL A   1      42.425  23.396  27.583  1.00  0.00    -0.014 A 
BRANCH  41  42
ATOM     42  C   UNL A   1      42.775  24.714  28.170  1.00  0.00     0.031 A 
ATOM     43  C   UNL A   1      41.715  25.761  28.376  1.00  0.00     0.074 A 
ATOM     44  C   UNL A   1      44.060  24.994  28.458  1.00  0.00     0.049 A 
ATOM     45  N   UNL A   1      41.842  26.992  28.804  1.00  0.00    -0.248 NA
ATOM     46  C   UNL A   1      40.337  25.380  28.034  1.00  0.00     0.031 C 
ATOM     47  C   UNL A   1      45.189  24.082  28.267  1.00  0.00     0.029 A 
ATOM     48  N   UNL A   1      44.636  26.133  28.964  1.00  0.00    -0.354 N 
ATOM     49  C   UNL A   1      40.566  27.537  28.770  1.00  0.00     0.074 A 
ATOM     50  C   UNL A   1      39.685  26.516  28.242  1.00  0.00     0.031 C 
ATOM     51  C   UNL A   1      46.319  24.691  28.663  1.00  0.00     0.029 A 
ATOM     52  C   UNL A   1      46.000  26.044  29.107  1.00  0.00     0.049 A 
ATOM     53  H   UNL A   1      44.120  26.938  29.202  1.00  0.00     0.167 HD
ATOM     54  C   UNL A   1      40.161  28.770  29.158  1.00  0.00     0.037 A 
ATOM     55  C   UNL A   1      46.893  26.953  29.540  1.00  0.00     0.037 A 
ATOM     56  C   UNL A   1      41.030  29.776  29.711  1.00  0.00     0.049 A 
ATOM     57  C   UNL A   1      46.418  28.311  29.972  1.00  0.00     0.074 A 
ATOM     58  C   UNL A   1      40.700  31.031  30.192  1.00  0.00     0.029 A 
ATOM     59  N   UNL A   1      42.402  29.639  29.859  1.00  0.00    -0.354 N 
ATOM     60  N   UNL A   1      45.200  28.794  29.985  1.00  0.00    -0.248 NA
ATOM     61  C   UNL A   1      47.442  29.250  30.455  1.00  0.00     0.031 C 
ATOM     62  C   UNL A   1      41.877  31.667  30.602  1.00  0.00     0.029 A 
ATOM     63  C   UNL A   1      42.934  30.794  30.409  1.00  0.00     0.049 A 
ATOM     64  H   UNL A   1      42.920  28.839  29.612  1.00  0.00     0.167 HD
ATOM     65  C   UNL A   1      45.306  30.081  30.495  1.00  0.00     0.074 A 
ATOM     66  C   UNL A   1      46.706  30.300  30.791  1.00  0.00     0.031 C 
ATOM     67  C   UNL A   1      44.329  30.998  30.699  1.00  0.00     0.037 A 
BRANCH  54  68
ATOM     68  C   UNL A   1      38.707  29.099  29.001  1.00  0.00     0.057 A 
ATOM     69  C   UNL A   1      37.817  29.030  30.081  1.00  0.00     0.134 A 
ATOM     70  C   UNL A   1      38.198  29.525  27.769  1.00  0.00     0.134 A 
ATOM     71  F   UNL A   1      38.240  28.617  31.285  1.00  0.00    -0.206 F 
ATOM     72  C   UNL A   1      36.467  29.352  29.935  1.00  0.00     0.040 A 
ATOM     73  C   UNL A   1      36.855  29.872  27.615  1.00  0.00     0.040 A 
ATOM     74  F   UNL A   1      38.998  29.618  26.696  1.00  0.00    -0.206 F 
ATOM     75  C   UNL A   1      35.985  29.781  28.699  1.00  0.00     0.006 A 
ENDBRANCH  54  68
BRANCH  55  76
ATOM     76  C   UNL A   1      48.332  26.601  29.607  1.00  0.00     0.057 A 
ATOM     77  C   UNL A   1      49.200  26.917  28.556  1.00  0.00     0.134 A 
ATOM     78  C   UNL A   1      48.872  25.939  30.715  1.00  0.00     0.134 A 
ATOM     79  F   UNL A   1      48.734  27.533  27.460  1.00  0.00    -0.206 F 
ATOM     80  C   UNL A   1      50.552  26.576  28.598  1.00  0.00     0.040 A 
ATOM     81  C   UNL A   1      50.226  25.609  30.780  1.00  0.00     0.040 A 
ATOM     82  F   UNL A   1      48.091  25.614  31.757  1.00  0.00    -0.206 F 
ATOM     83  C   UNL A   1      51.070  25.924  29.715  1.00  0.00     0.006 A 
ENDBRANCH  55  76
BRANCH  67  84
ATOM     84  C   UNL A   1      44.739  32.311  31.292  1.00  0.00     0.057 A 
ATOM     85  C   UNL A   1      45.092  33.402  30.488  1.00  0.00     0.134 A 
ATOM     86  C   UNL A   1      44.750  32.497  32.680  1.00  0.00     0.134 A 
ATOM     87  F   UNL A   1      45.114  33.282  29.152  1.00  0.00    -0.206 F 
ATOM     88  C   UNL A   1      45.458  34.628  31.045  1.00  0.00     0.040 A 
ATOM     89  C   UNL A   1      45.095  33.723  33.247  1.00  0.00     0.040 A 
ATOM     90  F   UNL A   1      44.417  31.491  33.504  1.00  0.00    -0.206 F 
ATOM     91  C   UNL A   1      45.454  34.793  32.429  1.00  0.00     0.006 A 
ENDBRANCH  67  84
ENDBRANCH  41  42
ENDBRANCH  33  36
ENDBRANCH  31  32
ENDBRANCH  30  31
ENDBRANCH  29  30
ENDBRANCH   1  29
TORSDOF 16
ENDMDL
MODEL 2
REMARK VINA RESULT:     -11.5      1.577      2.111
REMARK SMILES Cc1ccc(S(=O)(=O)Nc2cc3c(cc2C(=O)NCCCCCCNC(=O)c2ccc(-c4c5nc(c(-c6c(F)cccc6F)c6ccc([nH]6)c(-c6c(F)cccc6F)c6nc(c(-c7c(F)cccc7F)c7ccc4[nH]7)C=C6)C=C5)cc2)OCCO3)s1
REMARK SMILES IDX 21 1 20 2 19 3 18 4 16 5 17 6 15 8 10 9 11 10 12 11 14 12
REMARK SMILES IDX 13 13 85 14 82 15 84 16 83 17 9 18 6 20 7 21 8 22 5 23 1 24
REMARK SMILES IDX 2 25 3 26 86 27 4 28 22 29 23 30 24 31 25 32 26 33 27 35
REMARK SMILES IDX 28 36 29 37 81 38 30 39 80 40 31 41 32 42 33 43 74 44 34 45
REMARK SMILES IDX 79 46 73 47 75 48 35 49 78 50 72 51 71 52 36 54 62 55 45 56
REMARK SMILES IDX 61 57 46 58 49 59 60 60 76 61 47 62 48 63 59 65 77 66 50 67
REMARK SMILES IDX 37 68 38 69 43 70 39 71 40 72 42 73 44 74 41 75 63 76 64 77
REMARK SMILES IDX 69 78 65 79 66 80 68 81 70 82 67 83 51 84 52 85 57 86 53 87
REMARK SMILES IDX 54 88 56 89 58 90 55 91
REMARK H PARENT 18 7 9 19 25 34 75 53 49 64
REMARK Flexibility Score: inf
ROOT
ATOM      1  C   UNL A   1      36.810  22.298  24.773  1.00  0.00     0.002 C 
ENDROOT
BRANCH   1   2
ATOM      2  C   UNL A   1      36.120  23.314  25.683  1.00  0.00     0.021 C 
BRANCH   2   3
ATOM      3  C   UNL A   1      35.062  22.795  26.651  1.00  0.00     0.116 C 
BRANCH   3   4
ATOM      4  N   UNL A   1      33.828  23.555  26.673  1.00  0.00    -0.352 N 
ATOM      5  C   UNL A   1      32.630  23.339  26.030  1.00  0.00     0.253 C 
ATOM      6  O   UNL A   1      31.667  24.038  26.332  1.00  0.00    -0.269 OA
ATOM      7  H   UNL A   1      33.849  24.357  27.243  1.00  0.00     0.163 HD
BRANCH   5   8
ATOM      8  C   UNL A   1      32.494  22.294  24.979  1.00  0.00     0.067 A 
ATOM      9  C   UNL A   1      32.233  22.651  23.639  1.00  0.00     0.066 A 
ATOM     10  C   UNL A   1      32.152  21.658  22.654  1.00  0.00     0.078 A 
ATOM     11  C   UNL A   1      32.342  20.319  23.000  1.00  0.00     0.163 A 
ATOM     12  C   UNL A   1      32.593  20.941  25.322  1.00  0.00     0.066 A 
ATOM     13  C   UNL A   1      32.577  19.966  24.329  1.00  0.00     0.162 A 
ATOM     14  O   UNL A   1      32.302  19.403  21.980  1.00  0.00    -0.486 OA
ATOM     15  O   UNL A   1      32.821  18.679  24.736  1.00  0.00    -0.486 OA
ATOM     16  C   UNL A   1      32.242  18.055  22.469  1.00  0.00     0.271 C 
ATOM     17  C   UNL A   1      33.205  17.857  23.627  1.00  0.00     0.271 C 
BRANCH   9  18
ATOM     18  N   UNL A   1      32.065  24.025  23.266  1.00  0.00    -0.278 N 
ATOM     19  H   UNL A   1      31.238  24.510  23.493  1.00  0.00     0.180 HD
BRANCH  18  20
ATOM     20  S   UNL A   1      33.316  24.793  22.432  1.00  0.00     0.271 S 
ATOM     21  O   UNL A   1      32.937  24.848  21.040  1.00  0.00    -0.200 OA
ATOM     22  O   UNL A   1      34.551  24.147  22.834  1.00  0.00    -0.200 OA
BRANCH  20  23
ATOM     23  C   UNL A   1      33.483  26.461  23.034  1.00  0.00     0.140 A 
ATOM     24  C   UNL A   1      33.530  29.302  25.740  1.00  0.00     0.056 C 
ATOM     25  C   UNL A   1      33.556  28.414  24.542  1.00  0.00     0.003 A 
ATOM     26  C   UNL A   1      33.655  28.780  23.217  1.00  0.00     0.016 A 
ATOM     27  S   UNL A   1      33.460  26.713  24.722  1.00  0.00    -0.127 S 
ATOM     28  C   UNL A   1      33.615  27.655  22.348  1.00  0.00     0.034 A 
ENDBRANCH  20  23
ENDBRANCH  18  20
ENDBRANCH   9  18
ENDBRANCH   5   8
ENDBRANCH   3   4
ENDBRANCH   2   3
ENDBRANCH   1   2
BRANCH   1  29
ATOM     29  C   UNL A   1      36.473  20.826  25.005  1.00  0.00     0.002 C 
BRANCH  29  30
ATOM     30  C   UNL A   1      37.643  19.842  24.960  1.00  0.00     0.021 C 
BRANCH  30  31
ATOM     31  C   UNL A   1      38.912  20.265  25.693  1.00  0.00     0.116 C 
BRANCH  31  32
ATOM     32  N   UNL A   1      39.922  19.224  25.746  1.00  0.00    -0.352 N 
ATOM     33  C   UNL A   1      41.256  19.318  26.063  1.00  0.00     0.251 C 
ATOM     34  H   UNL A   1      39.606  18.320  25.520  1.00  0.00     0.163 HD
ATOM     35  O   UNL A   1      41.983  18.334  25.961  1.00  0.00    -0.269 OA
BRANCH  33  36
ATOM     36  C   UNL A   1      41.834  20.611  26.496  1.00  0.00     0.039 A 
ATOM     37  C   UNL A   1      42.294  21.497  25.516  1.00  0.00     0.014 A 
ATOM     38  C   UNL A   1      41.930  20.952  27.848  1.00  0.00     0.014 A 
ATOM     39  C   UNL A   1      42.786  22.750  25.887  1.00  0.00     0.010 A 
ATOM     40  C   UNL A   1      42.369  22.225  28.214  1.00  0.00     0.010 A 
ATOM     41  C   UNL A   1      42.796  23.138  27.237  1.00  0.00    -0.014 A 
BRANCH  41  42
ATOM     42  C   UNL A   1      43.231  24.499  27.639  1.00  0.00     0.031 A 
ATOM     43  C   UNL A   1      42.217  25.543  28.013  1.00  0.00     0.074 A 
ATOM     44  C   UNL A   1      44.540  24.816  27.605  1.00  0.00     0.049 A 
ATOM     45  N   UNL A   1      42.402  26.803  28.319  1.00  0.00    -0.248 NA
ATOM     46  C   UNL A   1      40.808  25.121  28.024  1.00  0.00     0.031 C 
ATOM     47  C   UNL A   1      45.621  23.908  27.220  1.00  0.00     0.029 A 
ATOM     48  N   UNL A   1      45.182  25.996  27.889  1.00  0.00    -0.354 N 
ATOM     49  C   UNL A   1      41.136  27.327  28.543  1.00  0.00     0.074 A 
ATOM     50  C   UNL A   1      40.189  26.260  28.300  1.00  0.00     0.031 C 
ATOM     51  C   UNL A   1      46.793  24.559  27.305  1.00  0.00     0.029 A 
ATOM     52  C   UNL A   1      46.544  25.935  27.720  1.00  0.00     0.049 A 
ATOM     53  H   UNL A   1      44.711  26.808  28.185  1.00  0.00     0.167 HD
ATOM     54  C   UNL A   1      40.795  28.580  28.931  1.00  0.00     0.037 A 
ATOM     55  C   UNL A   1      47.486  26.885  27.875  1.00  0.00     0.037 A 
ATOM     56  C   UNL A   1      41.737  29.634  29.202  1.00  0.00     0.049 A 
ATOM     57  C   UNL A   1      47.082  28.263  28.314  1.00  0.00     0.074 A 
ATOM     58  C   UNL A   1      41.488  30.916  29.662  1.00  0.00     0.029 A 
ATOM     59  N   UNL A   1      43.110  29.526  29.040  1.00  0.00    -0.354 N 
ATOM     60  N   UNL A   1      45.886  28.729  28.575  1.00  0.00    -0.248 NA
ATOM     61  C   UNL A   1      48.162  29.248  28.485  1.00  0.00     0.031 C 
ATOM     62  C   UNL A   1      42.709  31.595  29.748  1.00  0.00     0.029 A 
ATOM     63  C   UNL A   1      43.719  30.724  29.375  1.00  0.00     0.049 A 
ATOM     64  H   UNL A   1      43.581  28.718  28.733  1.00  0.00     0.167 HD
ATOM     65  C   UNL A   1      46.068  30.051  28.961  1.00  0.00     0.074 A 
ATOM     66  C   UNL A   1      47.492  30.309  28.911  1.00  0.00     0.031 C 
ATOM     67  C   UNL A   1      45.137  30.967  29.323  1.00  0.00     0.037 A 
BRANCH  54  68
ATOM     68  C   UNL A   1      39.334  28.877  29.092  1.00  0.00     0.057 A 
ATOM     69  C   UNL A   1      38.678  28.700  30.317  1.00  0.00     0.134 A 
ATOM     70  C   UNL A   1      38.584  29.380  28.023  1.00  0.00     0.134 A 
ATOM     71  F   UNL A   1      39.338  28.210  31.377  1.00  0.00    -0.206 F 
ATOM     72  C   UNL A   1      37.321  28.994  30.466  1.00  0.00     0.040 A 
ATOM     73  C   UNL A   1      37.233  29.699  28.165  1.00  0.00     0.040 A 
ATOM     74  F   UNL A   1      39.154  29.577  26.824  1.00  0.00    -0.206 F 
ATOM     75  C   UNL A   1      36.597  29.501  29.389  1.00  0.00     0.006 A 
ENDBRANCH  54  68
BRANCH  55  76
ATOM     76  C   UNL A   1      48.912  26.557  27.633  1.00  0.00     0.057 A 
ATOM     77  C   UNL A   1      49.501  26.787  26.385  1.00  0.00     0.134 A 
ATOM     78  C   UNL A   1      49.716  26.005  28.636  1.00  0.00     0.134 A 
ATOM     79  F   UNL A   1      48.773  27.296  25.379  1.00  0.00    -0.206 F 
ATOM     80  C   UNL A   1      50.836  26.468  26.137  1.00  0.00     0.040 A 
ATOM     81  C   UNL A   1      51.059  25.699  28.409  1.00  0.00     0.040 A 
ATOM     82  F   UNL A   1      49.210  25.766  29.855  1.00  0.00    -0.206 F 
ATOM     83  C   UNL A   1      51.621  25.926  27.153  1.00  0.00     0.006 A 
ENDBRANCH  55  76
BRANCH  67  84
ATOM     84  C   UNL A   1      45.633  32.324  29.717  1.00  0.00     0.057 A 
ATOM     85  C   UNL A   1      45.745  33.365  28.786  1.00  0.00     0.134 A 
ATOM     86  C   UNL A   1      45.971  32.603  31.047  1.00  0.00     0.134 A 
ATOM     87  F   UNL A   1      45.450  33.156  27.494  1.00  0.00    -0.206 F 
ATOM     88  C   UNL A   1      46.193  34.632  29.163  1.00  0.00     0.040 A 
ATOM     89  C   UNL A   1      46.400  33.871  31.438  1.00  0.00     0.040 A 
ATOM     90  F   UNL A   1      45.880  31.650  31.987  1.00  0.00    -0.206 F 
ATOM     91  C   UNL A   1      46.516  34.889  30.494  1.00  0.00     0.006 A 
ENDBRANCH  67  84
ENDBRANCH  41  42
ENDBRANCH  33  36
ENDBRANCH  31  32
ENDBRANCH  30  31
ENDBRANCH  29  30
ENDBRANCH   1  29
TORSDOF 16
ENDMDL
MODEL 3
REMARK VINA RESULT:     -11.5      0.452      6.054
REMARK SMILES Cc1ccc(S(=O)(=O)Nc2cc3c(cc2C(=O)NCCCCCCNC(=O)c2ccc(-c4c5nc(c(-c6c(F)cccc6F)c6ccc([nH]6)c(-c6c(F)cccc6F)c6nc(c(-c7c(F)cccc7F)c7ccc4[nH]7)C=C6)C=C5)cc2)OCCO3)s1
REMARK SMILES IDX 21 1 20 2 19 3 18 4 16 5 17 6 15 8 10 9 11 10 12 11 14 12
REMARK SMILES IDX 13 13 85 14 82 15 84 16 83 17 9 18 6 20 7 21 8 22 5 23 1 24
REMARK SMILES IDX 2 25 3 26 86 27 4 28 22 29 23 30 24 31 25 32 26 33 27 35
REMARK SMILES IDX 28 36 29 37 81 38 30 39 80 40 31 41 32 42 33 43 74 44 34 45
REMARK SMILES IDX 79 46 73 47 75 48 35 49 78 50 72 51 71 52 36 54 62 55 45 56
REMARK SMILES IDX 61 57 46 58 49 59 60 60 76 61 47 62 48 63 59 65 77 66 50 67
REMARK SMILES IDX 37 68 38 69 43 70 39 71 40 72 42 73 44 74 41 75 63 76 64 77
REMARK SMILES IDX 69 78 65 79 66 80 68 81 70 82 67 83 51 84 52 85 57 86 53 87
REMARK SMILES IDX 54 88 56 89 58 90 55 91
REMARK H PARENT 18 7 9 19 25 34 75 53 49 64
REMARK Flexibility Score: inf
ROOT
ATOM      1  C   UNL A   1      37.894  22.218  25.918  1.00  0.00     0.002 C 
ENDROOT
BRANCH   1   2
ATOM      2  C   UNL A   1      37.446  23.672  25.775  1.00  0.00     0.021 C 
BRANCH   2   3
ATOM      3  C   UNL A   1      35.949  23.948  25.698  1.00  0.00     0.116 C 
BRANCH   3   4
ATOM      4  N   UNL A   1      35.433  24.162  24.360  1.00  0.00    -0.352 N 
ATOM      5  C   UNL A   1      34.439  23.509  23.668  1.00  0.00     0.253 C 
ATOM      6  O   UNL A   1      34.066  23.977  22.595  1.00  0.00    -0.269 OA
ATOM      7  H   UNL A   1      35.865  24.895  23.865  1.00  0.00     0.163 HD
BRANCH   5   8
ATOM      8  C   UNL A   1      33.829  22.255  24.188  1.00  0.00     0.067 A 
ATOM      9  C   UNL A   1      32.498  22.243  24.656  1.00  0.00     0.066 A 
ATOM     10  C   UNL A   1      31.925  21.044  25.100  1.00  0.00     0.078 A 
ATOM     11  C   UNL A   1      32.668  19.863  25.066  1.00  0.00     0.163 A 
ATOM     12  C   UNL A   1      34.587  21.081  24.244  1.00  0.00     0.066 A 
ATOM     13  C   UNL A   1      33.991  19.882  24.624  1.00  0.00     0.162 A 
ATOM     14  O   UNL A   1      32.031  18.716  25.465  1.00  0.00    -0.486 OA
ATOM     15  O   UNL A   1      34.767  18.756  24.517  1.00  0.00    -0.486 OA
ATOM     16  C   UNL A   1      32.946  17.626  25.644  1.00  0.00     0.271 C 
ATOM     17  C   UNL A   1      33.955  17.575  24.510  1.00  0.00     0.271 C 
BRANCH   9  18
ATOM     18  N   UNL A   1      31.715  23.443  24.668  1.00  0.00    -0.278 N 
ATOM     19  H   UNL A   1      31.195  23.712  23.876  1.00  0.00     0.180 HD
BRANCH  18  20
ATOM     20  S   UNL A   1      31.701  24.383  26.070  1.00  0.00     0.271 S 
ATOM     21  O   UNL A   1      32.762  23.902  26.924  1.00  0.00    -0.200 OA
ATOM     22  O   UNL A   1      30.331  24.416  26.544  1.00  0.00    -0.200 OA
BRANCH  20  23
ATOM     23  C   UNL A   1      32.052  26.076  25.642  1.00  0.00     0.140 A 
ATOM     24  C   UNL A   1      32.029  29.970  26.129  1.00  0.00     0.056 C 
ATOM     25  C   UNL A   1      32.157  28.542  25.720  1.00  0.00     0.003 A 
ATOM     26  C   UNL A   1      32.634  28.041  24.527  1.00  0.00     0.016 A 
ATOM     27  S   UNL A   1      31.685  27.288  26.787  1.00  0.00    -0.127 S 
ATOM     28  C   UNL A   1      32.575  26.621  24.483  1.00  0.00     0.034 A 
ENDBRANCH  20  23
ENDBRANCH  18  20
ENDBRANCH   9  18
ENDBRANCH   5   8
ENDBRANCH   3   4
ENDBRANCH   2   3
ENDBRANCH   1   2
BRANCH   1  29
ATOM     29  C   UNL A   1      37.942  21.384  24.639  1.00  0.00     0.002 C 
BRANCH  29  30
ATOM     30  C   UNL A   1      38.248  19.894  24.805  1.00  0.00     0.021 C 
BRANCH  30  31
ATOM     31  C   UNL A   1      38.960  19.489  26.092  1.00  0.00     0.116 C 
BRANCH  31  32
ATOM     32  N   UNL A   1      40.257  18.878  25.866  1.00  0.00    -0.352 N 
ATOM     33  C   UNL A   1      41.512  19.425  25.987  1.00  0.00     0.251 C 
ATOM     34  H   UNL A   1      40.234  17.936  25.584  1.00  0.00     0.163 HD
ATOM     35  O   UNL A   1      42.500  18.775  25.660  1.00  0.00    -0.269 OA
BRANCH  33  36
ATOM     36  C   UNL A   1      41.680  20.811  26.480  1.00  0.00     0.039 A 
ATOM     37  C   UNL A   1      41.629  21.040  27.858  1.00  0.00     0.014 A 
ATOM     38  C   UNL A   1      41.880  21.880  25.601  1.00  0.00     0.014 A 
ATOM     39  C   UNL A   1      41.847  22.325  28.360  1.00  0.00     0.010 A 
ATOM     40  C   UNL A   1      42.153  23.152  26.105  1.00  0.00     0.010 A 
ATOM     41  C   UNL A   1      42.145  23.386  27.489  1.00  0.00    -0.014 A 
BRANCH  41  42
ATOM     42  C   UNL A   1      42.467  24.737  28.011  1.00  0.00     0.031 A 
ATOM     43  C   UNL A   1      43.872  25.078  28.426  1.00  0.00     0.074 A 
ATOM     44  C   UNL A   1      41.482  25.641  28.172  1.00  0.00     0.049 A 
ATOM     45  N   UNL A   1      44.328  26.177  28.972  1.00  0.00    -0.248 NA
ATOM     46  C   UNL A   1      44.891  24.038  28.222  1.00  0.00     0.031 C 
ATOM     47  C   UNL A   1      40.071  25.422  27.848  1.00  0.00     0.029 A 
ATOM     48  N   UNL A   1      41.515  26.923  28.663  1.00  0.00    -0.354 N 
ATOM     49  C   UNL A   1      45.682  25.956  29.190  1.00  0.00     0.074 A 
ATOM     50  C   UNL A   1      45.964  24.606  28.754  1.00  0.00     0.031 C 
ATOM     51  C   UNL A   1      39.377  26.536  28.133  1.00  0.00     0.029 A 
ATOM     52  C   UNL A   1      40.284  27.533  28.689  1.00  0.00     0.049 A 
ATOM     53  H   UNL A   1      42.342  27.363  28.966  1.00  0.00     0.167 HD
ATOM     54  C   UNL A   1      46.608  26.808  29.692  1.00  0.00     0.037 A 
ATOM     55  C   UNL A   1      39.927  28.759  29.119  1.00  0.00     0.037 A 
ATOM     56  C   UNL A   1      46.335  28.161  30.098  1.00  0.00     0.049 A 
ATOM     57  C   UNL A   1      40.975  29.686  29.664  1.00  0.00     0.074 A 
ATOM     58  C   UNL A   1      47.222  29.119  30.560  1.00  0.00     0.029 A 
ATOM     59  N   UNL A   1      45.080  28.750  30.090  1.00  0.00    -0.354 N 
ATOM     60  N   UNL A   1      42.261  29.483  29.814  1.00  0.00    -0.248 NA
ATOM     61  C   UNL A   1      40.522  31.017  30.098  1.00  0.00     0.031 C 
ATOM     62  C   UNL A   1      46.498  30.278  30.861  1.00  0.00     0.029 A 
ATOM     63  C   UNL A   1      45.167  30.052  30.553  1.00  0.00     0.049 A 
ATOM     64  H   UNL A   1      44.250  28.308  29.796  1.00  0.00     0.167 HD
ATOM     65  C   UNL A   1      42.774  30.662  30.336  1.00  0.00     0.074 A 
ATOM     66  C   UNL A   1      41.663  31.581  30.467  1.00  0.00     0.031 C 
ATOM     67  C   UNL A   1      44.053  30.956  30.676  1.00  0.00     0.037 A 
BRANCH  54  68
ATOM     68  C   UNL A   1      48.011  26.298  29.826  1.00  0.00     0.057 A 
ATOM     69  C   UNL A   1      48.942  26.423  28.787  1.00  0.00     0.134 A 
ATOM     70  C   UNL A   1      48.449  25.709  31.018  1.00  0.00     0.134 A 
ATOM     71  F   UNL A   1      48.582  26.967  27.615  1.00  0.00    -0.206 F 
ATOM     72  C   UNL A   1      50.252  25.962  28.921  1.00  0.00     0.040 A 
ATOM     73  C   UNL A   1      49.762  25.264  31.174  1.00  0.00     0.040 A 
ATOM     74  F   UNL A   1      47.609  25.563  32.054  1.00  0.00    -0.206 F 
ATOM     75  C   UNL A   1      50.666  25.385  30.121  1.00  0.00     0.006 A 
ENDBRANCH  54  68
BRANCH  55  76
ATOM     76  C   UNL A   1      38.511  29.188  29.032  1.00  0.00     0.057 A 
ATOM     77  C   UNL A   1      37.983  29.687  27.836  1.00  0.00     0.134 A 
ATOM     78  C   UNL A   1      37.654  29.113  30.135  1.00  0.00     0.134 A 
ATOM     79  F   UNL A   1      38.763  29.801  26.751  1.00  0.00    -0.206 F 
ATOM     80  C   UNL A   1      36.657  30.111  27.743  1.00  0.00     0.040 A 
ATOM     81  C   UNL A   1      36.320  29.515  30.053  1.00  0.00     0.040 A 
ATOM     82  F   UNL A   1      38.100  28.638  31.308  1.00  0.00    -0.206 F 
ATOM     83  C   UNL A   1      35.820  30.021  28.854  1.00  0.00     0.006 A 
ENDBRANCH  55  76
BRANCH  67  84
ATOM     84  C   UNL A   1      44.320  32.335  31.199  1.00  0.00     0.057 A 
ATOM     85  C   UNL A   1      44.264  32.625  32.569  1.00  0.00     0.134 A 
ATOM     86  C   UNL A   1      44.669  33.374  30.329  1.00  0.00     0.134 A 
ATOM     87  F   UNL A   1      43.923  31.674  33.451  1.00  0.00    -0.206 F 
ATOM     88  C   UNL A   1      44.531  33.907  33.052  1.00  0.00     0.040 A 
ATOM     89  C   UNL A   1      44.956  34.654  30.802  1.00  0.00     0.040 A 
ATOM     90  F   UNL A   1      44.744  33.158  29.007  1.00  0.00    -0.206 F 
ATOM     91  C   UNL A   1      44.883  34.925  32.167  1.00  0.00     0.006 A 
ENDBRANCH  67  84
ENDBRANCH  41  42
ENDBRANCH  33  36
ENDBRANCH  31  32
ENDBRANCH  30  31
ENDBRANCH  29  30
ENDBRANCH   1  29
TORSDOF 16
ENDMDL
