MODEL 1
REMARK VINA RESULT:     -10.7      0.000      0.000
REMARK SMILES CC(C)[C@@H]([NH2+][C@@H]1CSCC(C)(C)C1)C(=O)NCCCCCCNC(=O)c1ccc(-c2c3nc(c(-c4c(F)cccc4F)c4ccc([nH]4)c(-c4c(F)cccc4F)c4nc(c(-c5c(F)cccc5F)c5ccc2[nH]5)C=C4)C=C3)cc1
REMARK SMILES IDX 19 1 18 2 17 3 16 4 14 5 15 6 4 8 2 9 1 10 3 11 5 12 6 15
REMARK SMILES IDX 7 16 13 17 8 18 10 19 9 20 11 21 12 22 20 23 21 24 22 25
REMARK SMILES IDX 23 26 24 27 25 29 26 30 27 31 79 32 28 33 78 34 29 35 30 36
REMARK SMILES IDX 31 37 72 38 32 39 77 40 71 41 73 42 33 43 76 44 70 45 69 46
REMARK SMILES IDX 34 48 60 49 43 50 59 51 44 52 47 53 58 54 74 55 45 56 46 57
REMARK SMILES IDX 57 59 75 60 48 61 35 62 36 63 41 64 37 65 38 66 40 67 42 68
REMARK SMILES IDX 39 69 61 70 62 71 67 72 63 73 64 74 66 75 68 76 65 77 49 78
REMARK SMILES IDX 50 79 55 80 51 81 52 82 54 83 56 84 53 85
REMARK H PARENT 16 7 5 13 5 14 23 28 73 47 47 58
REMARK Flexibility Score: inf
ROOT
ATOM      1  C   UNL A   1      32.115  29.744  27.150  1.00  0.00     0.002 C 
ENDROOT
BRANCH   1   2
ATOM      2  C   UNL A   1      33.626  29.507  27.138  1.00  0.00     0.021 C 
BRANCH   2   3
ATOM      3  C   UNL A   1      34.033  28.303  26.301  1.00  0.00     0.116 C 
BRANCH   3   4
ATOM      4  N   UNL A   1      34.297  28.656  24.925  1.00  0.00    -0.351 N 
ATOM      5  C   UNL A   1      33.623  28.285  23.795  1.00  0.00     0.278 C 
ATOM      6  O   UNL A   1      33.962  28.798  22.723  1.00  0.00    -0.268 OA
ATOM      7  H   UNL A   1      35.072  29.247  24.780  1.00  0.00     0.163 HD
BRANCH   5   8
ATOM      8  C   UNL A   1      32.527  27.191  23.823  1.00  0.00     0.275 C 
BRANCH   8   9
ATOM      9  C   UNL A   1      31.528  27.448  22.642  1.00  0.00     0.051 C 
ATOM     10  C   UNL A   1      31.526  26.326  21.601  1.00  0.00     0.014 C 
ATOM     11  C   UNL A   1      30.088  27.664  23.140  1.00  0.00     0.014 C 
ENDBRANCH   8   9
BRANCH   8  12
ATOM     12  N   UNL A   1      33.118  25.823  23.813  1.00  0.00    -0.333 N 
ATOM     13  H   UNL A   1      34.133  25.931  23.802  1.00  0.00     0.347 HD
ATOM     14  H   UNL A   1      32.713  25.375  22.992  1.00  0.00     0.347 HD
BRANCH  12  15
ATOM     15  C   UNL A   1      32.784  24.913  24.937  1.00  0.00     0.193 C 
ATOM     16  C   UNL A   1      33.857  24.562  25.981  1.00  0.00     0.134 C 
ATOM     17  C   UNL A   1      32.189  23.576  24.405  1.00  0.00     0.073 C 
ATOM     18  S   UNL A   1      35.293  23.674  25.316  1.00  0.00    -0.155 SA
ATOM     19  C   UNL A   1      33.142  22.657  23.595  1.00  0.00    -0.021 C 
ATOM     20  C   UNL A   1      34.509  22.412  24.282  1.00  0.00     0.076 C 
ATOM     21  C   UNL A   1      33.288  23.177  22.151  1.00  0.00     0.012 C 
ATOM     22  C   UNL A   1      32.494  21.257  23.435  1.00  0.00     0.012 C 
ENDBRANCH  12  15
ENDBRANCH   8  12
ENDBRANCH   5   8
ENDBRANCH   3   4
ENDBRANCH   2   3
ENDBRANCH   1   2
BRANCH   1  23
ATOM     23  C   UNL A   1      31.601  30.727  26.089  1.00  0.00     0.002 C 
BRANCH  23  24
ATOM     24  C   UNL A   1      31.368  32.158  26.576  1.00  0.00     0.021 C 
BRANCH  24  25
ATOM     25  C   UNL A   1      32.578  32.809  27.235  1.00  0.00     0.116 C 
BRANCH  25  26
ATOM     26  N   UNL A   1      32.336  34.201  27.579  1.00  0.00    -0.352 N 
ATOM     27  C   UNL A   1      32.934  34.984  28.534  1.00  0.00     0.251 C 
ATOM     28  H   UNL A   1      31.638  34.648  27.047  1.00  0.00     0.163 HD
ATOM     29  O   UNL A   1      32.477  36.086  28.806  1.00  0.00    -0.269 OA
BRANCH  27  30
ATOM     30  C   UNL A   1      34.123  34.479  29.252  1.00  0.00     0.039 A 
ATOM     31  C   UNL A   1      33.949  33.883  30.503  1.00  0.00     0.014 A 
ATOM     32  C   UNL A   1      35.400  34.599  28.699  1.00  0.00     0.014 A 
ATOM     33  C   UNL A   1      35.053  33.357  31.175  1.00  0.00     0.010 A 
ATOM     34  C   UNL A   1      36.486  34.005  29.332  1.00  0.00     0.010 A 
ATOM     35  C   UNL A   1      36.324  33.384  30.580  1.00  0.00    -0.014 A 
BRANCH  35  36
ATOM     36  C   UNL A   1      37.496  32.768  31.250  1.00  0.00     0.031 A 
ATOM     37  C   UNL A   1      38.167  31.566  30.647  1.00  0.00     0.074 A 
ATOM     38  C   UNL A   1      37.920  33.259  32.432  1.00  0.00     0.049 A 
ATOM     39  N   UNL A   1      39.164  30.855  31.111  1.00  0.00    -0.248 NA
ATOM     40  C   UNL A   1      37.630  31.081  29.366  1.00  0.00     0.031 C 
ATOM     41  C   UNL A   1      37.323  34.393  33.140  1.00  0.00     0.029 A 
ATOM     42  N   UNL A   1      38.945  32.860  33.251  1.00  0.00    -0.354 N 
ATOM     43  C   UNL A   1      39.364  29.838  30.187  1.00  0.00     0.074 A 
ATOM     44  C   UNL A   1      38.350  29.987  29.167  1.00  0.00     0.031 C 
ATOM     45  C   UNL A   1      38.009  34.615  34.272  1.00  0.00     0.029 A 
ATOM     46  C   UNL A   1      39.064  33.615  34.393  1.00  0.00     0.049 A 
ATOM     47  H   UNL A   1      39.541  32.105  33.039  1.00  0.00     0.167 HD
ATOM     48  C   UNL A   1      40.322  28.882  30.177  1.00  0.00     0.037 A 
ATOM     49  C   UNL A   1      39.921  33.506  35.424  1.00  0.00     0.037 A 
ATOM     50  C   UNL A   1      41.340  28.748  31.188  1.00  0.00     0.049 A 
ATOM     51  C   UNL A   1      40.963  32.420  35.400  1.00  0.00     0.074 A 
ATOM     52  C   UNL A   1      42.389  27.847  31.240  1.00  0.00     0.029 A 
ATOM     53  N   UNL A   1      41.432  29.535  32.326  1.00  0.00    -0.354 N 
ATOM     54  N   UNL A   1      41.185  31.508  34.486  1.00  0.00    -0.248 NA
ATOM     55  C   UNL A   1      41.876  32.354  36.549  1.00  0.00     0.031 C 
ATOM     56  C   UNL A   1      43.081  28.052  32.438  1.00  0.00     0.029 A 
ATOM     57  C   UNL A   1      42.502  29.122  33.102  1.00  0.00     0.049 A 
ATOM     58  H   UNL A   1      40.825  30.278  32.550  1.00  0.00     0.167 HD
ATOM     59  C   UNL A   1      42.281  30.780  34.932  1.00  0.00     0.074 A 
ATOM     60  C   UNL A   1      42.686  31.368  36.192  1.00  0.00     0.031 C 
ATOM     61  C   UNL A   1      42.896  29.721  34.352  1.00  0.00     0.037 A 
BRANCH  48  62
ATOM     62  C   UNL A   1      40.315  27.903  29.037  1.00  0.00     0.057 A 
ATOM     63  C   UNL A   1      39.536  26.739  29.064  1.00  0.00     0.134 A 
ATOM     64  C   UNL A   1      41.071  28.145  27.882  1.00  0.00     0.134 A 
ATOM     65  F   UNL A   1      38.796  26.441  30.143  1.00  0.00    -0.206 F 
ATOM     66  C   UNL A   1      39.531  25.837  27.999  1.00  0.00     0.040 A 
ATOM     67  C   UNL A   1      41.050  27.266  26.798  1.00  0.00     0.040 A 
ATOM     68  F   UNL A   1      41.835  29.243  27.785  1.00  0.00    -0.206 F 
ATOM     69  C   UNL A   1      40.284  26.104  26.858  1.00  0.00     0.006 A 
ENDBRANCH  48  62
BRANCH  49  70
ATOM     70  C   UNL A   1      39.844  34.458  36.561  1.00  0.00     0.057 A 
ATOM     71  C   UNL A   1      40.512  35.687  36.523  1.00  0.00     0.134 A 
ATOM     72  C   UNL A   1      39.111  34.160  37.717  1.00  0.00     0.134 A 
ATOM     73  F   UNL A   1      41.245  36.023  35.451  1.00  0.00    -0.206 F 
ATOM     74  C   UNL A   1      40.477  36.574  37.600  1.00  0.00     0.040 A 
ATOM     75  C   UNL A   1      39.043  35.051  38.790  1.00  0.00     0.040 A 
ATOM     76  F   UNL A   1      38.439  33.003  37.816  1.00  0.00    -0.206 F 
ATOM     77  C   UNL A   1      39.736  36.259  38.737  1.00  0.00     0.006 A 
ENDBRANCH  49  70
BRANCH  61  78
ATOM     78  C   UNL A   1      44.098  29.154  35.053  1.00  0.00     0.057 A 
ATOM     79  C   UNL A   1      43.990  28.125  35.996  1.00  0.00     0.134 A 
ATOM     80  C   UNL A   1      45.383  29.619  34.749  1.00  0.00     0.134 A 
ATOM     81  F   UNL A   1      42.786  27.642  36.343  1.00  0.00    -0.206 F 
ATOM     82  C   UNL A   1      45.115  27.597  36.632  1.00  0.00     0.040 A 
ATOM     83  C   UNL A   1      46.518  29.079  35.354  1.00  0.00     0.040 A 
ATOM     84  F   UNL A   1      45.560  30.596  33.847  1.00  0.00    -0.206 F 
ATOM     85  C   UNL A   1      46.385  28.069  36.305  1.00  0.00     0.006 A 
ENDBRANCH  61  78
ENDBRANCH  35  36
ENDBRANCH  27  30
ENDBRANCH  25  26
ENDBRANCH  24  25
ENDBRANCH  23  24
ENDBRANCH   1  23
TORSDOF 16
ENDMDL
MODEL 2
REMARK VINA RESULT:     -10.6      4.437      9.291
REMARK SMILES CC(C)[C@@H]([NH2+][C@@H]1CSCC(C)(C)C1)C(=O)NCCCCCCNC(=O)c1ccc(-c2c3nc(c(-c4c(F)cccc4F)c4ccc([nH]4)c(-c4c(F)cccc4F)c4nc(c(-c5c(F)cccc5F)c5ccc2[nH]5)C=C4)C=C3)cc1
REMARK SMILES IDX 19 1 18 2 17 3 16 4 14 5 15 6 4 8 2 9 1 10 3 11 5 12 6 15
REMARK SMILES IDX 7 16 13 17 8 18 10 19 9 20 11 21 12 22 20 23 21 24 22 25
REMARK SMILES IDX 23 26 24 27 25 29 26 30 27 31 79 32 28 33 78 34 29 35 30 36
REMARK SMILES IDX 31 37 72 38 32 39 77 40 71 41 73 42 33 43 76 44 70 45 69 46
REMARK SMILES IDX 34 48 60 49 43 50 59 51 44 52 47 53 58 54 74 55 45 56 46 57
REMARK SMILES IDX 57 59 75 60 48 61 35 62 36 63 41 64 37 65 38 66 40 67 42 68
REMARK SMILES IDX 39 69 61 70 62 71 67 72 63 73 64 74 66 75 68 76 65 77 49 78
REMARK SMILES IDX 50 79 55 80 51 81 52 82 54 83 56 84 53 85
REMARK H PARENT 16 7 5 13 5 14 23 28 73 47 47 58
REMARK Flexibility Score: inf
ROOT
ATOM      1  C   UNL A   1      36.791  21.986  24.891  1.00  0.00     0.002 C 
ENDROOT
BRANCH   1   2
ATOM      2  C   UNL A   1      36.564  22.634  23.524  1.00  0.00     0.021 C 
BRANCH   2   3
ATOM      3  C   UNL A   1      35.203  23.302  23.400  1.00  0.00     0.116 C 
BRANCH   3   4
ATOM      4  N   UNL A   1      34.977  24.285  24.434  1.00  0.00    -0.351 N 
ATOM      5  C   UNL A   1      33.825  24.580  25.108  1.00  0.00     0.278 C 
ATOM      6  O   UNL A   1      33.889  25.391  26.039  1.00  0.00    -0.268 OA
ATOM      7  H   UNL A   1      35.765  24.817  24.692  1.00  0.00     0.163 HD
BRANCH   5   8
ATOM      8  C   UNL A   1      32.458  23.997  24.674  1.00  0.00     0.275 C 
BRANCH   8   9
ATOM      9  C   UNL A   1      32.110  22.782  25.603  1.00  0.00     0.051 C 
ATOM     10  C   UNL A   1      30.754  22.925  26.300  1.00  0.00     0.014 C 
ATOM     11  C   UNL A   1      32.137  21.446  24.840  1.00  0.00     0.014 C 
ENDBRANCH   8   9
BRANCH   8  12
ATOM     12  N   UNL A   1      31.399  25.046  24.648  1.00  0.00    -0.333 N 
ATOM     13  H   UNL A   1      31.785  25.879  25.094  1.00  0.00     0.347 HD
ATOM     14  H   UNL A   1      30.604  24.619  25.124  1.00  0.00     0.347 HD
BRANCH  12  15
ATOM     15  C   UNL A   1      30.862  25.460  23.328  1.00  0.00     0.193 C 
ATOM     16  C   UNL A   1      31.800  25.529  22.111  1.00  0.00     0.134 C 
ATOM     17  C   UNL A   1      30.128  26.828  23.436  1.00  0.00     0.073 C 
ATOM     18  S   UNL A   1      33.143  26.739  22.262  1.00  0.00    -0.155 SA
ATOM     19  C   UNL A   1      31.001  28.068  23.767  1.00  0.00    -0.021 C 
ATOM     20  C   UNL A   1      32.268  28.196  22.886  1.00  0.00     0.076 C 
ATOM     21  C   UNL A   1      31.320  28.111  25.275  1.00  0.00     0.012 C 
ATOM     22  C   UNL A   1      30.179  29.359  23.513  1.00  0.00     0.012 C 
ENDBRANCH  12  15
ENDBRANCH   8  12
ENDBRANCH   5   8
ENDBRANCH   3   4
ENDBRANCH   2   3
ENDBRANCH   1   2
BRANCH   1  23
ATOM     23  C   UNL A   1      36.546  20.471  24.941  1.00  0.00     0.002 C 
BRANCH  23  24
ATOM     24  C   UNL A   1      37.805  19.601  24.920  1.00  0.00     0.021 C 
BRANCH  24  25
ATOM     25  C   UNL A   1      38.981  20.168  25.707  1.00  0.00     0.116 C 
BRANCH  25  26
ATOM     26  N   UNL A   1      40.101  19.242  25.766  1.00  0.00    -0.352 N 
ATOM     27  C   UNL A   1      41.417  19.479  26.072  1.00  0.00     0.251 C 
ATOM     28  H   UNL A   1      39.881  18.306  25.554  1.00  0.00     0.163 HD
ATOM     29  O   UNL A   1      42.259  18.609  25.897  1.00  0.00    -0.269 OA
BRANCH  27  30
ATOM     30  C   UNL A   1      41.819  20.801  26.595  1.00  0.00     0.039 A 
ATOM     31  C   UNL A   1      42.285  21.765  25.699  1.00  0.00     0.014 A 
ATOM     32  C   UNL A   1      41.742  21.087  27.960  1.00  0.00     0.014 A 
ATOM     33  C   UNL A   1      42.623  23.035  26.166  1.00  0.00     0.010 A 
ATOM     34  C   UNL A   1      42.003  22.376  28.413  1.00  0.00     0.010 A 
ATOM     35  C   UNL A   1      42.453  23.360  27.521  1.00  0.00    -0.014 A 
BRANCH  35  36
ATOM     36  C   UNL A   1      42.743  24.727  28.023  1.00  0.00     0.031 A 
ATOM     37  C   UNL A   1      44.144  25.109  28.410  1.00  0.00     0.074 A 
ATOM     38  C   UNL A   1      41.733  25.604  28.182  1.00  0.00     0.049 A 
ATOM     39  N   UNL A   1      44.585  26.231  28.921  1.00  0.00    -0.248 NA
ATOM     40  C   UNL A   1      45.185  24.085  28.224  1.00  0.00     0.031 C 
ATOM     41  C   UNL A   1      40.325  25.337  27.884  1.00  0.00     0.029 A 
ATOM     42  N   UNL A   1      41.734  26.896  28.644  1.00  0.00    -0.354 N 
ATOM     43  C   UNL A   1      45.946  26.044  29.125  1.00  0.00     0.074 A 
ATOM     44  C   UNL A   1      46.248  24.683  28.740  1.00  0.00     0.031 C 
ATOM     45  C   UNL A   1      39.604  26.438  28.145  1.00  0.00     0.029 A 
ATOM     46  C   UNL A   1      40.488  27.473  28.669  1.00  0.00     0.049 A 
ATOM     47  H   UNL A   1      42.552  27.366  28.929  1.00  0.00     0.167 HD
ATOM     48  C   UNL A   1      46.864  26.934  29.570  1.00  0.00     0.037 A 
ATOM     49  C   UNL A   1      40.102  28.696  29.076  1.00  0.00     0.037 A 
ATOM     50  C   UNL A   1      46.559  28.293  29.937  1.00  0.00     0.049 A 
ATOM     51  C   UNL A   1      41.138  29.659  29.588  1.00  0.00     0.074 A 
ATOM     52  C   UNL A   1      47.426  29.290  30.348  1.00  0.00     0.029 A 
ATOM     53  N   UNL A   1      45.286  28.843  29.943  1.00  0.00    -0.354 N 
ATOM     54  N   UNL A   1      42.433  29.493  29.711  1.00  0.00    -0.248 NA
ATOM     55  C   UNL A   1      40.660  30.982  30.012  1.00  0.00     0.031 C 
ATOM     56  C   UNL A   1      46.672  30.425  30.657  1.00  0.00     0.029 A 
ATOM     57  C   UNL A   1      45.340  30.157  30.378  1.00  0.00     0.049 A 
ATOM     58  H   UNL A   1      44.464  28.369  29.678  1.00  0.00     0.167 HD
ATOM     59  C   UNL A   1      42.928  30.697  30.195  1.00  0.00     0.074 A 
ATOM     60  C   UNL A   1      41.794  31.589  30.329  1.00  0.00     0.031 C 
ATOM     61  C   UNL A   1      44.204  31.035  30.501  1.00  0.00     0.037 A 
BRANCH  48  62
ATOM     62  C   UNL A   1      48.286  26.465  29.686  1.00  0.00     0.057 A 
ATOM     63  C   UNL A   1      49.212  26.642  28.650  1.00  0.00     0.134 A 
ATOM     64  C   UNL A   1      48.746  25.857  30.862  1.00  0.00     0.134 A 
ATOM     65  F   UNL A   1      48.837  27.206  27.492  1.00  0.00    -0.206 F 
ATOM     66  C   UNL A   1      50.534  26.207  28.766  1.00  0.00     0.040 A 
ATOM     67  C   UNL A   1      50.073  25.446  31.003  1.00  0.00     0.040 A 
ATOM     68  F   UNL A   1      47.916  25.662  31.898  1.00  0.00    -0.206 F 
ATOM     69  C   UNL A   1      50.969  25.614  29.949  1.00  0.00     0.006 A 
ENDBRANCH  48  62
BRANCH  49  70
ATOM     70  C   UNL A   1      38.671  29.088  29.005  1.00  0.00     0.057 A 
ATOM     71  C   UNL A   1      38.116  29.586  27.821  1.00  0.00     0.134 A 
ATOM     72  C   UNL A   1      37.828  28.988  30.118  1.00  0.00     0.134 A 
ATOM     73  F   UNL A   1      38.876  29.722  26.724  1.00  0.00    -0.206 F 
ATOM     74  C   UNL A   1      36.782  29.992  27.751  1.00  0.00     0.040 A 
ATOM     75  C   UNL A   1      36.485  29.362  30.055  1.00  0.00     0.040 A 
ATOM     76  F   UNL A   1      38.294  28.510  31.282  1.00  0.00    -0.206 F 
ATOM     77  C   UNL A   1      35.960  29.875  28.870  1.00  0.00     0.006 A 
ENDBRANCH  49  70
BRANCH  61  78
ATOM     78  C   UNL A   1      44.451  32.439  30.974  1.00  0.00     0.057 A 
ATOM     79  C   UNL A   1      44.698  33.489  30.082  1.00  0.00     0.134 A 
ATOM     80  C   UNL A   1      44.400  32.748  32.339  1.00  0.00     0.134 A 
ATOM     81  F   UNL A   1      44.772  33.259  28.762  1.00  0.00    -0.206 F 
ATOM     82  C   UNL A   1      44.913  34.794  30.532  1.00  0.00     0.040 A 
ATOM     83  C   UNL A   1      44.582  34.053  32.800  1.00  0.00     0.040 A 
ATOM     84  F   UNL A   1      44.157  31.792  33.247  1.00  0.00    -0.206 F 
ATOM     85  C   UNL A   1      44.847  35.079  31.895  1.00  0.00     0.006 A 
ENDBRANCH  61  78
ENDBRANCH  35  36
ENDBRANCH  27  30
ENDBRANCH  25  26
ENDBRANCH  24  25
ENDBRANCH  23  24
ENDBRANCH   1  23
TORSDOF 16
ENDMDL
MODEL 3
REMARK VINA RESULT:     -10.5      1.003      6.336
REMARK SMILES CC(C)[C@@H]([NH2+][C@@H]1CSCC(C)(C)C1)C(=O)NCCCCCCNC(=O)c1ccc(-c2c3nc(c(-c4c(F)cccc4F)c4ccc([nH]4)c(-c4c(F)cccc4F)c4nc(c(-c5c(F)cccc5F)c5ccc2[nH]5)C=C4)C=C3)cc1
REMARK SMILES IDX 19 1 18 2 17 3 16 4 14 5 15 6 4 8 2 9 1 10 3 11 5 12 6 15
REMARK SMILES IDX 7 16 13 17 8 18 10 19 9 20 11 21 12 22 20 23 21 24 22 25
REMARK SMILES IDX 23 26 24 27 25 29 26 30 27 31 79 32 28 33 78 34 29 35 30 36
REMARK SMILES IDX 31 37 72 38 32 39 77 40 71 41 73 42 33 43 76 44 70 45 69 46
REMARK SMILES IDX 34 48 60 49 43 50 59 51 44 52 47 53 58 54 74 55 45 56 46 57
REMARK SMILES IDX 57 59 75 60 48 61 35 62 36 63 41 64 37 65 38 66 40 67 42 68
REMARK SMILES IDX 39 69 61 70 62 71 67 72 63 73 64 74 66 75 68 76 65 77 49 78
REMARK SMILES IDX 50 79 55 80 51 81 52 82 54 83 56 84 53 85
REMARK H PARENT 16 7 5 13 5 14 23 28 73 47 47 58
REMARK Flexibility Score: inf
ROOT
ATOM      1  C   UNL A   1      31.736  29.601  26.446  1.00  0.00     0.002 C 
ENDROOT
BRANCH   1   2
ATOM      2  C   UNL A   1      33.095  29.470  27.135  1.00  0.00     0.021 C 
BRANCH   2   3
ATOM      3  C   UNL A   1      33.982  28.406  26.506  1.00  0.00     0.116 C 
BRANCH   3   4
ATOM      4  N   UNL A   1      34.365  28.741  25.154  1.00  0.00    -0.351 N 
ATOM      5  C   UNL A   1      33.858  28.273  23.973  1.00  0.00     0.278 C 
ATOM      6  O   UNL A   1      34.267  28.784  22.924  1.00  0.00    -0.268 OA
ATOM      7  H   UNL A   1      35.093  29.399  25.070  1.00  0.00     0.163 HD
BRANCH   5   8
ATOM      8  C   UNL A   1      32.872  27.080  23.927  1.00  0.00     0.275 C 
BRANCH   8   9
ATOM      9  C   UNL A   1      31.782  27.369  22.836  1.00  0.00     0.051 C 
ATOM     10  C   UNL A   1      31.642  26.241  21.811  1.00  0.00     0.014 C 
ATOM     11  C   UNL A   1      30.403  27.648  23.459  1.00  0.00     0.014 C 
ENDBRANCH   8   9
BRANCH   8  12
ATOM     12  N   UNL A   1      33.585  25.787  23.724  1.00  0.00    -0.333 N 
ATOM     13  H   UNL A   1      34.258  25.926  22.969  1.00  0.00     0.347 HD
ATOM     14  H   UNL A   1      32.844  25.113  23.535  1.00  0.00     0.347 HD
BRANCH  12  15
ATOM     15  C   UNL A   1      34.326  25.214  24.875  1.00  0.00     0.193 C 
ATOM     16  C   UNL A   1      35.342  24.083  24.643  1.00  0.00     0.134 C 
ATOM     17  C   UNL A   1      33.341  24.740  25.984  1.00  0.00     0.073 C 
ATOM     18  S   UNL A   1      34.630  22.554  23.975  1.00  0.00    -0.155 SA
ATOM     19  C   UNL A   1      32.420  23.540  25.638  1.00  0.00    -0.021 C 
ATOM     20  C   UNL A   1      33.169  22.333  25.021  1.00  0.00     0.076 C 
ATOM     21  C   UNL A   1      31.233  24.008  24.771  1.00  0.00     0.012 C 
ATOM     22  C   UNL A   1      31.759  23.008  26.936  1.00  0.00     0.012 C 
ENDBRANCH  12  15
ENDBRANCH   8  12
ENDBRANCH   5   8
ENDBRANCH   3   4
ENDBRANCH   2   3
ENDBRANCH   1   2
BRANCH   1  23
ATOM     23  C   UNL A   1      31.435  30.987  25.859  1.00  0.00     0.002 C 
BRANCH  23  24
ATOM     24  C   UNL A   1      31.377  32.132  26.874  1.00  0.00     0.021 C 
BRANCH  24  25
ATOM     25  C   UNL A   1      32.690  32.884  27.057  1.00  0.00     0.116 C 
BRANCH  25  26
ATOM     26  N   UNL A   1      32.488  34.219  27.597  1.00  0.00    -0.352 N 
ATOM     27  C   UNL A   1      33.102  34.836  28.658  1.00  0.00     0.251 C 
ATOM     28  H   UNL A   1      31.810  34.761  27.132  1.00  0.00     0.163 HD
ATOM     29  O   UNL A   1      32.678  35.902  29.083  1.00  0.00    -0.269 OA
BRANCH  27  30
ATOM     30  C   UNL A   1      34.268  34.195  29.301  1.00  0.00     0.039 A 
ATOM     31  C   UNL A   1      34.052  33.343  30.386  1.00  0.00     0.014 A 
ATOM     32  C   UNL A   1      35.564  34.436  28.841  1.00  0.00     0.014 A 
ATOM     33  C   UNL A   1      35.134  32.690  30.976  1.00  0.00     0.010 A 
ATOM     34  C   UNL A   1      36.632  33.725  29.378  1.00  0.00     0.010 A 
ATOM     35  C   UNL A   1      36.428  32.851  30.455  1.00  0.00    -0.014 A 
BRANCH  35  36
ATOM     36  C   UNL A   1      37.581  32.111  31.027  1.00  0.00     0.031 A 
ATOM     37  C   UNL A   1      38.103  32.463  32.391  1.00  0.00     0.074 A 
ATOM     38  C   UNL A   1      38.191  31.160  30.292  1.00  0.00     0.049 A 
ATOM     39  N   UNL A   1      39.132  31.972  33.036  1.00  0.00    -0.248 NA
ATOM     40  C   UNL A   1      37.393  33.527  33.119  1.00  0.00     0.031 C 
ATOM     41  C   UNL A   1      37.805  30.760  28.938  1.00  0.00     0.029 A 
ATOM     42  N   UNL A   1      39.272  30.365  30.578  1.00  0.00    -0.354 N 
ATOM     43  C   UNL A   1      39.196  32.672  34.233  1.00  0.00     0.074 A 
ATOM     44  C   UNL A   1      38.142  33.661  34.203  1.00  0.00     0.031 C 
ATOM     45  C   UNL A   1      38.618  29.777  28.522  1.00  0.00     0.029 A 
ATOM     46  C   UNL A   1      39.609  29.507  29.559  1.00  0.00     0.049 A 
ATOM     47  H   UNL A   1      39.758  30.403  31.433  1.00  0.00     0.167 HD
ATOM     48  C   UNL A   1      40.043  32.490  35.274  1.00  0.00     0.037 A 
ATOM     49  C   UNL A   1      40.610  28.612  29.468  1.00  0.00     0.037 A 
ATOM     50  C   UNL A   1      41.081  31.493  35.306  1.00  0.00     0.049 A 
ATOM     51  C   UNL A   1      41.551  28.445  30.630  1.00  0.00     0.074 A 
ATOM     52  C   UNL A   1      41.956  31.191  36.335  1.00  0.00     0.029 A 
ATOM     53  N   UNL A   1      41.389  30.639  34.257  1.00  0.00    -0.354 N 
ATOM     54  N   UNL A   1      41.557  29.065  31.785  1.00  0.00    -0.248 NA
ATOM     55  C   UNL A   1      42.620  27.448  30.478  1.00  0.00     0.031 C 
ATOM     56  C   UNL A   1      42.828  30.195  35.889  1.00  0.00     0.029 A 
ATOM     57  C   UNL A   1      42.458  29.830  34.603  1.00  0.00     0.049 A 
ATOM     58  H   UNL A   1      40.916  30.612  33.394  1.00  0.00     0.167 HD
ATOM     59  C   UNL A   1      42.608  28.513  32.508  1.00  0.00     0.074 A 
ATOM     60  C   UNL A   1      43.205  27.498  31.665  1.00  0.00     0.031 C 
ATOM     61  C   UNL A   1      43.039  28.819  33.756  1.00  0.00     0.037 A 
BRANCH  48  62
ATOM     62  C   UNL A   1      39.881  33.390  36.466  1.00  0.00     0.057 A 
ATOM     63  C   UNL A   1      40.603  34.584  36.598  1.00  0.00     0.134 A 
ATOM     64  C   UNL A   1      38.966  33.077  37.480  1.00  0.00     0.134 A 
ATOM     65  F   UNL A   1      41.503  34.940  35.670  1.00  0.00    -0.206 F 
ATOM     66  C   UNL A   1      40.443  35.417  37.707  1.00  0.00     0.040 A 
ATOM     67  C   UNL A   1      38.775  33.917  38.579  1.00  0.00     0.040 A 
ATOM     68  F   UNL A   1      38.236  31.953  37.416  1.00  0.00    -0.206 F 
ATOM     69  C   UNL A   1      39.521  35.088  38.697  1.00  0.00     0.006 A 
ENDBRANCH  48  62
BRANCH  49  70
ATOM     70  C   UNL A   1      40.768  27.793  28.239  1.00  0.00     0.057 A 
ATOM     71  C   UNL A   1      41.523  28.253  27.155  1.00  0.00     0.134 A 
ATOM     72  C   UNL A   1      40.159  26.538  28.113  1.00  0.00     0.134 A 
ATOM     73  F   UNL A   1      42.117  29.455  27.208  1.00  0.00    -0.206 F 
ATOM     74  C   UNL A   1      41.649  27.509  25.981  1.00  0.00     0.040 A 
ATOM     75  C   UNL A   1      40.300  25.770  26.956  1.00  0.00     0.040 A 
ATOM     76  F   UNL A   1      39.428  26.034  29.118  1.00  0.00    -0.206 F 
ATOM     77  C   UNL A   1      41.040  26.260  25.881  1.00  0.00     0.006 A 
ENDBRANCH  49  70
BRANCH  61  78
ATOM     78  C   UNL A   1      44.187  28.020  34.303  1.00  0.00     0.057 A 
ATOM     79  C   UNL A   1      43.998  26.784  34.933  1.00  0.00     0.134 A 
ATOM     80  C   UNL A   1      45.503  28.478  34.161  1.00  0.00     0.134 A 
ATOM     81  F   UNL A   1      42.762  26.293  35.112  1.00  0.00    -0.206 F 
ATOM     82  C   UNL A   1      45.075  26.044  35.426  1.00  0.00     0.040 A 
ATOM     83  C   UNL A   1      46.590  27.734  34.621  1.00  0.00     0.040 A 
ATOM     84  F   UNL A   1      45.756  29.650  33.558  1.00  0.00    -0.206 F 
ATOM     85  C   UNL A   1      46.376  26.516  35.263  1.00  0.00     0.006 A 
ENDBRANCH  61  78
ENDBRANCH  35  36
ENDBRANCH  27  30
ENDBRANCH  25  26
ENDBRANCH  24  25
ENDBRANCH  23  24
ENDBRANCH   1  23
TORSDOF 16
ENDMDL
