MODEL 1
REMARK VINA RESULT:      -9.2      0.000      0.000
REMARK SMILES C/C(=C\C(=O)NCCCCCCNC(=O)c1ccc(-c2c3nc(c(-c4c(F)cccc4F)c4ccc([nH]4)c(-c4c(F)cccc4F)c4nc(c(-c5c(F)cccc5F)c5ccc2[nH]5)C=C4)C=C3)cc1)CSc1ccc(N)c(C)c1
REMARK SMILES IDX 8 1 7 2 6 3 4 4 5 5 3 7 1 8 2 9 70 10 71 11 72 12 73 13
REMARK SMILES IDX 79 14 74 15 77 16 75 17 78 18 76 19 9 22 10 23 11 24 12 25
REMARK SMILES IDX 13 26 14 27 15 29 16 30 17 31 69 32 18 33 68 34 19 35 20 36
REMARK SMILES IDX 21 37 62 38 22 39 67 40 61 41 63 42 23 43 66 44 60 45 59 46
REMARK SMILES IDX 24 48 50 49 33 50 49 51 34 52 37 53 48 54 64 55 35 56 36 57
REMARK SMILES IDX 47 59 65 60 38 61 25 62 26 63 31 64 27 65 28 66 30 67 32 68
REMARK SMILES IDX 29 69 51 70 52 71 57 72 53 73 54 74 56 75 58 76 55 77 39 78
REMARK SMILES IDX 40 79 45 80 41 81 42 82 44 83 46 84 43 85
REMARK H PARENT 6 6 76 20 76 21 13 28 63 47 37 58
REMARK Flexibility Score: inf
ROOT
ATOM      1  C   UNL A   1      46.591  24.029  25.343  1.00  0.00     0.021 C 
ENDROOT
BRANCH   1   2
ATOM      2  C   UNL A   1      46.254  25.491  25.038  1.00  0.00     0.116 C 
BRANCH   2   3
ATOM      3  N   UNL A   1      44.837  25.663  24.845  1.00  0.00    -0.353 N 
ATOM      4  C   UNL A   1      43.939  26.570  25.272  1.00  0.00     0.243 C 
ATOM      5  O   UNL A   1      42.779  26.426  24.869  1.00  0.00    -0.270 OA
ATOM      6  H   UNL A   1      44.437  24.964  24.279  1.00  0.00     0.163 HD
BRANCH   4   7
ATOM      7  C   UNL A   1      44.197  27.755  26.139  1.00  0.00     0.071 C 
ATOM      8  C   UNL A   1      42.221  29.360  26.376  1.00  0.00     0.040 C 
ATOM      9  C   UNL A   1      43.623  28.888  26.604  1.00  0.00    -0.058 C 
BRANCH   9  10
ATOM     10  C   UNL A   1      44.479  29.819  27.453  1.00  0.00     0.105 C 
BRANCH  10  11
ATOM     11  S   UNL A   1      45.991  30.428  26.617  1.00  0.00    -0.122 SA
BRANCH  11  12
ATOM     12  C   UNL A   1      45.737  32.189  26.462  1.00  0.00     0.008 A 
ATOM     13  C   UNL A   1      46.777  33.034  26.856  1.00  0.00     0.017 A 
ATOM     14  C   UNL A   1      44.576  32.764  25.945  1.00  0.00     0.020 A 
ATOM     15  C   UNL A   1      46.655  34.421  26.729  1.00  0.00     0.027 A 
ATOM     16  C   UNL A   1      44.421  34.162  25.863  1.00  0.00    -0.027 A 
ATOM     17  C   UNL A   1      45.498  34.998  26.197  1.00  0.00     0.034 A 
ATOM     18  C   UNL A   1      43.105  34.716  25.391  1.00  0.00     0.046 C 
BRANCH  17  19
ATOM     19  N   UNL A   1      45.400  36.382  26.133  1.00  0.00    -0.399 N 
ATOM     20  H   UNL A   1      44.624  36.801  25.696  1.00  0.00     0.156 HD
ATOM     21  H   UNL A   1      46.108  36.945  26.525  1.00  0.00     0.156 HD
ENDBRANCH  17  19
ENDBRANCH  11  12
ENDBRANCH  10  11
ENDBRANCH   9  10
ENDBRANCH   4   7
ENDBRANCH   2   3
ENDBRANCH   1   2
BRANCH   1  22
ATOM     22  C   UNL A   1      45.638  23.028  24.681  1.00  0.00     0.002 C 
BRANCH  22  23
ATOM     23  C   UNL A   1      45.648  21.626  25.307  1.00  0.00     0.002 C 
BRANCH  23  24
ATOM     24  C   UNL A   1      44.876  20.558  24.528  1.00  0.00     0.021 C 
BRANCH  24  25
ATOM     25  C   UNL A   1      44.449  19.354  25.363  1.00  0.00     0.116 C 
BRANCH  25  26
ATOM     26  N   UNL A   1      43.024  19.090  25.226  1.00  0.00    -0.352 N 
ATOM     27  C   UNL A   1      41.960  19.736  25.798  1.00  0.00     0.251 C 
ATOM     28  H   UNL A   1      42.790  18.337  24.637  1.00  0.00     0.163 HD
ATOM     29  O   UNL A   1      40.845  19.215  25.793  1.00  0.00    -0.269 OA
BRANCH  27  30
ATOM     30  C   UNL A   1      42.146  21.061  26.422  1.00  0.00     0.039 A 
ATOM     31  C   UNL A   1      42.327  21.144  27.804  1.00  0.00     0.014 A 
ATOM     32  C   UNL A   1      42.101  22.224  25.647  1.00  0.00     0.014 A 
ATOM     33  C   UNL A   1      42.510  22.393  28.404  1.00  0.00     0.010 A 
ATOM     34  C   UNL A   1      42.352  23.460  26.234  1.00  0.00     0.010 A 
ATOM     35  C   UNL A   1      42.548  23.557  27.620  1.00  0.00    -0.014 A 
BRANCH  35  36
ATOM     36  C   UNL A   1      42.774  24.890  28.231  1.00  0.00     0.031 A 
ATOM     37  C   UNL A   1      44.135  25.257  28.754  1.00  0.00     0.074 A 
ATOM     38  C   UNL A   1      41.740  25.742  28.370  1.00  0.00     0.049 A 
ATOM     39  N   UNL A   1      44.514  26.339  29.386  1.00  0.00    -0.248 NA
ATOM     40  C   UNL A   1      45.205  24.263  28.568  1.00  0.00     0.031 C 
ATOM     41  C   UNL A   1      40.365  25.482  27.942  1.00  0.00     0.029 A 
ATOM     42  N   UNL A   1      41.686  26.996  28.923  1.00  0.00    -0.354 N 
ATOM     43  C   UNL A   1      45.858  26.150  29.684  1.00  0.00     0.074 A 
ATOM     44  C   UNL A   1      46.215  24.830  29.212  1.00  0.00     0.031 C 
ATOM     45  C   UNL A   1      39.607  26.552  28.228  1.00  0.00     0.029 A 
ATOM     46  C   UNL A   1      40.431  27.556  28.893  1.00  0.00     0.049 A 
ATOM     47  H   UNL A   1      42.470  27.452  29.305  1.00  0.00     0.167 HD
ATOM     48  C   UNL A   1      46.723  27.008  30.274  1.00  0.00     0.037 A 
ATOM     49  C   UNL A   1      39.996  28.743  29.355  1.00  0.00     0.037 A 
ATOM     50  C   UNL A   1      46.369  28.331  30.719  1.00  0.00     0.049 A 
ATOM     51  C   UNL A   1      40.974  29.676  30.013  1.00  0.00     0.074 A 
ATOM     52  C   UNL A   1      47.183  29.300  31.278  1.00  0.00     0.029 A 
ATOM     53  N   UNL A   1      45.091  28.868  30.655  1.00  0.00    -0.354 N 
ATOM     54  N   UNL A   1      42.256  29.511  30.231  1.00  0.00    -0.248 NA
ATOM     55  C   UNL A   1      40.445  30.962  30.486  1.00  0.00     0.031 C 
ATOM     56  C   UNL A   1      46.390  30.409  31.591  1.00  0.00     0.029 A 
ATOM     57  C   UNL A   1      45.092  30.149  31.183  1.00  0.00     0.049 A 
ATOM     58  H   UNL A   1      44.303  28.408  30.289  1.00  0.00     0.167 HD
ATOM     59  C   UNL A   1      42.693  30.680  30.838  1.00  0.00     0.074 A 
ATOM     60  C   UNL A   1      41.541  31.552  30.941  1.00  0.00     0.031 C 
ATOM     61  C   UNL A   1      43.935  31.005  31.271  1.00  0.00     0.037 A 
BRANCH  48  62
ATOM     62  C   UNL A   1      48.137  26.543  30.468  1.00  0.00     0.057 A 
ATOM     63  C   UNL A   1      48.526  25.813  31.598  1.00  0.00     0.134 A 
ATOM     64  C   UNL A   1      49.115  26.800  29.499  1.00  0.00     0.134 A 
ATOM     65  F   UNL A   1      47.641  25.543  32.570  1.00  0.00    -0.206 F 
ATOM     66  C   UNL A   1      49.842  25.382  31.774  1.00  0.00     0.040 A 
ATOM     67  C   UNL A   1      50.428  26.350  29.649  1.00  0.00     0.040 A 
ATOM     68  F   UNL A   1      48.811  27.489  28.388  1.00  0.00    -0.206 F 
ATOM     69  C   UNL A   1      50.796  25.644  30.793  1.00  0.00     0.006 A 
ENDBRANCH  48  62
BRANCH  49  70
ATOM     70  C   UNL A   1      38.572  29.128  29.191  1.00  0.00     0.057 A 
ATOM     71  C   UNL A   1      38.092  29.605  27.966  1.00  0.00     0.134 A 
ATOM     72  C   UNL A   1      37.660  29.034  30.249  1.00  0.00     0.134 A 
ATOM     73  F   UNL A   1      38.921  29.733  26.920  1.00  0.00    -0.206 F 
ATOM     74  C   UNL A   1      36.762  29.995  27.803  1.00  0.00     0.040 A 
ATOM     75  C   UNL A   1      36.321  29.397  30.094  1.00  0.00     0.040 A 
ATOM     76  F   UNL A   1      38.056  28.576  31.446  1.00  0.00    -0.206 F 
ATOM     77  C   UNL A   1      35.871  29.887  28.869  1.00  0.00     0.006 A 
ENDBRANCH  49  70
BRANCH  61  78
ATOM     78  C   UNL A   1      44.120  32.371  31.864  1.00  0.00     0.057 A 
ATOM     79  C   UNL A   1      44.446  33.482  31.076  1.00  0.00     0.134 A 
ATOM     80  C   UNL A   1      43.930  32.583  33.236  1.00  0.00     0.134 A 
ATOM     81  F   UNL A   1      44.654  33.343  29.757  1.00  0.00    -0.206 F 
ATOM     82  C   UNL A   1      44.601  34.751  31.635  1.00  0.00     0.040 A 
ATOM     83  C   UNL A   1      44.055  33.851  33.801  1.00  0.00     0.040 A 
ATOM     84  F   UNL A   1      43.608  31.562  34.044  1.00  0.00    -0.206 F 
ATOM     85  C   UNL A   1      44.398  34.939  33.001  1.00  0.00     0.006 A 
ENDBRANCH  61  78
ENDBRANCH  35  36
ENDBRANCH  27  30
ENDBRANCH  25  26
ENDBRANCH  24  25
ENDBRANCH  23  24
ENDBRANCH  22  23
ENDBRANCH   1  22
TORSDOF 17
ENDMDL
MODEL 2
REMARK VINA RESULT:      -9.0      5.766     11.816
REMARK SMILES C/C(=C\C(=O)NCCCCCCNC(=O)c1ccc(-c2c3nc(c(-c4c(F)cccc4F)c4ccc([nH]4)c(-c4c(F)cccc4F)c4nc(c(-c5c(F)cccc5F)c5ccc2[nH]5)C=C4)C=C3)cc1)CSc1ccc(N)c(C)c1
REMARK SMILES IDX 8 1 7 2 6 3 4 4 5 5 3 7 1 8 2 9 70 10 71 11 72 12 73 13
REMARK SMILES IDX 79 14 74 15 77 16 75 17 78 18 76 19 9 22 10 23 11 24 12 25
REMARK SMILES IDX 13 26 14 27 15 29 16 30 17 31 69 32 18 33 68 34 19 35 20 36
REMARK SMILES IDX 21 37 62 38 22 39 67 40 61 41 63 42 23 43 66 44 60 45 59 46
REMARK SMILES IDX 24 48 50 49 33 50 49 51 34 52 37 53 48 54 64 55 35 56 36 57
REMARK SMILES IDX 47 59 65 60 38 61 25 62 26 63 31 64 27 65 28 66 30 67 32 68
REMARK SMILES IDX 29 69 51 70 52 71 57 72 53 73 54 74 56 75 58 76 55 77 39 78
REMARK SMILES IDX 40 79 45 80 41 81 42 82 44 83 46 84 43 85
REMARK H PARENT 6 6 76 20 76 21 13 28 63 47 37 58
REMARK Flexibility Score: inf
ROOT
ATOM      1  C   UNL A   1      31.676  28.551  27.254  1.00  0.00     0.021 C 
ENDROOT
BRANCH   1   2
ATOM      2  C   UNL A   1      32.352  27.313  26.659  1.00  0.00     0.116 C 
BRANCH   2   3
ATOM      3  N   UNL A   1      31.557  26.133  26.884  1.00  0.00    -0.353 N 
ATOM      4  C   UNL A   1      31.759  24.818  26.686  1.00  0.00     0.243 C 
ATOM      5  O   UNL A   1      30.847  24.063  27.040  1.00  0.00    -0.270 OA
ATOM      6  H   UNL A   1      30.671  26.333  27.264  1.00  0.00     0.163 HD
BRANCH   4   7
ATOM      7  C   UNL A   1      32.980  24.167  26.131  1.00  0.00     0.071 C 
ATOM      8  C   UNL A   1      33.833  25.178  23.943  1.00  0.00     0.040 C 
ATOM      9  C   UNL A   1      33.833  24.207  25.082  1.00  0.00    -0.058 C 
BRANCH   9  10
ATOM     10  C   UNL A   1      34.928  23.150  25.018  1.00  0.00     0.105 C 
BRANCH  10  11
ATOM     11  S   UNL A   1      34.613  21.672  26.055  1.00  0.00    -0.122 SA
BRANCH  11  12
ATOM     12  C   UNL A   1      33.852  20.501  24.943  1.00  0.00     0.008 A 
ATOM     13  C   UNL A   1      32.777  20.942  24.168  1.00  0.00     0.017 A 
ATOM     14  C   UNL A   1      34.286  19.184  24.785  1.00  0.00     0.020 A 
ATOM     15  C   UNL A   1      32.159  20.084  23.253  1.00  0.00     0.027 A 
ATOM     16  C   UNL A   1      33.635  18.296  23.906  1.00  0.00    -0.027 A 
ATOM     17  C   UNL A   1      32.602  18.770  23.082  1.00  0.00     0.034 A 
ATOM     18  C   UNL A   1      34.092  16.863  23.859  1.00  0.00     0.046 C 
BRANCH  17  19
ATOM     19  N   UNL A   1      31.928  17.938  22.197  1.00  0.00    -0.399 N 
ATOM     20  H   UNL A   1      32.310  17.751  21.309  1.00  0.00     0.156 HD
ATOM     21  H   UNL A   1      31.067  17.536  22.457  1.00  0.00     0.156 HD
ENDBRANCH  17  19
ENDBRANCH  11  12
ENDBRANCH  10  11
ENDBRANCH   9  10
ENDBRANCH   4   7
ENDBRANCH   2   3
ENDBRANCH   1   2
BRANCH   1  22
ATOM     22  C   UNL A   1      32.293  29.872  26.784  1.00  0.00     0.002 C 
BRANCH  22  23
ATOM     23  C   UNL A   1      31.352  30.758  25.956  1.00  0.00     0.002 C 
BRANCH  23  24
ATOM     24  C   UNL A   1      31.269  32.220  26.404  1.00  0.00     0.021 C 
BRANCH  24  25
ATOM     25  C   UNL A   1      32.409  32.665  27.317  1.00  0.00     0.116 C 
BRANCH  25  26
ATOM     26  N   UNL A   1      32.327  34.087  27.615  1.00  0.00    -0.352 N 
ATOM     27  C   UNL A   1      33.017  34.824  28.542  1.00  0.00     0.251 C 
ATOM     28  H   UNL A   1      31.683  34.595  27.072  1.00  0.00     0.163 HD
ATOM     29  O   UNL A   1      32.632  35.952  28.846  1.00  0.00    -0.269 OA
BRANCH  27  30
ATOM     30  C   UNL A   1      34.228  34.267  29.178  1.00  0.00     0.039 A 
ATOM     31  C   UNL A   1      34.105  33.562  30.377  1.00  0.00     0.014 A 
ATOM     32  C   UNL A   1      35.489  34.476  28.611  1.00  0.00     0.014 A 
ATOM     33  C   UNL A   1      35.242  33.026  30.985  1.00  0.00     0.010 A 
ATOM     34  C   UNL A   1      36.612  33.883  29.178  1.00  0.00     0.010 A 
ATOM     35  C   UNL A   1      36.501  33.163  30.377  1.00  0.00    -0.014 A 
BRANCH  35  36
ATOM     36  C   UNL A   1      37.718  32.573  30.986  1.00  0.00     0.031 A 
ATOM     37  C   UNL A   1      38.357  31.360  30.370  1.00  0.00     0.074 A 
ATOM     38  C   UNL A   1      38.209  33.092  32.128  1.00  0.00     0.049 A 
ATOM     39  N   UNL A   1      39.377  30.656  30.793  1.00  0.00    -0.248 NA
ATOM     40  C   UNL A   1      37.751  30.853  29.127  1.00  0.00     0.031 C 
ATOM     41  C   UNL A   1      37.651  34.240  32.844  1.00  0.00     0.029 A 
ATOM     42  N   UNL A   1      39.283  32.713  32.892  1.00  0.00    -0.354 N 
ATOM     43  C   UNL A   1      39.524  29.619  29.879  1.00  0.00     0.074 A 
ATOM     44  C   UNL A   1      38.459  29.754  28.910  1.00  0.00     0.031 C 
ATOM     45  C   UNL A   1      38.400  34.485  33.932  1.00  0.00     0.029 A 
ATOM     46  C   UNL A   1      39.465  33.490  34.010  1.00  0.00     0.049 A 
ATOM     47  H   UNL A   1      39.868  31.955  32.662  1.00  0.00     0.167 HD
ATOM     48  C   UNL A   1      40.476  28.657  29.838  1.00  0.00     0.037 A 
ATOM     49  C   UNL A   1      40.384  33.406  34.990  1.00  0.00     0.037 A 
ATOM     50  C   UNL A   1      41.550  28.543  30.791  1.00  0.00     0.049 A 
ATOM     51  C   UNL A   1      41.427  32.325  34.925  1.00  0.00     0.074 A 
ATOM     52  C   UNL A   1      42.597  27.639  30.806  1.00  0.00     0.029 A 
ATOM     53  N   UNL A   1      41.709  29.361  31.900  1.00  0.00    -0.354 N 
ATOM     54  N   UNL A   1      41.593  31.390  34.021  1.00  0.00    -0.248 NA
ATOM     55  C   UNL A   1      42.412  32.290  36.014  1.00  0.00     0.031 C 
ATOM     56  C   UNL A   1      43.367  27.883  31.947  1.00  0.00     0.029 A 
ATOM     57  C   UNL A   1      42.828  28.969  32.616  1.00  0.00     0.049 A 
ATOM     58  H   UNL A   1      41.116  30.108  32.140  1.00  0.00     0.167 HD
ATOM     59  C   UNL A   1      42.716  30.674  34.415  1.00  0.00     0.074 A 
ATOM     60  C   UNL A   1      43.198  31.293  35.633  1.00  0.00     0.031 C 
ATOM     61  C   UNL A   1      43.297  29.603  33.823  1.00  0.00     0.037 A 
BRANCH  48  62
ATOM     62  C   UNL A   1      40.401  27.656  28.722  1.00  0.00     0.057 A 
ATOM     63  C   UNL A   1      39.614  26.500  28.819  1.00  0.00     0.134 A 
ATOM     64  C   UNL A   1      41.097  27.863  27.524  1.00  0.00     0.134 A 
ATOM     65  F   UNL A   1      38.931  26.235  29.943  1.00  0.00    -0.206 F 
ATOM     66  C   UNL A   1      39.546  25.572  27.778  1.00  0.00     0.040 A 
ATOM     67  C   UNL A   1      41.014  26.956  26.465  1.00  0.00     0.040 A 
ATOM     68  F   UNL A   1      41.864  28.952  27.361  1.00  0.00    -0.206 F 
ATOM     69  C   UNL A   1      40.243  25.804  26.594  1.00  0.00     0.006 A 
ENDBRANCH  48  62
BRANCH  49  70
ATOM     70  C   UNL A   1      40.376  34.387  36.103  1.00  0.00     0.057 A 
ATOM     71  C   UNL A   1      41.051  35.609  35.992  1.00  0.00     0.134 A 
ATOM     72  C   UNL A   1      39.703  34.129  37.303  1.00  0.00     0.134 A 
ATOM     73  F   UNL A   1      41.728  35.905  34.873  1.00  0.00    -0.206 F 
ATOM     74  C   UNL A   1      41.074  36.530  37.039  1.00  0.00     0.040 A 
ATOM     75  C   UNL A   1      39.696  35.053  38.350  1.00  0.00     0.040 A 
ATOM     76  F   UNL A   1      39.030  32.981  37.469  1.00  0.00    -0.206 F 
ATOM     77  C   UNL A   1      40.391  36.254  38.222  1.00  0.00     0.006 A 
ENDBRANCH  49  70
BRANCH  61  78
ATOM     78  C   UNL A   1      44.536  29.054  34.465  1.00  0.00     0.057 A 
ATOM     79  C   UNL A   1      45.812  29.537  34.146  1.00  0.00     0.134 A 
ATOM     80  C   UNL A   1      44.448  28.054  35.444  1.00  0.00     0.134 A 
ATOM     81  F   UNL A   1      45.965  30.484  33.208  1.00  0.00    -0.206 F 
ATOM     82  C   UNL A   1      46.957  29.029  34.760  1.00  0.00     0.040 A 
ATOM     83  C   UNL A   1      45.584  27.558  36.084  1.00  0.00     0.040 A 
ATOM     84  F   UNL A   1      43.255  27.554  35.801  1.00  0.00    -0.206 F 
ATOM     85  C   UNL A   1      46.844  28.042  35.737  1.00  0.00     0.006 A 
ENDBRANCH  61  78
ENDBRANCH  35  36
ENDBRANCH  27  30
ENDBRANCH  25  26
ENDBRANCH  24  25
ENDBRANCH  23  24
ENDBRANCH  22  23
ENDBRANCH   1  22
TORSDOF 17
ENDMDL
MODEL 3
REMARK VINA RESULT:      -8.9      5.343     10.863
REMARK SMILES C/C(=C\C(=O)NCCCCCCNC(=O)c1ccc(-c2c3nc(c(-c4c(F)cccc4F)c4ccc([nH]4)c(-c4c(F)cccc4F)c4nc(c(-c5c(F)cccc5F)c5ccc2[nH]5)C=C4)C=C3)cc1)CSc1ccc(N)c(C)c1
REMARK SMILES IDX 8 1 7 2 6 3 4 4 5 5 3 7 1 8 2 9 70 10 71 11 72 12 73 13
REMARK SMILES IDX 79 14 74 15 77 16 75 17 78 18 76 19 9 22 10 23 11 24 12 25
REMARK SMILES IDX 13 26 14 27 15 29 16 30 17 31 69 32 18 33 68 34 19 35 20 36
REMARK SMILES IDX 21 37 62 38 22 39 67 40 61 41 63 42 23 43 66 44 60 45 59 46
REMARK SMILES IDX 24 48 50 49 33 50 49 51 34 52 37 53 48 54 64 55 35 56 36 57
REMARK SMILES IDX 47 59 65 60 38 61 25 62 26 63 31 64 27 65 28 66 30 67 32 68
REMARK SMILES IDX 29 69 51 70 52 71 57 72 53 73 54 74 56 75 58 76 55 77 39 78
REMARK SMILES IDX 40 79 45 80 41 81 42 82 44 83 46 84 43 85
REMARK H PARENT 6 6 76 20 76 21 13 28 63 47 37 58
REMARK Flexibility Score: inf
ROOT
ATOM      1  C   UNL A   1      31.355  29.115  23.026  1.00  0.00     0.021 C 
ENDROOT
BRANCH   1   2
ATOM      2  C   UNL A   1      30.792  27.814  22.448  1.00  0.00     0.116 C 
BRANCH   2   3
ATOM      3  N   UNL A   1      31.817  27.066  21.767  1.00  0.00    -0.353 N 
ATOM      4  C   UNL A   1      32.706  26.133  22.154  1.00  0.00     0.243 C 
ATOM      5  O   UNL A   1      33.431  25.665  21.269  1.00  0.00    -0.270 OA
ATOM      6  H   UNL A   1      31.883  27.286  20.810  1.00  0.00     0.163 HD
BRANCH   4   7
ATOM      7  C   UNL A   1      32.882  25.567  23.522  1.00  0.00     0.071 C 
ATOM      8  C   UNL A   1      33.879  27.186  25.231  1.00  0.00     0.040 C 
ATOM      9  C   UNL A   1      33.342  25.871  24.757  1.00  0.00    -0.058 C 
BRANCH   9  10
ATOM     10  C   UNL A   1      33.337  24.768  25.807  1.00  0.00     0.105 C 
BRANCH  10  11
ATOM     11  S   UNL A   1      33.522  23.076  25.128  1.00  0.00    -0.122 SA
BRANCH  11  12
ATOM     12  C   UNL A   1      35.264  22.719  25.287  1.00  0.00     0.008 A 
ATOM     13  C   UNL A   1      36.110  23.762  25.672  1.00  0.00     0.017 A 
ATOM     14  C   UNL A   1      35.821  21.457  25.078  1.00  0.00     0.020 A 
ATOM     15  C   UNL A   1      37.480  23.540  25.848  1.00  0.00     0.027 A 
ATOM     16  C   UNL A   1      37.207  21.236  25.200  1.00  0.00    -0.027 A 
ATOM     17  C   UNL A   1      38.036  22.273  25.654  1.00  0.00     0.034 A 
ATOM     18  C   UNL A   1      37.753  19.875  24.861  1.00  0.00     0.046 C 
BRANCH  17  19
ATOM     19  N   UNL A   1      39.409  22.109  25.793  1.00  0.00    -0.399 N 
ATOM     20  H   UNL A   1      39.964  21.915  25.003  1.00  0.00     0.156 HD
ATOM     21  H   UNL A   1      39.827  22.185  26.682  1.00  0.00     0.156 HD
ENDBRANCH  17  19
ENDBRANCH  11  12
ENDBRANCH  10  11
ENDBRANCH   9  10
ENDBRANCH   4   7
ENDBRANCH   2   3
ENDBRANCH   1   2
BRANCH   1  22
ATOM     22  C   UNL A   1      30.618  29.599  24.280  1.00  0.00     0.002 C 
BRANCH  22  23
ATOM     23  C   UNL A   1      31.535  30.049  25.425  1.00  0.00     0.002 C 
BRANCH  23  24
ATOM     24  C   UNL A   1      31.304  31.479  25.923  1.00  0.00     0.021 C 
BRANCH  24  25
ATOM     25  C   UNL A   1      32.169  31.880  27.115  1.00  0.00     0.116 C 
BRANCH  25  26
ATOM     26  N   UNL A   1      32.230  33.326  27.266  1.00  0.00    -0.352 N 
ATOM     27  C   UNL A   1      33.039  34.084  28.072  1.00  0.00     0.251 C 
ATOM     28  H   UNL A   1      31.600  33.834  26.707  1.00  0.00     0.163 HD
ATOM     29  O   UNL A   1      32.773  35.267  28.277  1.00  0.00    -0.269 OA
BRANCH  27  30
ATOM     30  C   UNL A   1      34.234  33.483  28.698  1.00  0.00     0.039 A 
ATOM     31  C   UNL A   1      35.491  34.029  28.429  1.00  0.00     0.014 A 
ATOM     32  C   UNL A   1      34.116  32.355  29.516  1.00  0.00     0.014 A 
ATOM     33  C   UNL A   1      36.627  33.471  29.019  1.00  0.00     0.010 A 
ATOM     34  C   UNL A   1      35.239  31.844  30.159  1.00  0.00     0.010 A 
ATOM     35  C   UNL A   1      36.507  32.390  29.908  1.00  0.00    -0.014 A 
BRANCH  35  36
ATOM     36  C   UNL A   1      37.696  31.804  30.573  1.00  0.00     0.031 A 
ATOM     37  C   UNL A   1      38.500  30.741  29.878  1.00  0.00     0.074 A 
ATOM     38  C   UNL A   1      38.012  32.184  31.826  1.00  0.00     0.049 A 
ATOM     39  N   UNL A   1      39.524  30.056  30.321  1.00  0.00    -0.248 NA
ATOM     40  C   UNL A   1      38.080  30.380  28.514  1.00  0.00     0.031 C 
ATOM     41  C   UNL A   1      37.282  33.174  32.620  1.00  0.00     0.029 A 
ATOM     42  N   UNL A   1      39.024  31.773  32.655  1.00  0.00    -0.354 N 
ATOM     43  C   UNL A   1      39.859  29.176  29.299  1.00  0.00     0.074 A 
ATOM     44  C   UNL A   1      38.899  29.376  28.236  1.00  0.00     0.031 C 
ATOM     45  C   UNL A   1      37.883  33.309  33.813  1.00  0.00     0.029 A 
ATOM     46  C   UNL A   1      39.014  32.390  33.883  1.00  0.00     0.049 A 
ATOM     47  H   UNL A   1      39.693  31.100  32.396  1.00  0.00     0.167 HD
ATOM     48  C   UNL A   1      40.889  28.299  29.242  1.00  0.00     0.037 A 
ATOM     49  C   UNL A   1      39.824  32.228  34.946  1.00  0.00     0.037 A 
ATOM     50  C   UNL A   1      41.858  28.122  30.293  1.00  0.00     0.049 A 
ATOM     51  C   UNL A   1      40.957  31.243  34.860  1.00  0.00     0.074 A 
ATOM     52  C   UNL A   1      42.971  27.301  30.311  1.00  0.00     0.029 A 
ATOM     53  N   UNL A   1      41.824  28.779  31.514  1.00  0.00    -0.354 N 
ATOM     54  N   UNL A   1      41.301  30.464  33.863  1.00  0.00    -0.248 NA
ATOM     55  C   UNL A   1      41.816  31.118  36.045  1.00  0.00     0.031 C 
ATOM     56  C   UNL A   1      43.588  27.429  31.559  1.00  0.00     0.029 A 
ATOM     57  C   UNL A   1      42.886  28.366  32.301  1.00  0.00     0.049 A 
ATOM     58  H   UNL A   1      41.146  29.440  31.782  1.00  0.00     0.167 HD
ATOM     59  C   UNL A   1      42.431  29.778  34.289  1.00  0.00     0.074 A 
ATOM     60  C   UNL A   1      42.722  30.245  35.629  1.00  0.00     0.031 C 
ATOM     61  C   UNL A   1      43.164  28.848  33.631  1.00  0.00     0.037 A 
BRANCH  48  62
ATOM     62  C   UNL A   1      41.023  27.468  27.999  1.00  0.00     0.057 A 
ATOM     63  C   UNL A   1      41.775  27.901  26.899  1.00  0.00     0.134 A 
ATOM     64  C   UNL A   1      40.420  26.207  27.911  1.00  0.00     0.134 A 
ATOM     65  F   UNL A   1      42.370  29.104  26.913  1.00  0.00    -0.206 F 
ATOM     66  C   UNL A   1      41.899  27.124  25.745  1.00  0.00     0.040 A 
ATOM     67  C   UNL A   1      40.559  25.409  26.774  1.00  0.00     0.040 A 
ATOM     68  F   UNL A   1      39.690  25.728  28.930  1.00  0.00    -0.206 F 
ATOM     69  C   UNL A   1      41.294  25.870  25.684  1.00  0.00     0.006 A 
ENDBRANCH  48  62
BRANCH  49  70
ATOM     70  C   UNL A   1      39.609  33.033  36.174  1.00  0.00     0.057 A 
ATOM     71  C   UNL A   1      38.739  32.596  37.178  1.00  0.00     0.134 A 
ATOM     72  C   UNL A   1      40.261  34.257  36.372  1.00  0.00     0.134 A 
ATOM     73  F   UNL A   1      38.073  31.441  37.038  1.00  0.00    -0.206 F 
ATOM     74  C   UNL A   1      38.507  33.354  38.327  1.00  0.00     0.040 A 
ATOM     75  C   UNL A   1      40.058  35.014  37.527  1.00  0.00     0.040 A 
ATOM     76  F   UNL A   1      41.114  34.727  35.450  1.00  0.00    -0.206 F 
ATOM     77  C   UNL A   1      39.172  34.566  38.506  1.00  0.00     0.006 A 
ENDBRANCH  49  70
BRANCH  61  78
ATOM     78  C   UNL A   1      44.368  28.298  34.337  1.00  0.00     0.057 A 
ATOM     79  C   UNL A   1      44.302  27.137  35.118  1.00  0.00     0.134 A 
ATOM     80  C   UNL A   1      45.617  28.918  34.201  1.00  0.00     0.134 A 
ATOM     81  F   UNL A   1      43.133  26.504  35.299  1.00  0.00    -0.206 F 
ATOM     82  C   UNL A   1      45.431  26.626  35.759  1.00  0.00     0.040 A 
ATOM     83  C   UNL A   1      46.758  28.400  34.814  1.00  0.00     0.040 A 
ATOM     84  F   UNL A   1      45.750  30.028  33.459  1.00  0.00    -0.206 F 
ATOM     85  C   UNL A   1      46.666  27.254  35.601  1.00  0.00     0.006 A 
ENDBRANCH  61  78
ENDBRANCH  35  36
ENDBRANCH  27  30
ENDBRANCH  25  26
ENDBRANCH  24  25
ENDBRANCH  23  24
ENDBRANCH  22  23
ENDBRANCH   1  22
TORSDOF 17
ENDMDL
