MODEL 1
REMARK VINA RESULT:     -12.7      0.000      0.000
REMARK SMILES Cc1ccc2cc(C[N@H+]3CC[NH2+][C@H](C(=O)NCCCCCCNC(=O)c4ccc(-c5c6nc(c(-c7c(F)cccc7F)c7ccc([nH]7)c(-c7c(F)cccc7F)c7nc(c(-c8c(F)cccc8F)c8ccc5[nH]8)C=C7)C=C6)cc4)C3)c(N3CCOCC3)nc2c1
REMARK SMILES IDX 19 1 18 2 17 3 16 4 14 5 15 6 13 8 9 9 10 10 80 11 11 13
REMARK SMILES IDX 12 14 8 17 7 18 1 19 2 20 3 21 90 22 4 23 89 24 5 25 88 26
REMARK SMILES IDX 6 27 81 28 82 29 83 30 87 31 84 32 86 33 85 34 20 35 21 36
REMARK SMILES IDX 22 37 23 38 24 39 25 41 26 42 27 43 79 44 28 45 78 46 29 47
REMARK SMILES IDX 30 48 31 49 72 50 32 51 77 52 71 53 73 54 33 55 76 56 70 57
REMARK SMILES IDX 69 58 34 60 60 61 43 62 59 63 44 64 47 65 58 66 74 67 45 68
REMARK SMILES IDX 46 69 57 71 75 72 48 73 35 74 36 75 41 76 37 77 38 78 40 79
REMARK SMILES IDX 42 80 39 81 61 82 62 83 67 84 63 85 64 86 66 87 68 88 65 89
REMARK SMILES IDX 49 90 50 91 55 92 51 93 52 94 54 95 56 96 53 97
REMARK H PARENT 16 7 9 12 12 15 12 16 23 40 73 59 47 70
REMARK Flexibility Score: inf
ROOT
ATOM      1  C   UNL A   1      35.824  21.423  25.692  1.00  0.00     0.002 C 
ENDROOT
BRANCH   1   2
ATOM      2  C   UNL A   1      35.311  22.787  26.178  1.00  0.00     0.021 C 
BRANCH   2   3
ATOM      3  C   UNL A   1      35.011  23.786  25.064  1.00  0.00     0.116 C 
BRANCH   3   4
ATOM      4  N   UNL A   1      34.785  25.095  25.622  1.00  0.00    -0.351 N 
ATOM      5  C   UNL A   1      33.663  25.810  25.840  1.00  0.00     0.284 C 
ATOM      6  O   UNL A   1      33.844  26.981  26.204  1.00  0.00    -0.268 OA
ATOM      7  H   UNL A   1      35.609  25.555  25.900  1.00  0.00     0.163 HD
BRANCH   5   8
ATOM      8  C   UNL A   1      32.260  25.221  25.869  1.00  0.00     0.328 C 
ATOM      9  N   UNL A   1      29.862  25.961  25.528  1.00  0.00    -0.321 N 
ATOM     10  C   UNL A   1      29.492  24.790  26.347  1.00  0.00     0.324 C 
ATOM     11  C   UNL A   1      31.250  26.380  25.761  1.00  0.00     0.339 C 
ATOM     12  H   UNL A   1      29.272  26.719  25.870  1.00  0.00     0.348 HD
ATOM     13  C   UNL A   1      30.585  23.703  26.569  1.00  0.00     0.323 C 
ATOM     14  N   UNL A   1      31.903  24.273  26.955  1.00  0.00    -0.327 N 
ATOM     15  H   UNL A   1      32.603  23.534  27.028  1.00  0.00     0.347 HD
ATOM     16  H   UNL A   1      31.864  24.736  27.863  1.00  0.00     0.347 HD
BRANCH   9  17
ATOM     17  C   UNL A   1      29.470  25.896  24.103  1.00  0.00     0.303 C 
BRANCH  17  18
ATOM     18  C   UNL A   1      29.387  27.202  23.336  1.00  0.00     0.049 A 
ATOM     19  C   UNL A   1      28.781  33.600  22.992  1.00  0.00     0.044 C 
ATOM     20  C   UNL A   1      28.568  32.117  23.018  1.00  0.00    -0.049 A 
ATOM     21  C   UNL A   1      27.370  31.575  23.483  1.00  0.00     0.004 A 
ATOM     22  C   UNL A   1      29.584  31.249  22.584  1.00  0.00     0.032 A 
ATOM     23  C   UNL A   1      27.214  30.193  23.550  1.00  0.00     0.010 A 
ATOM     24  C   UNL A   1      29.471  29.866  22.682  1.00  0.00     0.073 A 
ATOM     25  C   UNL A   1      28.270  29.342  23.182  1.00  0.00     0.001 A 
ATOM     26  N   UNL A   1      30.522  29.084  22.376  1.00  0.00    -0.230 NA
ATOM     27  C   UNL A   1      28.219  27.969  23.432  1.00  0.00     0.023 A 
ATOM     28  C   UNL A   1      30.495  27.768  22.693  1.00  0.00     0.138 A 
BRANCH  28  29
ATOM     29  N   UNL A   1      31.637  27.023  22.453  1.00  0.00    -0.352 N 
ATOM     30  C   UNL A   1      31.565  25.937  21.466  1.00  0.00     0.146 C 
ATOM     31  C   UNL A   1      32.923  27.729  22.425  1.00  0.00     0.146 C 
ATOM     32  C   UNL A   1      32.713  24.955  21.753  1.00  0.00     0.181 C 
ATOM     33  C   UNL A   1      34.049  26.698  22.639  1.00  0.00     0.181 C 
ATOM     34  O   UNL A   1      33.988  25.619  21.689  1.00  0.00    -0.378 OA
ENDBRANCH  28  29
ENDBRANCH  17  18
ENDBRANCH   9  17
ENDBRANCH   5   8
ENDBRANCH   3   4
ENDBRANCH   2   3
ENDBRANCH   1   2
BRANCH   1  35
ATOM     35  C   UNL A   1      37.130  21.459  24.892  1.00  0.00     0.002 C 
BRANCH  35  36
ATOM     36  C   UNL A   1      38.004  20.214  25.024  1.00  0.00     0.021 C 
BRANCH  36  37
ATOM     37  C   UNL A   1      39.278  20.420  25.825  1.00  0.00     0.116 C 
BRANCH  37  38
ATOM     38  N   UNL A   1      40.123  19.238  25.862  1.00  0.00    -0.352 N 
ATOM     39  C   UNL A   1      41.469  19.177  26.140  1.00  0.00     0.251 C 
ATOM     40  H   UNL A   1      39.680  18.380  25.666  1.00  0.00     0.163 HD
ATOM     41  O   UNL A   1      42.096  18.131  26.023  1.00  0.00    -0.269 OA
BRANCH  39  42
ATOM     42  C   UNL A   1      42.155  20.424  26.534  1.00  0.00     0.039 A 
ATOM     43  C   UNL A   1      42.163  20.821  27.874  1.00  0.00     0.014 A 
ATOM     44  C   UNL A   1      42.690  21.248  25.543  1.00  0.00     0.014 A 
ATOM     45  C   UNL A   1      42.555  22.113  28.199  1.00  0.00     0.010 A 
ATOM     46  C   UNL A   1      43.162  22.516  25.886  1.00  0.00     0.010 A 
ATOM     47  C   UNL A   1      43.048  22.979  27.208  1.00  0.00    -0.014 A 
BRANCH  47  48
ATOM     48  C   UNL A   1      43.414  24.370  27.573  1.00  0.00     0.031 A 
ATOM     49  C   UNL A   1      44.837  24.847  27.460  1.00  0.00     0.074 A 
ATOM     50  C   UNL A   1      42.445  25.226  27.947  1.00  0.00     0.049 A 
ATOM     51  N   UNL A   1      45.335  26.030  27.720  1.00  0.00    -0.248 NA
ATOM     52  C   UNL A   1      45.832  23.867  26.996  1.00  0.00     0.031 C 
ATOM     53  C   UNL A   1      41.024  24.891  28.067  1.00  0.00     0.029 A 
ATOM     54  N   UNL A   1      42.502  26.558  28.265  1.00  0.00    -0.354 N 
ATOM     55  C   UNL A   1      46.700  25.932  27.471  1.00  0.00     0.074 A 
ATOM     56  C   UNL A   1      46.956  24.566  27.068  1.00  0.00     0.031 C 
ATOM     57  C   UNL A   1      40.338  26.001  28.372  1.00  0.00     0.029 A 
ATOM     58  C   UNL A   1      41.273  27.108  28.534  1.00  0.00     0.049 A 
ATOM     59  H   UNL A   1      43.342  27.070  28.297  1.00  0.00     0.167 HD
ATOM     60  C   UNL A   1      47.650  26.895  27.561  1.00  0.00     0.037 A 
ATOM     61  C   UNL A   1      40.939  28.362  28.884  1.00  0.00     0.037 A 
ATOM     62  C   UNL A   1      47.392  28.257  27.950  1.00  0.00     0.049 A 
ATOM     63  C   UNL A   1      42.021  29.390  29.044  1.00  0.00     0.074 A 
ATOM     64  C   UNL A   1      48.284  29.310  28.058  1.00  0.00     0.029 A 
ATOM     65  N   UNL A   1      46.144  28.755  28.297  1.00  0.00    -0.354 N 
ATOM     66  N   UNL A   1      43.306  29.281  28.812  1.00  0.00    -0.248 NA
ATOM     67  C   UNL A   1      41.603  30.710  29.534  1.00  0.00     0.031 C 
ATOM     68  C   UNL A   1      47.582  30.436  28.507  1.00  0.00     0.029 A 
ATOM     69  C   UNL A   1      46.247  30.094  28.642  1.00  0.00     0.049 A 
ATOM     70  H   UNL A   1      45.309  28.234  28.300  1.00  0.00     0.167 HD
ATOM     71  C   UNL A   1      43.849  30.523  29.114  1.00  0.00     0.074 A 
ATOM     72  C   UNL A   1      42.751  31.371  29.528  1.00  0.00     0.031 C 
ATOM     73  C   UNL A   1      45.144  30.921  29.057  1.00  0.00     0.037 A 
BRANCH  60  74
ATOM     74  C   UNL A   1      49.063  26.494  27.249  1.00  0.00     0.057 A 
ATOM     75  C   UNL A   1      49.592  26.681  25.966  1.00  0.00     0.134 A 
ATOM     76  C   UNL A   1      49.900  25.918  28.214  1.00  0.00     0.134 A 
ATOM     77  F   UNL A   1      48.843  27.221  24.992  1.00  0.00    -0.206 F 
ATOM     78  C   UNL A   1      50.903  26.314  25.655  1.00  0.00     0.040 A 
ATOM     79  C   UNL A   1      51.220  25.569  27.922  1.00  0.00     0.040 A 
ATOM     80  F   UNL A   1      49.461  25.725  29.467  1.00  0.00    -0.206 F 
ATOM     81  C   UNL A   1      51.724  25.765  26.638  1.00  0.00     0.006 A 
ENDBRANCH  60  74
BRANCH  61  82
ATOM     82  C   UNL A   1      39.517  28.715  29.107  1.00  0.00     0.057 A 
ATOM     83  C   UNL A   1      38.914  28.563  30.362  1.00  0.00     0.134 A 
ATOM     84  C   UNL A   1      38.728  29.211  28.065  1.00  0.00     0.134 A 
ATOM     85  F   UNL A   1      39.617  28.089  31.399  1.00  0.00    -0.206 F 
ATOM     86  C   UNL A   1      37.571  28.881  30.567  1.00  0.00     0.040 A 
ATOM     87  C   UNL A   1      37.390  29.555  28.262  1.00  0.00     0.040 A 
ATOM     88  F   UNL A   1      39.257  29.395  26.846  1.00  0.00    -0.206 F 
ATOM     89  C   UNL A   1      36.807  29.383  29.516  1.00  0.00     0.006 A 
ENDBRANCH  61  82
BRANCH  73  90
ATOM     90  C   UNL A   1      45.426  32.344  29.436  1.00  0.00     0.057 A 
ATOM     91  C   UNL A   1      45.762  32.681  30.752  1.00  0.00     0.134 A 
ATOM     92  C   UNL A   1      45.369  33.381  28.495  1.00  0.00     0.134 A 
ATOM     93  F   UNL A   1      45.831  31.735  31.701  1.00  0.00    -0.206 F 
ATOM     94  C   UNL A   1      46.033  33.999  31.120  1.00  0.00     0.040 A 
ATOM     95  C   UNL A   1      45.660  34.699  28.846  1.00  0.00     0.040 A 
ATOM     96  F   UNL A   1      45.072  33.119  27.212  1.00  0.00    -0.206 F 
ATOM     97  C   UNL A   1      45.990  35.012  30.164  1.00  0.00     0.006 A 
ENDBRANCH  73  90
ENDBRANCH  47  48
ENDBRANCH  39  42
ENDBRANCH  37  38
ENDBRANCH  36  37
ENDBRANCH  35  36
ENDBRANCH   1  35
TORSDOF 16
ENDMDL
MODEL 2
REMARK VINA RESULT:     -12.6      4.781     10.301
REMARK SMILES Cc1ccc2cc(C[N@H+]3CC[NH2+][C@H](C(=O)NCCCCCCNC(=O)c4ccc(-c5c6nc(c(-c7c(F)cccc7F)c7ccc([nH]7)c(-c7c(F)cccc7F)c7nc(c(-c8c(F)cccc8F)c8ccc5[nH]8)C=C7)C=C6)cc4)C3)c(N3CCOCC3)nc2c1
REMARK SMILES IDX 19 1 18 2 17 3 16 4 14 5 15 6 13 8 9 9 10 10 80 11 11 13
REMARK SMILES IDX 12 14 8 17 7 18 1 19 2 20 3 21 90 22 4 23 89 24 5 25 88 26
REMARK SMILES IDX 6 27 81 28 82 29 83 30 87 31 84 32 86 33 85 34 20 35 21 36
REMARK SMILES IDX 22 37 23 38 24 39 25 41 26 42 27 43 79 44 28 45 78 46 29 47
REMARK SMILES IDX 30 48 31 49 72 50 32 51 77 52 71 53 73 54 33 55 76 56 70 57
REMARK SMILES IDX 69 58 34 60 60 61 43 62 59 63 44 64 47 65 58 66 74 67 45 68
REMARK SMILES IDX 46 69 57 71 75 72 48 73 35 74 36 75 41 76 37 77 38 78 40 79
REMARK SMILES IDX 42 80 39 81 61 82 62 83 67 84 63 85 64 86 66 87 68 88 65 89
REMARK SMILES IDX 49 90 50 91 55 92 51 93 52 94 54 95 56 96 53 97
REMARK H PARENT 16 7 9 12 12 15 12 16 23 40 73 59 47 70
REMARK Flexibility Score: inf
ROOT
ATOM      1  C   UNL A   1      31.832  28.692  26.067  1.00  0.00     0.002 C 
ENDROOT
BRANCH   1   2
ATOM      2  C   UNL A   1      32.470  29.125  24.738  1.00  0.00     0.021 C 
BRANCH   2   3
ATOM      3  C   UNL A   1      33.732  28.355  24.359  1.00  0.00     0.116 C 
BRANCH   3   4
ATOM      4  N   UNL A   1      33.744  28.096  22.942  1.00  0.00    -0.351 N 
ATOM      5  C   UNL A   1      33.397  27.017  22.211  1.00  0.00     0.284 C 
ATOM      6  O   UNL A   1      33.680  27.082  21.006  1.00  0.00    -0.268 OA
ATOM      7  H   UNL A   1      34.066  28.853  22.402  1.00  0.00     0.163 HD
BRANCH   5   8
ATOM      8  C   UNL A   1      32.530  25.876  22.720  1.00  0.00     0.328 C 
ATOM      9  N   UNL A   1      32.137  23.415  22.268  1.00  0.00    -0.321 N 
ATOM     10  C   UNL A   1      30.811  23.618  22.882  1.00  0.00     0.324 C 
ATOM     11  C   UNL A   1      32.715  24.672  21.776  1.00  0.00     0.339 C 
ATOM     12  H   UNL A   1      31.960  22.839  21.445  1.00  0.00     0.348 HD
ATOM     13  C   UNL A   1      30.602  24.922  23.708  1.00  0.00     0.323 C 
ATOM     14  N   UNL A   1      31.097  26.139  23.010  1.00  0.00    -0.327 N 
ATOM     15  H   UNL A   1      30.999  26.958  23.610  1.00  0.00     0.347 HD
ATOM     16  H   UNL A   1      30.568  26.328  22.159  1.00  0.00     0.347 HD
BRANCH   9  17
ATOM     17  C   UNL A   1      33.076  22.565  23.032  1.00  0.00     0.303 C 
BRANCH  17  18
ATOM     18  C   UNL A   1      32.550  21.250  23.576  1.00  0.00     0.049 A 
ATOM     19  C   UNL A   1      33.307  15.178  25.571  1.00  0.00     0.044 C 
ATOM     20  C   UNL A   1      33.051  16.434  24.794  1.00  0.00    -0.049 A 
ATOM     21  C   UNL A   1      33.315  16.496  23.426  1.00  0.00     0.004 A 
ATOM     22  C   UNL A   1      32.551  17.576  25.443  1.00  0.00     0.032 A 
ATOM     23  C   UNL A   1      33.122  17.690  22.736  1.00  0.00     0.010 A 
ATOM     24  C   UNL A   1      32.391  18.792  24.786  1.00  0.00     0.073 A 
ATOM     25  C   UNL A   1      32.692  18.841  23.417  1.00  0.00     0.001 A 
ATOM     26  N   UNL A   1      32.035  19.888  25.481  1.00  0.00    -0.230 NA
ATOM     27  C   UNL A   1      32.689  20.093  22.799  1.00  0.00     0.023 A 
ATOM     28  C   UNL A   1      32.108  21.107  24.897  1.00  0.00     0.138 A 
BRANCH  28  29
ATOM     29  N   UNL A   1      31.831  22.215  25.680  1.00  0.00    -0.352 N 
ATOM     30  C   UNL A   1      30.558  22.246  26.415  1.00  0.00     0.146 C 
ATOM     31  C   UNL A   1      32.936  22.815  26.436  1.00  0.00     0.146 C 
ATOM     32  C   UNL A   1      30.237  23.712  26.747  1.00  0.00     0.181 C 
ATOM     33  C   UNL A   1      32.541  24.255  26.815  1.00  0.00     0.181 C 
ATOM     34  O   UNL A   1      31.290  24.309  27.526  1.00  0.00    -0.378 OA
ENDBRANCH  28  29
ENDBRANCH  17  18
ENDBRANCH   9  17
ENDBRANCH   5   8
ENDBRANCH   3   4
ENDBRANCH   2   3
ENDBRANCH   1   2
BRANCH   1  35
ATOM     35  C   UNL A   1      31.951  29.701  27.213  1.00  0.00     0.002 C 
BRANCH  35  36
ATOM     36  C   UNL A   1      31.805  31.165  26.804  1.00  0.00     0.021 C 
BRANCH  36  37
ATOM     37  C   UNL A   1      32.967  32.054  27.215  1.00  0.00     0.116 C 
BRANCH  37  38
ATOM     38  N   UNL A   1      32.574  33.435  27.439  1.00  0.00    -0.352 N 
ATOM     39  C   UNL A   1      33.119  34.328  28.333  1.00  0.00     0.251 C 
ATOM     40  H   UNL A   1      31.830  33.771  26.887  1.00  0.00     0.163 HD
ATOM     41  O   UNL A   1      32.621  35.432  28.512  1.00  0.00    -0.269 OA
BRANCH  39  42
ATOM     42  C   UNL A   1      34.298  33.899  29.112  1.00  0.00     0.039 A 
ATOM     43  C   UNL A   1      35.581  34.252  28.686  1.00  0.00     0.014 A 
ATOM     44  C   UNL A   1      34.117  33.051  30.206  1.00  0.00     0.014 A 
ATOM     45  C   UNL A   1      36.683  33.621  29.250  1.00  0.00     0.010 A 
ATOM     46  C   UNL A   1      35.232  32.484  30.825  1.00  0.00     0.010 A 
ATOM     47  C   UNL A   1      36.520  32.722  30.318  1.00  0.00    -0.014 A 
BRANCH  47  48
ATOM     48  C   UNL A   1      37.709  32.025  30.869  1.00  0.00     0.031 A 
ATOM     49  C   UNL A   1      38.191  32.314  32.266  1.00  0.00     0.074 A 
ATOM     50  C   UNL A   1      38.317  31.080  30.129  1.00  0.00     0.049 A 
ATOM     51  N   UNL A   1      39.200  31.790  32.916  1.00  0.00    -0.248 NA
ATOM     52  C   UNL A   1      37.445  33.325  33.032  1.00  0.00     0.031 C 
ATOM     53  C   UNL A   1      37.925  30.690  28.773  1.00  0.00     0.029 A 
ATOM     54  N   UNL A   1      39.371  30.256  30.423  1.00  0.00    -0.354 N 
ATOM     55  C   UNL A   1      39.222  32.418  34.157  1.00  0.00     0.074 A 
ATOM     56  C   UNL A   1      38.144  33.384  34.157  1.00  0.00     0.031 C 
ATOM     57  C   UNL A   1      38.689  29.662  28.377  1.00  0.00     0.029 A 
ATOM     58  C   UNL A   1      39.663  29.365  29.420  1.00  0.00     0.049 A 
ATOM     59  H   UNL A   1      39.871  30.298  31.270  1.00  0.00     0.167 HD
ATOM     60  C   UNL A   1      40.057  32.203  35.202  1.00  0.00     0.037 A 
ATOM     61  C   UNL A   1      40.618  28.421  29.345  1.00  0.00     0.037 A 
ATOM     62  C   UNL A   1      41.122  31.234  35.206  1.00  0.00     0.049 A 
ATOM     63  C   UNL A   1      41.574  28.254  30.489  1.00  0.00     0.074 A 
ATOM     64  C   UNL A   1      42.014  30.932  36.221  1.00  0.00     0.029 A 
ATOM     65  N   UNL A   1      41.440  30.408  34.137  1.00  0.00    -0.354 N 
ATOM     66  N   UNL A   1      41.586  28.859  31.652  1.00  0.00    -0.248 NA
ATOM     67  C   UNL A   1      42.659  27.283  30.300  1.00  0.00     0.031 C 
ATOM     68  C   UNL A   1      42.895  29.949  35.751  1.00  0.00     0.029 A 
ATOM     69  C   UNL A   1      42.528  29.612  34.460  1.00  0.00     0.049 A 
ATOM     70  H   UNL A   1      40.963  30.391  33.276  1.00  0.00     0.167 HD
ATOM     71  C   UNL A   1      42.671  28.332  32.339  1.00  0.00     0.074 A 
ATOM     72  C   UNL A   1      43.280  27.347  31.469  1.00  0.00     0.031 C 
ATOM     73  C   UNL A   1      43.124  28.642  33.579  1.00  0.00     0.037 A 
BRANCH  60  74
ATOM     74  C   UNL A   1      39.858  33.054  36.424  1.00  0.00     0.057 A 
ATOM     75  C   UNL A   1      38.941  32.679  37.414  1.00  0.00     0.134 A 
ATOM     76  C   UNL A   1      40.568  34.246  36.621  1.00  0.00     0.134 A 
ATOM     77  F   UNL A   1      38.223  31.553  37.286  1.00  0.00    -0.206 F 
ATOM     78  C   UNL A   1      38.741  33.456  38.557  1.00  0.00     0.040 A 
ATOM     79  C   UNL A   1      40.393  35.019  37.771  1.00  0.00     0.040 A 
ATOM     80  F   UNL A   1      41.473  34.655  35.719  1.00  0.00    -0.206 F 
ATOM     81  C   UNL A   1      39.475  34.625  38.742  1.00  0.00     0.006 A 
ENDBRANCH  60  74
BRANCH  61  82
ATOM     82  C   UNL A   1      40.718  27.563  28.140  1.00  0.00     0.057 A 
ATOM     83  C   UNL A   1      40.058  26.330  28.063  1.00  0.00     0.134 A 
ATOM     84  C   UNL A   1      41.480  27.960  27.037  1.00  0.00     0.134 A 
ATOM     85  F   UNL A   1      39.315  25.894  29.091  1.00  0.00    -0.206 F 
ATOM     86  C   UNL A   1      40.164  25.516  26.935  1.00  0.00     0.040 A 
ATOM     87  C   UNL A   1      41.575  27.166  25.893  1.00  0.00     0.040 A 
ATOM     88  F   UNL A   1      42.118  29.139  27.046  1.00  0.00    -0.206 F 
ATOM     89  C   UNL A   1      40.921  25.937  25.844  1.00  0.00     0.006 A 
ENDBRANCH  61  82
BRANCH  73  90
ATOM     90  C   UNL A   1      44.325  27.886  34.063  1.00  0.00     0.057 A 
ATOM     91  C   UNL A   1      45.615  28.395  33.871  1.00  0.00     0.134 A 
ATOM     92  C   UNL A   1      44.204  26.656  34.723  1.00  0.00     0.134 A 
ATOM     93  F   UNL A   1      45.799  29.567  33.244  1.00  0.00    -0.206 F 
ATOM     94  C   UNL A   1      46.743  27.708  34.321  1.00  0.00     0.040 A 
ATOM     95  C   UNL A   1      45.323  25.971  35.197  1.00  0.00     0.040 A 
ATOM     96  F   UNL A   1      42.993  26.126  34.954  1.00  0.00    -0.206 F 
ATOM     97  C   UNL A   1      46.598  26.495  34.993  1.00  0.00     0.006 A 
ENDBRANCH  73  90
ENDBRANCH  47  48
ENDBRANCH  39  42
ENDBRANCH  37  38
ENDBRANCH  36  37
ENDBRANCH  35  36
ENDBRANCH   1  35
TORSDOF 16
ENDMDL
MODEL 3
REMARK VINA RESULT:     -12.5      0.442      5.860
REMARK SMILES Cc1ccc2cc(C[N@H+]3CC[NH2+][C@H](C(=O)NCCCCCCNC(=O)c4ccc(-c5c6nc(c(-c7c(F)cccc7F)c7ccc([nH]7)c(-c7c(F)cccc7F)c7nc(c(-c8c(F)cccc8F)c8ccc5[nH]8)C=C7)C=C6)cc4)C3)c(N3CCOCC3)nc2c1
REMARK SMILES IDX 19 1 18 2 17 3 16 4 14 5 15 6 13 8 9 9 10 10 80 11 11 13
REMARK SMILES IDX 12 14 8 17 7 18 1 19 2 20 3 21 90 22 4 23 89 24 5 25 88 26
REMARK SMILES IDX 6 27 81 28 82 29 83 30 87 31 84 32 86 33 85 34 20 35 21 36
REMARK SMILES IDX 22 37 23 38 24 39 25 41 26 42 27 43 79 44 28 45 78 46 29 47
REMARK SMILES IDX 30 48 31 49 72 50 32 51 77 52 71 53 73 54 33 55 76 56 70 57
REMARK SMILES IDX 69 58 34 60 60 61 43 62 59 63 44 64 47 65 58 66 74 67 45 68
REMARK SMILES IDX 46 69 57 71 75 72 48 73 35 74 36 75 41 76 37 77 38 78 40 79
REMARK SMILES IDX 42 80 39 81 61 82 62 83 67 84 63 85 64 86 66 87 68 88 65 89
REMARK SMILES IDX 49 90 50 91 55 92 51 93 52 94 54 95 56 96 53 97
REMARK H PARENT 16 7 9 12 12 15 12 16 23 40 73 59 47 70
REMARK Flexibility Score: inf
ROOT
ATOM      1  C   UNL A   1      36.151  21.798  25.752  1.00  0.00     0.002 C 
ENDROOT
BRANCH   1   2
ATOM      2  C   UNL A   1      35.957  23.273  26.137  1.00  0.00     0.021 C 
BRANCH   2   3
ATOM      3  C   UNL A   1      35.038  24.057  25.204  1.00  0.00     0.116 C 
BRANCH   3   4
ATOM      4  N   UNL A   1      34.729  25.340  25.781  1.00  0.00    -0.351 N 
ATOM      5  C   UNL A   1      33.566  25.994  25.976  1.00  0.00     0.284 C 
ATOM      6  O   UNL A   1      33.677  27.165  26.368  1.00  0.00    -0.268 OA
ATOM      7  H   UNL A   1      35.520  25.835  26.094  1.00  0.00     0.163 HD
BRANCH   5   8
ATOM      8  C   UNL A   1      32.195  25.337  25.947  1.00  0.00     0.328 C 
ATOM      9  N   UNL A   1      29.776  25.960  25.527  1.00  0.00    -0.321 N 
ATOM     10  C   UNL A   1      29.436  24.763  26.320  1.00  0.00     0.324 C 
ATOM     11  C   UNL A   1      31.132  26.445  25.815  1.00  0.00     0.339 C 
ATOM     12  H   UNL A   1      29.137  26.684  25.856  1.00  0.00     0.348 HD
ATOM     13  C   UNL A   1      30.573  23.728  26.569  1.00  0.00     0.323 C 
ATOM     14  N   UNL A   1      31.847  24.358  27.009  1.00  0.00    -0.327 N 
ATOM     15  H   UNL A   1      32.580  23.654  27.099  1.00  0.00     0.347 HD
ATOM     16  H   UNL A   1      31.752  24.807  27.920  1.00  0.00     0.347 HD
BRANCH   9  17
ATOM     17  C   UNL A   1      29.439  25.895  24.088  1.00  0.00     0.303 C 
BRANCH  17  18
ATOM     18  C   UNL A   1      29.356  27.202  23.325  1.00  0.00     0.049 A 
ATOM     19  C   UNL A   1      28.777  33.604  22.997  1.00  0.00     0.044 C 
ATOM     20  C   UNL A   1      28.556  32.121  23.022  1.00  0.00    -0.049 A 
ATOM     21  C   UNL A   1      27.360  31.584  23.496  1.00  0.00     0.004 A 
ATOM     22  C   UNL A   1      29.565  31.249  22.578  1.00  0.00     0.032 A 
ATOM     23  C   UNL A   1      27.198  30.202  23.562  1.00  0.00     0.010 A 
ATOM     24  C   UNL A   1      29.446  29.867  22.675  1.00  0.00     0.073 A 
ATOM     25  C   UNL A   1      28.247  29.347  23.183  1.00  0.00     0.001 A 
ATOM     26  N   UNL A   1      30.491  29.080  22.358  1.00  0.00    -0.230 NA
ATOM     27  C   UNL A   1      28.191  27.975  23.432  1.00  0.00     0.023 A 
ATOM     28  C   UNL A   1      30.461  27.764  22.673  1.00  0.00     0.138 A 
BRANCH  28  29
ATOM     29  N   UNL A   1      31.597  27.014  22.423  1.00  0.00    -0.352 N 
ATOM     30  C   UNL A   1      31.539  25.995  21.365  1.00  0.00     0.146 C 
ATOM     31  C   UNL A   1      32.895  27.695  22.481  1.00  0.00     0.146 C 
ATOM     32  C   UNL A   1      32.660  24.976  21.625  1.00  0.00     0.181 C 
ATOM     33  C   UNL A   1      33.995  26.632  22.664  1.00  0.00     0.181 C 
ATOM     34  O   UNL A   1      33.948  25.617  21.644  1.00  0.00    -0.378 OA
ENDBRANCH  28  29
ENDBRANCH  17  18
ENDBRANCH   9  17
ENDBRANCH   5   8
ENDBRANCH   3   4
ENDBRANCH   2   3
ENDBRANCH   1   2
BRANCH   1  35
ATOM     35  C   UNL A   1      37.269  21.524  24.742  1.00  0.00     0.002 C 
BRANCH  35  36
ATOM     36  C   UNL A   1      38.075  20.252  24.997  1.00  0.00     0.021 C 
BRANCH  36  37
ATOM     37  C   UNL A   1      39.364  20.467  25.771  1.00  0.00     0.116 C 
BRANCH  37  38
ATOM     38  N   UNL A   1      40.170  19.262  25.878  1.00  0.00    -0.352 N 
ATOM     39  C   UNL A   1      41.515  19.174  26.153  1.00  0.00     0.251 C 
ATOM     40  H   UNL A   1      39.698  18.409  25.737  1.00  0.00     0.163 HD
ATOM     41  O   UNL A   1      42.106  18.102  26.098  1.00  0.00    -0.269 OA
BRANCH  39  42
ATOM     42  C   UNL A   1      42.244  20.420  26.466  1.00  0.00     0.039 A 
ATOM     43  C   UNL A   1      42.224  20.930  27.767  1.00  0.00     0.014 A 
ATOM     44  C   UNL A   1      42.851  21.130  25.429  1.00  0.00     0.014 A 
ATOM     45  C   UNL A   1      42.664  22.227  27.995  1.00  0.00     0.010 A 
ATOM     46  C   UNL A   1      43.369  22.401  25.682  1.00  0.00     0.010 A 
ATOM     47  C   UNL A   1      43.231  22.982  26.954  1.00  0.00    -0.014 A 
BRANCH  47  48
ATOM     48  C   UNL A   1      43.648  24.382  27.213  1.00  0.00     0.031 A 
ATOM     49  C   UNL A   1      42.651  25.408  27.684  1.00  0.00     0.074 A 
ATOM     50  C   UNL A   1      44.945  24.714  27.084  1.00  0.00     0.049 A 
ATOM     51  N   UNL A   1      42.841  26.671  27.975  1.00  0.00    -0.248 NA
ATOM     52  C   UNL A   1      41.260  24.958  27.850  1.00  0.00     0.031 C 
ATOM     53  C   UNL A   1      46.011  23.802  26.662  1.00  0.00     0.029 A 
ATOM     54  N   UNL A   1      45.594  25.897  27.324  1.00  0.00    -0.354 N 
ATOM     55  C   UNL A   1      41.595  27.170  28.338  1.00  0.00     0.074 A 
ATOM     56  C   UNL A   1      40.651  26.081  28.202  1.00  0.00     0.031 C 
ATOM     57  C   UNL A   1      47.187  24.442  26.731  1.00  0.00     0.029 A 
ATOM     58  C   UNL A   1      46.952  25.822  27.137  1.00  0.00     0.049 A 
ATOM     59  H   UNL A   1      45.131  26.721  27.602  1.00  0.00     0.167 HD
ATOM     60  C   UNL A   1      41.269  28.417  28.755  1.00  0.00     0.037 A 
ATOM     61  C   UNL A   1      47.902  26.766  27.268  1.00  0.00     0.037 A 
ATOM     62  C   UNL A   1      42.210  29.497  28.902  1.00  0.00     0.049 A 
ATOM     63  C   UNL A   1      47.502  28.157  27.662  1.00  0.00     0.074 A 
ATOM     64  C   UNL A   1      41.981  30.794  29.330  1.00  0.00     0.029 A 
ATOM     65  N   UNL A   1      43.566  29.405  28.621  1.00  0.00    -0.354 N 
ATOM     66  N   UNL A   1      46.320  28.615  27.996  1.00  0.00    -0.248 NA
ATOM     67  C   UNL A   1      48.570  29.166  27.680  1.00  0.00     0.031 C 
ATOM     68  C   UNL A   1      43.192  31.495  29.272  1.00  0.00     0.029 A 
ATOM     69  C   UNL A   1      44.182  30.626  28.845  1.00  0.00     0.049 A 
ATOM     70  H   UNL A   1      44.023  28.591  28.308  1.00  0.00     0.167 HD
ATOM     71  C   UNL A   1      46.503  29.962  28.277  1.00  0.00     0.074 A 
ATOM     72  C   UNL A   1      47.913  30.240  28.092  1.00  0.00     0.031 C 
ATOM     73  C   UNL A   1      45.585  30.886  28.650  1.00  0.00     0.037 A 
BRANCH  60  74
ATOM     74  C   UNL A   1      39.823  28.681  29.062  1.00  0.00     0.057 A 
ATOM     75  C   UNL A   1      38.955  29.147  28.065  1.00  0.00     0.134 A 
ATOM     76  C   UNL A   1      39.288  28.481  30.341  1.00  0.00     0.134 A 
ATOM     77  F   UNL A   1      39.402  29.365  26.820  1.00  0.00    -0.206 F 
ATOM     78  C   UNL A   1      37.607  29.399  28.330  1.00  0.00     0.040 A 
ATOM     79  C   UNL A   1      37.937  28.708  30.611  1.00  0.00     0.040 A 
ATOM     80  F   UNL A   1      40.060  28.023  31.337  1.00  0.00    -0.206 F 
ATOM     81  C   UNL A   1      37.093  29.170  29.604  1.00  0.00     0.006 A 
ENDBRANCH  60  74
BRANCH  61  82
ATOM     82  C   UNL A   1      49.323  26.425  27.021  1.00  0.00     0.057 A 
ATOM     83  C   UNL A   1      49.860  26.420  25.728  1.00  0.00     0.134 A 
ATOM     84  C   UNL A   1      50.176  26.093  28.078  1.00  0.00     0.134 A 
ATOM     85  F   UNL A   1      49.091  26.725  24.673  1.00  0.00    -0.206 F 
ATOM     86  C   UNL A   1      51.194  26.084  25.495  1.00  0.00     0.040 A 
ATOM     87  C   UNL A   1      51.518  25.778  27.862  1.00  0.00     0.040 A 
ATOM     88  F   UNL A   1      49.722  26.100  29.340  1.00  0.00    -0.206 F 
ATOM     89  C   UNL A   1      52.028  25.767  26.565  1.00  0.00     0.006 A 
ENDBRANCH  61  82
BRANCH  73  90
ATOM     90  C   UNL A   1      46.091  32.275  28.899  1.00  0.00     0.057 A 
ATOM     91  C   UNL A   1      46.558  32.649  30.164  1.00  0.00     0.134 A 
ATOM     92  C   UNL A   1      46.119  33.242  27.885  1.00  0.00     0.134 A 
ATOM     93  F   UNL A   1      46.555  31.771  31.179  1.00  0.00    -0.206 F 
ATOM     94  C   UNL A   1      47.038  33.936  30.412  1.00  0.00     0.040 A 
ATOM     95  C   UNL A   1      46.618  34.524  28.115  1.00  0.00     0.040 A 
ATOM     96  F   UNL A   1      45.703  32.938  26.646  1.00  0.00    -0.206 F 
ATOM     97  C   UNL A   1      47.076  34.875  29.384  1.00  0.00     0.006 A 
ENDBRANCH  73  90
ENDBRANCH  47  48
ENDBRANCH  39  42
ENDBRANCH  37  38
ENDBRANCH  36  37
ENDBRANCH  35  36
ENDBRANCH   1  35
TORSDOF 16
ENDMDL
