MODEL 1
REMARK VINA RESULT:     -14.0      0.000      0.000
REMARK SMILES C[C@]12C(=O)N(c3ccc(C(=O)NCCCCCCNC(=O)c4ccc(-c5c6nc(c(-c7c(F)cccc7F)c7ccc([nH]7)c(-c7c(F)cccc7F)c7nc(c(-c8c(F)cccc8F)c8ccc5[nH]8)C=C7)C=C6)cc4)cc3)C(=O)[C@H]1[C@H]1c3ccccc3[C@@H]2c2ccccc21
REMARK SMILES IDX 16 1 15 2 14 3 13 4 12 5 10 6 11 7 9 9 6 10 7 11 77 12 8 13
REMARK SMILES IDX 76 14 5 15 1 16 2 17 3 18 80 19 88 20 4 21 78 22 81 23 87 24
REMARK SMILES IDX 89 25 79 26 82 27 94 28 86 29 90 30 83 31 93 32 85 33 91 34
REMARK SMILES IDX 84 35 92 36 17 37 18 38 19 39 20 40 21 42 22 43 23 44 75 45
REMARK SMILES IDX 24 46 74 47 25 48 26 49 27 50 68 51 28 52 73 53 67 54 69 55
REMARK SMILES IDX 29 56 72 57 66 58 65 59 30 61 56 62 39 63 55 64 40 65 43 66
REMARK SMILES IDX 54 67 70 68 41 69 42 70 53 72 71 73 44 74 31 75 32 76 37 77
REMARK SMILES IDX 33 78 34 79 36 80 38 81 35 82 57 83 58 84 63 85 59 86 60 87
REMARK SMILES IDX 62 88 64 89 61 90 45 91 46 92 51 93 47 94 48 95 50 96 52 97
REMARK SMILES IDX 49 98
REMARK H PARENT 12 8 19 41 69 60 43 71
REMARK Flexibility Score: inf
ROOT
ATOM      1  C   UNL A   1      36.049  19.813  25.039  1.00  0.00     0.002 C 
ENDROOT
BRANCH   1   2
ATOM      2  C   UNL A   1      35.885  18.513  24.246  1.00  0.00     0.002 C 
BRANCH   2   3
ATOM      3  C   UNL A   1      35.325  17.303  24.995  1.00  0.00     0.021 C 
BRANCH   3   4
ATOM      4  C   UNL A   1      33.813  17.120  24.958  1.00  0.00     0.116 C 
BRANCH   4   5
ATOM      5  N   UNL A   1      33.278  17.064  23.614  1.00  0.00    -0.352 N 
ATOM      6  C   UNL A   1      32.629  18.024  22.881  1.00  0.00     0.251 C 
ATOM      7  O   UNL A   1      32.184  17.739  21.771  1.00  0.00    -0.269 OA
ATOM      8  H   UNL A   1      33.400  16.202  23.153  1.00  0.00     0.163 HD
BRANCH   6   9
ATOM      9  C   UNL A   1      32.443  19.396  23.405  1.00  0.00     0.039 A 
ATOM     10  C   UNL A   1      31.898  21.963  24.484  1.00  0.00     0.052 A 
ATOM     11  C   UNL A   1      32.111  20.847  25.318  1.00  0.00     0.027 A 
ATOM     12  C   UNL A   1      32.003  21.760  23.102  1.00  0.00     0.027 A 
ATOM     13  C   UNL A   1      32.377  19.577  24.785  1.00  0.00     0.016 A 
ATOM     14  C   UNL A   1      32.233  20.490  22.566  1.00  0.00     0.016 A 
BRANCH  10  15
ATOM     15  N   UNL A   1      31.387  23.195  24.986  1.00  0.00    -0.250 N 
ATOM     16  C   UNL A   1      29.646  26.214  25.023  1.00  0.00     0.024 C 
ATOM     17  C   UNL A   1      30.991  25.490  24.919  1.00  0.00     0.071 C 
ATOM     18  C   UNL A   1      30.814  24.173  24.205  1.00  0.00     0.241 C 
ATOM     19  C   UNL A   1      31.492  25.132  26.346  1.00  0.00     0.107 C 
ATOM     20  C   UNL A   1      32.115  26.236  24.120  1.00  0.00     0.066 C 
ATOM     21  O   UNL A   1      30.286  24.089  23.115  1.00  0.00    -0.273 OA
ATOM     22  C   UNL A   1      31.469  23.617  26.298  1.00  0.00     0.238 C 
ATOM     23  C   UNL A   1      32.885  25.804  26.606  1.00  0.00     0.063 C 
ATOM     24  C   UNL A   1      33.416  25.414  24.238  1.00  0.00    -0.036 A 
ATOM     25  C   UNL A   1      32.345  27.518  24.894  1.00  0.00    -0.036 A 
ATOM     26  O   UNL A   1      31.423  22.931  27.315  1.00  0.00    -0.274 OA
ATOM     27  C   UNL A   1      33.840  25.208  25.577  1.00  0.00    -0.036 A 
ATOM     28  C   UNL A   1      32.730  27.300  26.245  1.00  0.00    -0.036 A 
ATOM     29  C   UNL A   1      34.108  24.825  23.190  1.00  0.00     0.005 A 
ATOM     30  C   UNL A   1      32.190  28.793  24.367  1.00  0.00     0.005 A 
ATOM     31  C   UNL A   1      34.971  24.454  25.864  1.00  0.00     0.004 A 
ATOM     32  C   UNL A   1      32.957  28.393  27.069  1.00  0.00     0.004 A 
ATOM     33  C   UNL A   1      35.229  24.041  23.484  1.00  0.00     0.000 A 
ATOM     34  C   UNL A   1      32.421  29.881  25.200  1.00  0.00     0.000 A 
ATOM     35  C   UNL A   1      35.663  23.867  24.807  1.00  0.00     0.000 A 
ATOM     36  C   UNL A   1      32.796  29.683  26.538  1.00  0.00     0.000 A 
ENDBRANCH  10  15
ENDBRANCH   6   9
ENDBRANCH   4   5
ENDBRANCH   3   4
ENDBRANCH   2   3
ENDBRANCH   1   2
BRANCH   1  37
ATOM     37  C   UNL A   1      37.200  20.734  24.635  1.00  0.00     0.021 C 
BRANCH  37  38
ATOM     38  C   UNL A   1      38.356  20.843  25.618  1.00  0.00     0.116 C 
BRANCH  38  39
ATOM     39  N   UNL A   1      39.298  19.741  25.542  1.00  0.00    -0.352 N 
ATOM     40  C   UNL A   1      40.619  19.704  25.930  1.00  0.00     0.251 C 
ATOM     41  H   UNL A   1      38.944  18.904  25.162  1.00  0.00     0.163 HD
ATOM     42  O   UNL A   1      41.300  18.706  25.715  1.00  0.00    -0.269 OA
BRANCH  40  43
ATOM     43  C   UNL A   1      41.238  20.896  26.558  1.00  0.00     0.039 A 
ATOM     44  C   UNL A   1      41.192  21.092  27.940  1.00  0.00     0.014 A 
ATOM     45  C   UNL A   1      41.839  21.857  25.738  1.00  0.00     0.014 A 
ATOM     46  C   UNL A   1      41.573  22.319  28.476  1.00  0.00     0.010 A 
ATOM     47  C   UNL A   1      42.297  23.057  26.291  1.00  0.00     0.010 A 
ATOM     48  C   UNL A   1      42.110  23.324  27.655  1.00  0.00    -0.014 A 
BRANCH  48  49
ATOM     49  C   UNL A   1      42.425  24.656  28.240  1.00  0.00     0.031 A 
ATOM     50  C   UNL A   1      43.847  25.029  28.578  1.00  0.00     0.074 A 
ATOM     51  C   UNL A   1      41.442  25.561  28.405  1.00  0.00     0.049 A 
ATOM     52  N   UNL A   1      44.316  26.159  29.049  1.00  0.00    -0.248 NA
ATOM     53  C   UNL A   1      44.877  24.001  28.362  1.00  0.00     0.031 C 
ATOM     54  C   UNL A   1      40.027  25.332  28.113  1.00  0.00     0.029 A 
ATOM     55  N   UNL A   1      41.487  26.864  28.834  1.00  0.00    -0.354 N 
ATOM     56  C   UNL A   1      45.684  25.971  29.201  1.00  0.00     0.074 A 
ATOM     57  C   UNL A   1      45.969  24.609  28.802  1.00  0.00     0.031 C 
ATOM     58  C   UNL A   1      39.346  26.471  28.319  1.00  0.00     0.029 A 
ATOM     59  C   UNL A   1      40.267  27.493  28.806  1.00  0.00     0.049 A 
ATOM     60  H   UNL A   1      42.315  27.306  29.133  1.00  0.00     0.167 HD
ATOM     61  C   UNL A   1      46.625  26.853  29.621  1.00  0.00     0.037 A 
ATOM     62  C   UNL A   1      39.925  28.752  29.139  1.00  0.00     0.037 A 
ATOM     63  C   UNL A   1      46.354  28.216  29.998  1.00  0.00     0.049 A 
ATOM     64  C   UNL A   1      40.980  29.699  29.632  1.00  0.00     0.074 A 
ATOM     65  C   UNL A   1      47.246  29.191  30.413  1.00  0.00     0.029 A 
ATOM     66  N   UNL A   1      45.096  28.798  30.003  1.00  0.00    -0.354 N 
ATOM     67  N   UNL A   1      42.271  29.508  29.754  1.00  0.00    -0.248 NA
ATOM     68  C   UNL A   1      40.527  31.035  30.042  1.00  0.00     0.031 C 
ATOM     69  C   UNL A   1      46.521  30.354  30.702  1.00  0.00     0.029 A 
ATOM     70  C   UNL A   1      45.185  30.113  30.431  1.00  0.00     0.049 A 
ATOM     71  H   UNL A   1      44.263  28.344  29.742  1.00  0.00     0.167 HD
ATOM     72  C   UNL A   1      42.786  30.702  30.240  1.00  0.00     0.074 A 
ATOM     73  C   UNL A   1      41.671  31.617  30.369  1.00  0.00     0.031 C 
ATOM     74  C   UNL A   1      44.067  31.011  30.558  1.00  0.00     0.037 A 
BRANCH  61  75
ATOM     75  C   UNL A   1      48.041  26.363  29.703  1.00  0.00     0.057 A 
ATOM     76  C   UNL A   1      48.535  25.800  30.887  1.00  0.00     0.134 A 
ATOM     77  C   UNL A   1      48.924  26.468  28.621  1.00  0.00     0.134 A 
ATOM     78  F   UNL A   1      47.744  25.675  31.963  1.00  0.00    -0.206 F 
ATOM     79  C   UNL A   1      49.855  25.359  30.991  1.00  0.00     0.040 A 
ATOM     80  C   UNL A   1      50.241  26.011  28.706  1.00  0.00     0.040 A 
ATOM     81  F   UNL A   1      48.511  26.985  27.453  1.00  0.00    -0.206 F 
ATOM     82  C   UNL A   1      50.711  25.459  29.895  1.00  0.00     0.006 A 
ENDBRANCH  61  75
BRANCH  62  83
ATOM     83  C   UNL A   1      38.514  29.194  29.017  1.00  0.00     0.057 A 
ATOM     84  C   UNL A   1      37.650  29.185  30.117  1.00  0.00     0.134 A 
ATOM     85  C   UNL A   1      38.004  29.652  27.797  1.00  0.00     0.134 A 
ATOM     86  F   UNL A   1      38.080  28.755  31.313  1.00  0.00    -0.206 F 
ATOM     87  C   UNL A   1      36.325  29.608  30.009  1.00  0.00     0.040 A 
ATOM     88  C   UNL A   1      36.688  30.101  27.679  1.00  0.00     0.040 A 
ATOM     89  F   UNL A   1      38.791  29.702  26.713  1.00  0.00    -0.206 F 
ATOM     90  C   UNL A   1      35.843  30.075  28.787  1.00  0.00     0.006 A 
ENDBRANCH  62  83
BRANCH  74  91
ATOM     91  C   UNL A   1      44.325  32.401  31.055  1.00  0.00     0.057 A 
ATOM     92  C   UNL A   1      44.604  33.441  30.159  1.00  0.00     0.134 A 
ATOM     93  C   UNL A   1      44.304  32.709  32.421  1.00  0.00     0.134 A 
ATOM     94  F   UNL A   1      44.644  33.211  28.838  1.00  0.00    -0.206 F 
ATOM     95  C   UNL A   1      44.850  34.740  30.606  1.00  0.00     0.040 A 
ATOM     96  C   UNL A   1      44.526  34.009  32.878  1.00  0.00     0.040 A 
ATOM     97  F   UNL A   1      44.026  31.760  33.327  1.00  0.00    -0.206 F 
ATOM     98  C   UNL A   1      44.804  35.028  31.969  1.00  0.00     0.006 A 
ENDBRANCH  74  91
ENDBRANCH  48  49
ENDBRANCH  40  43
ENDBRANCH  38  39
ENDBRANCH  37  38
ENDBRANCH   1  37
TORSDOF 14
ENDMDL
MODEL 2
REMARK VINA RESULT:     -14.0      2.332      7.474
REMARK SMILES C[C@]12C(=O)N(c3ccc(C(=O)NCCCCCCNC(=O)c4ccc(-c5c6nc(c(-c7c(F)cccc7F)c7ccc([nH]7)c(-c7c(F)cccc7F)c7nc(c(-c8c(F)cccc8F)c8ccc5[nH]8)C=C7)C=C6)cc4)cc3)C(=O)[C@H]1[C@H]1c3ccccc3[C@@H]2c2ccccc21
REMARK SMILES IDX 16 1 15 2 14 3 13 4 12 5 10 6 11 7 9 9 6 10 7 11 77 12 8 13
REMARK SMILES IDX 76 14 5 15 1 16 2 17 3 18 80 19 88 20 4 21 78 22 81 23 87 24
REMARK SMILES IDX 89 25 79 26 82 27 94 28 86 29 90 30 83 31 93 32 85 33 91 34
REMARK SMILES IDX 84 35 92 36 17 37 18 38 19 39 20 40 21 42 22 43 23 44 75 45
REMARK SMILES IDX 24 46 74 47 25 48 26 49 27 50 68 51 28 52 73 53 67 54 69 55
REMARK SMILES IDX 29 56 72 57 66 58 65 59 30 61 56 62 39 63 55 64 40 65 43 66
REMARK SMILES IDX 54 67 70 68 41 69 42 70 53 72 71 73 44 74 31 75 32 76 37 77
REMARK SMILES IDX 33 78 34 79 36 80 38 81 35 82 57 83 58 84 63 85 59 86 60 87
REMARK SMILES IDX 62 88 64 89 61 90 45 91 46 92 51 93 47 94 48 95 50 96 52 97
REMARK SMILES IDX 49 98
REMARK H PARENT 12 8 19 41 69 60 43 71
REMARK Flexibility Score: inf
ROOT
ATOM      1  C   UNL A   1      31.435  28.515  26.220  1.00  0.00     0.002 C 
ENDROOT
BRANCH   1   2
ATOM      2  C   UNL A   1      31.904  28.624  24.766  1.00  0.00     0.002 C 
BRANCH   2   3
ATOM      3  C   UNL A   1      30.977  29.341  23.784  1.00  0.00     0.021 C 
BRANCH   3   4
ATOM      4  C   UNL A   1      30.253  28.465  22.769  1.00  0.00     0.116 C 
BRANCH   4   5
ATOM      5  N   UNL A   1      28.874  28.204  23.122  1.00  0.00    -0.352 N 
ATOM      6  C   UNL A   1      28.311  27.117  23.740  1.00  0.00     0.251 C 
ATOM      7  O   UNL A   1      27.090  27.065  23.877  1.00  0.00    -0.269 OA
ATOM      8  H   UNL A   1      28.241  28.918  22.881  1.00  0.00     0.163 HD
BRANCH   6   9
ATOM      9  C   UNL A   1      29.143  25.998  24.236  1.00  0.00     0.039 A 
ATOM     10  C   UNL A   1      30.872  23.998  25.266  1.00  0.00     0.052 A 
ATOM     11  C   UNL A   1      30.132  24.839  26.121  1.00  0.00     0.027 A 
ATOM     12  C   UNL A   1      30.689  24.165  23.887  1.00  0.00     0.027 A 
ATOM     13  C   UNL A   1      29.280  25.831  25.613  1.00  0.00     0.016 A 
ATOM     14  C   UNL A   1      29.868  25.174  23.377  1.00  0.00     0.016 A 
BRANCH  10  15
ATOM     15  N   UNL A   1      31.919  23.161  25.750  1.00  0.00    -0.250 N 
ATOM     16  C   UNL A   1      34.402  21.975  27.888  1.00  0.00     0.024 C 
ATOM     17  C   UNL A   1      34.043  22.734  26.608  1.00  0.00     0.071 C 
ATOM     18  C   UNL A   1      32.749  23.485  26.800  1.00  0.00     0.241 C 
ATOM     19  C   UNL A   1      33.774  21.715  25.466  1.00  0.00     0.107 C 
ATOM     20  C   UNL A   1      35.073  23.818  26.137  1.00  0.00     0.066 C 
ATOM     21  O   UNL A   1      32.571  24.252  27.724  1.00  0.00    -0.273 OA
ATOM     22  C   UNL A   1      32.303  21.959  25.189  1.00  0.00     0.238 C 
ATOM     23  C   UNL A   1      34.764  21.972  24.278  1.00  0.00     0.063 C 
ATOM     24  C   UNL A   1      34.600  24.373  24.777  1.00  0.00    -0.036 A 
ATOM     25  C   UNL A   1      36.345  23.041  25.864  1.00  0.00    -0.036 A 
ATOM     26  O   UNL A   1      31.594  21.124  24.637  1.00  0.00    -0.274 OA
ATOM     27  C   UNL A   1      34.461  23.379  23.773  1.00  0.00    -0.036 A 
ATOM     28  C   UNL A   1      36.184  22.021  24.887  1.00  0.00    -0.036 A 
ATOM     29  C   UNL A   1      34.238  25.686  24.511  1.00  0.00     0.005 A 
ATOM     30  C   UNL A   1      37.557  23.270  26.500  1.00  0.00     0.005 A 
ATOM     31  C   UNL A   1      34.005  23.701  22.501  1.00  0.00     0.004 A 
ATOM     32  C   UNL A   1      37.270  21.225  24.556  1.00  0.00     0.004 A 
ATOM     33  C   UNL A   1      33.750  26.002  23.238  1.00  0.00     0.000 A 
ATOM     34  C   UNL A   1      38.640  22.468  26.160  1.00  0.00     0.000 A 
ATOM     35  C   UNL A   1      33.646  25.022  22.239  1.00  0.00     0.000 A 
ATOM     36  C   UNL A   1      38.497  21.453  25.201  1.00  0.00     0.000 A 
ENDBRANCH  10  15
ENDBRANCH   6   9
ENDBRANCH   4   5
ENDBRANCH   3   4
ENDBRANCH   2   3
ENDBRANCH   1   2
BRANCH   1  37
ATOM     37  C   UNL A   1      32.457  28.024  27.246  1.00  0.00     0.021 C 
BRANCH  37  38
ATOM     38  C   UNL A   1      33.826  28.686  27.207  1.00  0.00     0.116 C 
BRANCH  38  39
ATOM     39  N   UNL A   1      33.858  30.006  27.811  1.00  0.00    -0.352 N 
ATOM     40  C   UNL A   1      34.905  30.647  28.435  1.00  0.00     0.251 C 
ATOM     41  H   UNL A   1      33.014  30.513  27.770  1.00  0.00     0.163 HD
ATOM     42  O   UNL A   1      34.734  31.737  28.970  1.00  0.00    -0.269 OA
BRANCH  40  43
ATOM     43  C   UNL A   1      36.233  29.990  28.511  1.00  0.00     0.039 A 
ATOM     44  C   UNL A   1      36.651  29.334  29.670  1.00  0.00     0.014 A 
ATOM     45  C   UNL A   1      37.091  30.075  27.410  1.00  0.00     0.014 A 
ATOM     46  C   UNL A   1      37.978  28.931  29.795  1.00  0.00     0.010 A 
ATOM     47  C   UNL A   1      38.401  29.594  27.508  1.00  0.00     0.010 A 
ATOM     48  C   UNL A   1      38.875  29.075  28.723  1.00  0.00    -0.014 A 
BRANCH  48  49
ATOM     49  C   UNL A   1      40.307  28.719  28.914  1.00  0.00     0.031 A 
ATOM     50  C   UNL A   1      40.828  27.374  28.475  1.00  0.00     0.074 A 
ATOM     51  C   UNL A   1      41.159  29.631  29.421  1.00  0.00     0.049 A 
ATOM     52  N   UNL A   1      42.052  26.907  28.518  1.00  0.00    -0.248 NA
ATOM     53  C   UNL A   1      39.850  26.428  27.917  1.00  0.00     0.031 C 
ATOM     54  C   UNL A   1      40.788  30.970  29.878  1.00  0.00     0.029 A 
ATOM     55  N   UNL A   1      42.517  29.578  29.610  1.00  0.00    -0.354 N 
ATOM     56  C   UNL A   1      41.986  25.614  28.013  1.00  0.00     0.074 A 
ATOM     57  C   UNL A   1      40.597  25.356  27.698  1.00  0.00     0.031 C 
ATOM     58  C   UNL A   1      41.897  31.631  30.245  1.00  0.00     0.029 A 
ATOM     59  C   UNL A   1      43.049  30.747  30.097  1.00  0.00     0.049 A 
ATOM     60  H   UNL A   1      43.059  28.779  29.415  1.00  0.00     0.167 HD
ATOM     61  C   UNL A   1      42.990  24.724  27.814  1.00  0.00     0.037 A 
ATOM     62  C   UNL A   1      44.320  31.071  30.396  1.00  0.00     0.037 A 
ATOM     63  C   UNL A   1      44.377  24.980  28.104  1.00  0.00     0.049 A 
ATOM     64  C   UNL A   1      45.408  30.056  30.198  1.00  0.00     0.074 A 
ATOM     65  C   UNL A   1      45.467  24.147  27.913  1.00  0.00     0.029 A 
ATOM     66  N   UNL A   1      44.865  26.160  28.644  1.00  0.00    -0.354 N 
ATOM     67  N   UNL A   1      45.328  28.844  29.704  1.00  0.00    -0.248 NA
ATOM     68  C   UNL A   1      46.762  30.452  30.607  1.00  0.00     0.031 C 
ATOM     69  C   UNL A   1      46.611  24.812  28.371  1.00  0.00     0.029 A 
ATOM     70  C   UNL A   1      46.238  26.071  28.811  1.00  0.00     0.049 A 
ATOM     71  H   UNL A   1      44.317  26.944  28.876  1.00  0.00     0.167 HD
ATOM     72  C   UNL A   1      46.621  28.339  29.730  1.00  0.00     0.074 A 
ATOM     73  C   UNL A   1      47.468  29.384  30.267  1.00  0.00     0.031 C 
ATOM     74  C   UNL A   1      47.067  27.117  29.349  1.00  0.00     0.037 A 
BRANCH  61  75
ATOM     75  C   UNL A   1      42.618  23.378  27.262  1.00  0.00     0.057 A 
ATOM     76  C   UNL A   1      42.244  22.334  28.118  1.00  0.00     0.134 A 
ATOM     77  C   UNL A   1      42.652  23.107  25.888  1.00  0.00     0.134 A 
ATOM     78  F   UNL A   1      42.196  22.524  29.445  1.00  0.00    -0.206 F 
ATOM     79  C   UNL A   1      41.916  21.069  27.626  1.00  0.00     0.040 A 
ATOM     80  C   UNL A   1      42.305  21.853  25.383  1.00  0.00     0.040 A 
ATOM     81  F   UNL A   1      42.988  24.068  25.014  1.00  0.00    -0.206 F 
ATOM     82  C   UNL A   1      41.941  20.828  26.254  1.00  0.00     0.006 A 
ENDBRANCH  61  75
BRANCH  62  83
ATOM     83  C   UNL A   1      44.638  32.424  30.917  1.00  0.00     0.057 A 
ATOM     84  C   UNL A   1      44.903  33.493  30.055  1.00  0.00     0.134 A 
ATOM     85  C   UNL A   1      44.666  32.679  32.293  1.00  0.00     0.134 A 
ATOM     86  F   UNL A   1      44.893  33.310  28.726  1.00  0.00    -0.206 F 
ATOM     87  C   UNL A   1      45.194  34.767  30.541  1.00  0.00     0.040 A 
ATOM     88  C   UNL A   1      44.932  33.954  32.793  1.00  0.00     0.040 A 
ATOM     89  F   UNL A   1      44.399  31.698  33.167  1.00  0.00    -0.206 F 
ATOM     90  C   UNL A   1      45.201  35.003  31.915  1.00  0.00     0.006 A 
ENDBRANCH  62  83
BRANCH  74  91
ATOM     91  C   UNL A   1      48.537  26.860  29.485  1.00  0.00     0.057 A 
ATOM     92  C   UNL A   1      49.420  27.192  28.450  1.00  0.00     0.134 A 
ATOM     93  C   UNL A   1      49.078  26.277  30.638  1.00  0.00     0.134 A 
ATOM     94  F   UNL A   1      48.964  27.749  27.317  1.00  0.00    -0.206 F 
ATOM     95  C   UNL A   1      50.791  26.955  28.558  1.00  0.00     0.040 A 
ATOM     96  C   UNL A   1      50.450  26.056  30.766  1.00  0.00     0.040 A 
ATOM     97  F   UNL A   1      48.286  25.952  31.670  1.00  0.00    -0.206 F 
ATOM     98  C   UNL A   1      51.310  26.393  29.722  1.00  0.00     0.006 A 
ENDBRANCH  74  91
ENDBRANCH  48  49
ENDBRANCH  40  43
ENDBRANCH  38  39
ENDBRANCH  37  38
ENDBRANCH   1  37
TORSDOF 14
ENDMDL
MODEL 3
REMARK VINA RESULT:     -14.0      2.309      7.626
REMARK SMILES C[C@]12C(=O)N(c3ccc(C(=O)NCCCCCCNC(=O)c4ccc(-c5c6nc(c(-c7c(F)cccc7F)c7ccc([nH]7)c(-c7c(F)cccc7F)c7nc(c(-c8c(F)cccc8F)c8ccc5[nH]8)C=C7)C=C6)cc4)cc3)C(=O)[C@H]1[C@H]1c3ccccc3[C@@H]2c2ccccc21
REMARK SMILES IDX 16 1 15 2 14 3 13 4 12 5 10 6 11 7 9 9 6 10 7 11 77 12 8 13
REMARK SMILES IDX 76 14 5 15 1 16 2 17 3 18 80 19 88 20 4 21 78 22 81 23 87 24
REMARK SMILES IDX 89 25 79 26 82 27 94 28 86 29 90 30 83 31 93 32 85 33 91 34
REMARK SMILES IDX 84 35 92 36 17 37 18 38 19 39 20 40 21 42 22 43 23 44 75 45
REMARK SMILES IDX 24 46 74 47 25 48 26 49 27 50 68 51 28 52 73 53 67 54 69 55
REMARK SMILES IDX 29 56 72 57 66 58 65 59 30 61 56 62 39 63 55 64 40 65 43 66
REMARK SMILES IDX 54 67 70 68 41 69 42 70 53 72 71 73 44 74 31 75 32 76 37 77
REMARK SMILES IDX 33 78 34 79 36 80 38 81 35 82 57 83 58 84 63 85 59 86 60 87
REMARK SMILES IDX 62 88 64 89 61 90 45 91 46 92 51 93 47 94 48 95 50 96 52 97
REMARK SMILES IDX 49 98
REMARK H PARENT 12 8 19 41 69 60 43 71
REMARK Flexibility Score: inf
ROOT
ATOM      1  C   UNL A   1      31.391  28.725  26.186  1.00  0.00     0.002 C 
ENDROOT
BRANCH   1   2
ATOM      2  C   UNL A   1      31.850  28.581  24.732  1.00  0.00     0.002 C 
BRANCH   2   3
ATOM      3  C   UNL A   1      31.037  29.315  23.665  1.00  0.00     0.021 C 
BRANCH   3   4
ATOM      4  C   UNL A   1      30.275  28.446  22.674  1.00  0.00     0.116 C 
BRANCH   4   5
ATOM      5  N   UNL A   1      28.898  28.213  23.059  1.00  0.00    -0.352 N 
ATOM      6  C   UNL A   1      28.332  27.151  23.716  1.00  0.00     0.251 C 
ATOM      7  O   UNL A   1      27.114  27.120  23.877  1.00  0.00    -0.269 OA
ATOM      8  H   UNL A   1      28.271  28.930  22.811  1.00  0.00     0.163 HD
BRANCH   6   9
ATOM      9  C   UNL A   1      29.159  26.033  24.225  1.00  0.00     0.039 A 
ATOM     10  C   UNL A   1      30.877  24.036  25.278  1.00  0.00     0.052 A 
ATOM     11  C   UNL A   1      30.149  24.897  26.123  1.00  0.00     0.027 A 
ATOM     12  C   UNL A   1      30.689  24.183  23.897  1.00  0.00     0.027 A 
ATOM     13  C   UNL A   1      29.302  25.887  25.604  1.00  0.00     0.016 A 
ATOM     14  C   UNL A   1      29.873  25.190  23.375  1.00  0.00     0.016 A 
BRANCH  10  15
ATOM     15  N   UNL A   1      31.920  23.199  25.770  1.00  0.00    -0.250 N 
ATOM     16  C   UNL A   1      34.403  22.026  27.916  1.00  0.00     0.024 C 
ATOM     17  C   UNL A   1      34.044  22.770  26.627  1.00  0.00     0.071 C 
ATOM     18  C   UNL A   1      32.756  23.531  26.812  1.00  0.00     0.241 C 
ATOM     19  C   UNL A   1      33.764  21.737  25.499  1.00  0.00     0.107 C 
ATOM     20  C   UNL A   1      35.080  23.839  26.137  1.00  0.00     0.066 C 
ATOM     21  O   UNL A   1      32.587  24.312  27.726  1.00  0.00    -0.273 OA
ATOM     22  C   UNL A   1      32.295  21.987  25.223  1.00  0.00     0.238 C 
ATOM     23  C   UNL A   1      34.752  21.971  24.304  1.00  0.00     0.063 C 
ATOM     24  C   UNL A   1      34.606  24.380  24.771  1.00  0.00    -0.036 A 
ATOM     25  C   UNL A   1      36.346  23.050  25.870  1.00  0.00    -0.036 A 
ATOM     26  O   UNL A   1      31.578  21.150  24.685  1.00  0.00    -0.274 OA
ATOM     27  C   UNL A   1      34.457  23.373  23.781  1.00  0.00    -0.036 A 
ATOM     28  C   UNL A   1      36.175  22.019  24.907  1.00  0.00    -0.036 A 
ATOM     29  C   UNL A   1      34.252  25.691  24.488  1.00  0.00     0.005 A 
ATOM     30  C   UNL A   1      37.562  23.280  26.499  1.00  0.00     0.005 A 
ATOM     31  C   UNL A   1      33.999  23.681  22.506  1.00  0.00     0.004 A 
ATOM     32  C   UNL A   1      37.255  21.211  24.584  1.00  0.00     0.004 A 
ATOM     33  C   UNL A   1      33.762  25.994  23.213  1.00  0.00     0.000 A 
ATOM     34  C   UNL A   1      38.638  22.466  26.167  1.00  0.00     0.000 A 
ATOM     35  C   UNL A   1      33.648  25.001  22.228  1.00  0.00     0.000 A 
ATOM     36  C   UNL A   1      38.485  21.439  25.222  1.00  0.00     0.000 A 
ENDBRANCH  10  15
ENDBRANCH   6   9
ENDBRANCH   4   5
ENDBRANCH   3   4
ENDBRANCH   2   3
ENDBRANCH   1   2
BRANCH   1  37
ATOM     37  C   UNL A   1      32.379  28.303  27.273  1.00  0.00     0.021 C 
BRANCH  37  38
ATOM     38  C   UNL A   1      33.745  28.974  27.243  1.00  0.00     0.116 C 
BRANCH  38  39
ATOM     39  N   UNL A   1      33.799  30.229  27.971  1.00  0.00    -0.352 N 
ATOM     40  C   UNL A   1      34.861  30.796  28.639  1.00  0.00     0.251 C 
ATOM     41  H   UNL A   1      32.961  30.746  27.990  1.00  0.00     0.163 HD
ATOM     42  O   UNL A   1      34.709  31.832  29.279  1.00  0.00    -0.269 OA
BRANCH  40  43
ATOM     43  C   UNL A   1      36.183  30.122  28.633  1.00  0.00     0.039 A 
ATOM     44  C   UNL A   1      36.659  29.454  29.763  1.00  0.00     0.014 A 
ATOM     45  C   UNL A   1      36.976  30.201  27.484  1.00  0.00     0.014 A 
ATOM     46  C   UNL A   1      37.986  29.033  29.808  1.00  0.00     0.010 A 
ATOM     47  C   UNL A   1      38.283  29.702  27.504  1.00  0.00     0.010 A 
ATOM     48  C   UNL A   1      38.820  29.171  28.686  1.00  0.00    -0.014 A 
BRANCH  48  49
ATOM     49  C   UNL A   1      40.256  28.794  28.791  1.00  0.00     0.031 A 
ATOM     50  C   UNL A   1      41.250  29.731  29.431  1.00  0.00     0.074 A 
ATOM     51  C   UNL A   1      40.659  27.579  28.373  1.00  0.00     0.049 A 
ATOM     52  N   UNL A   1      42.530  29.553  29.652  1.00  0.00    -0.248 NA
ATOM     53  C   UNL A   1      40.745  31.037  29.878  1.00  0.00     0.031 C 
ATOM     54  C   UNL A   1      39.799  26.576  27.744  1.00  0.00     0.029 A 
ATOM     55  N   UNL A   1      41.887  26.971  28.441  1.00  0.00    -0.354 N 
ATOM     56  C   UNL A   1      42.982  30.726  30.243  1.00  0.00     0.074 A 
ATOM     57  C   UNL A   1      41.848  31.623  30.321  1.00  0.00     0.031 C 
ATOM     58  C   UNL A   1      40.512  25.459  27.532  1.00  0.00     0.029 A 
ATOM     59  C   UNL A   1      41.889  25.684  27.961  1.00  0.00     0.049 A 
ATOM     60  H   UNL A   1      42.690  27.415  28.798  1.00  0.00     0.167 HD
ATOM     61  C   UNL A   1      44.224  31.028  30.697  1.00  0.00     0.037 A 
ATOM     62  C   UNL A   1      42.887  24.786  27.874  1.00  0.00     0.037 A 
ATOM     63  C   UNL A   1      45.352  30.134  30.645  1.00  0.00     0.049 A 
ATOM     64  C   UNL A   1      44.260  25.158  28.353  1.00  0.00     0.074 A 
ATOM     65  C   UNL A   1      46.642  30.345  31.101  1.00  0.00     0.029 A 
ATOM     66  N   UNL A   1      45.322  28.858  30.105  1.00  0.00    -0.354 N 
ATOM     67  N   UNL A   1      44.665  26.266  28.924  1.00  0.00    -0.248 NA
ATOM     68  C   UNL A   1      45.318  24.155  28.165  1.00  0.00     0.031 C 
ATOM     69  C   UNL A   1      47.402  29.207  30.806  1.00  0.00     0.029 A 
ATOM     70  C   UNL A   1      46.576  28.275  30.200  1.00  0.00     0.049 A 
ATOM     71  H   UNL A   1      44.528  28.430  29.711  1.00  0.00     0.167 HD
ATOM     72  C   UNL A   1      46.019  26.089  29.178  1.00  0.00     0.074 A 
ATOM     73  C   UNL A   1      46.360  24.758  28.718  1.00  0.00     0.031 C 
ATOM     74  C   UNL A   1      46.901  26.953  29.735  1.00  0.00     0.037 A 
BRANCH  61  75
ATOM     75  C   UNL A   1      44.429  32.395  31.283  1.00  0.00     0.057 A 
ATOM     76  C   UNL A   1      44.818  33.469  30.473  1.00  0.00     0.134 A 
ATOM     77  C   UNL A   1      44.265  32.644  32.652  1.00  0.00     0.134 A 
ATOM     78  F   UNL A   1      44.999  33.297  29.155  1.00  0.00    -0.206 F 
ATOM     79  C   UNL A   1      45.036  34.742  31.003  1.00  0.00     0.040 A 
ATOM     80  C   UNL A   1      44.459  33.918  33.190  1.00  0.00     0.040 A 
ATOM     81  F   UNL A   1      43.879  31.662  33.481  1.00  0.00    -0.206 F 
ATOM     82  C   UNL A   1      44.850  34.970  32.365  1.00  0.00     0.006 A 
ENDBRANCH  61  75
BRANCH  62  83
ATOM     83  C   UNL A   1      42.626  23.439  27.307  1.00  0.00     0.057 A 
ATOM     84  C   UNL A   1      42.242  22.368  28.121  1.00  0.00     0.134 A 
ATOM     85  C   UNL A   1      42.739  23.201  25.933  1.00  0.00     0.134 A 
ATOM     86  F   UNL A   1      42.119  22.534  29.446  1.00  0.00    -0.206 F 
ATOM     87  C   UNL A   1      41.988  21.104  27.591  1.00  0.00     0.040 A 
ATOM     88  C   UNL A   1      42.464  21.947  25.385  1.00  0.00     0.040 A 
ATOM     89  F   UNL A   1      43.083  24.195  25.101  1.00  0.00    -0.206 F 
ATOM     90  C   UNL A   1      42.091  20.892  26.217  1.00  0.00     0.006 A 
ENDBRANCH  62  83
BRANCH  74  91
ATOM     91  C   UNL A   1      48.312  26.471  29.893  1.00  0.00     0.057 A 
ATOM     92  C   UNL A   1      49.257  26.680  28.880  1.00  0.00     0.134 A 
ATOM     93  C   UNL A   1      48.734  25.795  31.045  1.00  0.00     0.134 A 
ATOM     94  F   UNL A   1      48.915  27.316  27.750  1.00  0.00    -0.206 F 
ATOM     95  C   UNL A   1      50.573  26.234  29.009  1.00  0.00     0.040 A 
ATOM     96  C   UNL A   1      50.053  25.365  31.194  1.00  0.00     0.040 A 
ATOM     97  F   UNL A   1      47.881  25.580  32.057  1.00  0.00    -0.206 F 
ATOM     98  C   UNL A   1      50.976  25.582  30.173  1.00  0.00     0.006 A 
ENDBRANCH  74  91
ENDBRANCH  48  49
ENDBRANCH  40  43
ENDBRANCH  38  39
ENDBRANCH  37  38
ENDBRANCH   1  37
TORSDOF 14
ENDMDL
