MODEL 1
REMARK VINA RESULT:     -12.4      0.000      0.000
REMARK SMILES CCOC(=O)c1ccc(NC(=O)[C@H]2CC(C)=C(C)C[C@@H]2C(=O)NCCCCCCNC(=O)c2ccc(-c3c4nc(c(-c5c(F)cccc5F)c5ccc([nH]5)c(-c5c(F)cccc5F)c5nc(c(-c6c(F)cccc6F)c6ccc3[nH]6)C=C5)C=C4)cc2)cc1
REMARK SMILES IDX 25 1 24 2 23 3 21 4 22 5 20 7 13 8 14 9 15 10 19 11 16 12
REMARK SMILES IDX 17 13 18 14 11 15 10 16 12 18 9 19 6 20 7 21 88 22 8 23
REMARK SMILES IDX 87 24 4 25 5 26 3 27 2 28 1 29 26 30 27 31 28 32 29 33 30 34
REMARK SMILES IDX 31 35 32 37 33 38 34 39 86 40 35 41 85 42 36 43 37 44 38 45
REMARK SMILES IDX 79 46 39 47 84 48 78 49 80 50 40 51 83 52 77 53 76 54 41 56
REMARK SMILES IDX 67 57 50 58 66 59 51 60 54 61 65 62 81 63 52 64 53 65 64 67
REMARK SMILES IDX 82 68 55 69 42 70 43 71 48 72 44 73 45 74 47 75 49 76 46 77
REMARK SMILES IDX 68 78 69 79 74 80 70 81 71 82 73 83 75 84 72 85 56 86 57 87
REMARK SMILES IDX 62 88 58 89 59 90 61 91 63 92 60 93
REMARK H PARENT 23 6 10 17 30 36 80 55 54 66
REMARK Flexibility Score: inf
ROOT
ATOM      1  C   UNL A   1      35.898  22.862  23.691  1.00  0.00     0.021 C 
ENDROOT
BRANCH   1   2
ATOM      2  C   UNL A   1      35.227  23.729  24.762  1.00  0.00     0.116 C 
BRANCH   2   3
ATOM      3  N   UNL A   1      34.387  24.716  24.128  1.00  0.00    -0.356 N 
ATOM      4  C   UNL A   1      33.112  24.653  23.676  1.00  0.00     0.224 C 
ATOM      5  O   UNL A   1      32.831  25.534  22.856  1.00  0.00    -0.275 OA
ATOM      6  H   UNL A   1      34.819  25.592  24.002  1.00  0.00     0.163 HD
BRANCH   4   7
ATOM      7  C   UNL A   1      32.052  23.664  24.242  1.00  0.00     0.095 C 
ATOM      8  C   UNL A   1      32.130  23.381  25.760  1.00  0.00     0.095 C 
ATOM      9  C   UNL A   1      32.650  22.017  26.228  1.00  0.00     0.045 C 
ATOM     10  C   UNL A   1      32.633  20.878  25.251  1.00  0.00    -0.074 C 
ATOM     11  C   UNL A   1      32.085  22.401  23.331  1.00  0.00     0.045 C 
ATOM     12  C   UNL A   1      32.964  19.550  25.889  1.00  0.00     0.039 C 
ATOM     13  C   UNL A   1      32.375  21.053  23.942  1.00  0.00    -0.074 C 
ATOM     14  C   UNL A   1      32.366  19.921  22.943  1.00  0.00     0.039 C 
BRANCH   8  15
ATOM     15  C   UNL A   1      30.934  23.854  26.628  1.00  0.00     0.228 C 
ATOM     16  N   UNL A   1      30.189  24.981  26.482  1.00  0.00    -0.326 N 
ATOM     17  H   UNL A   1      29.439  25.027  27.118  1.00  0.00     0.169 HD
ATOM     18  O   UNL A   1      30.495  23.082  27.498  1.00  0.00    -0.274 OA
BRANCH  16  19
ATOM     19  C   UNL A   1      30.248  26.086  25.634  1.00  0.00     0.041 A 
ATOM     20  C   UNL A   1      30.506  28.057  23.684  1.00  0.00     0.060 A 
ATOM     21  C   UNL A   1      31.290  28.115  24.834  1.00  0.00     0.018 A 
ATOM     22  C   UNL A   1      29.503  27.098  23.558  1.00  0.00     0.018 A 
ATOM     23  C   UNL A   1      31.131  27.136  25.814  1.00  0.00     0.027 A 
ATOM     24  C   UNL A   1      29.358  26.127  24.553  1.00  0.00     0.027 A 
BRANCH  20  25
ATOM     25  C   UNL A   1      30.831  28.921  22.543  1.00  0.00     0.338 C 
ATOM     26  O   UNL A   1      31.957  29.333  22.325  1.00  0.00    -0.246 OA
BRANCH  25  27
ATOM     27  O   UNL A   1      29.700  29.183  21.852  1.00  0.00    -0.462 OA
BRANCH  27  28
ATOM     28  C   UNL A   1      29.357  30.574  21.764  1.00  0.00     0.230 C 
ATOM     29  C   UNL A   1      27.978  30.693  21.144  1.00  0.00     0.049 C 
ENDBRANCH  27  28
ENDBRANCH  25  27
ENDBRANCH  20  25
ENDBRANCH  16  19
ENDBRANCH   8  15
ENDBRANCH   4   7
ENDBRANCH   2   3
ENDBRANCH   1   2
BRANCH   1  30
ATOM     30  C   UNL A   1      37.031  21.985  24.245  1.00  0.00     0.002 C 
BRANCH  30  31
ATOM     31  C   UNL A   1      36.574  20.635  24.803  1.00  0.00     0.002 C 
BRANCH  31  32
ATOM     32  C   UNL A   1      37.697  19.613  24.993  1.00  0.00     0.021 C 
BRANCH  32  33
ATOM     33  C   UNL A   1      38.948  20.174  25.663  1.00  0.00     0.116 C 
BRANCH  33  34
ATOM     34  N   UNL A   1      39.971  19.153  25.833  1.00  0.00    -0.352 N 
ATOM     35  C   UNL A   1      41.310  19.301  26.082  1.00  0.00     0.251 C 
ATOM     36  H   UNL A   1      39.654  18.224  25.760  1.00  0.00     0.163 HD
ATOM     37  O   UNL A   1      42.070  18.343  25.975  1.00  0.00    -0.269 OA
BRANCH  35  38
ATOM     38  C   UNL A   1      41.842  20.623  26.472  1.00  0.00     0.039 A 
ATOM     39  C   UNL A   1      42.220  21.518  25.468  1.00  0.00     0.014 A 
ATOM     40  C   UNL A   1      41.988  20.968  27.819  1.00  0.00     0.014 A 
ATOM     41  C   UNL A   1      42.698  22.782  25.817  1.00  0.00     0.010 A 
ATOM     42  C   UNL A   1      42.405  22.250  28.164  1.00  0.00     0.010 A 
ATOM     43  C   UNL A   1      42.768  23.165  27.167  1.00  0.00    -0.014 A 
BRANCH  43  44
ATOM     44  C   UNL A   1      43.213  24.529  27.543  1.00  0.00     0.031 A 
ATOM     45  C   UNL A   1      42.213  25.572  27.950  1.00  0.00     0.074 A 
ATOM     46  C   UNL A   1      44.521  24.841  27.463  1.00  0.00     0.049 A 
ATOM     47  N   UNL A   1      42.414  26.818  28.299  1.00  0.00    -0.248 NA
ATOM     48  C   UNL A   1      40.797  25.171  27.939  1.00  0.00     0.031 C 
ATOM     49  C   UNL A   1      45.579  23.933  27.018  1.00  0.00     0.029 A 
ATOM     50  N   UNL A   1      45.179  26.010  27.746  1.00  0.00    -0.354 N 
ATOM     51  C   UNL A   1      41.154  27.352  28.534  1.00  0.00     0.074 A 
ATOM     52  C   UNL A   1      40.192  26.310  28.242  1.00  0.00     0.031 C 
ATOM     53  C   UNL A   1      46.758  24.572  27.082  1.00  0.00     0.029 A 
ATOM     54  C   UNL A   1      46.535  25.937  27.546  1.00  0.00     0.049 A 
ATOM     55  H   UNL A   1      44.723  26.823  28.062  1.00  0.00     0.167 HD
ATOM     56  C   UNL A   1      40.830  28.592  28.975  1.00  0.00     0.037 A 
ATOM     57  C   UNL A   1      47.492  26.867  27.722  1.00  0.00     0.037 A 
ATOM     58  C   UNL A   1      41.791  29.617  29.287  1.00  0.00     0.049 A 
ATOM     59  C   UNL A   1      47.112  28.224  28.237  1.00  0.00     0.074 A 
ATOM     60  C   UNL A   1      41.569  30.877  29.813  1.00  0.00     0.029 A 
ATOM     61  N   UNL A   1      43.160  29.499  29.094  1.00  0.00    -0.354 N 
ATOM     62  N   UNL A   1      45.925  28.691  28.537  1.00  0.00    -0.248 NA
ATOM     63  C   UNL A   1      48.207  29.181  28.447  1.00  0.00     0.031 C 
ATOM     64  C   UNL A   1      42.801  31.537  29.902  1.00  0.00     0.029 A 
ATOM     65  C   UNL A   1      43.792  30.672  29.470  1.00  0.00     0.049 A 
ATOM     66  H   UNL A   1      43.613  28.700  28.743  1.00  0.00     0.167 HD
ATOM     67  C   UNL A   1      46.128  29.987  28.987  1.00  0.00     0.074 A 
ATOM     68  C   UNL A   1      47.557  30.228  28.937  1.00  0.00     0.031 C 
ATOM     69  C   UNL A   1      45.215  30.898  29.405  1.00  0.00     0.037 A 
BRANCH  56  70
ATOM     70  C   UNL A   1      39.371  28.899  29.147  1.00  0.00     0.057 A 
ATOM     71  C   UNL A   1      38.591  29.399  28.096  1.00  0.00     0.134 A 
ATOM     72  C   UNL A   1      38.733  28.679  30.374  1.00  0.00     0.134 A 
ATOM     73  F   UNL A   1      39.143  29.644  26.897  1.00  0.00    -0.206 F 
ATOM     74  C   UNL A   1      37.239  29.698  28.267  1.00  0.00     0.040 A 
ATOM     75  C   UNL A   1      37.375  28.950  30.551  1.00  0.00     0.040 A 
ATOM     76  F   UNL A   1      39.419  28.197  31.423  1.00  0.00    -0.206 F 
ATOM     77  C   UNL A   1      36.626  29.469  29.497  1.00  0.00     0.006 A 
ENDBRANCH  56  70
BRANCH  57  78
ATOM     78  C   UNL A   1      48.908  26.522  27.444  1.00  0.00     0.057 A 
ATOM     79  C   UNL A   1      49.714  25.943  28.430  1.00  0.00     0.134 A 
ATOM     80  C   UNL A   1      49.478  26.738  26.185  1.00  0.00     0.134 A 
ATOM     81  F   UNL A   1      49.226  25.727  29.660  1.00  0.00    -0.206 F 
ATOM     82  C   UNL A   1      51.043  25.601  28.177  1.00  0.00     0.040 A 
ATOM     83  C   UNL A   1      50.800  26.381  25.911  1.00  0.00     0.040 A 
ATOM     84  F   UNL A   1      48.752  27.281  25.196  1.00  0.00    -0.206 F 
ATOM     85  C   UNL A   1      51.587  25.813  26.912  1.00  0.00     0.006 A 
ENDBRANCH  57  78
BRANCH  69  86
ATOM     86  C   UNL A   1      45.738  32.231  29.849  1.00  0.00     0.057 A 
ATOM     87  C   UNL A   1      45.859  33.307  28.961  1.00  0.00     0.134 A 
ATOM     88  C   UNL A   1      46.102  32.448  31.184  1.00  0.00     0.134 A 
ATOM     89  F   UNL A   1      45.540  33.159  27.666  1.00  0.00    -0.206 F 
ATOM     90  C   UNL A   1      46.346  34.546  29.379  1.00  0.00     0.040 A 
ATOM     91  C   UNL A   1      46.568  33.688  31.620  1.00  0.00     0.040 A 
ATOM     92  F   UNL A   1      46.004  31.460  32.086  1.00  0.00    -0.206 F 
ATOM     93  C   UNL A   1      46.698  34.740  30.715  1.00  0.00     0.006 A 
ENDBRANCH  69  86
ENDBRANCH  43  44
ENDBRANCH  35  38
ENDBRANCH  33  34
ENDBRANCH  32  33
ENDBRANCH  31  32
ENDBRANCH  30  31
ENDBRANCH   1  30
TORSDOF 18
ENDMDL
MODEL 2
REMARK VINA RESULT:     -12.3      4.458      9.269
REMARK SMILES CCOC(=O)c1ccc(NC(=O)[C@H]2CC(C)=C(C)C[C@@H]2C(=O)NCCCCCCNC(=O)c2ccc(-c3c4nc(c(-c5c(F)cccc5F)c5ccc([nH]5)c(-c5c(F)cccc5F)c5nc(c(-c6c(F)cccc6F)c6ccc3[nH]6)C=C5)C=C4)cc2)cc1
REMARK SMILES IDX 25 1 24 2 23 3 21 4 22 5 20 7 13 8 14 9 15 10 19 11 16 12
REMARK SMILES IDX 17 13 18 14 11 15 10 16 12 18 9 19 6 20 7 21 88 22 8 23
REMARK SMILES IDX 87 24 4 25 5 26 3 27 2 28 1 29 26 30 27 31 28 32 29 33 30 34
REMARK SMILES IDX 31 35 32 37 33 38 34 39 86 40 35 41 85 42 36 43 37 44 38 45
REMARK SMILES IDX 79 46 39 47 84 48 78 49 80 50 40 51 83 52 77 53 76 54 41 56
REMARK SMILES IDX 67 57 50 58 66 59 51 60 54 61 65 62 81 63 52 64 53 65 64 67
REMARK SMILES IDX 82 68 55 69 42 70 43 71 48 72 44 73 45 74 47 75 49 76 46 77
REMARK SMILES IDX 68 78 69 79 74 80 70 81 71 82 73 83 75 84 72 85 56 86 57 87
REMARK SMILES IDX 62 88 58 89 59 90 61 91 63 92 60 93
REMARK H PARENT 23 6 10 17 30 36 80 55 54 66
REMARK Flexibility Score: inf
ROOT
ATOM      1  C   UNL A   1      32.399  28.445  27.268  1.00  0.00     0.021 C 
ENDROOT
BRANCH   1   2
ATOM      2  C   UNL A   1      31.333  27.491  26.718  1.00  0.00     0.116 C 
BRANCH   2   3
ATOM      3  N   UNL A   1      31.853  26.146  26.694  1.00  0.00    -0.356 N 
ATOM      4  C   UNL A   1      31.729  25.152  25.782  1.00  0.00     0.224 C 
ATOM      5  O   UNL A   1      31.967  24.028  26.238  1.00  0.00    -0.275 OA
ATOM      6  H   UNL A   1      32.396  25.909  27.481  1.00  0.00     0.163 HD
BRANCH   4   7
ATOM      7  C   UNL A   1      31.462  25.406  24.271  1.00  0.00     0.095 C 
ATOM      8  C   UNL A   1      32.492  26.298  23.539  1.00  0.00     0.095 C 
ATOM      9  C   UNL A   1      32.084  27.723  23.148  1.00  0.00     0.045 C 
ATOM     10  C   UNL A   1      30.621  28.046  23.071  1.00  0.00    -0.074 C 
ATOM     11  C   UNL A   1      29.980  25.870  24.149  1.00  0.00     0.045 C 
ATOM     12  C   UNL A   1      30.350  29.405  22.472  1.00  0.00     0.039 C 
ATOM     13  C   UNL A   1      29.670  27.207  23.521  1.00  0.00    -0.074 C 
ATOM     14  C   UNL A   1      28.195  27.520  23.461  1.00  0.00     0.039 C 
BRANCH   8  15
ATOM     15  C   UNL A   1      33.337  25.629  22.424  1.00  0.00     0.228 C 
ATOM     16  N   UNL A   1      33.633  24.311  22.275  1.00  0.00    -0.326 N 
ATOM     17  H   UNL A   1      34.131  24.123  21.447  1.00  0.00     0.169 HD
ATOM     18  O   UNL A   1      33.709  26.329  21.466  1.00  0.00    -0.274 OA
BRANCH  16  19
ATOM     19  C   UNL A   1      33.388  23.165  23.030  1.00  0.00     0.041 A 
ATOM     20  C   UNL A   1      33.177  20.716  24.340  1.00  0.00     0.060 A 
ATOM     21  C   UNL A   1      32.133  21.162  23.533  1.00  0.00     0.018 A 
ATOM     22  C   UNL A   1      34.270  21.541  24.603  1.00  0.00     0.018 A 
ATOM     23  C   UNL A   1      32.241  22.402  22.905  1.00  0.00     0.027 A 
ATOM     24  C   UNL A   1      34.358  22.781  23.965  1.00  0.00     0.027 A 
BRANCH  20  25
ATOM     25  C   UNL A   1      33.191  19.323  24.800  1.00  0.00     0.338 C 
ATOM     26  O   UNL A   1      32.227  18.787  25.318  1.00  0.00    -0.246 OA
BRANCH  25  27
ATOM     27  O   UNL A   1      34.419  18.801  24.586  1.00  0.00    -0.462 OA
BRANCH  27  28
ATOM     28  C   UNL A   1      34.455  17.370  24.481  1.00  0.00     0.230 C 
ATOM     29  C   UNL A   1      34.053  16.980  23.071  1.00  0.00     0.049 C 
ENDBRANCH  27  28
ENDBRANCH  25  27
ENDBRANCH  20  25
ENDBRANCH  16  19
ENDBRANCH   8  15
ENDBRANCH   4   7
ENDBRANCH   2   3
ENDBRANCH   1   2
BRANCH   1  30
ATOM     30  C   UNL A   1      32.672  29.643  26.346  1.00  0.00     0.002 C 
BRANCH  30  31
ATOM     31  C   UNL A   1      31.421  30.418  25.924  1.00  0.00     0.002 C 
BRANCH  31  32
ATOM     32  C   UNL A   1      31.311  31.823  26.520  1.00  0.00     0.021 C 
BRANCH  32  33
ATOM     33  C   UNL A   1      32.648  32.436  26.928  1.00  0.00     0.116 C 
BRANCH  33  34
ATOM     34  N   UNL A   1      32.490  33.802  27.404  1.00  0.00    -0.352 N 
ATOM     35  C   UNL A   1      33.125  34.438  28.438  1.00  0.00     0.251 C 
ATOM     36  H   UNL A   1      31.833  34.345  26.912  1.00  0.00     0.163 HD
ATOM     37  O   UNL A   1      32.714  35.519  28.847  1.00  0.00    -0.269 OA
BRANCH  35  38
ATOM     38  C   UNL A   1      34.306  33.814  29.068  1.00  0.00     0.039 A 
ATOM     39  C   UNL A   1      34.109  32.823  30.033  1.00  0.00     0.014 A 
ATOM     40  C   UNL A   1      35.600  34.219  28.726  1.00  0.00     0.014 A 
ATOM     41  C   UNL A   1      35.213  32.202  30.619  1.00  0.00     0.010 A 
ATOM     42  C   UNL A   1      36.698  33.557  29.264  1.00  0.00     0.010 A 
ATOM     43  C   UNL A   1      36.515  32.547  30.219  1.00  0.00    -0.014 A 
BRANCH  43  44
ATOM     44  C   UNL A   1      37.691  31.846  30.788  1.00  0.00     0.031 A 
ATOM     45  C   UNL A   1      38.188  32.183  32.163  1.00  0.00     0.074 A 
ATOM     46  C   UNL A   1      38.346  30.942  30.034  1.00  0.00     0.049 A 
ATOM     47  N   UNL A   1      39.207  31.687  32.819  1.00  0.00    -0.248 NA
ATOM     48  C   UNL A   1      37.461  33.236  32.890  1.00  0.00     0.031 C 
ATOM     49  C   UNL A   1      37.999  30.578  28.660  1.00  0.00     0.029 A 
ATOM     50  N   UNL A   1      39.445  30.172  30.318  1.00  0.00    -0.354 N 
ATOM     51  C   UNL A   1      39.252  32.374  34.025  1.00  0.00     0.074 A 
ATOM     52  C   UNL A   1      38.188  33.355  33.991  1.00  0.00     0.031 C 
ATOM     53  C   UNL A   1      38.853  29.636  28.228  1.00  0.00     0.029 A 
ATOM     54  C   UNL A   1      39.820  29.350  29.283  1.00  0.00     0.049 A 
ATOM     55  H   UNL A   1      39.919  30.204  31.180  1.00  0.00     0.167 HD
ATOM     56  C   UNL A   1      40.089  32.187  35.073  1.00  0.00     0.037 A 
ATOM     57  C   UNL A   1      40.828  28.463  29.198  1.00  0.00     0.037 A 
ATOM     58  C   UNL A   1      41.130  31.194  35.111  1.00  0.00     0.049 A 
ATOM     59  C   UNL A   1      41.725  28.254  30.382  1.00  0.00     0.074 A 
ATOM     60  C   UNL A   1      41.980  30.874  36.155  1.00  0.00     0.029 A 
ATOM     61  N   UNL A   1      41.465  30.362  34.053  1.00  0.00    -0.354 N 
ATOM     62  N   UNL A   1      41.705  28.851  31.550  1.00  0.00    -0.248 NA
ATOM     63  C   UNL A   1      42.781  27.242  30.241  1.00  0.00     0.031 C 
ATOM     64  C   UNL A   1      42.856  29.875  35.715  1.00  0.00     0.029 A 
ATOM     65  C   UNL A   1      42.525  29.545  34.411  1.00  0.00     0.049 A 
ATOM     66  H   UNL A   1      41.016  30.354  33.178  1.00  0.00     0.167 HD
ATOM     67  C   UNL A   1      42.729  28.277  32.288  1.00  0.00     0.074 A 
ATOM     68  C   UNL A   1      43.342  27.272  31.442  1.00  0.00     0.031 C 
ATOM     69  C   UNL A   1      43.128  28.557  33.553  1.00  0.00     0.037 A 
BRANCH  56  70
ATOM     70  C   UNL A   1      39.905  33.080  36.265  1.00  0.00     0.057 A 
ATOM     71  C   UNL A   1      39.043  32.742  37.317  1.00  0.00     0.134 A 
ATOM     72  C   UNL A   1      40.609  34.286  36.372  1.00  0.00     0.134 A 
ATOM     73  F   UNL A   1      38.329  31.606  37.272  1.00  0.00    -0.206 F 
ATOM     74  C   UNL A   1      38.864  33.584  38.415  1.00  0.00     0.040 A 
ATOM     75  C   UNL A   1      40.458  35.125  37.478  1.00  0.00     0.040 A 
ATOM     76  F   UNL A   1      41.455  34.670  35.403  1.00  0.00    -0.206 F 
ATOM     77  C   UNL A   1      39.576  34.778  38.499  1.00  0.00     0.006 A 
ENDBRANCH  56  70
BRANCH  57  78
ATOM     78  C   UNL A   1      41.009  27.678  27.953  1.00  0.00     0.057 A 
ATOM     79  C   UNL A   1      40.370  26.445  27.781  1.00  0.00     0.134 A 
ATOM     80  C   UNL A   1      41.798  28.150  26.900  1.00  0.00     0.134 A 
ATOM     81  F   UNL A   1      39.613  25.934  28.763  1.00  0.00    -0.206 F 
ATOM     82  C   UNL A   1      40.520  25.703  26.609  1.00  0.00     0.040 A 
ATOM     83  C   UNL A   1      41.940  27.430  25.713  1.00  0.00     0.040 A 
ATOM     84  F   UNL A   1      42.427  29.331  27.002  1.00  0.00    -0.206 F 
ATOM     85  C   UNL A   1      41.302  26.199  25.567  1.00  0.00     0.006 A 
ENDBRANCH  57  78
BRANCH  69  86
ATOM     86  C   UNL A   1      44.273  27.756  34.098  1.00  0.00     0.057 A 
ATOM     87  C   UNL A   1      45.597  28.203  33.999  1.00  0.00     0.134 A 
ATOM     88  C   UNL A   1      44.048  26.537  34.749  1.00  0.00     0.134 A 
ATOM     89  F   UNL A   1      45.880  29.356  33.373  1.00  0.00    -0.206 F 
ATOM     90  C   UNL A   1      46.659  27.454  34.507  1.00  0.00     0.040 A 
ATOM     91  C   UNL A   1      45.098  25.790  35.283  1.00  0.00     0.040 A 
ATOM     92  F   UNL A   1      42.803  26.056  34.883  1.00  0.00    -0.206 F 
ATOM     93  C   UNL A   1      46.409  26.245  35.156  1.00  0.00     0.006 A 
ENDBRANCH  69  86
ENDBRANCH  43  44
ENDBRANCH  35  38
ENDBRANCH  33  34
ENDBRANCH  32  33
ENDBRANCH  31  32
ENDBRANCH  30  31
ENDBRANCH   1  30
TORSDOF 18
ENDMDL
MODEL 3
REMARK VINA RESULT:     -12.0      4.429      8.468
REMARK SMILES CCOC(=O)c1ccc(NC(=O)[C@H]2CC(C)=C(C)C[C@@H]2C(=O)NCCCCCCNC(=O)c2ccc(-c3c4nc(c(-c5c(F)cccc5F)c5ccc([nH]5)c(-c5c(F)cccc5F)c5nc(c(-c6c(F)cccc6F)c6ccc3[nH]6)C=C5)C=C4)cc2)cc1
REMARK SMILES IDX 25 1 24 2 23 3 21 4 22 5 20 7 13 8 14 9 15 10 19 11 16 12
REMARK SMILES IDX 17 13 18 14 11 15 10 16 12 18 9 19 6 20 7 21 88 22 8 23
REMARK SMILES IDX 87 24 4 25 5 26 3 27 2 28 1 29 26 30 27 31 28 32 29 33 30 34
REMARK SMILES IDX 31 35 32 37 33 38 34 39 86 40 35 41 85 42 36 43 37 44 38 45
REMARK SMILES IDX 79 46 39 47 84 48 78 49 80 50 40 51 83 52 77 53 76 54 41 56
REMARK SMILES IDX 67 57 50 58 66 59 51 60 54 61 65 62 81 63 52 64 53 65 64 67
REMARK SMILES IDX 82 68 55 69 42 70 43 71 48 72 44 73 45 74 47 75 49 76 46 77
REMARK SMILES IDX 68 78 69 79 74 80 70 81 71 82 73 83 75 84 72 85 56 86 57 87
REMARK SMILES IDX 62 88 58 89 59 90 61 91 63 92 60 93
REMARK H PARENT 23 6 10 17 30 36 80 55 54 66
REMARK Flexibility Score: inf
ROOT
ATOM      1  C   UNL A   1      31.834  28.719  27.434  1.00  0.00     0.021 C 
ENDROOT
BRANCH   1   2
ATOM      2  C   UNL A   1      31.604  27.781  26.244  1.00  0.00     0.116 C 
BRANCH   2   3
ATOM      3  N   UNL A   1      31.000  26.555  26.704  1.00  0.00    -0.356 N 
ATOM      4  C   UNL A   1      31.037  25.295  26.209  1.00  0.00     0.224 C 
ATOM      5  O   UNL A   1      30.118  24.574  26.613  1.00  0.00    -0.275 OA
ATOM      6  H   UNL A   1      30.466  26.651  27.526  1.00  0.00     0.163 HD
BRANCH   4   7
ATOM      7  C   UNL A   1      32.204  24.754  25.333  1.00  0.00     0.095 C 
ATOM      8  C   UNL A   1      31.863  24.459  23.854  1.00  0.00     0.095 C 
ATOM      9  C   UNL A   1      31.758  22.999  23.401  1.00  0.00     0.045 C 
ATOM     10  C   UNL A   1      32.411  21.945  24.246  1.00  0.00    -0.074 C 
ATOM     11  C   UNL A   1      32.840  23.567  26.115  1.00  0.00     0.045 C 
ATOM     12  C   UNL A   1      32.423  20.586  23.588  1.00  0.00     0.039 C 
ATOM     13  C   UNL A   1      32.902  22.204  25.472  1.00  0.00    -0.074 C 
ATOM     14  C   UNL A   1      33.552  21.154  26.341  1.00  0.00     0.039 C 
BRANCH   8  15
ATOM     15  C   UNL A   1      32.567  25.331  22.781  1.00  0.00     0.228 C 
ATOM     16  N   UNL A   1      32.255  26.595  22.394  1.00  0.00    -0.326 N 
ATOM     17  H   UNL A   1      32.892  26.963  21.740  1.00  0.00     0.169 HD
ATOM     18  O   UNL A   1      33.619  24.906  22.274  1.00  0.00    -0.274 OA
BRANCH  16  19
ATOM     19  C   UNL A   1      31.234  27.490  22.715  1.00  0.00     0.041 A 
ATOM     20  C   UNL A   1      29.044  29.183  23.023  1.00  0.00     0.060 A 
ATOM     21  C   UNL A   1      30.322  29.721  22.892  1.00  0.00     0.018 A 
ATOM     22  C   UNL A   1      28.864  27.805  23.132  1.00  0.00     0.018 A 
ATOM     23  C   UNL A   1      31.412  28.861  22.766  1.00  0.00     0.027 A 
ATOM     24  C   UNL A   1      29.970  26.960  23.005  1.00  0.00     0.027 A 
BRANCH  20  25
ATOM     25  C   UNL A   1      27.874  30.061  22.905  1.00  0.00     0.338 C 
ATOM     26  O   UNL A   1      27.104  30.264  23.827  1.00  0.00    -0.246 OA
BRANCH  25  27
ATOM     27  O   UNL A   1      27.805  30.535  21.642  1.00  0.00    -0.462 OA
BRANCH  27  28
ATOM     28  C   UNL A   1      28.215  31.902  21.488  1.00  0.00     0.230 C 
ATOM     29  C   UNL A   1      27.916  32.338  20.066  1.00  0.00     0.049 C 
ENDBRANCH  27  28
ENDBRANCH  25  27
ENDBRANCH  20  25
ENDBRANCH  16  19
ENDBRANCH   8  15
ENDBRANCH   4   7
ENDBRANCH   2   3
ENDBRANCH   1   2
BRANCH   1  30
ATOM     30  C   UNL A   1      32.359  30.102  27.021  1.00  0.00     0.002 C 
BRANCH  30  31
ATOM     31  C   UNL A   1      31.363  30.949  26.224  1.00  0.00     0.002 C 
BRANCH  31  32
ATOM     32  C   UNL A   1      31.335  32.429  26.610  1.00  0.00     0.021 C 
BRANCH  32  33
ATOM     33  C   UNL A   1      32.692  32.994  27.023  1.00  0.00     0.116 C 
BRANCH  33  34
ATOM     34  N   UNL A   1      32.553  34.231  27.775  1.00  0.00    -0.352 N 
ATOM     35  C   UNL A   1      33.204  34.632  28.913  1.00  0.00     0.251 C 
ATOM     36  H   UNL A   1      31.898  34.872  27.415  1.00  0.00     0.163 HD
ATOM     37  O   UNL A   1      32.807  35.607  29.543  1.00  0.00    -0.269 OA
BRANCH  35  38
ATOM     38  C   UNL A   1      34.382  33.879  29.387  1.00  0.00     0.039 A 
ATOM     39  C   UNL A   1      35.653  34.285  28.970  1.00  0.00     0.014 A 
ATOM     40  C   UNL A   1      34.235  32.767  30.221  1.00  0.00     0.014 A 
ATOM     41  C   UNL A   1      36.780  33.604  29.430  1.00  0.00     0.010 A 
ATOM     42  C   UNL A   1      35.361  32.128  30.729  1.00  0.00     0.010 A 
ATOM     43  C   UNL A   1      36.643  32.537  30.334  1.00  0.00    -0.014 A 
BRANCH  43  44
ATOM     44  C   UNL A   1      37.838  31.849  30.880  1.00  0.00     0.031 A 
ATOM     45  C   UNL A   1      38.384  32.223  32.228  1.00  0.00     0.074 A 
ATOM     46  C   UNL A   1      38.464  30.923  30.129  1.00  0.00     0.049 A 
ATOM     47  N   UNL A   1      39.425  31.742  32.860  1.00  0.00    -0.248 NA
ATOM     48  C   UNL A   1      37.685  33.297  32.950  1.00  0.00     0.031 C 
ATOM     49  C   UNL A   1      38.068  30.522  28.779  1.00  0.00     0.029 A 
ATOM     50  N   UNL A   1      39.571  30.158  30.395  1.00  0.00    -0.354 N 
ATOM     51  C   UNL A   1      39.513  32.462  34.044  1.00  0.00     0.074 A 
ATOM     52  C   UNL A   1      38.451  33.444  34.021  1.00  0.00     0.031 C 
ATOM     53  C   UNL A   1      38.904  29.567  28.343  1.00  0.00     0.029 A 
ATOM     54  C   UNL A   1      39.907  29.308  29.370  1.00  0.00     0.049 A 
ATOM     55  H   UNL A   1      40.075  30.213  31.238  1.00  0.00     0.167 HD
ATOM     56  C   UNL A   1      40.387  32.302  35.066  1.00  0.00     0.037 A 
ATOM     57  C   UNL A   1      40.910  28.416  29.274  1.00  0.00     0.037 A 
ATOM     58  C   UNL A   1      41.427  31.308  35.095  1.00  0.00     0.049 A 
ATOM     59  C   UNL A   1      41.849  28.237  30.431  1.00  0.00     0.074 A 
ATOM     60  C   UNL A   1      42.313  31.014  36.117  1.00  0.00     0.029 A 
ATOM     61  N   UNL A   1      41.723  30.446  34.049  1.00  0.00    -0.354 N 
ATOM     62  N   UNL A   1      41.871  28.866  31.581  1.00  0.00    -0.248 NA
ATOM     63  C   UNL A   1      42.897  27.219  30.280  1.00  0.00     0.031 C 
ATOM     64  C   UNL A   1      43.172  30.001  35.673  1.00  0.00     0.029 A 
ATOM     65  C   UNL A   1      42.794  29.637  34.392  1.00  0.00     0.049 A 
ATOM     66  H   UNL A   1      41.244  30.415  33.191  1.00  0.00     0.167 HD
ATOM     67  C   UNL A   1      42.921  28.310  32.298  1.00  0.00     0.074 A 
ATOM     68  C   UNL A   1      43.501  27.280  31.459  1.00  0.00     0.031 C 
ATOM     69  C   UNL A   1      43.365  28.623  33.540  1.00  0.00     0.037 A 
BRANCH  56  70
ATOM     70  C   UNL A   1      40.247  33.228  36.239  1.00  0.00     0.057 A 
ATOM     71  C   UNL A   1      39.336  32.978  37.274  1.00  0.00     0.134 A 
ATOM     72  C   UNL A   1      41.043  34.375  36.344  1.00  0.00     0.134 A 
ATOM     73  F   UNL A   1      38.535  31.903  37.229  1.00  0.00    -0.206 F 
ATOM     74  C   UNL A   1      39.199  33.851  38.354  1.00  0.00     0.040 A 
ATOM     75  C   UNL A   1      40.934  35.243  37.433  1.00  0.00     0.040 A 
ATOM     76  F   UNL A   1      41.940  34.673  35.391  1.00  0.00    -0.206 F 
ATOM     77  C   UNL A   1      40.003  34.986  38.437  1.00  0.00     0.006 A 
ENDBRANCH  56  70
BRANCH  57  78
ATOM     78  C   UNL A   1      41.045  27.596  28.045  1.00  0.00     0.057 A 
ATOM     79  C   UNL A   1      40.421  26.348  27.941  1.00  0.00     0.134 A 
ATOM     80  C   UNL A   1      41.776  28.049  26.942  1.00  0.00     0.134 A 
ATOM     81  F   UNL A   1      39.720  25.856  28.972  1.00  0.00    -0.206 F 
ATOM     82  C   UNL A   1      40.528  25.574  26.785  1.00  0.00     0.040 A 
ATOM     83  C   UNL A   1      41.874  27.295  25.771  1.00  0.00     0.040 A 
ATOM     84  F   UNL A   1      42.389  29.242  26.979  1.00  0.00    -0.206 F 
ATOM     85  C   UNL A   1      41.250  26.050  25.693  1.00  0.00     0.006 A 
ENDBRANCH  57  78
BRANCH  69  86
ATOM     86  C   UNL A   1      44.527  27.835  34.065  1.00  0.00     0.057 A 
ATOM     87  C   UNL A   1      45.846  28.283  33.922  1.00  0.00     0.134 A 
ATOM     88  C   UNL A   1      44.324  26.626  34.743  1.00  0.00     0.134 A 
ATOM     89  F   UNL A   1      46.108  29.427  33.269  1.00  0.00    -0.206 F 
ATOM     90  C   UNL A   1      46.924  27.546  34.412  1.00  0.00     0.040 A 
ATOM     91  C   UNL A   1      45.391  25.891  35.259  1.00  0.00     0.040 A 
ATOM     92  F   UNL A   1      43.085  26.145  34.921  1.00  0.00    -0.206 F 
ATOM     93  C   UNL A   1      46.697  26.348  35.088  1.00  0.00     0.006 A 
ENDBRANCH  69  86
ENDBRANCH  43  44
ENDBRANCH  35  38
ENDBRANCH  33  34
ENDBRANCH  32  33
ENDBRANCH  31  32
ENDBRANCH  30  31
ENDBRANCH   1  30
TORSDOF 18
ENDMDL
