MODEL 1
REMARK VINA RESULT:     -10.8      0.000      0.000
REMARK SMILES C[C@@H]1CCC[C@@](Cc2ncccn2)(C(=O)NCCCCCCNC(=O)c2ccc(-c3c4nc(c(-c5c(F)cccc5F)c5ccc([nH]5)c(-c5c(F)cccc5F)c5nc(c(-c6c(F)cccc6F)c6ccc3[nH]6)C=C5)C=C4)cc2)C1
REMARK SMILES IDX 19 1 18 2 17 3 16 4 14 5 15 6 6 8 1 9 2 10 3 11 80 12 4 13
REMARK SMILES IDX 5 14 7 15 8 16 9 17 13 18 10 19 12 20 11 21 20 22 21 23
REMARK SMILES IDX 22 24 23 25 24 26 25 28 26 29 27 30 79 31 28 32 78 33 29 34
REMARK SMILES IDX 30 35 31 36 72 37 32 38 77 39 71 40 73 41 33 42 76 43 70 44
REMARK SMILES IDX 69 45 34 47 60 48 43 49 59 50 44 51 47 52 58 53 74 54 45 55
REMARK SMILES IDX 46 56 57 58 75 59 48 60 35 61 36 62 41 63 37 64 38 65 40 66
REMARK SMILES IDX 42 67 39 68 61 69 62 70 67 71 63 72 64 73 66 74 68 75 65 76
REMARK SMILES IDX 49 77 50 78 55 79 51 80 52 81 54 82 56 83 53 84
REMARK H PARENT 16 7 23 27 73 46 47 57
REMARK Flexibility Score: inf
ROOT
ATOM      1  C   UNL A   1      37.436  22.278  25.694  1.00  0.00     0.002 C 
ENDROOT
BRANCH   1   2
ATOM      2  C   UNL A   1      37.177  23.734  25.295  1.00  0.00     0.021 C 
BRANCH   2   3
ATOM      3  C   UNL A   1      35.732  24.192  25.438  1.00  0.00     0.116 C 
BRANCH   3   4
ATOM      4  N   UNL A   1      35.056  24.386  24.177  1.00  0.00    -0.356 N 
ATOM      5  C   UNL A   1      34.071  25.238  23.788  1.00  0.00     0.226 C 
ATOM      6  O   UNL A   1      33.936  25.337  22.562  1.00  0.00    -0.274 OA
ATOM      7  H   UNL A   1      35.370  23.787  23.460  1.00  0.00     0.163 HD
BRANCH   5   8
ATOM      8  C   UNL A   1      33.160  26.053  24.758  1.00  0.00     0.056 C 
ATOM      9  C   UNL A   1      33.016  28.442  27.209  1.00  0.00     0.007 C 
ATOM     10  C   UNL A   1      33.210  28.565  25.697  1.00  0.00    -0.013 C 
ATOM     11  C   UNL A   1      31.891  28.837  24.977  1.00  0.00     0.003 C 
ATOM     12  C   UNL A   1      33.960  27.384  25.051  1.00  0.00     0.020 C 
ATOM     13  C   UNL A   1      31.060  27.575  24.806  1.00  0.00     0.001 C 
ATOM     14  C   UNL A   1      31.831  26.473  24.085  1.00  0.00     0.017 C 
BRANCH   8  15
ATOM     15  C   UNL A   1      33.025  25.293  26.104  1.00  0.00     0.094 C 
BRANCH  15  16
ATOM     16  C   UNL A   1      32.034  24.169  26.226  1.00  0.00     0.129 A 
ATOM     17  N   UNL A   1      32.268  23.042  25.525  1.00  0.00    -0.241 NA
ATOM     18  N   UNL A   1      30.936  24.380  26.976  1.00  0.00    -0.241 NA
ATOM     19  C   UNL A   1      31.325  22.083  25.593  1.00  0.00     0.115 A 
ATOM     20  C   UNL A   1      30.025  23.387  27.010  1.00  0.00     0.115 A 
ATOM     21  C   UNL A   1      30.172  22.201  26.332  1.00  0.00     0.040 A 
ENDBRANCH  15  16
ENDBRANCH   8  15
ENDBRANCH   5   8
ENDBRANCH   3   4
ENDBRANCH   2   3
ENDBRANCH   1   2
BRANCH   1  22
ATOM     22  C   UNL A   1      37.246  21.228  24.592  1.00  0.00     0.002 C 
BRANCH  22  23
ATOM     23  C   UNL A   1      38.063  19.938  24.728  1.00  0.00     0.021 C 
BRANCH  23  24
ATOM     24  C   UNL A   1      38.904  19.813  25.995  1.00  0.00     0.116 C 
BRANCH  24  25
ATOM     25  N   UNL A   1      40.162  19.130  25.765  1.00  0.00    -0.352 N 
ATOM     26  C   UNL A   1      41.451  19.558  25.932  1.00  0.00     0.251 C 
ATOM     27  H   UNL A   1      40.075  18.206  25.436  1.00  0.00     0.163 HD
ATOM     28  O   UNL A   1      42.375  18.844  25.540  1.00  0.00    -0.269 OA
BRANCH  26  29
ATOM     29  C   UNL A   1      41.762  20.868  26.550  1.00  0.00     0.039 A 
ATOM     30  C   UNL A   1      42.183  21.905  25.711  1.00  0.00     0.014 A 
ATOM     31  C   UNL A   1      41.709  21.077  27.933  1.00  0.00     0.014 A 
ATOM     32  C   UNL A   1      42.512  23.152  26.247  1.00  0.00     0.010 A 
ATOM     33  C   UNL A   1      41.979  22.342  28.462  1.00  0.00     0.010 A 
ATOM     34  C   UNL A   1      42.391  23.389  27.626  1.00  0.00    -0.014 A 
BRANCH  34  35
ATOM     35  C   UNL A   1      42.696  24.732  28.182  1.00  0.00     0.031 A 
ATOM     36  C   UNL A   1      44.106  25.111  28.546  1.00  0.00     0.074 A 
ATOM     37  C   UNL A   1      41.694  25.614  28.366  1.00  0.00     0.049 A 
ATOM     38  N   UNL A   1      44.559  26.246  29.019  1.00  0.00    -0.248 NA
ATOM     39  C   UNL A   1      45.139  24.078  28.375  1.00  0.00     0.031 C 
ATOM     40  C   UNL A   1      40.278  25.352  28.095  1.00  0.00     0.029 A 
ATOM     41  N   UNL A   1      41.712  26.910  28.815  1.00  0.00    -0.354 N 
ATOM     42  C   UNL A   1      45.924  26.064  29.197  1.00  0.00     0.074 A 
ATOM     43  C   UNL A   1      46.219  24.695  28.832  1.00  0.00     0.031 C 
ATOM     44  C   UNL A   1      39.569  26.463  28.354  1.00  0.00     0.029 A 
ATOM     45  C   UNL A   1      40.474  27.505  28.829  1.00  0.00     0.049 A 
ATOM     46  H   UNL A   1      42.535  27.369  29.100  1.00  0.00     0.167 HD
ATOM     47  C   UNL A   1      46.853  26.963  29.601  1.00  0.00     0.037 A 
ATOM     48  C   UNL A   1      40.110  28.753  29.177  1.00  0.00     0.037 A 
ATOM     49  C   UNL A   1      46.567  28.331  29.947  1.00  0.00     0.049 A 
ATOM     50  C   UNL A   1      41.164  29.733  29.611  1.00  0.00     0.074 A 
ATOM     51  C   UNL A   1      47.447  29.326  30.339  1.00  0.00     0.029 A 
ATOM     52  N   UNL A   1      45.303  28.899  29.934  1.00  0.00    -0.354 N 
ATOM     53  N   UNL A   1      42.459  29.560  29.721  1.00  0.00    -0.248 NA
ATOM     54  C   UNL A   1      40.707  31.087  29.957  1.00  0.00     0.031 C 
ATOM     55  C   UNL A   1      46.712  30.490  30.590  1.00  0.00     0.029 A 
ATOM     56  C   UNL A   1      45.378  30.229  30.320  1.00  0.00     0.049 A 
ATOM     57  H   UNL A   1      44.474  28.429  29.687  1.00  0.00     0.167 HD
ATOM     58  C   UNL A   1      42.972  30.785  30.127  1.00  0.00     0.074 A 
ATOM     59  C   UNL A   1      41.852  31.698  30.220  1.00  0.00     0.031 C 
ATOM     60  C   UNL A   1      44.254  31.123  30.403  1.00  0.00     0.037 A 
BRANCH  47  61
ATOM     61  C   UNL A   1      48.280  26.501  29.675  1.00  0.00     0.057 A 
ATOM     62  C   UNL A   1      49.173  26.716  28.616  1.00  0.00     0.134 A 
ATOM     63  C   UNL A   1      48.781  25.889  30.830  1.00  0.00     0.134 A 
ATOM     64  F   UNL A   1      48.752  27.288  27.478  1.00  0.00    -0.206 F 
ATOM     65  C   UNL A   1      50.509  26.323  28.698  1.00  0.00     0.040 A 
ATOM     66  C   UNL A   1      50.121  25.512  30.932  1.00  0.00     0.040 A 
ATOM     67  F   UNL A   1      47.980  25.659  31.882  1.00  0.00    -0.206 F 
ATOM     68  C   UNL A   1      50.988  25.726  29.863  1.00  0.00     0.006 A 
ENDBRANCH  47  61
BRANCH  48  69
ATOM     69  C   UNL A   1      38.687  29.165  29.103  1.00  0.00     0.057 A 
ATOM     70  C   UNL A   1      37.859  29.109  30.230  1.00  0.00     0.134 A 
ATOM     71  C   UNL A   1      38.113  29.592  27.901  1.00  0.00     0.134 A 
ATOM     72  F   UNL A   1      38.348  28.690  31.407  1.00  0.00    -0.206 F 
ATOM     73  C   UNL A   1      36.505  29.438  30.160  1.00  0.00     0.040 A 
ATOM     74  C   UNL A   1      36.765  29.947  27.821  1.00  0.00     0.040 A 
ATOM     75  F   UNL A   1      38.856  29.675  26.787  1.00  0.00    -0.206 F 
ATOM     76  C   UNL A   1      35.955  29.860  28.951  1.00  0.00     0.006 A 
ENDBRANCH  48  69
BRANCH  60  77
ATOM     77  C   UNL A   1      44.507  32.545  30.807  1.00  0.00     0.057 A 
ATOM     78  C   UNL A   1      44.522  32.937  32.152  1.00  0.00     0.134 A 
ATOM     79  C   UNL A   1      44.746  33.530  29.841  1.00  0.00     0.134 A 
ATOM     80  F   UNL A   1      44.287  32.042  33.122  1.00  0.00    -0.206 F 
ATOM     81  C   UNL A   1      44.734  34.266  32.520  1.00  0.00     0.040 A 
ATOM     82  C   UNL A   1      44.982  34.858  30.198  1.00  0.00     0.040 A 
ATOM     83  F   UNL A   1      44.752  33.218  28.536  1.00  0.00    -0.206 F 
ATOM     84  C   UNL A   1      44.968  35.231  31.541  1.00  0.00     0.006 A 
ENDBRANCH  60  77
ENDBRANCH  34  35
ENDBRANCH  26  29
ENDBRANCH  24  25
ENDBRANCH  23  24
ENDBRANCH  22  23
ENDBRANCH   1  22
TORSDOF 15
ENDMDL
MODEL 2
REMARK VINA RESULT:     -10.7      5.140      9.828
REMARK SMILES C[C@@H]1CCC[C@@](Cc2ncccn2)(C(=O)NCCCCCCNC(=O)c2ccc(-c3c4nc(c(-c5c(F)cccc5F)c5ccc([nH]5)c(-c5c(F)cccc5F)c5nc(c(-c6c(F)cccc6F)c6ccc3[nH]6)C=C5)C=C4)cc2)C1
REMARK SMILES IDX 19 1 18 2 17 3 16 4 14 5 15 6 6 8 1 9 2 10 3 11 80 12 4 13
REMARK SMILES IDX 5 14 7 15 8 16 9 17 13 18 10 19 12 20 11 21 20 22 21 23
REMARK SMILES IDX 22 24 23 25 24 26 25 28 26 29 27 30 79 31 28 32 78 33 29 34
REMARK SMILES IDX 30 35 31 36 72 37 32 38 77 39 71 40 73 41 33 42 76 43 70 44
REMARK SMILES IDX 69 45 34 47 60 48 43 49 59 50 44 51 47 52 58 53 74 54 45 55
REMARK SMILES IDX 46 56 57 58 75 59 48 60 35 61 36 62 41 63 37 64 38 65 40 66
REMARK SMILES IDX 42 67 39 68 61 69 62 70 67 71 63 72 64 73 66 74 68 75 65 76
REMARK SMILES IDX 49 77 50 78 55 79 51 80 52 81 54 82 56 83 53 84
REMARK H PARENT 16 7 23 27 73 46 47 57
REMARK Flexibility Score: inf
ROOT
ATOM      1  C   UNL A   1      34.025  32.030  28.740  1.00  0.00     0.002 C 
ENDROOT
BRANCH   1   2
ATOM      2  C   UNL A   1      34.933  31.104  27.924  1.00  0.00     0.021 C 
BRANCH   2   3
ATOM      3  C   UNL A   1      34.200  30.117  27.023  1.00  0.00     0.116 C 
BRANCH   3   4
ATOM      4  N   UNL A   1      33.016  29.551  27.626  1.00  0.00    -0.356 N 
ATOM      5  C   UNL A   1      32.189  28.542  27.245  1.00  0.00     0.226 C 
ATOM      6  O   UNL A   1      31.445  28.125  28.142  1.00  0.00    -0.274 OA
ATOM      7  H   UNL A   1      32.759  29.976  28.476  1.00  0.00     0.163 HD
BRANCH   5   8
ATOM      8  C   UNL A   1      32.142  27.916  25.816  1.00  0.00     0.056 C 
ATOM      9  C   UNL A   1      30.963  28.201  22.612  1.00  0.00     0.007 C 
ATOM     10  C   UNL A   1      32.098  28.930  23.334  1.00  0.00    -0.013 C 
ATOM     11  C   UNL A   1      33.453  28.278  23.067  1.00  0.00     0.003 C 
ATOM     12  C   UNL A   1      31.868  29.132  24.844  1.00  0.00     0.020 C 
ATOM     13  C   UNL A   1      33.665  27.032  23.912  1.00  0.00     0.001 C 
ATOM     14  C   UNL A   1      33.506  27.315  25.403  1.00  0.00     0.017 C 
BRANCH   8  15
ATOM     15  C   UNL A   1      30.923  26.960  25.710  1.00  0.00     0.094 C 
BRANCH  15  16
ATOM     16  C   UNL A   1      31.143  25.473  25.715  1.00  0.00     0.129 A 
ATOM     17  N   UNL A   1      30.954  24.803  24.561  1.00  0.00    -0.241 NA
ATOM     18  N   UNL A   1      31.450  24.889  26.889  1.00  0.00    -0.241 NA
ATOM     19  C   UNL A   1      31.083  23.464  24.615  1.00  0.00     0.115 A 
ATOM     20  C   UNL A   1      31.568  23.547  26.884  1.00  0.00     0.115 A 
ATOM     21  C   UNL A   1      31.396  22.775  25.761  1.00  0.00     0.040 A 
ENDBRANCH  15  16
ENDBRANCH   8  15
ENDBRANCH   5   8
ENDBRANCH   3   4
ENDBRANCH   2   3
ENDBRANCH   1   2
BRANCH   1  22
ATOM     22  C   UNL A   1      34.262  33.536  28.567  1.00  0.00     0.002 C 
BRANCH  22  23
ATOM     23  C   UNL A   1      33.021  34.434  28.625  1.00  0.00     0.021 C 
BRANCH  23  24
ATOM     24  C   UNL A   1      33.244  35.843  29.166  1.00  0.00     0.116 C 
BRANCH  24  25
ATOM     25  N   UNL A   1      32.516  36.092  30.395  1.00  0.00    -0.352 N 
ATOM     26  C   UNL A   1      32.741  35.646  31.669  1.00  0.00     0.251 C 
ATOM     27  H   UNL A   1      31.732  36.679  30.297  1.00  0.00     0.163 HD
ATOM     28  O   UNL A   1      31.903  35.879  32.542  1.00  0.00    -0.269 OA
BRANCH  26  29
ATOM     29  C   UNL A   1      33.954  34.871  32.020  1.00  0.00     0.039 A 
ATOM     30  C   UNL A   1      35.199  35.475  31.815  1.00  0.00     0.014 A 
ATOM     31  C   UNL A   1      33.894  33.552  32.481  1.00  0.00     0.014 A 
ATOM     32  C   UNL A   1      36.374  34.778  32.106  1.00  0.00     0.010 A 
ATOM     33  C   UNL A   1      35.067  32.877  32.831  1.00  0.00     0.010 A 
ATOM     34  C   UNL A   1      36.318  33.480  32.639  1.00  0.00    -0.014 A 
BRANCH  34  35
ATOM     35  C   UNL A   1      37.571  32.763  32.991  1.00  0.00     0.031 A 
ATOM     36  C   UNL A   1      38.286  33.056  34.281  1.00  0.00     0.074 A 
ATOM     37  C   UNL A   1      38.069  31.846  32.139  1.00  0.00     0.049 A 
ATOM     38  N   UNL A   1      39.376  32.510  34.763  1.00  0.00    -0.248 NA
ATOM     39  C   UNL A   1      37.718  34.111  35.135  1.00  0.00     0.031 C 
ATOM     40  C   UNL A   1      37.494  31.504  30.836  1.00  0.00     0.029 A 
ATOM     41  N   UNL A   1      39.165  31.029  32.243  1.00  0.00    -0.354 N 
ATOM     42  C   UNL A   1      39.620  33.150  35.971  1.00  0.00     0.074 A 
ATOM     43  C   UNL A   1      38.596  34.162  36.127  1.00  0.00     0.031 C 
ATOM     44  C   UNL A   1      38.224  30.526  30.277  1.00  0.00     0.029 A 
ATOM     45  C   UNL A   1      39.330  30.189  31.169  1.00  0.00     0.049 A 
ATOM     46  H   UNL A   1      39.777  31.044  33.015  1.00  0.00     0.167 HD
ATOM     47  C   UNL A   1      40.590  32.900  36.882  1.00  0.00     0.037 A 
ATOM     48  C   UNL A   1      40.261  29.246  30.933  1.00  0.00     0.037 A 
ATOM     49  C   UNL A   1      41.598  31.882  36.740  1.00  0.00     0.049 A 
ATOM     50  C   UNL A   1      41.320  28.983  31.967  1.00  0.00     0.074 A 
ATOM     51  C   UNL A   1      42.606  31.534  37.624  1.00  0.00     0.029 A 
ATOM     52  N   UNL A   1      41.721  31.042  35.645  1.00  0.00    -0.354 N 
ATOM     53  N   UNL A   1      41.502  29.561  33.129  1.00  0.00    -0.248 NA
ATOM     54  C   UNL A   1      42.295  27.926  31.661  1.00  0.00     0.031 C 
ATOM     55  C   UNL A   1      43.356  30.501  37.051  1.00  0.00     0.029 A 
ATOM     56  C   UNL A   1      42.794  30.183  35.826  1.00  0.00     0.049 A 
ATOM     57  H   UNL A   1      41.135  31.054  34.855  1.00  0.00     0.167 HD
ATOM     58  C   UNL A   1      42.596  28.924  33.701  1.00  0.00     0.074 A 
ATOM     59  C   UNL A   1      43.021  27.901  32.769  1.00  0.00     0.031 C 
ATOM     60  C   UNL A   1      43.199  29.168  34.889  1.00  0.00     0.037 A 
BRANCH  47  61
ATOM     61  C   UNL A   1      40.600  33.732  38.132  1.00  0.00     0.057 A 
ATOM     62  C   UNL A   1      41.407  34.871  38.245  1.00  0.00     0.134 A 
ATOM     63  C   UNL A   1      39.757  33.426  39.207  1.00  0.00     0.134 A 
ATOM     64  F   UNL A   1      42.244  35.211  37.254  1.00  0.00    -0.206 F 
ATOM     65  C   UNL A   1      41.388  35.668  39.391  1.00  0.00     0.040 A 
ATOM     66  C   UNL A   1      39.713  34.228  40.349  1.00  0.00     0.040 A 
ATOM     67  F   UNL A   1      38.954  32.352  39.161  1.00  0.00    -0.206 F 
ATOM     68  C   UNL A   1      40.533  35.351  40.444  1.00  0.00     0.006 A 
ENDBRANCH  47  61
BRANCH  48  69
ATOM     69  C   UNL A   1      40.223  28.455  29.678  1.00  0.00     0.057 A 
ATOM     70  C   UNL A   1      39.453  27.290  29.582  1.00  0.00     0.134 A 
ATOM     71  C   UNL A   1      40.978  28.823  28.560  1.00  0.00     0.134 A 
ATOM     72  F   UNL A   1      38.722  26.876  30.629  1.00  0.00    -0.206 F 
ATOM     73  C   UNL A   1      39.454  26.506  28.429  1.00  0.00     0.040 A 
ATOM     74  C   UNL A   1      40.971  28.061  27.391  1.00  0.00     0.040 A 
ATOM     75  F   UNL A   1      41.731  29.934  28.586  1.00  0.00    -0.206 F 
ATOM     76  C   UNL A   1      40.215  26.893  27.327  1.00  0.00     0.006 A 
ENDBRANCH  48  69
BRANCH  60  77
ATOM     77  C   UNL A   1      44.364  28.295  35.249  1.00  0.00     0.057 A 
ATOM     78  C   UNL A   1      44.187  27.048  35.863  1.00  0.00     0.134 A 
ATOM     79  C   UNL A   1      45.675  28.702  34.972  1.00  0.00     0.134 A 
ATOM     80  F   UNL A   1      42.956  26.609  36.166  1.00  0.00    -0.206 F 
ATOM     81  C   UNL A   1      45.276  26.251  36.217  1.00  0.00     0.040 A 
ATOM     82  C   UNL A   1      46.770  27.902  35.300  1.00  0.00     0.040 A 
ATOM     83  F   UNL A   1      45.912  29.882  34.379  1.00  0.00    -0.206 F 
ATOM     84  C   UNL A   1      46.573  26.677  35.932  1.00  0.00     0.006 A 
ENDBRANCH  60  77
ENDBRANCH  34  35
ENDBRANCH  26  29
ENDBRANCH  24  25
ENDBRANCH  23  24
ENDBRANCH  22  23
ENDBRANCH   1  22
TORSDOF 15
ENDMDL
MODEL 3
REMARK VINA RESULT:     -10.7      5.345      9.827
REMARK SMILES C[C@@H]1CCC[C@@](Cc2ncccn2)(C(=O)NCCCCCCNC(=O)c2ccc(-c3c4nc(c(-c5c(F)cccc5F)c5ccc([nH]5)c(-c5c(F)cccc5F)c5nc(c(-c6c(F)cccc6F)c6ccc3[nH]6)C=C5)C=C4)cc2)C1
REMARK SMILES IDX 19 1 18 2 17 3 16 4 14 5 15 6 6 8 1 9 2 10 3 11 80 12 4 13
REMARK SMILES IDX 5 14 7 15 8 16 9 17 13 18 10 19 12 20 11 21 20 22 21 23
REMARK SMILES IDX 22 24 23 25 24 26 25 28 26 29 27 30 79 31 28 32 78 33 29 34
REMARK SMILES IDX 30 35 31 36 72 37 32 38 77 39 71 40 73 41 33 42 76 43 70 44
REMARK SMILES IDX 69 45 34 47 60 48 43 49 59 50 44 51 47 52 58 53 74 54 45 55
REMARK SMILES IDX 46 56 57 58 75 59 48 60 35 61 36 62 41 63 37 64 38 65 40 66
REMARK SMILES IDX 42 67 39 68 61 69 62 70 67 71 63 72 64 73 66 74 68 75 65 76
REMARK SMILES IDX 49 77 50 78 55 79 51 80 52 81 54 82 56 83 53 84
REMARK H PARENT 16 7 23 27 73 46 47 57
REMARK Flexibility Score: inf
ROOT
ATOM      1  C   UNL A   1      33.901  32.036  27.627  1.00  0.00     0.002 C 
ENDROOT
BRANCH   1   2
ATOM      2  C   UNL A   1      34.861  30.874  27.900  1.00  0.00     0.021 C 
BRANCH   2   3
ATOM      3  C   UNL A   1      34.418  29.529  27.338  1.00  0.00     0.116 C 
BRANCH   3   4
ATOM      4  N   UNL A   1      33.148  29.075  27.854  1.00  0.00    -0.356 N 
ATOM      5  C   UNL A   1      32.219  28.211  27.366  1.00  0.00     0.226 C 
ATOM      6  O   UNL A   1      31.391  27.827  28.202  1.00  0.00    -0.274 OA
ATOM      7  H   UNL A   1      32.909  29.465  28.726  1.00  0.00     0.163 HD
BRANCH   5   8
ATOM      8  C   UNL A   1      32.156  27.705  25.892  1.00  0.00     0.056 C 
ATOM      9  C   UNL A   1      30.997  28.286  22.721  1.00  0.00     0.007 C 
ATOM     10  C   UNL A   1      32.152  28.918  23.500  1.00  0.00    -0.013 C 
ATOM     11  C   UNL A   1      33.486  28.246  23.181  1.00  0.00     0.003 C 
ATOM     12  C   UNL A   1      31.924  29.003  25.022  1.00  0.00     0.020 C 
ATOM     13  C   UNL A   1      33.656  26.929  23.922  1.00  0.00     0.001 C 
ATOM     14  C   UNL A   1      33.502  27.096  25.432  1.00  0.00     0.017 C 
BRANCH   8  15
ATOM     15  C   UNL A   1      30.908  26.800  25.708  1.00  0.00     0.094 C 
BRANCH  15  16
ATOM     16  C   UNL A   1      31.068  25.306  25.698  1.00  0.00     0.129 A 
ATOM     17  N   UNL A   1      30.959  24.667  24.516  1.00  0.00    -0.241 NA
ATOM     18  N   UNL A   1      31.246  24.686  26.880  1.00  0.00    -0.241 NA
ATOM     19  C   UNL A   1      31.030  23.323  24.549  1.00  0.00     0.115 A 
ATOM     20  C   UNL A   1      31.312  23.341  26.855  1.00  0.00     0.115 A 
ATOM     21  C   UNL A   1      31.213  22.599  25.703  1.00  0.00     0.040 A 
ENDBRANCH  15  16
ENDBRANCH   8  15
ENDBRANCH   5   8
ENDBRANCH   3   4
ENDBRANCH   2   3
ENDBRANCH   1   2
BRANCH   1  22
ATOM     22  C   UNL A   1      34.129  33.311  28.449  1.00  0.00     0.002 C 
BRANCH  22  23
ATOM     23  C   UNL A   1      32.967  34.310  28.498  1.00  0.00     0.021 C 
BRANCH  23  24
ATOM     24  C   UNL A   1      33.300  35.693  29.051  1.00  0.00     0.116 C 
BRANCH  24  25
ATOM     25  N   UNL A   1      32.513  36.031  30.220  1.00  0.00    -0.352 N 
ATOM     26  C   UNL A   1      32.698  35.718  31.539  1.00  0.00     0.251 C 
ATOM     27  H   UNL A   1      31.715  36.577  30.035  1.00  0.00     0.163 HD
ATOM     28  O   UNL A   1      31.816  36.002  32.352  1.00  0.00    -0.269 OA
BRANCH  26  29
ATOM     29  C   UNL A   1      33.919  35.024  32.010  1.00  0.00     0.039 A 
ATOM     30  C   UNL A   1      33.825  33.659  32.303  1.00  0.00     0.014 A 
ATOM     31  C   UNL A   1      35.127  35.695  32.228  1.00  0.00     0.014 A 
ATOM     32  C   UNL A   1      34.941  32.964  32.774  1.00  0.00     0.010 A 
ATOM     33  C   UNL A   1      36.259  34.988  32.641  1.00  0.00     0.010 A 
ATOM     34  C   UNL A   1      36.175  33.617  32.926  1.00  0.00    -0.014 A 
BRANCH  34  35
ATOM     35  C   UNL A   1      37.369  32.860  33.381  1.00  0.00     0.031 A 
ATOM     36  C   UNL A   1      37.990  31.805  32.506  1.00  0.00     0.074 A 
ATOM     37  C   UNL A   1      37.894  33.121  34.594  1.00  0.00     0.049 A 
ATOM     38  N   UNL A   1      39.048  31.065  32.730  1.00  0.00    -0.248 NA
ATOM     39  C   UNL A   1      37.329  31.532  31.221  1.00  0.00     0.031 C 
ATOM     40  C   UNL A   1      37.358  34.088  35.555  1.00  0.00     0.029 A 
ATOM     41  N   UNL A   1      38.998  32.605  35.223  1.00  0.00    -0.354 N 
ATOM     42  C   UNL A   1      39.180  30.245  31.617  1.00  0.00     0.074 A 
ATOM     43  C   UNL A   1      38.066  30.539  30.742  1.00  0.00     0.031 C 
ATOM     44  C   UNL A   1      38.151  34.117  36.638  1.00  0.00     0.029 A 
ATOM     45  C   UNL A   1      39.236  33.157  36.458  1.00  0.00     0.049 A 
ATOM     46  H   UNL A   1      39.565  31.904  34.827  1.00  0.00     0.167 HD
ATOM     47  C   UNL A   1      40.155  29.348  31.337  1.00  0.00     0.037 A 
ATOM     48  C   UNL A   1      40.224  32.923  37.343  1.00  0.00     0.037 A 
ATOM     49  C   UNL A   1      41.275  29.066  32.196  1.00  0.00     0.049 A 
ATOM     50  C   UNL A   1      41.299  31.930  36.999  1.00  0.00     0.074 A 
ATOM     51  C   UNL A   1      42.331  28.195  31.984  1.00  0.00     0.029 A 
ATOM     52  N   UNL A   1      41.489  29.657  33.431  1.00  0.00    -0.354 N 
ATOM     53  N   UNL A   1      41.438  31.203  35.917  1.00  0.00    -0.248 NA
ATOM     54  C   UNL A   1      42.363  31.736  37.995  1.00  0.00     0.031 C 
ATOM     55  C   UNL A   1      43.170  28.238  33.103  1.00  0.00     0.029 A 
ATOM     56  C   UNL A   1      42.655  29.163  33.997  1.00  0.00     0.049 A 
ATOM     57  H   UNL A   1      40.901  30.329  33.846  1.00  0.00     0.167 HD
ATOM     58  C   UNL A   1      42.612  30.483  36.093  1.00  0.00     0.074 A 
ATOM     59  C   UNL A   1      43.159  30.879  37.374  1.00  0.00     0.031 C 
ATOM     60  C   UNL A   1      43.185  29.571  35.271  1.00  0.00     0.037 A 
BRANCH  47  61
ATOM     61  C   UNL A   1      40.067  28.613  30.031  1.00  0.00     0.057 A 
ATOM     62  C   UNL A   1      40.771  29.047  28.899  1.00  0.00     0.134 A 
ATOM     63  C   UNL A   1      39.321  27.435  29.916  1.00  0.00     0.134 A 
ATOM     64  F   UNL A   1      41.496  30.175  28.942  1.00  0.00    -0.206 F 
ATOM     65  C   UNL A   1      40.722  28.343  27.695  1.00  0.00     0.040 A 
ATOM     66  C   UNL A   1      39.281  26.710  28.723  1.00  0.00     0.040 A 
ATOM     67  F   UNL A   1      38.627  26.961  30.962  1.00  0.00    -0.206 F 
ATOM     68  C   UNL A   1      39.982  27.166  27.608  1.00  0.00     0.006 A 
ENDBRANCH  47  61
BRANCH  48  69
ATOM     69  C   UNL A   1      40.267  33.662  38.628  1.00  0.00     0.057 A 
ATOM     70  C   UNL A   1      39.445  33.294  39.700  1.00  0.00     0.134 A 
ATOM     71  C   UNL A   1      41.103  34.770  38.806  1.00  0.00     0.134 A 
ATOM     72  F   UNL A   1      38.609  32.252  39.582  1.00  0.00    -0.206 F 
ATOM     73  C   UNL A   1      39.433  34.016  40.893  1.00  0.00     0.040 A 
ATOM     74  C   UNL A   1      41.119  35.487  40.003  1.00  0.00     0.040 A 
ATOM     75  F   UNL A   1      41.921  35.167  37.820  1.00  0.00    -0.206 F 
ATOM     76  C   UNL A   1      40.275  35.117  41.047  1.00  0.00     0.006 A 
ENDBRANCH  48  69
BRANCH  60  77
ATOM     77  C   UNL A   1      44.477  28.965  35.728  1.00  0.00     0.057 A 
ATOM     78  C   UNL A   1      44.510  27.788  36.488  1.00  0.00     0.134 A 
ATOM     79  C   UNL A   1      45.702  29.559  35.400  1.00  0.00     0.134 A 
ATOM     80  F   UNL A   1      43.370  27.179  36.846  1.00  0.00    -0.206 F 
ATOM     81  C   UNL A   1      45.715  27.242  36.931  1.00  0.00     0.040 A 
ATOM     82  C   UNL A   1      46.914  29.009  35.818  1.00  0.00     0.040 A 
ATOM     83  F   UNL A   1      45.739  30.684  34.669  1.00  0.00    -0.206 F 
ATOM     84  C   UNL A   1      46.922  27.851  36.593  1.00  0.00     0.006 A 
ENDBRANCH  60  77
ENDBRANCH  34  35
ENDBRANCH  26  29
ENDBRANCH  24  25
ENDBRANCH  23  24
ENDBRANCH  22  23
ENDBRANCH   1  22
TORSDOF 15
ENDMDL
