MODEL 1
REMARK VINA RESULT:     -13.3      0.000      0.000
REMARK SMILES Cc1cccc(OC2(C(=O)NCCCCCCNC(=O)c3ccc(-c4c5nc(c(-c6c(F)cccc6F)c6ccc([nH]6)c(-c6c(F)cccc6F)c6nc(c(-c7c(F)cccc7F)c7ccc4[nH]7)C=C6)C=C5)cc3)CCN(C(=O)c3cnc[nH]c3=O)CC2)c1
REMARK SMILES IDX 14 1 13 2 12 3 11 4 9 5 10 6 8 8 75 9 88 10 76 11 87 12
REMARK SMILES IDX 77 13 78 14 79 15 7 16 6 17 1 18 2 19 3 20 89 21 4 22 5 23
REMARK SMILES IDX 80 24 81 25 85 26 82 27 84 28 86 29 83 30 15 32 16 33 17 34
REMARK SMILES IDX 18 35 19 36 20 38 21 39 22 40 74 41 23 42 73 43 24 44 25 45
REMARK SMILES IDX 26 46 67 47 27 48 72 49 66 50 68 51 28 52 71 53 65 54 64 55
REMARK SMILES IDX 29 57 55 58 38 59 54 60 39 61 42 62 53 63 69 64 40 65 41 66
REMARK SMILES IDX 52 68 70 69 43 70 30 71 31 72 36 73 32 74 33 75 35 76 37 77
REMARK SMILES IDX 34 78 56 79 57 80 62 81 58 82 59 83 61 84 63 85 60 86 44 87
REMARK SMILES IDX 45 88 50 89 46 90 47 91 49 92 51 93 48 94
REMARK H PARENT 11 7 84 31 18 37 68 56 42 67
REMARK Flexibility Score: inf
ROOT
ATOM      1  C   UNL A   1      35.200  30.008  27.644  1.00  0.00     0.002 C 
ENDROOT
BRANCH   1   2
ATOM      2  C   UNL A   1      34.284  28.936  27.052  1.00  0.00     0.021 C 
BRANCH   2   3
ATOM      3  C   UNL A   1      33.426  29.339  25.841  1.00  0.00     0.116 C 
BRANCH   3   4
ATOM      4  N   UNL A   1      34.081  29.136  24.561  1.00  0.00    -0.353 N 
ATOM      5  C   UNL A   1      33.860  28.289  23.512  1.00  0.00     0.264 C 
ATOM      6  O   UNL A   1      34.522  28.555  22.499  1.00  0.00    -0.270 OA
ATOM      7  H   UNL A   1      34.847  29.737  24.419  1.00  0.00     0.163 HD
BRANCH   5   8
ATOM      8  C   UNL A   1      32.831  27.104  23.520  1.00  0.00     0.190 C 
ATOM      9  C   UNL A   1      32.795  26.360  22.177  1.00  0.00     0.080 C 
ATOM     10  C   UNL A   1      33.220  26.120  24.659  1.00  0.00     0.080 C 
ATOM     11  C   UNL A   1      32.053  25.038  22.192  1.00  0.00     0.124 C 
ATOM     12  C   UNL A   1      32.358  24.850  24.606  1.00  0.00     0.124 C 
ATOM     13  N   UNL A   1      32.534  24.236  23.296  1.00  0.00    -0.338 N 
ATOM     14  C   UNL A   1      33.430  23.210  23.061  1.00  0.00     0.261 C 
ATOM     15  O   UNL A   1      34.203  23.190  22.106  1.00  0.00    -0.269 OA
BRANCH   8  16
ATOM     16  O   UNL A   1      31.598  27.669  24.018  1.00  0.00    -0.477 OA
BRANCH  16  17
ATOM     17  C   UNL A   1      30.501  28.160  23.406  1.00  0.00     0.121 A 
ATOM     18  C   UNL A   1      26.701  28.263  23.388  1.00  0.00     0.044 C 
ATOM     19  C   UNL A   1      28.127  28.579  23.045  1.00  0.00    -0.047 A 
ATOM     20  C   UNL A   1      28.432  29.636  22.186  1.00  0.00     0.003 A 
ATOM     21  C   UNL A   1      29.170  27.828  23.615  1.00  0.00     0.049 A 
ATOM     22  C   UNL A   1      29.761  29.943  21.914  1.00  0.00     0.004 A 
ATOM     23  C   UNL A   1      30.782  29.216  22.529  1.00  0.00     0.046 A 
ENDBRANCH  16  17
ENDBRANCH   8  16
BRANCH  14  24
ATOM     24  C   UNL A   1      33.376  22.095  24.022  1.00  0.00     0.123 A 
ATOM     25  C   UNL A   1      32.324  21.267  24.049  1.00  0.00     0.132 A 
ATOM     26  C   UNL A   1      34.442  21.869  25.016  1.00  0.00     0.263 A 
ATOM     27  N   UNL A   1      32.185  20.196  24.900  1.00  0.00    -0.246 NA
ATOM     28  N   UNL A   1      34.247  20.796  25.838  1.00  0.00    -0.312 N 
ATOM     29  O   UNL A   1      35.432  22.584  25.125  1.00  0.00    -0.269 OA
ATOM     30  C   UNL A   1      33.138  20.009  25.750  1.00  0.00     0.199 A 
ATOM     31  H   UNL A   1      34.929  20.584  26.515  1.00  0.00     0.171 HD
ENDBRANCH  14  24
ENDBRANCH   5   8
ENDBRANCH   3   4
ENDBRANCH   2   3
ENDBRANCH   1   2
BRANCH   1  32
ATOM     32  C   UNL A   1      34.575  31.380  27.911  1.00  0.00     0.002 C 
BRANCH  32  33
ATOM     33  C   UNL A   1      34.830  31.974  29.294  1.00  0.00     0.021 C 
BRANCH  33  34
ATOM     34  C   UNL A   1      34.895  33.492  29.326  1.00  0.00     0.116 C 
BRANCH  34  35
ATOM     35  N   UNL A   1      34.036  34.071  30.346  1.00  0.00    -0.352 N 
ATOM     36  C   UNL A   1      34.143  34.098  31.726  1.00  0.00     0.251 C 
ATOM     37  H   UNL A   1      33.237  34.524  29.992  1.00  0.00     0.163 HD
ATOM     38  O   UNL A   1      33.219  34.527  32.382  1.00  0.00    -0.269 OA
BRANCH  36  39
ATOM     39  C   UNL A   1      35.445  33.796  32.388  1.00  0.00     0.039 A 
ATOM     40  C   UNL A   1      36.560  34.513  31.924  1.00  0.00     0.014 A 
ATOM     41  C   UNL A   1      35.630  32.681  33.192  1.00  0.00     0.014 A 
ATOM     42  C   UNL A   1      37.825  33.943  32.005  1.00  0.00     0.010 A 
ATOM     43  C   UNL A   1      36.853  32.054  33.170  1.00  0.00     0.010 A 
ATOM     44  C   UNL A   1      37.926  32.653  32.504  1.00  0.00    -0.014 A 
BRANCH  44  45
ATOM     45  C   UNL A   1      39.086  31.798  32.346  1.00  0.00     0.031 A 
ATOM     46  C   UNL A   1      38.980  30.601  31.499  1.00  0.00     0.074 A 
ATOM     47  C   UNL A   1      40.278  32.254  32.787  1.00  0.00     0.049 A 
ATOM     48  N   UNL A   1      39.877  29.685  31.416  1.00  0.00    -0.248 NA
ATOM     49  C   UNL A   1      37.801  30.325  30.688  1.00  0.00     0.031 C 
ATOM     50  C   UNL A   1      41.609  31.811  32.385  1.00  0.00     0.029 A 
ATOM     51  N   UNL A   1      40.509  33.098  33.882  1.00  0.00    -0.354 N 
ATOM     52  C   UNL A   1      39.550  28.871  30.355  1.00  0.00     0.074 A 
ATOM     53  C   UNL A   1      38.212  29.265  29.989  1.00  0.00     0.031 C 
ATOM     54  C   UNL A   1      42.482  32.128  33.354  1.00  0.00     0.029 A 
ATOM     55  C   UNL A   1      41.700  32.622  34.474  1.00  0.00     0.049 A 
ATOM     56  H   UNL A   1      39.959  33.860  34.175  1.00  0.00     0.167 HD
ATOM     57  C   UNL A   1      40.520  28.063  29.839  1.00  0.00     0.037 A 
ATOM     58  C   UNL A   1      41.689  32.051  35.715  1.00  0.00     0.037 A 
ATOM     59  C   UNL A   1      41.716  28.103  30.684  1.00  0.00     0.049 A 
ATOM     60  C   UNL A   1      42.198  30.628  35.729  1.00  0.00     0.074 A 
ATOM     61  C   UNL A   1      42.916  28.793  30.594  1.00  0.00     0.029 A 
ATOM     62  N   UNL A   1      41.640  27.620  31.986  1.00  0.00    -0.354 N 
ATOM     63  N   UNL A   1      42.189  29.836  34.692  1.00  0.00    -0.248 NA
ATOM     64  C   UNL A   1      42.782  29.996  36.907  1.00  0.00     0.031 C 
ATOM     65  C   UNL A   1      43.539  28.760  31.869  1.00  0.00     0.029 A 
ATOM     66  C   UNL A   1      42.730  28.032  32.726  1.00  0.00     0.049 A 
ATOM     67  H   UNL A   1      40.908  27.060  32.333  1.00  0.00     0.167 HD
ATOM     68  C   UNL A   1      42.759  28.631  35.025  1.00  0.00     0.074 A 
ATOM     69  C   UNL A   1      43.121  28.789  36.421  1.00  0.00     0.031 C 
ATOM     70  C   UNL A   1      42.885  27.618  34.113  1.00  0.00     0.037 A 
BRANCH  57  71
ATOM     71  C   UNL A   1      40.499  27.465  28.446  1.00  0.00     0.057 A 
ATOM     72  C   UNL A   1      39.870  26.224  28.209  1.00  0.00     0.134 A 
ATOM     73  C   UNL A   1      41.127  28.005  27.310  1.00  0.00     0.134 A 
ATOM     74  F   UNL A   1      39.139  25.611  29.150  1.00  0.00    -0.206 F 
ATOM     75  C   UNL A   1      39.954  25.538  26.989  1.00  0.00     0.040 A 
ATOM     76  C   UNL A   1      41.259  27.312  26.097  1.00  0.00     0.040 A 
ATOM     77  F   UNL A   1      41.589  29.257  27.283  1.00  0.00    -0.206 F 
ATOM     78  C   UNL A   1      40.682  26.065  25.935  1.00  0.00     0.006 A 
ENDBRANCH  57  71
BRANCH  58  79
ATOM     79  C   UNL A   1      40.621  32.602  36.594  1.00  0.00     0.057 A 
ATOM     80  C   UNL A   1      40.852  33.839  37.223  1.00  0.00     0.134 A 
ATOM     81  C   UNL A   1      39.291  32.183  36.487  1.00  0.00     0.134 A 
ATOM     82  F   UNL A   1      42.106  34.300  37.362  1.00  0.00    -0.206 F 
ATOM     83  C   UNL A   1      39.805  34.684  37.603  1.00  0.00     0.040 A 
ATOM     84  C   UNL A   1      38.234  33.013  36.883  1.00  0.00     0.040 A 
ATOM     85  F   UNL A   1      38.987  31.024  35.887  1.00  0.00    -0.206 F 
ATOM     86  C   UNL A   1      38.488  34.285  37.398  1.00  0.00     0.006 A 
ENDBRANCH  58  79
BRANCH  70  87
ATOM     87  C   UNL A   1      43.240  26.165  34.385  1.00  0.00     0.057 A 
ATOM     88  C   UNL A   1      42.394  25.229  34.993  1.00  0.00     0.134 A 
ATOM     89  C   UNL A   1      44.447  25.616  33.877  1.00  0.00     0.134 A 
ATOM     90  F   UNL A   1      41.171  25.554  35.428  1.00  0.00    -0.206 F 
ATOM     91  C   UNL A   1      42.736  23.873  35.131  1.00  0.00     0.040 A 
ATOM     92  C   UNL A   1      44.770  24.258  33.954  1.00  0.00     0.040 A 
ATOM     93  F   UNL A   1      45.365  26.368  33.252  1.00  0.00    -0.206 F 
ATOM     94  C   UNL A   1      43.918  23.380  34.597  1.00  0.00     0.006 A 
ENDBRANCH  70  87
ENDBRANCH  44  45
ENDBRANCH  36  39
ENDBRANCH  34  35
ENDBRANCH  33  34
ENDBRANCH  32  33
ENDBRANCH   1  32
TORSDOF 16
ENDMDL
MODEL 2
REMARK VINA RESULT:     -13.2      1.942      4.498
REMARK SMILES Cc1cccc(OC2(C(=O)NCCCCCCNC(=O)c3ccc(-c4c5nc(c(-c6c(F)cccc6F)c6ccc([nH]6)c(-c6c(F)cccc6F)c6nc(c(-c7c(F)cccc7F)c7ccc4[nH]7)C=C6)C=C5)cc3)CCN(C(=O)c3cnc[nH]c3=O)CC2)c1
REMARK SMILES IDX 14 1 13 2 12 3 11 4 9 5 10 6 8 8 75 9 88 10 76 11 87 12
REMARK SMILES IDX 77 13 78 14 79 15 7 16 6 17 1 18 2 19 3 20 89 21 4 22 5 23
REMARK SMILES IDX 80 24 81 25 85 26 82 27 84 28 86 29 83 30 15 32 16 33 17 34
REMARK SMILES IDX 18 35 19 36 20 38 21 39 22 40 74 41 23 42 73 43 24 44 25 45
REMARK SMILES IDX 26 46 67 47 27 48 72 49 66 50 68 51 28 52 71 53 65 54 64 55
REMARK SMILES IDX 29 57 55 58 38 59 54 60 39 61 42 62 53 63 69 64 40 65 41 66
REMARK SMILES IDX 52 68 70 69 43 70 30 71 31 72 36 73 32 74 33 75 35 76 37 77
REMARK SMILES IDX 34 78 56 79 57 80 62 81 58 82 59 83 61 84 63 85 60 86 44 87
REMARK SMILES IDX 45 88 50 89 46 90 47 91 49 92 51 93 48 94
REMARK H PARENT 11 7 84 31 18 37 68 56 42 67
REMARK Flexibility Score: inf
ROOT
ATOM      1  C   UNL A   1      35.454  29.929  28.029  1.00  0.00     0.002 C 
ENDROOT
BRANCH   1   2
ATOM      2  C   UNL A   1      34.472  29.363  27.001  1.00  0.00     0.021 C 
BRANCH   2   3
ATOM      3  C   UNL A   1      32.978  29.643  27.234  1.00  0.00     0.116 C 
BRANCH   3   4
ATOM      4  N   UNL A   1      32.182  28.448  27.454  1.00  0.00    -0.353 N 
ATOM      5  C   UNL A   1      31.562  27.560  26.621  1.00  0.00     0.264 C 
ATOM      6  O   UNL A   1      31.139  26.544  27.189  1.00  0.00    -0.270 OA
ATOM      7  H   UNL A   1      32.066  28.232  28.407  1.00  0.00     0.163 HD
BRANCH   5   8
ATOM      8  C   UNL A   1      31.421  27.739  25.068  1.00  0.00     0.190 C 
ATOM      9  C   UNL A   1      30.275  26.895  24.491  1.00  0.00     0.080 C 
ATOM     10  C   UNL A   1      31.173  29.244  24.766  1.00  0.00     0.080 C 
ATOM     11  C   UNL A   1      29.885  27.227  23.064  1.00  0.00     0.124 C 
ATOM     12  C   UNL A   1      30.850  29.458  23.279  1.00  0.00     0.124 C 
ATOM     13  N   UNL A   1      29.680  28.654  22.947  1.00  0.00    -0.338 N 
ATOM     14  C   UNL A   1      28.396  29.165  22.937  1.00  0.00     0.261 C 
ATOM     15  O   UNL A   1      27.437  28.603  23.460  1.00  0.00    -0.269 OA
BRANCH   8  16
ATOM     16  O   UNL A   1      32.749  27.539  24.536  1.00  0.00    -0.477 OA
BRANCH  16  17
ATOM     17  C   UNL A   1      33.499  26.437  24.333  1.00  0.00     0.121 A 
ATOM     18  C   UNL A   1      35.519  23.669  25.979  1.00  0.00     0.044 C 
ATOM     19  C   UNL A   1      34.812  24.471  24.926  1.00  0.00    -0.047 A 
ATOM     20  C   UNL A   1      34.675  23.973  23.629  1.00  0.00     0.003 A 
ATOM     21  C   UNL A   1      34.253  25.719  25.250  1.00  0.00     0.049 A 
ATOM     22  C   UNL A   1      33.977  24.709  22.678  1.00  0.00     0.004 A 
ATOM     23  C   UNL A   1      33.388  25.923  23.034  1.00  0.00     0.046 A 
ENDBRANCH  16  17
ENDBRANCH   8  16
BRANCH  14  24
ATOM     24  C   UNL A   1      28.230  30.434  22.205  1.00  0.00     0.123 A 
ATOM     25  C   UNL A   1      27.955  30.436  20.895  1.00  0.00     0.132 A 
ATOM     26  C   UNL A   1      28.402  31.742  22.864  1.00  0.00     0.263 A 
ATOM     27  N   UNL A   1      27.774  31.563  20.128  1.00  0.00    -0.246 NA
ATOM     28  N   UNL A   1      28.217  32.825  22.053  1.00  0.00    -0.312 N 
ATOM     29  O   UNL A   1      28.701  31.874  24.045  1.00  0.00    -0.269 OA
ATOM     30  C   UNL A   1      27.915  32.696  20.731  1.00  0.00     0.199 A 
ATOM     31  H   UNL A   1      28.306  33.728  22.436  1.00  0.00     0.171 HD
ENDBRANCH  14  24
ENDBRANCH   5   8
ENDBRANCH   3   4
ENDBRANCH   2   3
ENDBRANCH   1   2
BRANCH   1  32
ATOM     32  C   UNL A   1      35.972  31.348  27.779  1.00  0.00     0.002 C 
BRANCH  32  33
ATOM     33  C   UNL A   1      35.203  32.472  28.467  1.00  0.00     0.021 C 
BRANCH  33  34
ATOM     34  C   UNL A   1      34.633  32.108  29.827  1.00  0.00     0.116 C 
BRANCH  34  35
ATOM     35  N   UNL A   1      34.051  33.247  30.518  1.00  0.00    -0.352 N 
ATOM     36  C   UNL A   1      34.418  33.896  31.685  1.00  0.00     0.251 C 
ATOM     37  H   UNL A   1      33.254  33.624  30.078  1.00  0.00     0.163 HD
ATOM     38  O   UNL A   1      33.687  34.747  32.143  1.00  0.00    -0.269 OA
BRANCH  36  39
ATOM     39  C   UNL A   1      35.779  33.699  32.261  1.00  0.00     0.039 A 
ATOM     40  C   UNL A   1      36.836  34.336  31.592  1.00  0.00     0.014 A 
ATOM     41  C   UNL A   1      36.053  32.720  33.206  1.00  0.00     0.014 A 
ATOM     42  C   UNL A   1      38.111  33.785  31.641  1.00  0.00     0.010 A 
ATOM     43  C   UNL A   1      37.278  32.098  33.166  1.00  0.00     0.010 A 
ATOM     44  C   UNL A   1      38.276  32.587  32.320  1.00  0.00    -0.014 A 
BRANCH  44  45
ATOM     45  C   UNL A   1      39.429  31.718  32.187  1.00  0.00     0.031 A 
ATOM     46  C   UNL A   1      39.326  30.519  31.342  1.00  0.00     0.074 A 
ATOM     47  C   UNL A   1      40.618  32.162  32.650  1.00  0.00     0.049 A 
ATOM     48  N   UNL A   1      40.213  29.592  31.280  1.00  0.00    -0.248 NA
ATOM     49  C   UNL A   1      38.159  30.255  30.509  1.00  0.00     0.031 C 
ATOM     50  C   UNL A   1      41.951  31.702  32.275  1.00  0.00     0.029 A 
ATOM     51  N   UNL A   1      40.837  33.007  33.746  1.00  0.00    -0.354 N 
ATOM     52  C   UNL A   1      39.898  28.779  30.215  1.00  0.00     0.074 A 
ATOM     53  C   UNL A   1      38.571  29.187  29.822  1.00  0.00     0.031 C 
ATOM     54  C   UNL A   1      42.809  32.012  33.260  1.00  0.00     0.029 A 
ATOM     55  C   UNL A   1      42.010  32.519  34.364  1.00  0.00     0.049 A 
ATOM     56  H   UNL A   1      40.290  33.776  34.026  1.00  0.00     0.167 HD
ATOM     57  C   UNL A   1      40.868  27.958  29.721  1.00  0.00     0.037 A 
ATOM     58  C   UNL A   1      41.968  31.953  35.606  1.00  0.00     0.037 A 
ATOM     59  C   UNL A   1      42.048  27.987  30.589  1.00  0.00     0.049 A 
ATOM     60  C   UNL A   1      42.461  30.524  35.634  1.00  0.00     0.074 A 
ATOM     61  C   UNL A   1      43.257  28.662  30.521  1.00  0.00     0.029 A 
ATOM     62  N   UNL A   1      41.941  27.509  31.891  1.00  0.00    -0.354 N 
ATOM     63  N   UNL A   1      42.462  29.728  34.599  1.00  0.00    -0.248 NA
ATOM     64  C   UNL A   1      43.014  29.889  36.825  1.00  0.00     0.031 C 
ATOM     65  C   UNL A   1      43.855  28.627  31.807  1.00  0.00     0.029 A 
ATOM     66  C   UNL A   1      43.020  27.911  32.650  1.00  0.00     0.049 A 
ATOM     67  H   UNL A   1      41.195  26.960  32.225  1.00  0.00     0.167 HD
ATOM     68  C   UNL A   1      43.011  28.518  34.948  1.00  0.00     0.074 A 
ATOM     69  C   UNL A   1      43.348  28.677  36.350  1.00  0.00     0.031 C 
ATOM     70  C   UNL A   1      43.144  27.500  34.042  1.00  0.00     0.037 A 
BRANCH  57  71
ATOM     71  C   UNL A   1      40.867  27.356  28.330  1.00  0.00     0.057 A 
ATOM     72  C   UNL A   1      40.150  26.169  28.064  1.00  0.00     0.134 A 
ATOM     73  C   UNL A   1      41.593  27.835  27.225  1.00  0.00     0.134 A 
ATOM     74  F   UNL A   1      39.326  25.624  28.969  1.00  0.00    -0.206 F 
ATOM     75  C   UNL A   1      40.239  25.471  26.851  1.00  0.00     0.040 A 
ATOM     76  C   UNL A   1      41.728  27.126  26.022  1.00  0.00     0.040 A 
ATOM     77  F   UNL A   1      42.158  29.045  27.219  1.00  0.00    -0.206 F 
ATOM     78  C   UNL A   1      41.059  25.930  25.834  1.00  0.00     0.006 A 
ENDBRANCH  57  71
BRANCH  58  79
ATOM     79  C   UNL A   1      40.890  32.519  36.462  1.00  0.00     0.057 A 
ATOM     80  C   UNL A   1      41.118  33.762  37.081  1.00  0.00     0.134 A 
ATOM     81  C   UNL A   1      39.560  32.106  36.339  1.00  0.00     0.134 A 
ATOM     82  F   UNL A   1      42.372  34.217  37.234  1.00  0.00    -0.206 F 
ATOM     83  C   UNL A   1      40.070  34.616  37.436  1.00  0.00     0.040 A 
ATOM     84  C   UNL A   1      38.502  32.946  36.709  1.00  0.00     0.040 A 
ATOM     85  F   UNL A   1      39.258  30.942  35.746  1.00  0.00    -0.206 F 
ATOM     86  C   UNL A   1      38.755  34.222  37.214  1.00  0.00     0.006 A 
ENDBRANCH  58  79
BRANCH  70  87
ATOM     87  C   UNL A   1      43.476  26.044  34.326  1.00  0.00     0.057 A 
ATOM     88  C   UNL A   1      44.739  25.459  34.165  1.00  0.00     0.134 A 
ATOM     89  C   UNL A   1      42.516  25.198  34.940  1.00  0.00     0.134 A 
ATOM     90  F   UNL A   1      45.787  26.151  33.703  1.00  0.00    -0.206 F 
ATOM     91  C   UNL A   1      45.013  24.132  34.535  1.00  0.00     0.040 A 
ATOM     92  C   UNL A   1      42.796  23.897  35.369  1.00  0.00     0.040 A 
ATOM     93  F   UNL A   1      41.260  25.601  35.183  1.00  0.00    -0.206 F 
ATOM     94  C   UNL A   1      44.047  23.352  35.154  1.00  0.00     0.006 A 
ENDBRANCH  70  87
ENDBRANCH  44  45
ENDBRANCH  36  39
ENDBRANCH  34  35
ENDBRANCH  33  34
ENDBRANCH  32  33
ENDBRANCH   1  32
TORSDOF 16
ENDMDL
MODEL 3
REMARK VINA RESULT:     -13.1      4.534     10.233
REMARK SMILES Cc1cccc(OC2(C(=O)NCCCCCCNC(=O)c3ccc(-c4c5nc(c(-c6c(F)cccc6F)c6ccc([nH]6)c(-c6c(F)cccc6F)c6nc(c(-c7c(F)cccc7F)c7ccc4[nH]7)C=C6)C=C5)cc3)CCN(C(=O)c3cnc[nH]c3=O)CC2)c1
REMARK SMILES IDX 14 1 13 2 12 3 11 4 9 5 10 6 8 8 75 9 88 10 76 11 87 12
REMARK SMILES IDX 77 13 78 14 79 15 7 16 6 17 1 18 2 19 3 20 89 21 4 22 5 23
REMARK SMILES IDX 80 24 81 25 85 26 82 27 84 28 86 29 83 30 15 32 16 33 17 34
REMARK SMILES IDX 18 35 19 36 20 38 21 39 22 40 74 41 23 42 73 43 24 44 25 45
REMARK SMILES IDX 26 46 67 47 27 48 72 49 66 50 68 51 28 52 71 53 65 54 64 55
REMARK SMILES IDX 29 57 55 58 38 59 54 60 39 61 42 62 53 63 69 64 40 65 41 66
REMARK SMILES IDX 52 68 70 69 43 70 30 71 31 72 36 73 32 74 33 75 35 76 37 77
REMARK SMILES IDX 34 78 56 79 57 80 62 81 58 82 59 83 61 84 63 85 60 86 44 87
REMARK SMILES IDX 45 88 50 89 46 90 47 91 49 92 51 93 48 94
REMARK H PARENT 11 7 84 31 18 37 68 56 42 67
REMARK Flexibility Score: inf
ROOT
ATOM      1  C   UNL A   1      38.610  21.466  25.751  1.00  0.00     0.002 C 
ENDROOT
BRANCH   1   2
ATOM      2  C   UNL A   1      37.388  22.079  25.064  1.00  0.00     0.021 C 
BRANCH   2   3
ATOM      3  C   UNL A   1      36.740  23.296  25.745  1.00  0.00     0.116 C 
BRANCH   3   4
ATOM      4  N   UNL A   1      35.822  22.952  26.816  1.00  0.00    -0.353 N 
ATOM      5  C   UNL A   1      34.469  22.768  26.877  1.00  0.00     0.264 C 
ATOM      6  O   UNL A   1      34.072  22.283  27.945  1.00  0.00    -0.270 OA
ATOM      7  H   UNL A   1      36.269  22.824  27.683  1.00  0.00     0.163 HD
BRANCH   5   8
ATOM      8  C   UNL A   1      33.470  23.076  25.706  1.00  0.00     0.190 C 
ATOM      9  C   UNL A   1      32.006  22.926  26.140  1.00  0.00     0.080 C 
ATOM     10  C   UNL A   1      33.728  24.526  25.206  1.00  0.00     0.080 C 
ATOM     11  C   UNL A   1      30.984  23.481  25.167  1.00  0.00     0.124 C 
ATOM     12  C   UNL A   1      32.666  24.949  24.181  1.00  0.00     0.124 C 
ATOM     13  N   UNL A   1      31.356  24.833  24.809  1.00  0.00    -0.338 N 
ATOM     14  C   UNL A   1      30.706  25.903  25.396  1.00  0.00     0.261 C 
ATOM     15  O   UNL A   1      30.172  25.849  26.501  1.00  0.00    -0.269 OA
BRANCH   8  16
ATOM     16  O   UNL A   1      33.934  22.286  24.589  1.00  0.00    -0.477 OA
BRANCH  16  17
ATOM     17  C   UNL A   1      33.738  21.000  24.231  1.00  0.00     0.121 A 
ATOM     18  C   UNL A   1      34.709  17.381  24.874  1.00  0.00     0.044 C 
ATOM     19  C   UNL A   1      33.984  18.577  24.328  1.00  0.00    -0.047 A 
ATOM     20  C   UNL A   1      32.836  18.416  23.551  1.00  0.00     0.003 A 
ATOM     21  C   UNL A   1      34.443  19.872  24.626  1.00  0.00     0.049 A 
ATOM     22  C   UNL A   1      32.152  19.536  23.092  1.00  0.00     0.004 A 
ATOM     23  C   UNL A   1      32.596  20.814  23.440  1.00  0.00     0.046 A 
ENDBRANCH  16  17
ENDBRANCH   8  16
BRANCH  14  24
ATOM     24  C   UNL A   1      30.652  27.129  24.581  1.00  0.00     0.123 A 
ATOM     25  C   UNL A   1      29.908  27.178  23.469  1.00  0.00     0.132 A 
ATOM     26  C   UNL A   1      31.440  28.328  24.923  1.00  0.00     0.263 A 
ATOM     27  N   UNL A   1      29.786  28.276  22.649  1.00  0.00    -0.246 NA
ATOM     28  N   UNL A   1      31.284  29.384  24.071  1.00  0.00    -0.312 N 
ATOM     29  O   UNL A   1      32.194  28.393  25.887  1.00  0.00    -0.269 OA
ATOM     30  C   UNL A   1      30.472  29.318  22.978  1.00  0.00     0.199 A 
ATOM     31  H   UNL A   1      31.774  30.219  24.252  1.00  0.00     0.171 HD
ENDBRANCH  14  24
ENDBRANCH   5   8
ENDBRANCH   3   4
ENDBRANCH   2   3
ENDBRANCH   1   2
BRANCH   1  32
ATOM     32  C   UNL A   1      39.523  22.426  26.520  1.00  0.00     0.002 C 
BRANCH  32  33
ATOM     33  C   UNL A   1      40.998  22.407  26.126  1.00  0.00     0.021 C 
BRANCH  33  34
ATOM     34  C   UNL A   1      41.797  21.262  26.725  1.00  0.00     0.116 C 
BRANCH  34  35
ATOM     35  N   UNL A   1      42.650  20.601  25.751  1.00  0.00    -0.352 N 
ATOM     36  C   UNL A   1      43.768  21.041  25.064  1.00  0.00     0.251 C 
ATOM     37  H   UNL A   1      42.385  19.675  25.544  1.00  0.00     0.163 HD
ATOM     38  O   UNL A   1      44.235  20.346  24.188  1.00  0.00    -0.269 OA
BRANCH  36  39
ATOM     39  C   UNL A   1      44.507  22.253  25.522  1.00  0.00     0.039 A 
ATOM     40  C   UNL A   1      44.883  22.276  26.875  1.00  0.00     0.014 A 
ATOM     41  C   UNL A   1      44.567  23.418  24.771  1.00  0.00     0.014 A 
ATOM     42  C   UNL A   1      45.011  23.496  27.531  1.00  0.00     0.010 A 
ATOM     43  C   UNL A   1      44.571  24.623  25.432  1.00  0.00     0.010 A 
ATOM     44  C   UNL A   1      44.712  24.649  26.822  1.00  0.00    -0.014 A 
BRANCH  44  45
ATOM     45  C   UNL A   1      44.466  25.945  27.424  1.00  0.00     0.031 A 
ATOM     46  C   UNL A   1      43.114  26.520  27.353  1.00  0.00     0.074 A 
ATOM     47  C   UNL A   1      45.419  26.465  28.228  1.00  0.00     0.049 A 
ATOM     48  N   UNL A   1      42.814  27.721  27.697  1.00  0.00    -0.248 NA
ATOM     49  C   UNL A   1      41.978  25.769  26.836  1.00  0.00     0.031 C 
ATOM     50  C   UNL A   1      45.261  27.491  29.253  1.00  0.00     0.029 A 
ATOM     51  N   UNL A   1      46.806  26.297  28.116  1.00  0.00    -0.354 N 
ATOM     52  C   UNL A   1      41.442  27.817  27.733  1.00  0.00     0.074 A 
ATOM     53  C   UNL A   1      40.973  26.602  27.112  1.00  0.00     0.031 C 
ATOM     54  C   UNL A   1      46.452  28.069  29.474  1.00  0.00     0.029 A 
ATOM     55  C   UNL A   1      47.362  27.547  28.469  1.00  0.00     0.049 A 
ATOM     56  H   UNL A   1      47.288  25.483  27.847  1.00  0.00     0.167 HD
ATOM     57  C   UNL A   1      40.886  28.859  28.415  1.00  0.00     0.037 A 
ATOM     58  C   UNL A   1      48.009  28.315  27.544  1.00  0.00     0.037 A 
ATOM     59  C   UNL A   1      41.925  29.803  28.833  1.00  0.00     0.049 A 
ATOM     60  C   UNL A   1      47.388  29.680  27.353  1.00  0.00     0.074 A 
ATOM     61  C   UNL A   1      42.595  30.004  30.030  1.00  0.00     0.029 A 
ATOM     62  N   UNL A   1      42.649  30.485  27.861  1.00  0.00    -0.354 N 
ATOM     63  N   UNL A   1      46.141  29.962  27.616  1.00  0.00    -0.248 NA
ATOM     64  C   UNL A   1      48.132  30.840  26.875  1.00  0.00     0.031 C 
ATOM     65  C   UNL A   1      43.756  30.774  29.761  1.00  0.00     0.029 A 
ATOM     66  C   UNL A   1      43.779  31.060  28.406  1.00  0.00     0.049 A 
ATOM     67  H   UNL A   1      42.390  30.548  26.913  1.00  0.00     0.167 HD
ATOM     68  C   UNL A   1      45.908  31.294  27.376  1.00  0.00     0.074 A 
ATOM     69  C   UNL A   1      47.190  31.799  26.923  1.00  0.00     0.031 C 
ATOM     70  C   UNL A   1      44.677  31.858  27.582  1.00  0.00     0.037 A 
BRANCH  57  71
ATOM     71  C   UNL A   1      39.465  28.888  28.944  1.00  0.00     0.057 A 
ATOM     72  C   UNL A   1      38.414  29.389  28.147  1.00  0.00     0.134 A 
ATOM     73  C   UNL A   1      39.062  28.512  30.238  1.00  0.00     0.134 A 
ATOM     74  F   UNL A   1      38.594  29.703  26.856  1.00  0.00    -0.206 F 
ATOM     75  C   UNL A   1      37.114  29.598  28.628  1.00  0.00     0.040 A 
ATOM     76  C   UNL A   1      37.778  28.756  30.748  1.00  0.00     0.040 A 
ATOM     77  F   UNL A   1      39.862  27.828  31.059  1.00  0.00    -0.206 F 
ATOM     78  C   UNL A   1      36.799  29.315  29.946  1.00  0.00     0.006 A 
ENDBRANCH  57  71
BRANCH  58  79
ATOM     79  C   UNL A   1      48.676  27.507  26.487  1.00  0.00     0.057 A 
ATOM     80  C   UNL A   1      48.014  27.350  25.255  1.00  0.00     0.134 A 
ATOM     81  C   UNL A   1      50.054  27.271  26.501  1.00  0.00     0.134 A 
ATOM     82  F   UNL A   1      46.690  27.558  25.172  1.00  0.00    -0.206 F 
ATOM     83  C   UNL A   1      48.709  27.106  24.067  1.00  0.00     0.040 A 
ATOM     84  C   UNL A   1      50.758  27.006  25.319  1.00  0.00     0.040 A 
ATOM     85  F   UNL A   1      50.760  27.416  27.632  1.00  0.00    -0.206 F 
ATOM     86  C   UNL A   1      50.093  26.970  24.093  1.00  0.00     0.006 A 
ENDBRANCH  58  79
BRANCH  70  87
ATOM     87  C   UNL A   1      44.194  33.223  27.122  1.00  0.00     0.057 A 
ATOM     88  C   UNL A   1      43.895  33.569  25.797  1.00  0.00     0.134 A 
ATOM     89  C   UNL A   1      43.861  34.222  28.074  1.00  0.00     0.134 A 
ATOM     90  F   UNL A   1      44.044  32.703  24.787  1.00  0.00    -0.206 F 
ATOM     91  C   UNL A   1      43.358  34.817  25.441  1.00  0.00     0.040 A 
ATOM     92  C   UNL A   1      43.269  35.443  27.737  1.00  0.00     0.040 A 
ATOM     93  F   UNL A   1      44.066  34.053  29.388  1.00  0.00    -0.206 F 
ATOM     94  C   UNL A   1      43.027  35.753  26.411  1.00  0.00     0.006 A 
ENDBRANCH  70  87
ENDBRANCH  44  45
ENDBRANCH  36  39
ENDBRANCH  34  35
ENDBRANCH  33  34
ENDBRANCH  32  33
ENDBRANCH   1  32
TORSDOF 16
ENDMDL
