MODEL 1
REMARK VINA RESULT:     -11.1      0.000      0.000
REMARK SMILES O=C(NCCCCCCNC(=O)c1ccc(S(=O)(=O)NCC[NH+]2CCCC2)c(F)c1)c1ccc(-c2c3nc(c(-c4c(F)cccc4F)c4ccc([nH]4)c(-c4c(F)cccc4F)c4nc(c(-c5c(F)cccc5F)c5ccc2[nH]5)C=C4)C=C3)cc1
REMARK SMILES IDX 8 1 7 2 6 3 5 4 4 5 3 6 1 7 2 8 31 10 32 11 84 12 33 13
REMARK SMILES IDX 83 14 34 15 35 16 36 17 77 18 37 19 82 20 76 21 78 22 38 23
REMARK SMILES IDX 81 24 75 25 74 26 39 28 65 29 48 30 64 31 49 32 52 33 63 34
REMARK SMILES IDX 79 35 50 36 51 37 62 39 80 40 53 41 40 42 41 43 46 44 42 45
REMARK SMILES IDX 43 46 45 47 47 48 44 49 66 50 67 51 72 52 68 53 69 54 71 55
REMARK SMILES IDX 73 56 70 57 54 58 55 59 60 60 56 61 57 62 59 63 61 64 58 65
REMARK SMILES IDX 9 66 10 67 11 68 12 70 13 71 14 72 30 73 15 74 28 75 16 76
REMARK SMILES IDX 29 77 17 78 18 79 19 80 20 81 21 83 22 84 23 85 24 86 27 87
REMARK SMILES IDX 25 89 26 90
REMARK H PARENT 3 9 78 27 52 38 10 69 20 82 23 88
REMARK Flexibility Score: inf
ROOT
ATOM      1  C   UNL A   1      34.498  22.853  26.882  1.00  0.00     0.021 C 
ENDROOT
BRANCH   1   2
ATOM      2  C   UNL A   1      34.697  24.130  26.060  1.00  0.00     0.002 C 
BRANCH   2   3
ATOM      3  C   UNL A   1      35.852  24.108  25.057  1.00  0.00     0.002 C 
BRANCH   3   4
ATOM      4  C   UNL A   1      37.113  23.366  25.504  1.00  0.00     0.021 C 
BRANCH   4   5
ATOM      5  C   UNL A   1      38.076  24.171  26.369  1.00  0.00     0.116 C 
BRANCH   5   6
ATOM      6  N   UNL A   1      39.467  23.961  26.011  1.00  0.00    -0.352 N 
ATOM      7  O   UNL A   1      41.676  24.398  25.921  1.00  0.00    -0.269 OA
ATOM      8  C   UNL A   1      40.588  24.629  26.438  1.00  0.00     0.251 C 
ATOM      9  H   UNL A   1      39.630  23.234  25.367  1.00  0.00     0.163 HD
BRANCH   8  10
ATOM     10  C   UNL A   1      40.483  25.648  27.506  1.00  0.00     0.039 A 
ATOM     11  C   UNL A   1      39.568  25.506  28.553  1.00  0.00     0.014 A 
ATOM     12  C   UNL A   1      41.341  26.752  27.469  1.00  0.00     0.014 A 
ATOM     13  C   UNL A   1      39.433  26.520  29.496  1.00  0.00     0.010 A 
ATOM     14  C   UNL A   1      41.247  27.739  28.452  1.00  0.00     0.010 A 
ATOM     15  C   UNL A   1      40.276  27.643  29.460  1.00  0.00    -0.014 A 
BRANCH  15  16
ATOM     16  C   UNL A   1      40.168  28.677  30.517  1.00  0.00     0.031 A 
ATOM     17  C   UNL A   1      39.151  29.779  30.422  1.00  0.00     0.074 A 
ATOM     18  C   UNL A   1      40.988  28.605  31.582  1.00  0.00     0.049 A 
ATOM     19  N   UNL A   1      38.924  30.762  31.255  1.00  0.00    -0.248 NA
ATOM     20  C   UNL A   1      38.277  29.780  29.239  1.00  0.00     0.031 C 
ATOM     21  C   UNL A   1      42.017  27.583  31.783  1.00  0.00     0.029 A 
ATOM     22  N   UNL A   1      41.077  29.393  32.700  1.00  0.00    -0.354 N 
ATOM     23  C   UNL A   1      37.895  31.506  30.696  1.00  0.00     0.074 A 
ATOM     24  C   UNL A   1      37.552  30.874  29.440  1.00  0.00     0.031 C 
ATOM     25  C   UNL A   1      42.604  27.781  32.972  1.00  0.00     0.029 A 
ATOM     26  C   UNL A   1      42.031  28.970  33.593  1.00  0.00     0.049 A 
ATOM     27  H   UNL A   1      40.512  30.186  32.850  1.00  0.00     0.167 HD
ATOM     28  C   UNL A   1      37.288  32.612  31.189  1.00  0.00     0.037 A 
ATOM     29  C   UNL A   1      42.410  29.486  34.776  1.00  0.00     0.037 A 
ATOM     30  C   UNL A   1      37.620  33.230  32.447  1.00  0.00     0.049 A 
ATOM     31  C   UNL A   1      41.739  30.725  35.289  1.00  0.00     0.074 A 
ATOM     32  C   UNL A   1      37.041  34.339  33.041  1.00  0.00     0.029 A 
ATOM     33  N   UNL A   1      38.619  32.793  33.304  1.00  0.00    -0.354 N 
ATOM     34  N   UNL A   1      40.762  31.412  34.750  1.00  0.00    -0.248 NA
ATOM     35  C   UNL A   1      42.228  31.266  36.564  1.00  0.00     0.031 C 
ATOM     36  C   UNL A   1      37.711  34.592  34.242  1.00  0.00     0.029 A 
ATOM     37  C   UNL A   1      38.682  33.620  34.413  1.00  0.00     0.049 A 
ATOM     38  H   UNL A   1      39.196  32.012  33.147  1.00  0.00     0.167 HD
ATOM     39  C   UNL A   1      40.513  32.462  35.622  1.00  0.00     0.074 A 
ATOM     40  C   UNL A   1      41.432  32.313  36.732  1.00  0.00     0.031 C 
ATOM     41  C   UNL A   1      39.605  33.462  35.507  1.00  0.00     0.037 A 
BRANCH  28  42
ATOM     42  C   UNL A   1      36.203  33.237  30.366  1.00  0.00     0.057 A 
ATOM     43  C   UNL A   1      34.856  32.975  30.640  1.00  0.00     0.134 A 
ATOM     44  C   UNL A   1      36.494  34.045  29.259  1.00  0.00     0.134 A 
ATOM     45  F   UNL A   1      34.511  32.205  31.683  1.00  0.00    -0.206 F 
ATOM     46  C   UNL A   1      33.834  33.486  29.839  1.00  0.00     0.040 A 
ATOM     47  C   UNL A   1      35.480  34.577  28.459  1.00  0.00     0.040 A 
ATOM     48  F   UNL A   1      37.765  34.342  28.949  1.00  0.00    -0.206 F 
ATOM     49  C   UNL A   1      34.146  34.291  28.744  1.00  0.00     0.006 A 
ENDBRANCH  28  42
BRANCH  29  50
ATOM     50  C   UNL A   1      43.477  28.811  35.553  1.00  0.00     0.057 A 
ATOM     51  C   UNL A   1      43.178  27.810  36.484  1.00  0.00     0.134 A 
ATOM     52  C   UNL A   1      44.815  29.194  35.419  1.00  0.00     0.134 A 
ATOM     53  F   UNL A   1      41.911  27.407  36.662  1.00  0.00    -0.206 F 
ATOM     54  C   UNL A   1      44.170  27.228  37.273  1.00  0.00     0.040 A 
ATOM     55  C   UNL A   1      45.821  28.606  36.187  1.00  0.00     0.040 A 
ATOM     56  F   UNL A   1      45.161  30.139  34.532  1.00  0.00    -0.206 F 
ATOM     57  C   UNL A   1      45.497  27.626  37.124  1.00  0.00     0.006 A 
ENDBRANCH  29  50
BRANCH  41  58
ATOM     58  C   UNL A   1      39.553  34.470  36.613  1.00  0.00     0.057 A 
ATOM     59  C   UNL A   1      40.280  35.663  36.527  1.00  0.00     0.134 A 
ATOM     60  C   UNL A   1      38.831  34.230  37.787  1.00  0.00     0.134 A 
ATOM     61  F   UNL A   1      40.997  35.947  35.429  1.00  0.00    -0.206 F 
ATOM     62  C   UNL A   1      40.300  36.581  37.579  1.00  0.00     0.040 A 
ATOM     63  C   UNL A   1      38.828  35.147  38.839  1.00  0.00     0.040 A 
ATOM     64  F   UNL A   1      38.105  33.110  37.922  1.00  0.00    -0.206 F 
ATOM     65  C   UNL A   1      39.571  36.323  38.739  1.00  0.00     0.006 A 
ENDBRANCH  41  58
ENDBRANCH  15  16
ENDBRANCH   8  10
ENDBRANCH   5   6
ENDBRANCH   4   5
ENDBRANCH   3   4
ENDBRANCH   2   3
ENDBRANCH   1   2
BRANCH   1  66
ATOM     66  C   UNL A   1      33.050  22.426  27.103  1.00  0.00     0.116 C 
BRANCH  66  67
ATOM     67  N   UNL A   1      32.699  21.216  26.380  1.00  0.00    -0.352 N 
ATOM     68  C   UNL A   1      32.284  21.072  25.080  1.00  0.00     0.251 C 
ATOM     69  H   UNL A   1      32.768  20.381  26.896  1.00  0.00     0.163 HD
ATOM     70  O   UNL A   1      31.920  19.982  24.653  1.00  0.00    -0.269 OA
BRANCH  68  71
ATOM     71  C   UNL A   1      32.236  22.253  24.197  1.00  0.00     0.042 A 
ATOM     72  C   UNL A   1      33.189  22.439  23.189  1.00  0.00     0.015 A 
ATOM     73  C   UNL A   1      31.224  23.194  24.399  1.00  0.00     0.054 A 
ATOM     74  C   UNL A   1      33.194  23.627  22.462  1.00  0.00     0.026 A 
ATOM     75  C   UNL A   1      31.219  24.367  23.649  1.00  0.00     0.144 A 
ATOM     76  C   UNL A   1      32.219  24.603  22.716  1.00  0.00     0.118 A 
ATOM     77  F   UNL A   1      30.242  25.253  23.881  1.00  0.00    -0.205 F 
BRANCH  76  78
ATOM     78  S   UNL A   1      32.379  26.138  21.869  1.00  0.00     0.243 S 
ATOM     79  O   UNL A   1      33.250  25.893  20.741  1.00  0.00    -0.207 OA
ATOM     80  O   UNL A   1      31.041  26.657  21.694  1.00  0.00    -0.207 OA
BRANCH  78  81
ATOM     81  N   UNL A   1      33.159  27.192  22.882  1.00  0.00    -0.205 NA
ATOM     82  H   UNL A   1      32.772  28.113  22.674  1.00  0.00     0.141 HD
BRANCH  81  83
ATOM     83  C   UNL A   1      33.152  27.079  24.337  1.00  0.00     0.160 C 
BRANCH  83  84
ATOM     84  C   UNL A   1      33.926  28.197  25.064  1.00  0.00     0.278 C 
BRANCH  84  85
ATOM     85  N   UNL A   1      33.669  28.497  26.477  1.00  0.00    -0.334 N 
ATOM     86  C   UNL A   1      32.457  29.252  26.772  1.00  0.00     0.262 C 
ATOM     87  C   UNL A   1      34.779  29.141  27.177  1.00  0.00     0.262 C 
ATOM     88  H   UNL A   1      33.539  27.549  26.831  1.00  0.00     0.348 HD
ATOM     89  C   UNL A   1      32.904  30.677  27.030  1.00  0.00     0.067 C 
ATOM     90  C   UNL A   1      34.332  30.552  27.532  1.00  0.00     0.067 C 
ENDBRANCH  84  85
ENDBRANCH  83  84
ENDBRANCH  81  83
ENDBRANCH  78  81
ENDBRANCH  76  78
ENDBRANCH  68  71
ENDBRANCH  66  67
ENDBRANCH   1  66
TORSDOF 18
ENDMDL
MODEL 2
REMARK VINA RESULT:     -11.0      4.388      8.098
REMARK SMILES O=C(NCCCCCCNC(=O)c1ccc(S(=O)(=O)NCC[NH+]2CCCC2)c(F)c1)c1ccc(-c2c3nc(c(-c4c(F)cccc4F)c4ccc([nH]4)c(-c4c(F)cccc4F)c4nc(c(-c5c(F)cccc5F)c5ccc2[nH]5)C=C4)C=C3)cc1
REMARK SMILES IDX 8 1 7 2 6 3 5 4 4 5 3 6 1 7 2 8 31 10 32 11 84 12 33 13
REMARK SMILES IDX 83 14 34 15 35 16 36 17 77 18 37 19 82 20 76 21 78 22 38 23
REMARK SMILES IDX 81 24 75 25 74 26 39 28 65 29 48 30 64 31 49 32 52 33 63 34
REMARK SMILES IDX 79 35 50 36 51 37 62 39 80 40 53 41 40 42 41 43 46 44 42 45
REMARK SMILES IDX 43 46 45 47 47 48 44 49 66 50 67 51 72 52 68 53 69 54 71 55
REMARK SMILES IDX 73 56 70 57 54 58 55 59 60 60 56 61 57 62 59 63 61 64 58 65
REMARK SMILES IDX 9 66 10 67 11 68 12 70 13 71 14 72 30 73 15 74 28 75 16 76
REMARK SMILES IDX 29 77 17 78 18 79 19 80 20 81 21 83 22 84 23 85 24 86 27 87
REMARK SMILES IDX 25 89 26 90
REMARK H PARENT 3 9 78 27 52 38 10 69 20 82 23 88
REMARK Flexibility Score: inf
ROOT
ATOM      1  C   UNL A   1      35.476  21.782  26.168  1.00  0.00     0.021 C 
ENDROOT
BRANCH   1   2
ATOM      2  C   UNL A   1      35.962  20.692  25.208  1.00  0.00     0.002 C 
BRANCH   2   3
ATOM      3  C   UNL A   1      37.363  20.890  24.624  1.00  0.00     0.002 C 
BRANCH   3   4
ATOM      4  C   UNL A   1      38.340  19.729  24.823  1.00  0.00     0.021 C 
BRANCH   4   5
ATOM      5  C   UNL A   1      39.273  19.855  26.021  1.00  0.00     0.116 C 
BRANCH   5   6
ATOM      6  N   UNL A   1      40.476  19.052  25.887  1.00  0.00    -0.352 N 
ATOM      7  O   UNL A   1      42.686  18.631  25.756  1.00  0.00    -0.269 OA
ATOM      8  C   UNL A   1      41.790  19.418  26.042  1.00  0.00     0.251 C 
ATOM      9  H   UNL A   1      40.327  18.108  25.650  1.00  0.00     0.163 HD
BRANCH   8  10
ATOM     10  C   UNL A   1      42.131  20.773  26.531  1.00  0.00     0.039 A 
ATOM     11  C   UNL A   1      42.205  21.050  27.898  1.00  0.00     0.014 A 
ATOM     12  C   UNL A   1      42.409  21.775  25.596  1.00  0.00     0.014 A 
ATOM     13  C   UNL A   1      42.444  22.352  28.329  1.00  0.00     0.010 A 
ATOM     14  C   UNL A   1      42.711  23.068  26.030  1.00  0.00     0.010 A 
ATOM     15  C   UNL A   1      42.708  23.372  27.400  1.00  0.00    -0.014 A 
BRANCH  15  16
ATOM     16  C   UNL A   1      43.035  24.736  27.880  1.00  0.00     0.031 A 
ATOM     17  C   UNL A   1      44.461  25.182  28.036  1.00  0.00     0.074 A 
ATOM     18  C   UNL A   1      42.028  25.585  28.159  1.00  0.00     0.049 A 
ATOM     19  N   UNL A   1      44.921  26.336  28.444  1.00  0.00    -0.248 NA
ATOM     20  C   UNL A   1      45.506  24.206  27.693  1.00  0.00     0.031 C 
ATOM     21  C   UNL A   1      40.604  25.264  28.048  1.00  0.00     0.029 A 
ATOM     22  N   UNL A   1      42.044  26.890  28.577  1.00  0.00    -0.354 N 
ATOM     23  C   UNL A   1      46.304  26.225  28.422  1.00  0.00     0.074 A 
ATOM     24  C   UNL A   1      46.612  24.883  27.978  1.00  0.00     0.031 C 
ATOM     25  C   UNL A   1      39.884  26.356  28.348  1.00  0.00     0.029 A 
ATOM     26  C   UNL A   1      40.792  27.435  28.721  1.00  0.00     0.049 A 
ATOM     27  H   UNL A   1      42.874  27.390  28.757  1.00  0.00     0.167 HD
ATOM     28  C   UNL A   1      47.231  27.162  28.736  1.00  0.00     0.037 A 
ATOM     29  C   UNL A   1      40.414  28.663  29.117  1.00  0.00     0.037 A 
ATOM     30  C   UNL A   1      46.923  28.502  29.163  1.00  0.00     0.049 A 
ATOM     31  C   UNL A   1      41.460  29.674  29.483  1.00  0.00     0.074 A 
ATOM     32  C   UNL A   1      47.797  29.528  29.478  1.00  0.00     0.029 A 
ATOM     33  N   UNL A   1      45.641  29.003  29.333  1.00  0.00    -0.354 N 
ATOM     34  N   UNL A   1      42.765  29.554  29.449  1.00  0.00    -0.248 NA
ATOM     35  C   UNL A   1      40.984  30.982  29.953  1.00  0.00     0.031 C 
ATOM     36  C   UNL A   1      47.045  30.640  29.870  1.00  0.00     0.029 A 
ATOM     37  C   UNL A   1      45.702  30.318  29.764  1.00  0.00     0.049 A 
ATOM     38  H   UNL A   1      44.812  28.499  29.171  1.00  0.00     0.167 HD
ATOM     39  C   UNL A   1      43.267  30.772  29.884  1.00  0.00     0.074 A 
ATOM     40  C   UNL A   1      42.127  31.622  30.163  1.00  0.00     0.031 C 
ATOM     41  C   UNL A   1      44.559  31.148  30.042  1.00  0.00     0.037 A 
BRANCH  28  42
ATOM     42  C   UNL A   1      48.675  26.771  28.641  1.00  0.00     0.057 A 
ATOM     43  C   UNL A   1      49.372  26.899  27.434  1.00  0.00     0.134 A 
ATOM     44  C   UNL A   1      49.356  26.205  29.726  1.00  0.00     0.134 A 
ATOM     45  F   UNL A   1      48.775  27.429  26.356  1.00  0.00    -0.206 F 
ATOM     46  C   UNL A   1      50.694  26.471  27.305  1.00  0.00     0.040 A 
ATOM     47  C   UNL A   1      50.685  25.788  29.615  1.00  0.00     0.040 A 
ATOM     48  F   UNL A   1      48.747  26.065  30.913  1.00  0.00    -0.206 F 
ATOM     49  C   UNL A   1      51.355  25.914  28.399  1.00  0.00     0.006 A 
ENDBRANCH  28  42
BRANCH  29  50
ATOM     50  C   UNL A   1      38.971  28.995  29.174  1.00  0.00     0.057 A 
ATOM     51  C   UNL A   1      38.309  29.559  28.077  1.00  0.00     0.134 A 
ATOM     52  C   UNL A   1      38.235  28.805  30.348  1.00  0.00     0.134 A 
ATOM     53  F   UNL A   1      38.966  29.772  26.927  1.00  0.00    -0.206 F 
ATOM     54  C   UNL A   1      36.971  29.944  28.151  1.00  0.00     0.040 A 
ATOM     55  C   UNL A   1      36.890  29.167  30.431  1.00  0.00     0.040 A 
ATOM     56  F   UNL A   1      38.814  28.256  31.426  1.00  0.00    -0.206 F 
ATOM     57  C   UNL A   1      36.257  29.748  29.332  1.00  0.00     0.006 A 
ENDBRANCH  29  50
BRANCH  41  58
ATOM     58  C   UNL A   1      44.813  32.540  30.530  1.00  0.00     0.057 A 
ATOM     59  C   UNL A   1      44.958  33.600  29.627  1.00  0.00     0.134 A 
ATOM     60  C   UNL A   1      44.974  32.819  31.892  1.00  0.00     0.134 A 
ATOM     61  F   UNL A   1      44.821  33.394  28.308  1.00  0.00    -0.206 F 
ATOM     62  C   UNL A   1      45.267  34.890  30.061  1.00  0.00     0.040 A 
ATOM     63  C   UNL A   1      45.264  34.108  32.341  1.00  0.00     0.040 A 
ATOM     64  F   UNL A   1      44.834  31.847  32.806  1.00  0.00    -0.206 F 
ATOM     65  C   UNL A   1      45.420  35.146  31.423  1.00  0.00     0.006 A 
ENDBRANCH  41  58
ENDBRANCH  15  16
ENDBRANCH   8  10
ENDBRANCH   5   6
ENDBRANCH   4   5
ENDBRANCH   3   4
ENDBRANCH   2   3
ENDBRANCH   1   2
BRANCH   1  66
ATOM     66  C   UNL A   1      34.208  21.456  26.953  1.00  0.00     0.116 C 
BRANCH  66  67
ATOM     67  N   UNL A   1      33.424  20.393  26.346  1.00  0.00    -0.352 N 
ATOM     68  C   UNL A   1      32.588  20.445  25.259  1.00  0.00     0.251 C 
ATOM     69  H   UNL A   1      33.503  19.512  26.776  1.00  0.00     0.163 HD
ATOM     70  O   UNL A   1      31.910  19.475  24.940  1.00  0.00    -0.269 OA
BRANCH  68  71
ATOM     71  C   UNL A   1      32.473  21.699  24.490  1.00  0.00     0.042 A 
ATOM     72  C   UNL A   1      33.122  21.853  23.259  1.00  0.00     0.015 A 
ATOM     73  C   UNL A   1      31.710  22.740  25.024  1.00  0.00     0.054 A 
ATOM     74  C   UNL A   1      33.101  23.092  22.625  1.00  0.00     0.026 A 
ATOM     75  C   UNL A   1      31.671  23.968  24.369  1.00  0.00     0.144 A 
ATOM     76  C   UNL A   1      32.394  24.158  23.199  1.00  0.00     0.118 A 
ATOM     77  F   UNL A   1      30.942  24.947  24.920  1.00  0.00    -0.205 F 
BRANCH  76  78
ATOM     78  S   UNL A   1      32.539  25.731  22.423  1.00  0.00     0.243 S 
ATOM     79  O   UNL A   1      33.433  25.551  21.300  1.00  0.00    -0.207 OA
ATOM     80  O   UNL A   1      31.195  26.233  22.248  1.00  0.00    -0.207 OA
BRANCH  78  81
ATOM     81  N   UNL A   1      33.283  26.754  23.493  1.00  0.00    -0.205 NA
ATOM     82  H   UNL A   1      34.151  26.289  23.763  1.00  0.00     0.141 HD
BRANCH  81  83
ATOM     83  C   UNL A   1      33.652  28.131  23.181  1.00  0.00     0.160 C 
BRANCH  83  84
ATOM     84  C   UNL A   1      32.804  29.195  23.906  1.00  0.00     0.278 C 
BRANCH  84  85
ATOM     85  N   UNL A   1      33.187  29.691  25.232  1.00  0.00    -0.334 N 
ATOM     86  C   UNL A   1      34.085  28.845  26.009  1.00  0.00     0.262 C 
ATOM     87  C   UNL A   1      32.067  30.065  26.093  1.00  0.00     0.262 C 
ATOM     88  H   UNL A   1      33.706  30.526  24.957  1.00  0.00     0.348 HD
ATOM     89  C   UNL A   1      33.216  28.144  27.034  1.00  0.00     0.067 C 
ATOM     90  C   UNL A   1      32.040  29.079  27.253  1.00  0.00     0.067 C 
ENDBRANCH  84  85
ENDBRANCH  83  84
ENDBRANCH  81  83
ENDBRANCH  78  81
ENDBRANCH  76  78
ENDBRANCH  68  71
ENDBRANCH  66  67
ENDBRANCH   1  66
TORSDOF 18
ENDMDL
MODEL 3
REMARK VINA RESULT:     -10.9      4.852      7.046
REMARK SMILES O=C(NCCCCCCNC(=O)c1ccc(S(=O)(=O)NCC[NH+]2CCCC2)c(F)c1)c1ccc(-c2c3nc(c(-c4c(F)cccc4F)c4ccc([nH]4)c(-c4c(F)cccc4F)c4nc(c(-c5c(F)cccc5F)c5ccc2[nH]5)C=C4)C=C3)cc1
REMARK SMILES IDX 8 1 7 2 6 3 5 4 4 5 3 6 1 7 2 8 31 10 32 11 84 12 33 13
REMARK SMILES IDX 83 14 34 15 35 16 36 17 77 18 37 19 82 20 76 21 78 22 38 23
REMARK SMILES IDX 81 24 75 25 74 26 39 28 65 29 48 30 64 31 49 32 52 33 63 34
REMARK SMILES IDX 79 35 50 36 51 37 62 39 80 40 53 41 40 42 41 43 46 44 42 45
REMARK SMILES IDX 43 46 45 47 47 48 44 49 66 50 67 51 72 52 68 53 69 54 71 55
REMARK SMILES IDX 73 56 70 57 54 58 55 59 60 60 56 61 57 62 59 63 61 64 58 65
REMARK SMILES IDX 9 66 10 67 11 68 12 70 13 71 14 72 30 73 15 74 28 75 16 76
REMARK SMILES IDX 29 77 17 78 18 79 19 80 20 81 21 83 22 84 23 85 24 86 27 87
REMARK SMILES IDX 25 89 26 90
REMARK H PARENT 3 9 78 27 52 38 10 69 20 82 23 88
REMARK Flexibility Score: inf
ROOT
ATOM      1  C   UNL A   1      35.668  22.645  25.362  1.00  0.00     0.021 C 
ENDROOT
BRANCH   1   2
ATOM      2  C   UNL A   1      36.836  21.670  25.538  1.00  0.00     0.002 C 
BRANCH   2   3
ATOM      3  C   UNL A   1      36.693  20.320  24.832  1.00  0.00     0.002 C 
BRANCH   3   4
ATOM      4  C   UNL A   1      37.865  19.351  24.999  1.00  0.00     0.021 C 
BRANCH   4   5
ATOM      5  C   UNL A   1      39.076  19.906  25.740  1.00  0.00     0.116 C 
BRANCH   5   6
ATOM      6  N   UNL A   1      40.162  18.949  25.845  1.00  0.00    -0.352 N 
ATOM      7  O   UNL A   1      42.295  18.239  26.005  1.00  0.00    -0.269 OA
ATOM      8  C   UNL A   1      41.496  19.166  26.084  1.00  0.00     0.251 C 
ATOM      9  H   UNL A   1      39.904  18.006  25.727  1.00  0.00     0.163 HD
BRANCH   8  10
ATOM     10  C   UNL A   1      41.980  20.526  26.412  1.00  0.00     0.039 A 
ATOM     11  C   UNL A   1      42.098  20.951  27.738  1.00  0.00     0.014 A 
ATOM     12  C   UNL A   1      42.348  21.379  25.367  1.00  0.00     0.014 A 
ATOM     13  C   UNL A   1      42.475  22.262  28.014  1.00  0.00     0.010 A 
ATOM     14  C   UNL A   1      42.786  22.675  25.648  1.00  0.00     0.010 A 
ATOM     15  C   UNL A   1      42.830  23.134  26.973  1.00  0.00    -0.014 A 
BRANCH  15  16
ATOM     16  C   UNL A   1      43.301  24.504  27.291  1.00  0.00     0.031 A 
ATOM     17  C   UNL A   1      42.345  25.561  27.768  1.00  0.00     0.074 A 
ATOM     18  C   UNL A   1      44.611  24.787  27.163  1.00  0.00     0.049 A 
ATOM     19  N   UNL A   1      42.590  26.806  28.088  1.00  0.00    -0.248 NA
ATOM     20  C   UNL A   1      40.933  25.172  27.902  1.00  0.00     0.031 C 
ATOM     21  C   UNL A   1      45.633  23.843  26.706  1.00  0.00     0.029 A 
ATOM     22  N   UNL A   1      45.309  25.938  27.419  1.00  0.00    -0.354 N 
ATOM     23  C   UNL A   1      41.366  27.354  28.446  1.00  0.00     0.074 A 
ATOM     24  C   UNL A   1      40.374  26.312  28.287  1.00  0.00     0.031 C 
ATOM     25  C   UNL A   1      46.833  24.440  26.755  1.00  0.00     0.029 A 
ATOM     26  C   UNL A   1      46.659  25.820  27.195  1.00  0.00     0.049 A 
ATOM     27  H   UNL A   1      44.885  26.770  27.733  1.00  0.00     0.167 HD
ATOM     28  C   UNL A   1      41.098  28.611  28.876  1.00  0.00     0.037 A 
ATOM     29  C   UNL A   1      47.648  26.723  27.322  1.00  0.00     0.037 A 
ATOM     30  C   UNL A   1      42.089  29.641  29.049  1.00  0.00     0.049 A 
ATOM     31  C   UNL A   1      47.321  28.115  27.776  1.00  0.00     0.074 A 
ATOM     32  C   UNL A   1      41.914  30.937  29.504  1.00  0.00     0.029 A 
ATOM     33  N   UNL A   1      43.440  29.493  28.775  1.00  0.00    -0.354 N 
ATOM     34  N   UNL A   1      46.159  28.615  28.118  1.00  0.00    -0.248 NA
ATOM     35  C   UNL A   1      48.436  29.068  27.850  1.00  0.00     0.031 C 
ATOM     36  C   UNL A   1      43.154  31.583  29.475  1.00  0.00     0.029 A 
ATOM     37  C   UNL A   1      44.107  30.679  29.036  1.00  0.00     0.049 A 
ATOM     38  H   UNL A   1      43.862  28.668  28.444  1.00  0.00     0.167 HD
ATOM     39  C   UNL A   1      46.402  29.938  28.456  1.00  0.00     0.074 A 
ATOM     40  C   UNL A   1      47.824  30.160  28.292  1.00  0.00     0.031 C 
ATOM     41  C   UNL A   1      45.521  30.885  28.862  1.00  0.00     0.037 A 
BRANCH  28  42
ATOM     42  C   UNL A   1      39.671  28.952  29.184  1.00  0.00     0.057 A 
ATOM     43  C   UNL A   1      39.167  28.811  30.482  1.00  0.00     0.134 A 
ATOM     44  C   UNL A   1      38.780  29.355  28.182  1.00  0.00     0.134 A 
ATOM     45  F   UNL A   1      39.968  28.423  31.485  1.00  0.00    -0.206 F 
ATOM     46  C   UNL A   1      37.823  29.050  30.773  1.00  0.00     0.040 A 
ATOM     47  C   UNL A   1      37.436  29.614  28.463  1.00  0.00     0.040 A 
ATOM     48  F   UNL A   1      39.203  29.518  26.919  1.00  0.00    -0.206 F 
ATOM     49  C   UNL A   1      36.953  29.454  29.761  1.00  0.00     0.006 A 
ENDBRANCH  28  42
BRANCH  29  50
ATOM     50  C   UNL A   1      49.042  26.321  27.020  1.00  0.00     0.057 A 
ATOM     51  C   UNL A   1      49.911  25.893  28.029  1.00  0.00     0.134 A 
ATOM     52  C   UNL A   1      49.549  26.408  25.720  1.00  0.00     0.134 A 
ATOM     53  F   UNL A   1      49.482  25.796  29.297  1.00  0.00    -0.206 F 
ATOM     54  C   UNL A   1      51.245  25.587  27.762  1.00  0.00     0.040 A 
ATOM     55  C   UNL A   1      50.876  26.087  25.433  1.00  0.00     0.040 A 
ATOM     56  F   UNL A   1      48.757  26.799  24.711  1.00  0.00    -0.206 F 
ATOM     57  C   UNL A   1      51.731  25.684  26.459  1.00  0.00     0.006 A 
ENDBRANCH  29  50
BRANCH  41  58
ATOM     58  C   UNL A   1      46.068  32.245  29.166  1.00  0.00     0.057 A 
ATOM     59  C   UNL A   1      46.498  32.571  30.458  1.00  0.00     0.134 A 
ATOM     60  C   UNL A   1      46.112  33.249  28.192  1.00  0.00     0.134 A 
ATOM     61  F   UNL A   1      46.474  31.653  31.436  1.00  0.00    -0.206 F 
ATOM     62  C   UNL A   1      46.943  33.855  30.774  1.00  0.00     0.040 A 
ATOM     63  C   UNL A   1      46.572  34.532  28.491  1.00  0.00     0.040 A 
ATOM     64  F   UNL A   1      45.726  32.992  26.933  1.00  0.00    -0.206 F 
ATOM     65  C   UNL A   1      46.981  34.840  29.788  1.00  0.00     0.006 A 
ENDBRANCH  41  58
ENDBRANCH  15  16
ENDBRANCH   8  10
ENDBRANCH   5   6
ENDBRANCH   4   5
ENDBRANCH   3   4
ENDBRANCH   2   3
ENDBRANCH   1   2
BRANCH   1  66
ATOM     66  C   UNL A   1      34.524  22.496  26.360  1.00  0.00     0.116 C 
BRANCH  66  67
ATOM     67  N   UNL A   1      33.637  21.388  26.045  1.00  0.00    -0.352 N 
ATOM     68  C   UNL A   1      32.688  21.292  25.058  1.00  0.00     0.251 C 
ATOM     69  H   UNL A   1      33.730  20.596  26.620  1.00  0.00     0.163 HD
ATOM     70  O   UNL A   1      31.943  20.320  24.996  1.00  0.00    -0.269 OA
BRANCH  68  71
ATOM     71  C   UNL A   1      32.536  22.391  24.086  1.00  0.00     0.042 A 
ATOM     72  C   UNL A   1      33.220  22.374  22.865  1.00  0.00     0.015 A 
ATOM     73  C   UNL A   1      31.702  23.461  24.417  1.00  0.00     0.054 A 
ATOM     74  C   UNL A   1      33.158  23.487  22.030  1.00  0.00     0.026 A 
ATOM     75  C   UNL A   1      31.623  24.558  23.563  1.00  0.00     0.144 A 
ATOM     76  C   UNL A   1      32.377  24.591  22.397  1.00  0.00     0.118 A 
ATOM     77  F   UNL A   1      30.825  25.573  23.921  1.00  0.00    -0.205 F 
BRANCH  76  78
ATOM     78  S   UNL A   1      32.468  26.018  21.371  1.00  0.00     0.243 S 
ATOM     79  O   UNL A   1      32.997  25.574  20.101  1.00  0.00    -0.207 OA
ATOM     80  O   UNL A   1      31.186  26.681  21.467  1.00  0.00    -0.207 OA
BRANCH  78  81
ATOM     81  N   UNL A   1      33.578  27.050  22.041  1.00  0.00    -0.205 NA
ATOM     82  H   UNL A   1      33.453  27.941  21.560  1.00  0.00     0.141 HD
BRANCH  81  83
ATOM     83  C   UNL A   1      33.636  27.372  23.463  1.00  0.00     0.160 C 
BRANCH  83  84
ATOM     84  C   UNL A   1      33.105  28.776  23.817  1.00  0.00     0.278 C 
BRANCH  84  85
ATOM     85  N   UNL A   1      33.405  29.391  25.115  1.00  0.00    -0.334 N 
ATOM     86  C   UNL A   1      34.026  28.531  26.114  1.00  0.00     0.262 C 
ATOM     87  C   UNL A   1      32.274  30.068  25.747  1.00  0.00     0.262 C 
ATOM     88  H   UNL A   1      34.100  30.078  24.820  1.00  0.00     0.348 HD
ATOM     89  C   UNL A   1      32.922  28.142  27.077  1.00  0.00     0.067 C 
ATOM     90  C   UNL A   1      31.922  29.283  27.002  1.00  0.00     0.067 C 
ENDBRANCH  84  85
ENDBRANCH  83  84
ENDBRANCH  81  83
ENDBRANCH  78  81
ENDBRANCH  76  78
ENDBRANCH  68  71
ENDBRANCH  66  67
ENDBRANCH   1  66
TORSDOF 18
ENDMDL
