MODEL 1
REMARK VINA RESULT:     -11.4      0.000      0.000
REMARK SMILES CC1(C)[C@H]2CC[C@]1(C)[C@H](NC(=O)CCC(=O)NCCCCCCNC(=O)c1ccc(-c3c4nc(c(-c5c(F)cccc5F)c5ccc([nH]5)c(-c5c(F)cccc5F)c5nc(c(-c6c(F)cccc6F)c6ccc3[nH]6)C=C5)C=C4)cc1)C2
REMARK SMILES IDX 20 1 19 2 18 3 17 4 15 5 16 6 14 8 13 9 11 10 10 11 12 13
REMARK SMILES IDX 9 14 1 15 2 16 3 17 4 18 7 19 5 20 81 21 6 22 8 23 21 24
REMARK SMILES IDX 22 25 23 26 24 27 25 28 26 30 27 31 28 32 80 33 29 34 79 35
REMARK SMILES IDX 30 36 31 37 32 38 73 39 33 40 78 41 72 42 74 43 34 44 77 45
REMARK SMILES IDX 71 46 70 47 35 49 61 50 44 51 60 52 45 53 48 54 59 55 75 56
REMARK SMILES IDX 46 57 47 58 58 60 76 61 49 62 36 63 37 64 42 65 38 66 39 67
REMARK SMILES IDX 41 68 43 69 40 70 62 71 63 72 68 73 64 74 65 75 67 76 69 77
REMARK SMILES IDX 66 78 50 79 51 80 56 81 52 82 53 83 55 84 57 85 54 86
REMARK H PARENT 17 7 10 12 24 29 74 48 48 59
REMARK Flexibility Score: inf
ROOT
ATOM      1  C   UNL A   1      36.696  21.616  25.663  1.00  0.00     0.002 C 
ENDROOT
BRANCH   1   2
ATOM      2  C   UNL A   1      35.380  22.389  25.760  1.00  0.00     0.021 C 
BRANCH   2   3
ATOM      3  C   UNL A   1      34.431  21.930  26.863  1.00  0.00     0.116 C 
BRANCH   3   4
ATOM      4  N   UNL A   1      33.678  20.765  26.461  1.00  0.00    -0.356 N 
ATOM      5  C   UNL A   1      32.703  20.664  25.521  1.00  0.00     0.220 C 
ATOM      6  O   UNL A   1      32.289  19.539  25.239  1.00  0.00    -0.275 OA
ATOM      7  H   UNL A   1      33.901  19.931  26.932  1.00  0.00     0.163 HD
BRANCH   5   8
ATOM      8  C   UNL A   1      32.197  21.886  24.794  1.00  0.00     0.110 C 
BRANCH   8   9
ATOM      9  C   UNL A   1      30.976  22.636  25.306  1.00  0.00     0.110 C 
BRANCH   9  10
ATOM     10  C   UNL A   1      31.070  23.578  26.480  1.00  0.00     0.220 C 
ATOM     11  N   UNL A   1      31.965  24.599  26.536  1.00  0.00    -0.353 N 
ATOM     12  H   UNL A   1      32.331  24.761  27.436  1.00  0.00     0.163 HD
ATOM     13  O   UNL A   1      30.383  23.375  27.487  1.00  0.00    -0.275 OA
BRANCH  11  14
ATOM     14  C   UNL A   1      32.486  25.501  25.513  1.00  0.00     0.088 C 
ATOM     15  C   UNL A   1      32.175  29.249  24.468  1.00  0.00     0.012 C 
ATOM     16  C   UNL A   1      32.604  27.776  24.608  1.00  0.00    -0.025 C 
ATOM     17  C   UNL A   1      32.999  27.306  23.191  1.00  0.00     0.012 C 
ATOM     18  C   UNL A   1      33.691  27.585  25.691  1.00  0.00    -0.003 C 
ATOM     19  C   UNL A   1      31.627  26.820  25.363  1.00  0.00    -0.007 C 
ATOM     20  C   UNL A   1      32.978  27.934  27.018  1.00  0.00     0.005 C 
ATOM     21  C   UNL A   1      33.904  26.067  25.710  1.00  0.00     0.029 C 
ATOM     22  C   UNL A   1      31.533  27.481  26.764  1.00  0.00     0.010 C 
ATOM     23  C   UNL A   1      30.269  26.615  24.712  1.00  0.00     0.014 C 
ENDBRANCH  11  14
ENDBRANCH   9  10
ENDBRANCH   8   9
ENDBRANCH   5   8
ENDBRANCH   3   4
ENDBRANCH   2   3
ENDBRANCH   1   2
BRANCH   1  24
ATOM     24  C   UNL A   1      36.622  20.269  24.942  1.00  0.00     0.002 C 
BRANCH  24  25
ATOM     25  C   UNL A   1      37.935  19.487  24.882  1.00  0.00     0.021 C 
BRANCH  25  26
ATOM     26  C   UNL A   1      39.065  20.062  25.727  1.00  0.00     0.116 C 
BRANCH  26  27
ATOM     27  N   UNL A   1      40.223  19.190  25.757  1.00  0.00    -0.352 N 
ATOM     28  C   UNL A   1      41.520  19.506  26.064  1.00  0.00     0.251 C 
ATOM     29  H   UNL A   1      40.056  18.247  25.527  1.00  0.00     0.163 HD
ATOM     30  O   UNL A   1      42.424  18.693  25.866  1.00  0.00    -0.269 OA
BRANCH  28  31
ATOM     31  C   UNL A   1      41.837  20.840  26.612  1.00  0.00     0.039 A 
ATOM     32  C   UNL A   1      42.224  21.853  25.734  1.00  0.00     0.014 A 
ATOM     33  C   UNL A   1      41.753  21.088  27.987  1.00  0.00     0.014 A 
ATOM     34  C   UNL A   1      42.491  23.130  26.230  1.00  0.00     0.010 A 
ATOM     35  C   UNL A   1      41.954  22.379  28.470  1.00  0.00     0.010 A 
ATOM     36  C   UNL A   1      42.341  23.408  27.599  1.00  0.00    -0.014 A 
BRANCH  36  37
ATOM     37  C   UNL A   1      42.621  24.763  28.132  1.00  0.00     0.031 A 
ATOM     38  C   UNL A   1      44.023  25.142  28.523  1.00  0.00     0.074 A 
ATOM     39  C   UNL A   1      41.613  25.643  28.291  1.00  0.00     0.049 A 
ATOM     40  N   UNL A   1      44.466  26.267  29.021  1.00  0.00    -0.248 NA
ATOM     41  C   UNL A   1      45.058  24.110  28.353  1.00  0.00     0.031 C 
ATOM     42  C   UNL A   1      40.205  25.382  27.988  1.00  0.00     0.029 A 
ATOM     43  N   UNL A   1      41.623  26.937  28.748  1.00  0.00    -0.354 N 
ATOM     44  C   UNL A   1      45.827  26.077  29.230  1.00  0.00     0.074 A 
ATOM     45  C   UNL A   1      46.126  24.713  28.855  1.00  0.00     0.031 C 
ATOM     46  C   UNL A   1      39.489  26.490  28.244  1.00  0.00     0.029 A 
ATOM     47  C   UNL A   1      40.383  27.528  28.751  1.00  0.00     0.049 A 
ATOM     48  H   UNL A   1      42.440  27.398  29.045  1.00  0.00     0.167 HD
ATOM     49  C   UNL A   1      46.749  26.966  29.669  1.00  0.00     0.037 A 
ATOM     50  C   UNL A   1      40.011  28.769  29.118  1.00  0.00     0.037 A 
ATOM     51  C   UNL A   1      46.457  28.331  30.018  1.00  0.00     0.049 A 
ATOM     52  C   UNL A   1      41.054  29.738  29.598  1.00  0.00     0.074 A 
ATOM     53  C   UNL A   1      47.329  29.323  30.427  1.00  0.00     0.029 A 
ATOM     54  N   UNL A   1      45.191  28.895  29.992  1.00  0.00    -0.354 N 
ATOM     55  N   UNL A   1      42.347  29.562  29.733  1.00  0.00    -0.248 NA
ATOM     56  C   UNL A   1      40.589  31.081  29.971  1.00  0.00     0.031 C 
ATOM     57  C   UNL A   1      46.588  30.481  30.680  1.00  0.00     0.029 A 
ATOM     58  C   UNL A   1      45.258  30.220  30.392  1.00  0.00     0.049 A 
ATOM     59  H   UNL A   1      44.367  28.426  29.729  1.00  0.00     0.167 HD
ATOM     60  C   UNL A   1      42.852  30.777  30.177  1.00  0.00     0.074 A 
ATOM     61  C   UNL A   1      41.728  31.686  30.277  1.00  0.00     0.031 C 
ATOM     62  C   UNL A   1      44.130  31.112  30.475  1.00  0.00     0.037 A 
BRANCH  49  63
ATOM     63  C   UNL A   1      48.166  26.489  29.784  1.00  0.00     0.057 A 
ATOM     64  C   UNL A   1      48.636  25.854  30.942  1.00  0.00     0.134 A 
ATOM     65  C   UNL A   1      49.061  26.635  28.717  1.00  0.00     0.134 A 
ATOM     66  F   UNL A   1      47.832  25.697  32.004  1.00  0.00    -0.206 F 
ATOM     67  C   UNL A   1      49.952  25.403  31.043  1.00  0.00     0.040 A 
ATOM     68  C   UNL A   1      50.374  26.165  28.798  1.00  0.00     0.040 A 
ATOM     69  F   UNL A   1      48.674  27.229  27.579  1.00  0.00    -0.206 F 
ATOM     70  C   UNL A   1      50.824  25.552  29.965  1.00  0.00     0.006 A 
ENDBRANCH  49  63
BRANCH  50  71
ATOM     71  C   UNL A   1      38.589  29.181  29.015  1.00  0.00     0.057 A 
ATOM     72  C   UNL A   1      37.738  29.113  30.125  1.00  0.00     0.134 A 
ATOM     73  C   UNL A   1      38.044  29.635  27.809  1.00  0.00     0.134 A 
ATOM     74  F   UNL A   1      38.200  28.668  31.302  1.00  0.00    -0.206 F 
ATOM     75  C   UNL A   1      36.390  29.463  30.035  1.00  0.00     0.040 A 
ATOM     76  C   UNL A   1      36.703  30.010  27.710  1.00  0.00     0.040 A 
ATOM     77  F   UNL A   1      38.809  29.728  26.712  1.00  0.00    -0.206 F 
ATOM     78  C   UNL A   1      35.870  29.916  28.824  1.00  0.00     0.006 A 
ENDBRANCH  50  71
BRANCH  62  79
ATOM     79  C   UNL A   1      44.385  32.526  30.904  1.00  0.00     0.057 A 
ATOM     80  C   UNL A   1      44.636  33.543  29.974  1.00  0.00     0.134 A 
ATOM     81  C   UNL A   1      44.346  32.877  32.258  1.00  0.00     0.134 A 
ATOM     82  F   UNL A   1      44.699  33.267  28.664  1.00  0.00    -0.206 F 
ATOM     83  C   UNL A   1      44.863  34.859  30.382  1.00  0.00     0.040 A 
ATOM     84  C   UNL A   1      44.548  34.193  32.675  1.00  0.00     0.040 A 
ATOM     85  F   UNL A   1      44.102  31.950  33.196  1.00  0.00    -0.206 F 
ATOM     86  C   UNL A   1      44.814  35.187  31.735  1.00  0.00     0.006 A 
ENDBRANCH  62  79
ENDBRANCH  36  37
ENDBRANCH  28  31
ENDBRANCH  26  27
ENDBRANCH  25  26
ENDBRANCH  24  25
ENDBRANCH   1  24
TORSDOF 16
ENDMDL
MODEL 2
REMARK VINA RESULT:     -11.3      0.761      6.216
REMARK SMILES CC1(C)[C@H]2CC[C@]1(C)[C@H](NC(=O)CCC(=O)NCCCCCCNC(=O)c1ccc(-c3c4nc(c(-c5c(F)cccc5F)c5ccc([nH]5)c(-c5c(F)cccc5F)c5nc(c(-c6c(F)cccc6F)c6ccc3[nH]6)C=C5)C=C4)cc1)C2
REMARK SMILES IDX 20 1 19 2 18 3 17 4 15 5 16 6 14 8 13 9 11 10 10 11 12 13
REMARK SMILES IDX 9 14 1 15 2 16 3 17 4 18 7 19 5 20 81 21 6 22 8 23 21 24
REMARK SMILES IDX 22 25 23 26 24 27 25 28 26 30 27 31 28 32 80 33 29 34 79 35
REMARK SMILES IDX 30 36 31 37 32 38 73 39 33 40 78 41 72 42 74 43 34 44 77 45
REMARK SMILES IDX 71 46 70 47 35 49 61 50 44 51 60 52 45 53 48 54 59 55 75 56
REMARK SMILES IDX 46 57 47 58 58 60 76 61 49 62 36 63 37 64 42 65 38 66 39 67
REMARK SMILES IDX 41 68 43 69 40 70 62 71 63 72 68 73 64 74 65 75 67 76 69 77
REMARK SMILES IDX 66 78 50 79 51 80 56 81 52 82 53 83 55 84 57 85 54 86
REMARK H PARENT 17 7 10 12 24 29 74 48 48 59
REMARK Flexibility Score: inf
ROOT
ATOM      1  C   UNL A   1      36.990  21.993  24.289  1.00  0.00     0.002 C 
ENDROOT
BRANCH   1   2
ATOM      2  C   UNL A   1      37.069  23.120  25.319  1.00  0.00     0.021 C 
BRANCH   2   3
ATOM      3  C   UNL A   1      35.731  23.724  25.733  1.00  0.00     0.116 C 
BRANCH   3   4
ATOM      4  N   UNL A   1      35.129  22.982  26.816  1.00  0.00    -0.356 N 
ATOM      5  C   UNL A   1      34.006  22.219  26.804  1.00  0.00     0.220 C 
ATOM      6  O   UNL A   1      33.748  21.556  27.810  1.00  0.00    -0.275 OA
ATOM      7  H   UNL A   1      35.596  23.035  27.680  1.00  0.00     0.163 HD
BRANCH   5   8
ATOM      8  C   UNL A   1      33.142  22.131  25.569  1.00  0.00     0.110 C 
BRANCH   8   9
ATOM      9  C   UNL A   1      31.731  22.698  25.574  1.00  0.00     0.110 C 
BRANCH   9  10
ATOM     10  C   UNL A   1      31.292  23.701  26.612  1.00  0.00     0.220 C 
ATOM     11  N   UNL A   1      31.875  24.921  26.749  1.00  0.00    -0.353 N 
ATOM     12  H   UNL A   1      31.947  25.227  27.683  1.00  0.00     0.163 HD
ATOM     13  O   UNL A   1      30.437  23.388  27.447  1.00  0.00    -0.275 OA
BRANCH  11  14
ATOM     14  C   UNL A   1      32.413  25.863  25.773  1.00  0.00     0.088 C 
ATOM     15  C   UNL A   1      31.946  29.595  24.727  1.00  0.00     0.012 C 
ATOM     16  C   UNL A   1      32.455  28.150  24.891  1.00  0.00    -0.025 C 
ATOM     17  C   UNL A   1      32.986  27.720  23.507  1.00  0.00     0.012 C 
ATOM     18  C   UNL A   1      33.467  28.017  26.053  1.00  0.00    -0.003 C 
ATOM     19  C   UNL A   1      31.486  27.127  25.565  1.00  0.00    -0.007 C 
ATOM     20  C   UNL A   1      32.635  28.308  27.324  1.00  0.00     0.005 C 
ATOM     21  C   UNL A   1      33.774  26.515  26.080  1.00  0.00     0.029 C 
ATOM     22  C   UNL A   1      31.245  27.767  26.958  1.00  0.00     0.010 C 
ATOM     23  C   UNL A   1      30.197  26.845  24.812  1.00  0.00     0.014 C 
ENDBRANCH  11  14
ENDBRANCH   9  10
ENDBRANCH   8   9
ENDBRANCH   5   8
ENDBRANCH   3   4
ENDBRANCH   2   3
ENDBRANCH   1   2
BRANCH   1  24
ATOM     24  C   UNL A   1      36.746  20.593  24.857  1.00  0.00     0.002 C 
BRANCH  24  25
ATOM     25  C   UNL A   1      37.973  19.680  24.895  1.00  0.00     0.021 C 
BRANCH  25  26
ATOM     26  C   UNL A   1      39.127  20.190  25.750  1.00  0.00     0.116 C 
BRANCH  26  27
ATOM     27  N   UNL A   1      40.223  19.244  25.808  1.00  0.00    -0.352 N 
ATOM     28  C   UNL A   1      41.538  19.481  26.108  1.00  0.00     0.251 C 
ATOM     29  H   UNL A   1      39.994  18.308  25.605  1.00  0.00     0.163 HD
ATOM     30  O   UNL A   1      42.386  18.604  25.935  1.00  0.00    -0.269 OA
BRANCH  28  31
ATOM     31  C   UNL A   1      41.944  20.806  26.618  1.00  0.00     0.039 A 
ATOM     32  C   UNL A   1      42.363  21.778  25.708  1.00  0.00     0.014 A 
ATOM     33  C   UNL A   1      41.912  21.087  27.989  1.00  0.00     0.014 A 
ATOM     34  C   UNL A   1      42.713  23.047  26.168  1.00  0.00     0.010 A 
ATOM     35  C   UNL A   1      42.197  22.373  28.438  1.00  0.00     0.010 A 
ATOM     36  C   UNL A   1      42.617  23.361  27.534  1.00  0.00    -0.014 A 
BRANCH  36  37
ATOM     37  C   UNL A   1      42.987  24.709  28.030  1.00  0.00     0.031 A 
ATOM     38  C   UNL A   1      41.923  25.749  28.245  1.00  0.00     0.074 A 
ATOM     39  C   UNL A   1      44.280  25.007  28.260  1.00  0.00     0.049 A 
ATOM     40  N   UNL A   1      42.046  26.985  28.657  1.00  0.00    -0.248 NA
ATOM     41  C   UNL A   1      40.539  25.354  27.934  1.00  0.00     0.031 C 
ATOM     42  C   UNL A   1      45.409  24.099  28.050  1.00  0.00     0.029 A 
ATOM     43  N   UNL A   1      44.861  26.161  28.723  1.00  0.00    -0.354 N 
ATOM     44  C   UNL A   1      40.762  27.516  28.648  1.00  0.00     0.074 A 
ATOM     45  C   UNL A   1      39.882  26.486  28.139  1.00  0.00     0.031 C 
ATOM     46  C   UNL A   1      46.545  24.723  28.407  1.00  0.00     0.029 A 
ATOM     47  C   UNL A   1      46.227  26.078  28.845  1.00  0.00     0.049 A 
ATOM     48  H   UNL A   1      44.349  26.971  28.945  1.00  0.00     0.167 HD
ATOM     49  C   UNL A   1      40.348  28.741  29.050  1.00  0.00     0.037 A 
ATOM     50  C   UNL A   1      47.120  26.993  29.268  1.00  0.00     0.037 A 
ATOM     51  C   UNL A   1      41.219  29.756  29.579  1.00  0.00     0.049 A 
ATOM     52  C   UNL A   1      46.635  28.344  29.713  1.00  0.00     0.074 A 
ATOM     53  C   UNL A   1      40.889  31.011  30.059  1.00  0.00     0.029 A 
ATOM     54  N   UNL A   1      42.594  29.627  29.702  1.00  0.00    -0.354 N 
ATOM     55  N   UNL A   1      45.410  28.810  29.756  1.00  0.00    -0.248 NA
ATOM     56  C   UNL A   1      47.655  29.294  30.177  1.00  0.00     0.031 C 
ATOM     57  C   UNL A   1      42.069  31.656  30.444  1.00  0.00     0.029 A 
ATOM     58  C   UNL A   1      43.129  30.787  30.238  1.00  0.00     0.049 A 
ATOM     59  H   UNL A   1      43.112  28.831  29.447  1.00  0.00     0.167 HD
ATOM     60  C   UNL A   1      45.509  30.094  30.276  1.00  0.00     0.074 A 
ATOM     61  C   UNL A   1      46.913  30.328  30.546  1.00  0.00     0.031 C 
ATOM     62  C   UNL A   1      44.528  30.998  30.510  1.00  0.00     0.037 A 
BRANCH  49  63
ATOM     63  C   UNL A   1      38.883  29.043  28.943  1.00  0.00     0.057 A 
ATOM     64  C   UNL A   1      38.026  28.926  30.046  1.00  0.00     0.134 A 
ATOM     65  C   UNL A   1      38.328  29.485  27.736  1.00  0.00     0.134 A 
ATOM     66  F   UNL A   1      38.494  28.493  31.227  1.00  0.00    -0.206 F 
ATOM     67  C   UNL A   1      36.665  29.216  29.946  1.00  0.00     0.040 A 
ATOM     68  C   UNL A   1      36.972  29.802  27.631  1.00  0.00     0.040 A 
ATOM     69  F   UNL A   1      39.093  29.622  26.643  1.00  0.00    -0.206 F 
ATOM     70  C   UNL A   1      36.135  29.662  28.737  1.00  0.00     0.006 A 
ENDBRANCH  49  63
BRANCH  50  71
ATOM     71  C   UNL A   1      48.563  26.654  29.324  1.00  0.00     0.057 A 
ATOM     72  C   UNL A   1      49.112  26.026  30.449  1.00  0.00     0.134 A 
ATOM     73  C   UNL A   1      49.429  26.961  28.268  1.00  0.00     0.134 A 
ATOM     74  F   UNL A   1      48.335  25.725  31.498  1.00  0.00    -0.206 F 
ATOM     75  C   UNL A   1      50.474  25.733  30.530  1.00  0.00     0.040 A 
ATOM     76  C   UNL A   1      50.789  26.653  28.327  1.00  0.00     0.040 A 
ATOM     77  F   UNL A   1      48.963  27.557  27.161  1.00  0.00    -0.206 F 
ATOM     78  C   UNL A   1      51.316  26.044  29.465  1.00  0.00     0.006 A 
ENDBRANCH  50  71
BRANCH  62  79
ATOM     79  C   UNL A   1      44.934  32.307  31.116  1.00  0.00     0.057 A 
ATOM     80  C   UNL A   1      45.002  32.487  32.504  1.00  0.00     0.134 A 
ATOM     81  C   UNL A   1      45.291  33.388  30.303  1.00  0.00     0.134 A 
ATOM     82  F   UNL A   1      44.660  31.492  33.336  1.00  0.00    -0.206 F 
ATOM     83  C   UNL A   1      45.390  33.706  33.060  1.00  0.00     0.040 A 
ATOM     84  C   UNL A   1      45.704  34.605  30.848  1.00  0.00     0.040 A 
ATOM     85  F   UNL A   1      45.255  33.278  28.966  1.00  0.00    -0.206 F 
ATOM     86  C   UNL A   1      45.748  34.768  32.231  1.00  0.00     0.006 A 
ENDBRANCH  62  79
ENDBRANCH  36  37
ENDBRANCH  28  31
ENDBRANCH  26  27
ENDBRANCH  25  26
ENDBRANCH  24  25
ENDBRANCH   1  24
TORSDOF 16
ENDMDL
MODEL 3
REMARK VINA RESULT:     -11.1      4.356      9.360
REMARK SMILES CC1(C)[C@H]2CC[C@]1(C)[C@H](NC(=O)CCC(=O)NCCCCCCNC(=O)c1ccc(-c3c4nc(c(-c5c(F)cccc5F)c5ccc([nH]5)c(-c5c(F)cccc5F)c5nc(c(-c6c(F)cccc6F)c6ccc3[nH]6)C=C5)C=C4)cc1)C2
REMARK SMILES IDX 20 1 19 2 18 3 17 4 15 5 16 6 14 8 13 9 11 10 10 11 12 13
REMARK SMILES IDX 9 14 1 15 2 16 3 17 4 18 7 19 5 20 81 21 6 22 8 23 21 24
REMARK SMILES IDX 22 25 23 26 24 27 25 28 26 30 27 31 28 32 80 33 29 34 79 35
REMARK SMILES IDX 30 36 31 37 32 38 73 39 33 40 78 41 72 42 74 43 34 44 77 45
REMARK SMILES IDX 71 46 70 47 35 49 61 50 44 51 60 52 45 53 48 54 59 55 75 56
REMARK SMILES IDX 46 57 47 58 58 60 76 61 49 62 36 63 37 64 42 65 38 66 39 67
REMARK SMILES IDX 41 68 43 69 40 70 62 71 63 72 68 73 64 74 65 75 67 76 69 77
REMARK SMILES IDX 66 78 50 79 51 80 56 81 52 82 53 83 55 84 57 85 54 86
REMARK H PARENT 17 7 10 12 24 29 74 48 48 59
REMARK Flexibility Score: inf
ROOT
ATOM      1  C   UNL A   1      33.027  30.073  26.669  1.00  0.00     0.002 C 
ENDROOT
BRANCH   1   2
ATOM      2  C   UNL A   1      33.311  29.376  25.338  1.00  0.00     0.021 C 
BRANCH   2   3
ATOM      3  C   UNL A   1      32.261  28.363  24.893  1.00  0.00     0.116 C 
BRANCH   3   4
ATOM      4  N   UNL A   1      31.635  28.761  23.654  1.00  0.00    -0.356 N 
ATOM      5  C   UNL A   1      30.848  28.030  22.824  1.00  0.00     0.220 C 
ATOM      6  O   UNL A   1      30.301  28.612  21.887  1.00  0.00    -0.275 OA
ATOM      7  H   UNL A   1      31.800  29.690  23.373  1.00  0.00     0.163 HD
BRANCH   5   8
ATOM      8  C   UNL A   1      30.596  26.565  23.086  1.00  0.00     0.110 C 
BRANCH   8   9
ATOM      9  C   UNL A   1      31.452  25.503  22.413  1.00  0.00     0.110 C 
BRANCH   9  10
ATOM     10  C   UNL A   1      32.949  25.655  22.304  1.00  0.00     0.220 C 
ATOM     11  N   UNL A   1      33.788  25.456  23.354  1.00  0.00    -0.353 N 
ATOM     12  H   UNL A   1      34.558  26.071  23.373  1.00  0.00     0.163 HD
ATOM     13  O   UNL A   1      33.449  26.073  21.253  1.00  0.00    -0.275 OA
BRANCH  11  14
ATOM     14  C   UNL A   1      33.763  24.503  24.459  1.00  0.00     0.088 C 
ATOM     15  C   UNL A   1      35.313  21.043  25.386  1.00  0.00     0.012 C 
ATOM     16  C   UNL A   1      34.591  22.403  25.415  1.00  0.00    -0.025 C 
ATOM     17  C   UNL A   1      33.375  22.227  26.350  1.00  0.00     0.012 C 
ATOM     18  C   UNL A   1      35.544  23.562  25.789  1.00  0.00    -0.003 C 
ATOM     19  C   UNL A   1      34.264  23.064  24.038  1.00  0.00    -0.007 C 
ATOM     20  C   UNL A   1      36.533  23.645  24.604  1.00  0.00     0.005 C 
ATOM     21  C   UNL A   1      34.648  24.801  25.683  1.00  0.00     0.029 C 
ATOM     22  C   UNL A   1      35.672  23.223  23.404  1.00  0.00     0.010 C 
ATOM     23  C   UNL A   1      33.298  22.296  23.151  1.00  0.00     0.014 C 
ENDBRANCH  11  14
ENDBRANCH   9  10
ENDBRANCH   8   9
ENDBRANCH   5   8
ENDBRANCH   3   4
ENDBRANCH   2   3
ENDBRANCH   1   2
BRANCH   1  24
ATOM     24  C   UNL A   1      31.597  30.581  26.859  1.00  0.00     0.002 C 
BRANCH  24  25
ATOM     25  C   UNL A   1      31.428  32.099  26.790  1.00  0.00     0.021 C 
BRANCH  25  26
ATOM     26  C   UNL A   1      32.717  32.897  26.949  1.00  0.00     0.116 C 
BRANCH  26  27
ATOM     27  N   UNL A   1      32.489  34.183  27.580  1.00  0.00    -0.352 N 
ATOM     28  C   UNL A   1      33.113  34.716  28.676  1.00  0.00     0.251 C 
ATOM     29  H   UNL A   1      31.795  34.746  27.167  1.00  0.00     0.163 HD
ATOM     30  O   UNL A   1      32.680  35.742  29.203  1.00  0.00    -0.269 OA
BRANCH  28  31
ATOM     31  C   UNL A   1      34.297  34.041  29.244  1.00  0.00     0.039 A 
ATOM     32  C   UNL A   1      34.106  32.968  30.116  1.00  0.00     0.014 A 
ATOM     33  C   UNL A   1      35.590  34.466  28.917  1.00  0.00     0.014 A 
ATOM     34  C   UNL A   1      35.213  32.294  30.632  1.00  0.00     0.010 A 
ATOM     35  C   UNL A   1      36.691  33.749  29.379  1.00  0.00     0.010 A 
ATOM     36  C   UNL A   1      36.514  32.667  30.254  1.00  0.00    -0.014 A 
BRANCH  36  37
ATOM     37  C   UNL A   1      37.695  31.954  30.797  1.00  0.00     0.031 A 
ATOM     38  C   UNL A   1      38.208  32.287  32.171  1.00  0.00     0.074 A 
ATOM     39  C   UNL A   1      38.324  31.028  30.047  1.00  0.00     0.049 A 
ATOM     40  N   UNL A   1      39.231  31.788  32.815  1.00  0.00    -0.248 NA
ATOM     41  C   UNL A   1      37.487  33.336  32.910  1.00  0.00     0.031 C 
ATOM     42  C   UNL A   1      37.949  30.646  28.684  1.00  0.00     0.029 A 
ATOM     43  N   UNL A   1      39.411  30.241  30.328  1.00  0.00    -0.354 N 
ATOM     44  C   UNL A   1      39.282  32.465  34.027  1.00  0.00     0.074 A 
ATOM     45  C   UNL A   1      38.220  33.447  34.008  1.00  0.00     0.031 C 
ATOM     46  C   UNL A   1      38.779  29.678  28.257  1.00  0.00     0.029 A 
ATOM     47  C   UNL A   1      39.755  29.392  29.304  1.00  0.00     0.049 A 
ATOM     48  H   UNL A   1      39.899  30.280  31.182  1.00  0.00     0.167 HD
ATOM     49  C   UNL A   1      40.121  32.271  35.072  1.00  0.00     0.037 A 
ATOM     50  C   UNL A   1      40.745  28.483  29.223  1.00  0.00     0.037 A 
ATOM     51  C   UNL A   1      41.161  31.278  35.102  1.00  0.00     0.049 A 
ATOM     52  C   UNL A   1      41.660  28.283  30.398  1.00  0.00     0.074 A 
ATOM     53  C   UNL A   1      42.031  30.971  36.132  1.00  0.00     0.029 A 
ATOM     54  N   UNL A   1      41.467  30.427  34.050  1.00  0.00    -0.354 N 
ATOM     55  N   UNL A   1      41.657  28.889  31.561  1.00  0.00    -0.248 NA
ATOM     56  C   UNL A   1      42.711  27.267  30.254  1.00  0.00     0.031 C 
ATOM     57  C   UNL A   1      42.886  29.954  35.694  1.00  0.00     0.029 A 
ATOM     58  C   UNL A   1      42.523  29.603  34.403  1.00  0.00     0.049 A 
ATOM     59  H   UNL A   1      41.003  30.411  33.183  1.00  0.00     0.167 HD
ATOM     60  C   UNL A   1      42.683  28.310  32.295  1.00  0.00     0.074 A 
ATOM     61  C   UNL A   1      43.279  27.295  31.450  1.00  0.00     0.031 C 
ATOM     62  C   UNL A   1      43.096  28.591  33.554  1.00  0.00     0.037 A 
BRANCH  49  63
ATOM     63  C   UNL A   1      39.935  33.146  36.276  1.00  0.00     0.057 A 
ATOM     64  C   UNL A   1      40.652  34.339  36.435  1.00  0.00     0.134 A 
ATOM     65  C   UNL A   1      39.009  32.809  37.271  1.00  0.00     0.134 A 
ATOM     66  F   UNL A   1      41.565  34.710  35.525  1.00  0.00    -0.206 F 
ATOM     67  C   UNL A   1      40.471  35.155  37.552  1.00  0.00     0.040 A 
ATOM     68  C   UNL A   1      38.802  33.631  38.381  1.00  0.00     0.040 A 
ATOM     69  F   UNL A   1      38.287  31.682  37.178  1.00  0.00    -0.206 F 
ATOM     70  C   UNL A   1      39.538  34.805  38.526  1.00  0.00     0.006 A 
ENDBRANCH  49  63
BRANCH  50  71
ATOM     71  C   UNL A   1      40.905  27.665  27.995  1.00  0.00     0.057 A 
ATOM     72  C   UNL A   1      41.687  28.118  26.925  1.00  0.00     0.134 A 
ATOM     73  C   UNL A   1      40.272  26.426  27.853  1.00  0.00     0.134 A 
ATOM     74  F   UNL A   1      42.302  29.307  26.997  1.00  0.00    -0.206 F 
ATOM     75  C   UNL A   1      41.818  27.377  25.750  1.00  0.00     0.040 A 
ATOM     76  C   UNL A   1      40.413  25.663  26.692  1.00  0.00     0.040 A 
ATOM     77  F   UNL A   1      39.514  25.934  28.844  1.00  0.00    -0.206 F 
ATOM     78  C   UNL A   1      41.182  26.144  25.633  1.00  0.00     0.006 A 
ENDBRANCH  50  71
BRANCH  62  79
ATOM     79  C   UNL A   1      44.222  27.769  34.105  1.00  0.00     0.057 A 
ATOM     80  C   UNL A   1      45.555  28.193  34.018  1.00  0.00     0.134 A 
ATOM     81  C   UNL A   1      43.966  26.558  34.757  1.00  0.00     0.134 A 
ATOM     82  F   UNL A   1      45.865  29.338  33.393  1.00  0.00    -0.206 F 
ATOM     83  C   UNL A   1      46.596  27.426  34.542  1.00  0.00     0.040 A 
ATOM     84  C   UNL A   1      44.997  25.794  35.306  1.00  0.00     0.040 A 
ATOM     85  F   UNL A   1      42.710  26.101  34.880  1.00  0.00    -0.206 F 
ATOM     86  C   UNL A   1      46.317  26.225  35.193  1.00  0.00     0.006 A 
ENDBRANCH  62  79
ENDBRANCH  36  37
ENDBRANCH  28  31
ENDBRANCH  26  27
ENDBRANCH  25  26
ENDBRANCH  24  25
ENDBRANCH   1  24
TORSDOF 16
ENDMDL
