MODEL 1
REMARK VINA RESULT:     -10.1      0.000      0.000
REMARK SMILES Cc1nonc1-c1noc(CCC(=O)NCCCCCCNC(=O)c2ccc(-c3c4nc(c(-c5c(F)cccc5F)c5ccc([nH]5)c(-c5c(F)cccc5F)c5nc(c(-c6c(F)cccc6F)c6ccc3[nH]6)C=C5)C=C4)cc2)n1
REMARK SMILES IDX 18 1 17 2 16 3 15 4 13 5 14 6 12 8 11 9 10 10 7 11 8 12
REMARK SMILES IDX 79 13 9 14 6 15 1 16 2 17 3 18 4 19 5 20 19 21 20 22 21 23
REMARK SMILES IDX 22 24 23 25 24 27 25 28 26 29 78 30 27 31 77 32 28 33 29 34
REMARK SMILES IDX 30 35 71 36 31 37 76 38 70 39 72 40 32 41 75 42 69 43 68 44
REMARK SMILES IDX 33 46 59 47 42 48 58 49 43 50 46 51 57 52 73 53 44 54 45 55
REMARK SMILES IDX 56 57 74 58 47 59 34 60 35 61 40 62 36 63 37 64 39 65 41 66
REMARK SMILES IDX 38 67 60 68 61 69 66 70 62 71 63 72 65 73 67 74 64 75 48 76
REMARK SMILES IDX 49 77 54 78 50 79 51 80 53 81 55 82 52 83
REMARK H PARENT 15 7 22 26 72 45 46 56
REMARK Flexibility Score: inf
ROOT
ATOM      1  C   UNL A   1      37.929  33.413  30.085  1.00  0.00     0.002 C 
ENDROOT
BRANCH   1   2
ATOM      2  C   UNL A   1      39.097  34.181  30.712  1.00  0.00     0.021 C 
BRANCH   2   3
ATOM      3  C   UNL A   1      38.959  34.393  32.219  1.00  0.00     0.116 C 
BRANCH   3   4
ATOM      4  N   UNL A   1      39.431  33.227  32.941  1.00  0.00    -0.356 N 
ATOM      5  C   UNL A   1      38.841  32.527  33.945  1.00  0.00     0.220 C 
ATOM      6  O   UNL A   1      39.479  31.623  34.489  1.00  0.00    -0.275 OA
ATOM      7  H   UNL A   1      40.314  32.892  32.661  1.00  0.00     0.163 HD
BRANCH   5   8
ATOM      8  C   UNL A   1      37.440  32.860  34.402  1.00  0.00     0.110 C 
BRANCH   8   9
ATOM      9  C   UNL A   1      36.397  32.336  33.422  1.00  0.00     0.110 C 
BRANCH   9  10
ATOM     10  C   UNL A   1      35.328  33.324  33.137  1.00  0.00     0.227 A 
ATOM     11  C   UNL A   1      34.114  34.957  32.642  1.00  0.00     0.226 A 
ATOM     12  N   UNL A   1      33.238  33.951  32.776  1.00  0.00    -0.055 NA
ATOM     13  N   UNL A   1      35.424  34.605  32.864  1.00  0.00    -0.190 NA
ATOM     14  O   UNL A   1      34.045  32.860  33.106  1.00  0.00    -0.339 OA
BRANCH  11  15
ATOM     15  C   UNL A   1      33.747  36.339  32.348  1.00  0.00     0.178 A 
ATOM     16  C   UNL A   1      33.040  36.178  29.821  1.00  0.00     0.073 C 
ATOM     17  C   UNL A   1      33.260  36.837  31.127  1.00  0.00     0.113 A 
ATOM     18  N   UNL A   1      33.007  38.144  31.259  1.00  0.00    -0.054 NA
ATOM     19  O   UNL A   1      33.365  38.455  32.566  1.00  0.00    -0.244 OA
ATOM     20  N   UNL A   1      33.819  37.329  33.245  1.00  0.00    -0.046 NA
ENDBRANCH  11  15
ENDBRANCH   9  10
ENDBRANCH   8   9
ENDBRANCH   5   8
ENDBRANCH   3   4
ENDBRANCH   2   3
ENDBRANCH   1   2
BRANCH   1  21
ATOM     21  C   UNL A   1      37.229  34.131  28.923  1.00  0.00     0.002 C 
BRANCH  21  22
ATOM     22  C   UNL A   1      35.936  33.481  28.421  1.00  0.00     0.021 C 
BRANCH  22  23
ATOM     23  C   UNL A   1      35.150  32.696  29.469  1.00  0.00     0.116 C 
BRANCH  23  24
ATOM     24  N   UNL A   1      34.373  31.618  28.880  1.00  0.00    -0.352 N 
ATOM     25  C   UNL A   1      34.785  30.412  28.377  1.00  0.00     0.251 C 
ATOM     26  H   UNL A   1      33.403  31.779  28.836  1.00  0.00     0.163 HD
ATOM     27  O   UNL A   1      33.996  29.703  27.755  1.00  0.00    -0.269 OA
BRANCH  25  28
ATOM     28  C   UNL A   1      36.180  29.959  28.562  1.00  0.00     0.039 A 
ATOM     29  C   UNL A   1      37.076  30.096  27.497  1.00  0.00     0.014 A 
ATOM     30  C   UNL A   1      36.597  29.363  29.756  1.00  0.00     0.014 A 
ATOM     31  C   UNL A   1      38.404  29.685  27.646  1.00  0.00     0.010 A 
ATOM     32  C   UNL A   1      37.934  29.004  29.924  1.00  0.00     0.010 A 
ATOM     33  C   UNL A   1      38.847  29.157  28.869  1.00  0.00    -0.014 A 
BRANCH  33  34
ATOM     34  C   UNL A   1      40.261  28.753  29.059  1.00  0.00     0.031 A 
ATOM     35  C   UNL A   1      41.249  29.712  29.658  1.00  0.00     0.074 A 
ATOM     36  C   UNL A   1      40.669  27.540  28.640  1.00  0.00     0.049 A 
ATOM     37  N   UNL A   1      42.537  29.569  29.839  1.00  0.00    -0.248 NA
ATOM     38  C   UNL A   1      40.722  31.015  30.094  1.00  0.00     0.031 C 
ATOM     39  C   UNL A   1      39.815  26.531  28.012  1.00  0.00     0.029 A 
ATOM     40  N   UNL A   1      41.910  26.956  28.669  1.00  0.00    -0.354 N 
ATOM     41  C   UNL A   1      42.978  30.765  30.390  1.00  0.00     0.074 A 
ATOM     42  C   UNL A   1      41.826  31.636  30.484  1.00  0.00     0.031 C 
ATOM     43  C   UNL A   1      40.555  25.447  27.727  1.00  0.00     0.029 A 
ATOM     44  C   UNL A   1      41.937  25.697  28.123  1.00  0.00     0.049 A 
ATOM     45  H   UNL A   1      42.705  27.398  29.046  1.00  0.00     0.167 HD
ATOM     46  C   UNL A   1      44.225  31.100  30.798  1.00  0.00     0.037 A 
ATOM     47  C   UNL A   1      42.963  24.842  27.954  1.00  0.00     0.037 A 
ATOM     48  C   UNL A   1      45.365  30.225  30.730  1.00  0.00     0.049 A 
ATOM     49  C   UNL A   1      44.338  25.236  28.416  1.00  0.00     0.074 A 
ATOM     50  C   UNL A   1      46.658  30.455  31.169  1.00  0.00     0.029 A 
ATOM     51  N   UNL A   1      45.349  28.950  30.186  1.00  0.00    -0.354 N 
ATOM     52  N   UNL A   1      44.730  26.351  28.984  1.00  0.00    -0.248 NA
ATOM     53  C   UNL A   1      45.411  24.253  28.216  1.00  0.00     0.031 C 
ATOM     54  C   UNL A   1      47.431  29.328  30.865  1.00  0.00     0.029 A 
ATOM     55  C   UNL A   1      46.612  28.385  30.265  1.00  0.00     0.049 A 
ATOM     56  H   UNL A   1      44.557  28.510  29.800  1.00  0.00     0.167 HD
ATOM     57  C   UNL A   1      46.086  26.194  29.230  1.00  0.00     0.074 A 
ATOM     58  C   UNL A   1      46.449  24.874  28.758  1.00  0.00     0.031 C 
ATOM     59  C   UNL A   1      46.954  27.067  29.797  1.00  0.00     0.037 A 
BRANCH  46  60
ATOM     60  C   UNL A   1      44.418  32.477  31.356  1.00  0.00     0.057 A 
ATOM     61  C   UNL A   1      44.307  32.738  32.728  1.00  0.00     0.134 A 
ATOM     62  C   UNL A   1      44.742  33.551  30.518  1.00  0.00     0.134 A 
ATOM     63  F   UNL A   1      43.986  31.755  33.583  1.00  0.00    -0.206 F 
ATOM     64  C   UNL A   1      44.487  34.022  33.244  1.00  0.00     0.040 A 
ATOM     65  C   UNL A   1      44.946  34.835  31.024  1.00  0.00     0.040 A 
ATOM     66  F   UNL A   1      44.868  33.369  29.194  1.00  0.00    -0.206 F 
ATOM     67  C   UNL A   1      44.813  35.075  32.391  1.00  0.00     0.006 A 
ENDBRANCH  46  60
BRANCH  47  68
ATOM     68  C   UNL A   1      42.724  23.514  27.341  1.00  0.00     0.057 A 
ATOM     69  C   UNL A   1      42.887  23.318  25.966  1.00  0.00     0.134 A 
ATOM     70  C   UNL A   1      42.334  22.412  28.112  1.00  0.00     0.134 A 
ATOM     71  F   UNL A   1      43.240  24.342  25.176  1.00  0.00    -0.206 F 
ATOM     72  C   UNL A   1      42.660  22.075  25.374  1.00  0.00     0.040 A 
ATOM     73  C   UNL A   1      42.122  21.159  27.537  1.00  0.00     0.040 A 
ATOM     74  F   UNL A   1      42.166  22.538  29.436  1.00  0.00    -0.206 F 
ATOM     75  C   UNL A   1      42.280  20.989  26.162  1.00  0.00     0.006 A 
ENDBRANCH  47  68
BRANCH  59  76
ATOM     76  C   UNL A   1      48.372  26.610  29.965  1.00  0.00     0.057 A 
ATOM     77  C   UNL A   1      49.353  26.884  29.005  1.00  0.00     0.134 A 
ATOM     78  C   UNL A   1      48.765  25.917  31.117  1.00  0.00     0.134 A 
ATOM     79  F   UNL A   1      49.035  27.533  27.875  1.00  0.00    -0.206 F 
ATOM     80  C   UNL A   1      50.674  26.470  29.176  1.00  0.00     0.040 A 
ATOM     81  C   UNL A   1      50.087  25.515  31.308  1.00  0.00     0.040 A 
ATOM     82  F   UNL A   1      47.873  25.628  32.077  1.00  0.00    -0.206 F 
ATOM     83  C   UNL A   1      51.045  25.789  30.334  1.00  0.00     0.006 A 
ENDBRANCH  59  76
ENDBRANCH  33  34
ENDBRANCH  25  28
ENDBRANCH  23  24
ENDBRANCH  22  23
ENDBRANCH  21  22
ENDBRANCH   1  21
TORSDOF 16
ENDMDL
MODEL 2
REMARK VINA RESULT:     -10.0      0.541      6.416
REMARK SMILES Cc1nonc1-c1noc(CCC(=O)NCCCCCCNC(=O)c2ccc(-c3c4nc(c(-c5c(F)cccc5F)c5ccc([nH]5)c(-c5c(F)cccc5F)c5nc(c(-c6c(F)cccc6F)c6ccc3[nH]6)C=C5)C=C4)cc2)n1
REMARK SMILES IDX 18 1 17 2 16 3 15 4 13 5 14 6 12 8 11 9 10 10 7 11 8 12
REMARK SMILES IDX 79 13 9 14 6 15 1 16 2 17 3 18 4 19 5 20 19 21 20 22 21 23
REMARK SMILES IDX 22 24 23 25 24 27 25 28 26 29 78 30 27 31 77 32 28 33 29 34
REMARK SMILES IDX 30 35 71 36 31 37 76 38 70 39 72 40 32 41 75 42 69 43 68 44
REMARK SMILES IDX 33 46 59 47 42 48 58 49 43 50 46 51 57 52 73 53 44 54 45 55
REMARK SMILES IDX 56 57 74 58 47 59 34 60 35 61 40 62 36 63 37 64 39 65 41 66
REMARK SMILES IDX 38 67 60 68 61 69 66 70 62 71 63 72 65 73 67 74 64 75 48 76
REMARK SMILES IDX 49 77 54 78 50 79 51 80 53 81 55 82 52 83
REMARK H PARENT 15 7 22 26 72 45 46 56
REMARK Flexibility Score: inf
ROOT
ATOM      1  C   UNL A   1      37.720  32.943  30.215  1.00  0.00     0.002 C 
ENDROOT
BRANCH   1   2
ATOM      2  C   UNL A   1      37.796  34.034  31.288  1.00  0.00     0.021 C 
BRANCH   2   3
ATOM      3  C   UNL A   1      39.194  34.228  31.874  1.00  0.00     0.116 C 
BRANCH   3   4
ATOM      4  N   UNL A   1      39.504  33.163  32.810  1.00  0.00    -0.356 N 
ATOM      5  C   UNL A   1      39.128  33.005  34.106  1.00  0.00     0.220 C 
ATOM      6  O   UNL A   1      39.603  32.067  34.748  1.00  0.00    -0.275 OA
ATOM      7  H   UNL A   1      40.076  32.446  32.450  1.00  0.00     0.163 HD
BRANCH   5   8
ATOM      8  C   UNL A   1      38.164  33.970  34.755  1.00  0.00     0.110 C 
BRANCH   8   9
ATOM      9  C   UNL A   1      36.822  33.306  35.041  1.00  0.00     0.110 C 
BRANCH   9  10
ATOM     10  C   UNL A   1      35.705  33.915  34.279  1.00  0.00     0.227 A 
ATOM     11  C   UNL A   1      34.368  35.082  33.166  1.00  0.00     0.226 A 
ATOM     12  N   UNL A   1      33.774  33.881  33.201  1.00  0.00    -0.055 NA
ATOM     13  N   UNL A   1      35.569  35.143  33.831  1.00  0.00    -0.190 NA
ATOM     14  O   UNL A   1      34.663  33.100  33.943  1.00  0.00    -0.339 OA
BRANCH  11  15
ATOM     15  C   UNL A   1      33.795  36.270  32.541  1.00  0.00     0.178 A 
ATOM     16  C   UNL A   1      33.304  35.407  30.106  1.00  0.00     0.073 C 
ATOM     17  C   UNL A   1      33.318  36.378  31.223  1.00  0.00     0.113 A 
ATOM     18  N   UNL A   1      32.839  37.612  31.032  1.00  0.00    -0.054 NA
ATOM     19  O   UNL A   1      33.046  38.274  32.237  1.00  0.00    -0.244 OA
ATOM     20  N   UNL A   1      33.634  37.435  33.178  1.00  0.00    -0.046 NA
ENDBRANCH  11  15
ENDBRANCH   9  10
ENDBRANCH   8   9
ENDBRANCH   5   8
ENDBRANCH   3   4
ENDBRANCH   2   3
ENDBRANCH   1   2
BRANCH   1  21
ATOM     21  C   UNL A   1      37.320  33.433  28.818  1.00  0.00     0.002 C 
BRANCH  21  22
ATOM     22  C   UNL A   1      35.882  33.123  28.390  1.00  0.00     0.021 C 
BRANCH  22  23
ATOM     23  C   UNL A   1      35.055  32.333  29.401  1.00  0.00     0.116 C 
BRANCH  23  24
ATOM     24  N   UNL A   1      34.418  31.172  28.802  1.00  0.00    -0.352 N 
ATOM     25  C   UNL A   1      34.977  30.036  28.278  1.00  0.00     0.251 C 
ATOM     26  H   UNL A   1      33.434  31.207  28.769  1.00  0.00     0.163 HD
ATOM     27  O   UNL A   1      34.279  29.241  27.652  1.00  0.00    -0.269 OA
BRANCH  25  28
ATOM     28  C   UNL A   1      36.420  29.764  28.443  1.00  0.00     0.039 A 
ATOM     29  C   UNL A   1      36.878  29.297  29.679  1.00  0.00     0.014 A 
ATOM     30  C   UNL A   1      37.327  30.007  27.407  1.00  0.00     0.014 A 
ATOM     31  C   UNL A   1      38.236  29.022  29.861  1.00  0.00     0.010 A 
ATOM     32  C   UNL A   1      38.673  29.681  27.570  1.00  0.00     0.010 A 
ATOM     33  C   UNL A   1      39.139  29.191  28.800  1.00  0.00    -0.014 A 
BRANCH  33  34
ATOM     34  C   UNL A   1      40.577  28.867  28.962  1.00  0.00     0.031 A 
ATOM     35  C   UNL A   1      41.108  27.534  28.517  1.00  0.00     0.074 A 
ATOM     36  C   UNL A   1      41.395  29.751  29.562  1.00  0.00     0.049 A 
ATOM     37  N   UNL A   1      42.314  27.041  28.638  1.00  0.00    -0.248 NA
ATOM     38  C   UNL A   1      40.150  26.627  27.866  1.00  0.00     0.031 C 
ATOM     39  C   UNL A   1      40.996  31.064  30.070  1.00  0.00     0.029 A 
ATOM     40  N   UNL A   1      42.733  29.672  29.858  1.00  0.00    -0.354 N 
ATOM     41  C   UNL A   1      42.257  25.763  28.097  1.00  0.00     0.074 A 
ATOM     42  C   UNL A   1      40.889  25.542  27.678  1.00  0.00     0.031 C 
ATOM     43  C   UNL A   1      42.068  31.673  30.602  1.00  0.00     0.029 A 
ATOM     44  C   UNL A   1      43.220  30.783  30.501  1.00  0.00     0.049 A 
ATOM     45  H   UNL A   1      43.291  28.894  29.630  1.00  0.00     0.167 HD
ATOM     46  C   UNL A   1      43.256  24.862  27.949  1.00  0.00     0.037 A 
ATOM     47  C   UNL A   1      44.455  31.050  30.964  1.00  0.00     0.037 A 
ATOM     48  C   UNL A   1      44.622  25.089  28.341  1.00  0.00     0.049 A 
ATOM     49  C   UNL A   1      45.548  30.035  30.786  1.00  0.00     0.074 A 
ATOM     50  C   UNL A   1      45.718  24.258  28.180  1.00  0.00     0.029 A 
ATOM     51  N   UNL A   1      45.080  26.235  28.974  1.00  0.00    -0.354 N 
ATOM     52  N   UNL A   1      45.491  28.851  30.226  1.00  0.00    -0.248 NA
ATOM     53  C   UNL A   1      46.877  30.394  31.300  1.00  0.00     0.031 C 
ATOM     54  C   UNL A   1      46.832  24.889  28.742  1.00  0.00     0.029 A 
ATOM     55  C   UNL A   1      46.438  26.127  29.223  1.00  0.00     0.049 A 
ATOM     56  H   UNL A   1      44.522  27.011  29.211  1.00  0.00     0.167 HD
ATOM     57  C   UNL A   1      46.777  28.335  30.299  1.00  0.00     0.074 A 
ATOM     58  C   UNL A   1      47.595  29.337  30.950  1.00  0.00     0.031 C 
ATOM     59  C   UNL A   1      47.239  27.136  29.866  1.00  0.00     0.037 A 
BRANCH  46  60
ATOM     60  C   UNL A   1      42.904  23.542  27.332  1.00  0.00     0.057 A 
ATOM     61  C   UNL A   1      43.013  23.321  25.953  1.00  0.00     0.134 A 
ATOM     62  C   UNL A   1      42.475  22.471  28.126  1.00  0.00     0.134 A 
ATOM     63  F   UNL A   1      43.407  24.310  25.135  1.00  0.00    -0.206 F 
ATOM     64  C   UNL A   1      42.685  22.090  25.382  1.00  0.00     0.040 A 
ATOM     65  C   UNL A   1      42.164  21.230  27.570  1.00  0.00     0.040 A 
ATOM     66  F   UNL A   1      42.353  22.614  29.455  1.00  0.00    -0.206 F 
ATOM     67  C   UNL A   1      42.263  21.038  26.193  1.00  0.00     0.006 A 
ENDBRANCH  46  60
BRANCH  47  68
ATOM     68  C   UNL A   1      44.731  32.351  31.620  1.00  0.00     0.057 A 
ATOM     69  C   UNL A   1      44.571  32.507  33.001  1.00  0.00     0.134 A 
ATOM     70  C   UNL A   1      45.165  33.462  30.886  1.00  0.00     0.134 A 
ATOM     71  F   UNL A   1      44.139  31.483  33.749  1.00  0.00    -0.206 F 
ATOM     72  C   UNL A   1      44.822  33.727  33.630  1.00  0.00     0.040 A 
ATOM     73  C   UNL A   1      45.439  34.682  31.506  1.00  0.00     0.040 A 
ATOM     74  F   UNL A   1      45.341  33.372  29.561  1.00  0.00    -0.206 F 
ATOM     75  C   UNL A   1      45.262  34.818  32.883  1.00  0.00     0.006 A 
ENDBRANCH  47  68
BRANCH  59  76
ATOM     76  C   UNL A   1      48.699  26.858  30.055  1.00  0.00     0.057 A 
ATOM     77  C   UNL A   1      49.176  26.141  31.159  1.00  0.00     0.134 A 
ATOM     78  C   UNL A   1      49.634  27.283  29.103  1.00  0.00     0.134 A 
ATOM     79  F   UNL A   1      48.330  25.720  32.111  1.00  0.00    -0.206 F 
ATOM     80  C   UNL A   1      50.535  25.871  31.319  1.00  0.00     0.040 A 
ATOM     81  C   UNL A   1      50.993  27.001  29.242  1.00  0.00     0.040 A 
ATOM     82  F   UNL A   1      49.240  27.970  28.019  1.00  0.00    -0.206 F 
ATOM     83  C   UNL A   1      51.448  26.296  30.355  1.00  0.00     0.006 A 
ENDBRANCH  59  76
ENDBRANCH  33  34
ENDBRANCH  25  28
ENDBRANCH  23  24
ENDBRANCH  22  23
ENDBRANCH  21  22
ENDBRANCH   1  21
TORSDOF 16
ENDMDL
MODEL 3
REMARK VINA RESULT:     -10.0      4.343     11.857
REMARK SMILES Cc1nonc1-c1noc(CCC(=O)NCCCCCCNC(=O)c2ccc(-c3c4nc(c(-c5c(F)cccc5F)c5ccc([nH]5)c(-c5c(F)cccc5F)c5nc(c(-c6c(F)cccc6F)c6ccc3[nH]6)C=C5)C=C4)cc2)n1
REMARK SMILES IDX 18 1 17 2 16 3 15 4 13 5 14 6 12 8 11 9 10 10 7 11 8 12
REMARK SMILES IDX 79 13 9 14 6 15 1 16 2 17 3 18 4 19 5 20 19 21 20 22 21 23
REMARK SMILES IDX 22 24 23 25 24 27 25 28 26 29 78 30 27 31 77 32 28 33 29 34
REMARK SMILES IDX 30 35 71 36 31 37 76 38 70 39 72 40 32 41 75 42 69 43 68 44
REMARK SMILES IDX 33 46 59 47 42 48 58 49 43 50 46 51 57 52 73 53 44 54 45 55
REMARK SMILES IDX 56 57 74 58 47 59 34 60 35 61 40 62 36 63 37 64 39 65 41 66
REMARK SMILES IDX 38 67 60 68 61 69 66 70 62 71 63 72 65 73 67 74 64 75 48 76
REMARK SMILES IDX 49 77 54 78 50 79 51 80 53 81 55 82 52 83
REMARK H PARENT 15 7 22 26 72 45 46 56
REMARK Flexibility Score: inf
ROOT
ATOM      1  C   UNL A   1      43.307  24.015  28.275  1.00  0.00     0.002 C 
ENDROOT
BRANCH   1   2
ATOM      2  C   UNL A   1      44.716  24.149  28.861  1.00  0.00     0.021 C 
BRANCH   2   3
ATOM      3  C   UNL A   1      45.547  25.263  28.225  1.00  0.00     0.116 C 
BRANCH   3   4
ATOM      4  N   UNL A   1      46.951  24.898  28.199  1.00  0.00    -0.356 N 
ATOM      5  C   UNL A   1      47.811  24.816  27.150  1.00  0.00     0.220 C 
ATOM      6  O   UNL A   1      48.945  24.377  27.349  1.00  0.00    -0.275 OA
ATOM      7  H   UNL A   1      47.340  24.676  29.077  1.00  0.00     0.163 HD
BRANCH   5   8
ATOM      8  C   UNL A   1      47.381  25.233  25.763  1.00  0.00     0.110 C 
BRANCH   8   9
ATOM      9  C   UNL A   1      45.910  24.919  25.520  1.00  0.00     0.110 C 
BRANCH   9  10
ATOM     10  C   UNL A   1      45.685  23.522  25.075  1.00  0.00     0.227 A 
ATOM     11  C   UNL A   1      45.504  21.454  24.800  1.00  0.00     0.226 A 
ATOM     12  N   UNL A   1      44.863  21.963  23.738  1.00  0.00    -0.055 NA
ATOM     13  N   UNL A   1      46.034  22.394  25.651  1.00  0.00    -0.190 NA
ATOM     14  O   UNL A   1      44.982  23.343  23.919  1.00  0.00    -0.339 OA
BRANCH  11  15
ATOM     15  C   UNL A   1      45.703  20.028  25.039  1.00  0.00     0.178 A 
ATOM     16  C   UNL A   1      43.240  19.208  25.457  1.00  0.00     0.073 C 
ATOM     17  C   UNL A   1      44.704  19.072  25.296  1.00  0.00     0.113 A 
ATOM     18  N   UNL A   1      45.275  17.869  25.428  1.00  0.00    -0.054 NA
ATOM     19  O   UNL A   1      46.638  18.094  25.276  1.00  0.00    -0.244 OA
ATOM     20  N   UNL A   1      46.903  19.437  25.027  1.00  0.00    -0.046 NA
ENDBRANCH  11  15
ENDBRANCH   9  10
ENDBRANCH   8   9
ENDBRANCH   5   8
ENDBRANCH   3   4
ENDBRANCH   2   3
ENDBRANCH   1   2
BRANCH   1  21
ATOM     21  C   UNL A   1      42.437  22.928  28.919  1.00  0.00     0.002 C 
BRANCH  21  22
ATOM     22  C   UNL A   1      41.751  21.961  27.948  1.00  0.00     0.021 C 
BRANCH  22  23
ATOM     23  C   UNL A   1      41.721  22.413  26.490  1.00  0.00     0.116 C 
BRANCH  23  24
ATOM     24  N   UNL A   1      40.369  22.475  25.961  1.00  0.00    -0.352 N 
ATOM     25  C   UNL A   1      39.370  23.379  26.210  1.00  0.00     0.251 C 
ATOM     26  H   UNL A   1      40.135  21.759  25.327  1.00  0.00     0.163 HD
ATOM     27  O   UNL A   1      38.230  23.162  25.803  1.00  0.00    -0.269 OA
BRANCH  25  28
ATOM     28  C   UNL A   1      39.646  24.610  26.980  1.00  0.00     0.039 A 
ATOM     29  C   UNL A   1      39.159  24.707  28.287  1.00  0.00     0.014 A 
ATOM     30  C   UNL A   1      40.340  25.682  26.410  1.00  0.00     0.014 A 
ATOM     31  C   UNL A   1      39.414  25.854  29.043  1.00  0.00     0.010 A 
ATOM     32  C   UNL A   1      40.640  26.804  27.181  1.00  0.00     0.010 A 
ATOM     33  C   UNL A   1      40.176  26.902  28.502  1.00  0.00    -0.014 A 
BRANCH  33  34
ATOM     34  C   UNL A   1      40.490  28.111  29.301  1.00  0.00     0.031 A 
ATOM     35  C   UNL A   1      41.793  28.212  30.040  1.00  0.00     0.074 A 
ATOM     36  C   UNL A   1      39.576  29.094  29.409  1.00  0.00     0.049 A 
ATOM     37  N   UNL A   1      42.218  29.154  30.845  1.00  0.00    -0.248 NA
ATOM     38  C   UNL A   1      42.738  27.098  29.867  1.00  0.00     0.031 C 
ATOM     39  C   UNL A   1      38.260  29.099  28.769  1.00  0.00     0.029 A 
ATOM     40  N   UNL A   1      39.613  30.274  30.107  1.00  0.00    -0.354 N 
ATOM     41  C   UNL A   1      43.467  28.739  31.288  1.00  0.00     0.074 A 
ATOM     42  C   UNL A   1      43.719  27.445  30.689  1.00  0.00     0.031 C 
ATOM     43  C   UNL A   1      37.620  30.234  29.093  1.00  0.00     0.029 A 
ATOM     44  C   UNL A   1      38.466  31.019  29.986  1.00  0.00     0.049 A 
ATOM     45  H   UNL A   1      40.387  30.560  30.642  1.00  0.00     0.167 HD
ATOM     46  C   UNL A   1      44.333  29.384  32.104  1.00  0.00     0.037 A 
ATOM     47  C   UNL A   1      38.131  32.200  30.539  1.00  0.00     0.037 A 
ATOM     48  C   UNL A   1      44.095  30.682  32.678  1.00  0.00     0.049 A 
ATOM     49  C   UNL A   1      39.110  32.898  31.441  1.00  0.00     0.074 A 
ATOM     50  C   UNL A   1      44.936  31.443  33.473  1.00  0.00     0.029 A 
ATOM     51  N   UNL A   1      42.928  31.413  32.518  1.00  0.00    -0.354 N 
ATOM     52  N   UNL A   1      40.309  32.517  31.809  1.00  0.00    -0.248 NA
ATOM     53  C   UNL A   1      38.690  34.190  32.001  1.00  0.00     0.031 C 
ATOM     54  C   UNL A   1      44.266  32.621  33.817  1.00  0.00     0.029 A 
ATOM     55  C   UNL A   1      43.020  32.610  33.211  1.00  0.00     0.049 A 
ATOM     56  H   UNL A   1      42.148  31.125  31.990  1.00  0.00     0.167 HD
ATOM     57  C   UNL A   1      40.795  33.531  32.623  1.00  0.00     0.074 A 
ATOM     58  C   UNL A   1      39.765  34.548  32.687  1.00  0.00     0.031 C 
ATOM     59  C   UNL A   1      41.988  33.613  33.259  1.00  0.00     0.037 A 
BRANCH  46  60
ATOM     60  C   UNL A   1      45.622  28.690  32.424  1.00  0.00     0.057 A 
ATOM     61  C   UNL A   1      45.732  27.800  33.500  1.00  0.00     0.134 A 
ATOM     62  C   UNL A   1      46.760  28.894  31.635  1.00  0.00     0.134 A 
ATOM     63  F   UNL A   1      44.681  27.570  34.302  1.00  0.00    -0.206 F 
ATOM     64  C   UNL A   1      46.934  27.155  33.794  1.00  0.00     0.040 A 
ATOM     65  C   UNL A   1      47.963  28.239  31.906  1.00  0.00     0.040 A 
ATOM     66  F   UNL A   1      46.723  29.731  30.586  1.00  0.00    -0.206 F 
ATOM     67  C   UNL A   1      48.053  27.371  32.993  1.00  0.00     0.006 A 
ENDBRANCH  46  60
BRANCH  47  68
ATOM     68  C   UNL A   1      36.816  32.812  30.233  1.00  0.00     0.057 A 
ATOM     69  C   UNL A   1      35.712  32.591  31.063  1.00  0.00     0.134 A 
ATOM     70  C   UNL A   1      36.634  33.631  29.113  1.00  0.00     0.134 A 
ATOM     71  F   UNL A   1      35.824  31.799  32.138  1.00  0.00    -0.206 F 
ATOM     72  C   UNL A   1      34.467  33.156  30.784  1.00  0.00     0.040 A 
ATOM     73  C   UNL A   1      35.399  34.218  28.833  1.00  0.00     0.040 A 
ATOM     74  F   UNL A   1      37.656  33.882  28.283  1.00  0.00    -0.206 F 
ATOM     75  C   UNL A   1      34.309  33.976  29.669  1.00  0.00     0.006 A 
ENDBRANCH  47  68
BRANCH  59  76
ATOM     76  C   UNL A   1      42.255  34.855  34.055  1.00  0.00     0.057 A 
ATOM     77  C   UNL A   1      41.993  34.920  35.429  1.00  0.00     0.134 A 
ATOM     78  C   UNL A   1      42.813  35.985  33.445  1.00  0.00     0.134 A 
ATOM     79  F   UNL A   1      41.447  33.874  36.066  1.00  0.00    -0.206 F 
ATOM     80  C   UNL A   1      42.260  36.074  36.166  1.00  0.00     0.040 A 
ATOM     81  C   UNL A   1      43.103  37.138  34.176  1.00  0.00     0.040 A 
ATOM     82  F   UNL A   1      43.093  35.984  32.133  1.00  0.00    -0.206 F 
ATOM     83  C   UNL A   1      42.823  37.185  35.540  1.00  0.00     0.006 A 
ENDBRANCH  59  76
ENDBRANCH  33  34
ENDBRANCH  25  28
ENDBRANCH  23  24
ENDBRANCH  22  23
ENDBRANCH  21  22
ENDBRANCH   1  21
TORSDOF 16
ENDMDL
