MODEL 1
REMARK VINA RESULT:     -12.1      0.000      0.000
REMARK SMILES O=C1CC[C@@H](CC(=O)N2CCC(Oc3ccccc3)(C(=O)NCCCCCCNC(=O)c3ccc(-c4c5nc(c(-c6c(F)cccc6F)c6ccc([nH]6)c(-c6c(F)cccc6F)c6nc(c(-c7c(F)cccc7F)c7ccc4[nH]7)C=C6)C=C5)cc3)CC2)N1
REMARK SMILES IDX 25 1 24 2 23 3 22 4 20 5 21 6 12 8 7 9 8 10 9 11 10 12 87 13
REMARK SMILES IDX 11 14 86 15 6 16 5 17 1 18 2 19 3 20 88 21 4 22 13 24 14 25
REMARK SMILES IDX 15 26 19 27 16 28 18 29 17 30 26 31 27 32 28 33 29 34 30 35
REMARK SMILES IDX 31 37 32 38 33 39 85 40 34 41 84 42 35 43 36 44 37 45 78 46
REMARK SMILES IDX 38 47 83 48 77 49 79 50 39 51 82 52 76 53 75 54 40 56 66 57
REMARK SMILES IDX 49 58 65 59 50 60 53 61 64 62 80 63 51 64 52 65 63 67 81 68
REMARK SMILES IDX 54 69 41 70 42 71 47 72 43 73 44 74 46 75 48 76 45 77 67 78
REMARK SMILES IDX 68 79 73 80 69 81 70 82 72 83 74 84 71 85 55 86 56 87 61 88
REMARK SMILES IDX 57 89 58 90 60 91 62 92 59 93
REMARK H PARENT 22 7 88 23 29 36 79 55 53 66
REMARK Flexibility Score: inf
ROOT
ATOM      1  C   UNL A   1      32.897  29.739  26.752  1.00  0.00     0.002 C 
ENDROOT
BRANCH   1   2
ATOM      2  C   UNL A   1      33.661  29.196  25.538  1.00  0.00     0.021 C 
BRANCH   2   3
ATOM      3  C   UNL A   1      32.890  29.331  24.229  1.00  0.00     0.116 C 
BRANCH   3   4
ATOM      4  N   UNL A   1      33.360  28.343  23.292  1.00  0.00    -0.353 N 
ATOM      5  C   UNL A   1      32.724  27.269  22.766  1.00  0.00     0.264 C 
ATOM      6  O   UNL A   1      33.397  26.596  21.978  1.00  0.00    -0.270 OA
ATOM      7  H   UNL A   1      34.287  28.467  22.987  1.00  0.00     0.163 HD
BRANCH   5   8
ATOM      8  C   UNL A   1      31.241  26.943  23.110  1.00  0.00     0.190 C 
ATOM      9  C   UNL A   1      30.757  23.899  25.919  1.00  0.00     0.224 C 
ATOM     10  O   UNL A   1      30.012  24.301  26.825  1.00  0.00    -0.275 OA
ATOM     11  N   UNL A   1      31.405  24.816  25.116  1.00  0.00    -0.342 N 
ATOM     12  C   UNL A   1      31.557  26.204  25.548  1.00  0.00     0.124 C 
ATOM     13  C   UNL A   1      31.800  24.583  23.749  1.00  0.00     0.124 C 
ATOM     14  C   UNL A   1      30.866  27.171  24.593  1.00  0.00     0.080 C 
ATOM     15  C   UNL A   1      31.021  25.462  22.775  1.00  0.00     0.080 C 
BRANCH   9  16
ATOM     16  C   UNL A   1      31.097  22.396  25.907  1.00  0.00     0.125 C 
BRANCH  16  17
ATOM     17  C   UNL A   1      32.458  21.717  26.076  1.00  0.00     0.091 C 
ATOM     18  O   UNL A   1      35.462  21.745  24.253  1.00  0.00    -0.275 OA
ATOM     19  C   UNL A   1      34.592  21.833  25.107  1.00  0.00     0.220 C 
ATOM     20  C   UNL A   1      34.788  22.297  26.529  1.00  0.00     0.102 C 
ATOM     21  N   UNL A   1      33.257  21.572  24.897  1.00  0.00    -0.353 N 
ATOM     22  C   UNL A   1      33.382  22.325  27.134  1.00  0.00     0.035 C 
ATOM     23  H   UNL A   1      32.888  21.310  24.022  1.00  0.00     0.163 HD
ENDBRANCH  16  17
ENDBRANCH   9  16
BRANCH   8  24
ATOM     24  O   UNL A   1      30.562  27.824  22.178  1.00  0.00    -0.477 OA
BRANCH  24  25
ATOM     25  C   UNL A   1      29.609  28.667  22.663  1.00  0.00     0.120 A 
ATOM     26  C   UNL A   1      28.299  28.203  22.750  1.00  0.00     0.046 A 
ATOM     27  C   UNL A   1      29.895  30.008  22.909  1.00  0.00     0.046 A 
ATOM     28  C   UNL A   1      27.284  29.067  23.162  1.00  0.00     0.004 A 
ATOM     29  C   UNL A   1      28.886  30.867  23.341  1.00  0.00     0.004 A 
ATOM     30  C   UNL A   1      27.580  30.395  23.472  1.00  0.00     0.000 A 
ENDBRANCH  24  25
ENDBRANCH   8  24
ENDBRANCH   5   8
ENDBRANCH   3   4
ENDBRANCH   2   3
ENDBRANCH   1   2
BRANCH   1  31
ATOM     31  C   UNL A   1      31.513  30.314  26.432  1.00  0.00     0.002 C 
BRANCH  31  32
ATOM     32  C   UNL A   1      31.401  31.829  26.604  1.00  0.00     0.021 C 
BRANCH  32  33
ATOM     33  C   UNL A   1      32.722  32.512  26.924  1.00  0.00     0.116 C 
BRANCH  33  34
ATOM     34  N   UNL A   1      32.524  33.874  27.386  1.00  0.00    -0.352 N 
ATOM     35  C   UNL A   1      33.112  34.512  28.448  1.00  0.00     0.251 C 
ATOM     36  H   UNL A   1      31.881  34.410  26.869  1.00  0.00     0.163 HD
ATOM     37  O   UNL A   1      32.678  35.587  28.846  1.00  0.00    -0.269 OA
BRANCH  35  38
ATOM     38  C   UNL A   1      34.264  33.880  29.119  1.00  0.00     0.039 A 
ATOM     39  C   UNL A   1      34.028  32.938  30.122  1.00  0.00     0.014 A 
ATOM     40  C   UNL A   1      35.573  34.207  28.748  1.00  0.00     0.014 A 
ATOM     41  C   UNL A   1      35.107  32.286  30.720  1.00  0.00     0.010 A 
ATOM     42  C   UNL A   1      36.640  33.498  29.285  1.00  0.00     0.010 A 
ATOM     43  C   UNL A   1      36.419  32.538  30.285  1.00  0.00    -0.014 A 
BRANCH  43  44
ATOM     44  C   UNL A   1      37.573  31.811  30.868  1.00  0.00     0.031 A 
ATOM     45  C   UNL A   1      38.060  32.152  32.248  1.00  0.00     0.074 A 
ATOM     46  C   UNL A   1      38.215  30.885  30.132  1.00  0.00     0.049 A 
ATOM     47  N   UNL A   1      39.080  31.665  32.909  1.00  0.00    -0.248 NA
ATOM     48  C   UNL A   1      37.322  33.200  32.971  1.00  0.00     0.031 C 
ATOM     49  C   UNL A   1      37.866  30.498  28.764  1.00  0.00     0.029 A 
ATOM     50  N   UNL A   1      39.303  30.103  30.430  1.00  0.00    -0.354 N 
ATOM     51  C   UNL A   1      39.112  32.353  34.114  1.00  0.00     0.074 A 
ATOM     52  C   UNL A   1      38.049  33.333  34.071  1.00  0.00     0.031 C 
ATOM     53  C   UNL A   1      38.703  29.533  28.353  1.00  0.00     0.029 A 
ATOM     54  C   UNL A   1      39.673  29.262  29.409  1.00  0.00     0.049 A 
ATOM     55  H   UNL A   1      39.774  30.142  31.294  1.00  0.00     0.167 HD
ATOM     56  C   UNL A   1      39.937  32.169  35.173  1.00  0.00     0.037 A 
ATOM     57  C   UNL A   1      40.684  28.376  29.332  1.00  0.00     0.037 A 
ATOM     58  C   UNL A   1      40.983  31.182  35.216  1.00  0.00     0.049 A 
ATOM     59  C   UNL A   1      41.600  28.204  30.512  1.00  0.00     0.074 A 
ATOM     60  C   UNL A   1      41.836  30.874  36.263  1.00  0.00     0.029 A 
ATOM     61  N   UNL A   1      41.327  30.346  34.164  1.00  0.00    -0.354 N 
ATOM     62  N   UNL A   1      41.574  28.810  31.675  1.00  0.00    -0.248 NA
ATOM     63  C   UNL A   1      42.683  27.221  30.370  1.00  0.00     0.031 C 
ATOM     64  C   UNL A   1      42.730  29.894  35.824  1.00  0.00     0.029 A 
ATOM     65  C   UNL A   1      42.397  29.545  34.524  1.00  0.00     0.049 A 
ATOM     66  H   UNL A   1      40.875  30.326  33.289  1.00  0.00     0.167 HD
ATOM     67  C   UNL A   1      42.615  28.262  32.413  1.00  0.00     0.074 A 
ATOM     68  C   UNL A   1      43.244  27.265  31.570  1.00  0.00     0.031 C 
ATOM     69  C   UNL A   1      43.012  28.555  33.675  1.00  0.00     0.037 A 
BRANCH  56  70
ATOM     70  C   UNL A   1      39.742  33.062  36.365  1.00  0.00     0.057 A 
ATOM     71  C   UNL A   1      38.856  32.735  37.401  1.00  0.00     0.134 A 
ATOM     72  C   UNL A   1      40.465  34.255  36.490  1.00  0.00     0.134 A 
ATOM     73  F   UNL A   1      38.123  31.613  37.340  1.00  0.00    -0.206 F 
ATOM     74  C   UNL A   1      38.671  33.578  38.499  1.00  0.00     0.040 A 
ATOM     75  C   UNL A   1      40.312  35.090  37.599  1.00  0.00     0.040 A 
ATOM     76  F   UNL A   1      41.336  34.628  35.540  1.00  0.00    -0.206 F 
ATOM     77  C   UNL A   1      39.406  34.757  38.602  1.00  0.00     0.006 A 
ENDBRANCH  56  70
BRANCH  57  78
ATOM     78  C   UNL A   1      40.867  27.567  28.101  1.00  0.00     0.057 A 
ATOM     79  C   UNL A   1      41.670  28.025  27.051  1.00  0.00     0.134 A 
ATOM     80  C   UNL A   1      40.248  26.320  27.943  1.00  0.00     0.134 A 
ATOM     81  F   UNL A   1      42.275  29.219  27.134  1.00  0.00    -0.206 F 
ATOM     82  C   UNL A   1      41.839  27.282  25.880  1.00  0.00     0.040 A 
ATOM     83  C   UNL A   1      40.429  25.555  26.790  1.00  0.00     0.040 A 
ATOM     84  F   UNL A   1      39.474  25.821  28.917  1.00  0.00    -0.206 F 
ATOM     85  C   UNL A   1      41.220  26.040  25.751  1.00  0.00     0.006 A 
ENDBRANCH  57  78
BRANCH  69  86
ATOM     86  C   UNL A   1      44.158  27.764  34.237  1.00  0.00     0.057 A 
ATOM     87  C   UNL A   1      45.479  28.227  34.181  1.00  0.00     0.134 A 
ATOM     88  C   UNL A   1      43.930  26.539  34.879  1.00  0.00     0.134 A 
ATOM     89  F   UNL A   1      45.769  29.386  33.568  1.00  0.00    -0.206 F 
ATOM     90  C   UNL A   1      46.534  27.488  34.719  1.00  0.00     0.040 A 
ATOM     91  C   UNL A   1      44.973  25.807  35.448  1.00  0.00     0.040 A 
ATOM     92  F   UNL A   1      42.688  26.043  34.977  1.00  0.00    -0.206 F 
ATOM     93  C   UNL A   1      46.281  26.278  35.362  1.00  0.00     0.006 A 
ENDBRANCH  69  86
ENDBRANCH  43  44
ENDBRANCH  35  38
ENDBRANCH  33  34
ENDBRANCH  32  33
ENDBRANCH  31  32
ENDBRANCH   1  31
TORSDOF 17
ENDMDL
MODEL 2
REMARK VINA RESULT:     -12.0      2.060      4.895
REMARK SMILES O=C1CC[C@@H](CC(=O)N2CCC(Oc3ccccc3)(C(=O)NCCCCCCNC(=O)c3ccc(-c4c5nc(c(-c6c(F)cccc6F)c6ccc([nH]6)c(-c6c(F)cccc6F)c6nc(c(-c7c(F)cccc7F)c7ccc4[nH]7)C=C6)C=C5)cc3)CC2)N1
REMARK SMILES IDX 25 1 24 2 23 3 22 4 20 5 21 6 12 8 7 9 8 10 9 11 10 12 87 13
REMARK SMILES IDX 11 14 86 15 6 16 5 17 1 18 2 19 3 20 88 21 4 22 13 24 14 25
REMARK SMILES IDX 15 26 19 27 16 28 18 29 17 30 26 31 27 32 28 33 29 34 30 35
REMARK SMILES IDX 31 37 32 38 33 39 85 40 34 41 84 42 35 43 36 44 37 45 78 46
REMARK SMILES IDX 38 47 83 48 77 49 79 50 39 51 82 52 76 53 75 54 40 56 66 57
REMARK SMILES IDX 49 58 65 59 50 60 53 61 64 62 80 63 51 64 52 65 63 67 81 68
REMARK SMILES IDX 54 69 41 70 42 71 47 72 43 73 44 74 46 75 48 76 45 77 67 78
REMARK SMILES IDX 68 79 73 80 69 81 70 82 72 83 74 84 71 85 55 86 56 87 61 88
REMARK SMILES IDX 57 89 58 90 60 91 62 92 59 93
REMARK H PARENT 22 7 88 23 29 36 79 55 53 66
REMARK Flexibility Score: inf
ROOT
ATOM      1  C   UNL A   1      34.043  31.778  28.019  1.00  0.00     0.002 C 
ENDROOT
BRANCH   1   2
ATOM      2  C   UNL A   1      35.227  30.806  27.934  1.00  0.00     0.021 C 
BRANCH   2   3
ATOM      3  C   UNL A   1      34.882  29.493  27.241  1.00  0.00     0.116 C 
BRANCH   3   4
ATOM      4  N   UNL A   1      33.667  28.959  27.802  1.00  0.00    -0.353 N 
ATOM      5  C   UNL A   1      32.776  28.085  27.278  1.00  0.00     0.264 C 
ATOM      6  O   UNL A   1      31.816  27.813  28.009  1.00  0.00    -0.270 OA
ATOM      7  H   UNL A   1      33.451  29.280  28.707  1.00  0.00     0.163 HD
BRANCH   5   8
ATOM      8  C   UNL A   1      32.979  27.447  25.872  1.00  0.00     0.190 C 
ATOM      9  C   UNL A   1      30.567  29.071  22.883  1.00  0.00     0.224 C 
ATOM     10  O   UNL A   1      31.279  29.399  21.923  1.00  0.00    -0.275 OA
ATOM     11  N   UNL A   1      31.137  28.912  24.130  1.00  0.00    -0.342 N 
ATOM     12  C   UNL A   1      32.441  29.501  24.429  1.00  0.00     0.124 C 
ATOM     13  C   UNL A   1      30.647  28.028  25.157  1.00  0.00     0.124 C 
ATOM     14  C   UNL A   1      33.471  28.437  24.789  1.00  0.00     0.080 C 
ATOM     15  C   UNL A   1      31.620  26.886  25.436  1.00  0.00     0.080 C 
BRANCH   9  16
ATOM     16  C   UNL A   1      29.041  29.095  22.663  1.00  0.00     0.125 C 
BRANCH  16  17
ATOM     17  C   UNL A   1      28.133  30.290  22.363  1.00  0.00     0.091 C 
ATOM     18  O   UNL A   1      28.432  33.768  22.766  1.00  0.00    -0.275 OA
ATOM     19  C   UNL A   1      28.288  32.632  22.340  1.00  0.00     0.220 C 
ATOM     20  C   UNL A   1      28.046  32.246  20.902  1.00  0.00     0.102 C 
ATOM     21  N   UNL A   1      28.380  31.490  23.104  1.00  0.00    -0.353 N 
ATOM     22  C   UNL A   1      28.050  30.715  20.895  1.00  0.00     0.035 C 
ATOM     23  H   UNL A   1      28.593  31.498  24.066  1.00  0.00     0.163 HD
ENDBRANCH  16  17
ENDBRANCH   9  16
BRANCH   8  24
ATOM     24  O   UNL A   1      33.927  26.398  26.201  1.00  0.00    -0.477 OA
BRANCH  24  25
ATOM     25  C   UNL A   1      33.844  25.218  25.528  1.00  0.00     0.120 A 
ATOM     26  C   UNL A   1      33.335  24.109  26.200  1.00  0.00     0.046 A 
ATOM     27  C   UNL A   1      34.405  25.073  24.261  1.00  0.00     0.046 A 
ATOM     28  C   UNL A   1      33.315  22.865  25.568  1.00  0.00     0.004 A 
ATOM     29  C   UNL A   1      34.366  23.836  23.621  1.00  0.00     0.004 A 
ATOM     30  C   UNL A   1      33.816  22.733  24.272  1.00  0.00     0.000 A 
ENDBRANCH  24  25
ENDBRANCH   8  24
ENDBRANCH   5   8
ENDBRANCH   3   4
ENDBRANCH   2   3
ENDBRANCH   1   2
BRANCH   1  31
ATOM     31  C   UNL A   1      34.383  33.148  28.616  1.00  0.00     0.002 C 
BRANCH  31  32
ATOM     32  C   UNL A   1      33.253  34.175  28.528  1.00  0.00     0.021 C 
BRANCH  32  33
ATOM     33  C   UNL A   1      33.625  35.549  29.066  1.00  0.00     0.116 C 
BRANCH  33  34
ATOM     34  N   UNL A   1      32.765  35.946  30.165  1.00  0.00    -0.352 N 
ATOM     35  C   UNL A   1      32.829  35.569  31.482  1.00  0.00     0.251 C 
ATOM     36  H   UNL A   1      32.037  36.568  29.934  1.00  0.00     0.163 HD
ATOM     37  O   UNL A   1      31.901  35.812  32.245  1.00  0.00    -0.269 OA
BRANCH  35  38
ATOM     38  C   UNL A   1      34.023  34.850  31.967  1.00  0.00     0.039 A 
ATOM     39  C   UNL A   1      33.903  33.506  32.324  1.00  0.00     0.014 A 
ATOM     40  C   UNL A   1      35.259  35.500  32.055  1.00  0.00     0.014 A 
ATOM     41  C   UNL A   1      35.037  32.798  32.724  1.00  0.00     0.010 A 
ATOM     42  C   UNL A   1      36.399  34.773  32.373  1.00  0.00     0.010 A 
ATOM     43  C   UNL A   1      36.298  33.417  32.722  1.00  0.00    -0.014 A 
BRANCH  43  44
ATOM     44  C   UNL A   1      37.523  32.663  33.086  1.00  0.00     0.031 A 
ATOM     45  C   UNL A   1      38.241  32.968  34.371  1.00  0.00     0.074 A 
ATOM     46  C   UNL A   1      38.018  31.747  32.234  1.00  0.00     0.049 A 
ATOM     47  N   UNL A   1      39.350  32.453  34.840  1.00  0.00    -0.248 NA
ATOM     48  C   UNL A   1      37.652  34.008  35.230  1.00  0.00     0.031 C 
ATOM     49  C   UNL A   1      37.436  31.395  30.936  1.00  0.00     0.029 A 
ATOM     50  N   UNL A   1      39.127  30.946  32.328  1.00  0.00    -0.354 N 
ATOM     51  C   UNL A   1      39.596  33.114  36.036  1.00  0.00     0.074 A 
ATOM     52  C   UNL A   1      38.556  34.107  36.193  1.00  0.00     0.031 C 
ATOM     53  C   UNL A   1      38.177  30.430  30.371  1.00  0.00     0.029 A 
ATOM     54  C   UNL A   1      39.307  30.124  31.242  1.00  0.00     0.049 A 
ATOM     55  H   UNL A   1      39.738  30.960  33.100  1.00  0.00     0.167 HD
ATOM     56  C   UNL A   1      40.584  32.896  36.936  1.00  0.00     0.037 A 
ATOM     57  C   UNL A   1      40.277  29.228  30.977  1.00  0.00     0.037 A 
ATOM     58  C   UNL A   1      41.608  31.896  36.782  1.00  0.00     0.049 A 
ATOM     59  C   UNL A   1      41.376  29.019  31.981  1.00  0.00     0.074 A 
ATOM     60  C   UNL A   1      42.620  31.554  37.663  1.00  0.00     0.029 A 
ATOM     61  N   UNL A   1      41.756  31.081  35.670  1.00  0.00    -0.354 N 
ATOM     62  N   UNL A   1      41.556  29.598  33.144  1.00  0.00    -0.248 NA
ATOM     63  C   UNL A   1      42.404  28.027  31.638  1.00  0.00     0.031 C 
ATOM     64  C   UNL A   1      43.413  30.574  37.060  1.00  0.00     0.029 A 
ATOM     65  C   UNL A   1      42.859  30.259  35.828  1.00  0.00     0.049 A 
ATOM     66  H   UNL A   1      41.163  31.086  34.884  1.00  0.00     0.167 HD
ATOM     67  C   UNL A   1      42.698  29.021  33.685  1.00  0.00     0.074 A 
ATOM     68  C   UNL A   1      43.160  28.037  32.727  1.00  0.00     0.031 C 
ATOM     69  C   UNL A   1      43.307  29.282  34.867  1.00  0.00     0.037 A 
BRANCH  56  70
ATOM     70  C   UNL A   1      40.607  33.764  38.162  1.00  0.00     0.057 A 
ATOM     71  C   UNL A   1      41.392  34.924  38.236  1.00  0.00     0.134 A 
ATOM     72  C   UNL A   1      39.821  33.448  39.277  1.00  0.00     0.134 A 
ATOM     73  F   UNL A   1      42.179  35.280  37.209  1.00  0.00    -0.206 F 
ATOM     74  C   UNL A   1      41.418  35.717  39.385  1.00  0.00     0.040 A 
ATOM     75  C   UNL A   1      39.814  34.251  40.419  1.00  0.00     0.040 A 
ATOM     76  F   UNL A   1      39.040  32.357  39.273  1.00  0.00    -0.206 F 
ATOM     77  C   UNL A   1      40.621  35.384  40.479  1.00  0.00     0.006 A 
ENDBRANCH  56  70
BRANCH  57  78
ATOM     78  C   UNL A   1      40.237  28.445  29.717  1.00  0.00     0.057 A 
ATOM     79  C   UNL A   1      39.479  27.272  29.621  1.00  0.00     0.134 A 
ATOM     80  C   UNL A   1      40.951  28.846  28.581  1.00  0.00     0.134 A 
ATOM     81  F   UNL A   1      38.788  26.826  30.681  1.00  0.00    -0.206 F 
ATOM     82  C   UNL A   1      39.446  26.516  28.448  1.00  0.00     0.040 A 
ATOM     83  C   UNL A   1      40.905  28.114  27.393  1.00  0.00     0.040 A 
ATOM     84  F   UNL A   1      41.689  29.965  28.605  1.00  0.00    -0.206 F 
ATOM     85  C   UNL A   1      40.157  26.941  27.327  1.00  0.00     0.006 A 
ENDBRANCH  57  78
BRANCH  69  86
ATOM     86  C   UNL A   1      44.519  28.465  35.211  1.00  0.00     0.057 A 
ATOM     87  C   UNL A   1      45.816  28.885  34.887  1.00  0.00     0.134 A 
ATOM     88  C   UNL A   1      44.388  27.258  35.912  1.00  0.00     0.134 A 
ATOM     89  F   UNL A   1      46.010  30.024  34.204  1.00  0.00    -0.206 F 
ATOM     90  C   UNL A   1      46.935  28.122  35.224  1.00  0.00     0.040 A 
ATOM     91  C   UNL A   1      45.502  26.503  36.282  1.00  0.00     0.040 A 
ATOM     92  F   UNL A   1      43.177  26.802  36.263  1.00  0.00    -0.206 F 
ATOM     93  C   UNL A   1      46.780  26.932  35.931  1.00  0.00     0.006 A 
ENDBRANCH  69  86
ENDBRANCH  43  44
ENDBRANCH  35  38
ENDBRANCH  33  34
ENDBRANCH  32  33
ENDBRANCH  31  32
ENDBRANCH   1  31
TORSDOF 17
ENDMDL
MODEL 3
REMARK VINA RESULT:     -11.8      4.934      9.910
REMARK SMILES O=C1CC[C@@H](CC(=O)N2CCC(Oc3ccccc3)(C(=O)NCCCCCCNC(=O)c3ccc(-c4c5nc(c(-c6c(F)cccc6F)c6ccc([nH]6)c(-c6c(F)cccc6F)c6nc(c(-c7c(F)cccc7F)c7ccc4[nH]7)C=C6)C=C5)cc3)CC2)N1
REMARK SMILES IDX 25 1 24 2 23 3 22 4 20 5 21 6 12 8 7 9 8 10 9 11 10 12 87 13
REMARK SMILES IDX 11 14 86 15 6 16 5 17 1 18 2 19 3 20 88 21 4 22 13 24 14 25
REMARK SMILES IDX 15 26 19 27 16 28 18 29 17 30 26 31 27 32 28 33 29 34 30 35
REMARK SMILES IDX 31 37 32 38 33 39 85 40 34 41 84 42 35 43 36 44 37 45 78 46
REMARK SMILES IDX 38 47 83 48 77 49 79 50 39 51 82 52 76 53 75 54 40 56 66 57
REMARK SMILES IDX 49 58 65 59 50 60 53 61 64 62 80 63 51 64 52 65 63 67 81 68
REMARK SMILES IDX 54 69 41 70 42 71 47 72 43 73 44 74 46 75 48 76 45 77 67 78
REMARK SMILES IDX 68 79 73 80 69 81 70 82 72 83 74 84 71 85 55 86 56 87 61 88
REMARK SMILES IDX 57 89 58 90 60 91 62 92 59 93
REMARK H PARENT 22 7 88 23 29 36 79 55 53 66
REMARK Flexibility Score: inf
ROOT
ATOM      1  C   UNL A   1      38.013  22.889  26.058  1.00  0.00     0.002 C 
ENDROOT
BRANCH   1   2
ATOM      2  C   UNL A   1      37.231  22.270  24.893  1.00  0.00     0.021 C 
BRANCH   2   3
ATOM      3  C   UNL A   1      36.311  21.132  25.319  1.00  0.00     0.116 C 
BRANCH   3   4
ATOM      4  N   UNL A   1      35.563  21.531  26.483  1.00  0.00    -0.353 N 
ATOM      5  C   UNL A   1      34.226  21.660  26.658  1.00  0.00     0.264 C 
ATOM      6  O   UNL A   1      33.879  22.027  27.787  1.00  0.00    -0.270 OA
ATOM      7  H   UNL A   1      36.108  21.743  27.275  1.00  0.00     0.163 HD
BRANCH   5   8
ATOM      8  C   UNL A   1      33.213  21.330  25.523  1.00  0.00     0.190 C 
ATOM      9  C   UNL A   1      31.929  24.645  23.345  1.00  0.00     0.224 C 
ATOM     10  O   UNL A   1      32.088  24.421  22.137  1.00  0.00    -0.275 OA
ATOM     11  N   UNL A   1      32.645  23.915  24.272  1.00  0.00    -0.342 N 
ATOM     12  C   UNL A   1      33.851  23.191  23.875  1.00  0.00     0.124 C 
ATOM     13  C   UNL A   1      32.205  23.623  25.613  1.00  0.00     0.124 C 
ATOM     14  C   UNL A   1      33.708  21.690  24.103  1.00  0.00     0.080 C 
ATOM     15  C   UNL A   1      31.940  22.134  25.813  1.00  0.00     0.080 C 
BRANCH   9  16
ATOM     16  C   UNL A   1      31.114  25.898  23.723  1.00  0.00     0.125 C 
BRANCH  16  17
ATOM     17  C   UNL A   1      31.392  27.364  23.383  1.00  0.00     0.091 C 
ATOM     18  O   UNL A   1      29.762  29.785  21.426  1.00  0.00    -0.275 OA
ATOM     19  C   UNL A   1      30.289  29.144  22.323  1.00  0.00     0.220 C 
ATOM     20  C   UNL A   1      30.433  29.580  23.759  1.00  0.00     0.102 C 
ATOM     21  N   UNL A   1      30.797  27.872  22.184  1.00  0.00    -0.353 N 
ATOM     22  C   UNL A   1      31.056  28.379  24.478  1.00  0.00     0.035 C 
ATOM     23  H   UNL A   1      30.756  27.362  21.342  1.00  0.00     0.163 HD
ENDBRANCH  16  17
ENDBRANCH   9  16
BRANCH   8  24
ATOM     24  O   UNL A   1      33.029  19.908  25.751  1.00  0.00    -0.477 OA
BRANCH  24  25
ATOM     25  C   UNL A   1      33.243  19.054  24.712  1.00  0.00     0.120 A 
ATOM     26  C   UNL A   1      32.283  18.986  23.705  1.00  0.00     0.046 A 
ATOM     27  C   UNL A   1      34.303  18.150  24.732  1.00  0.00     0.046 A 
ATOM     28  C   UNL A   1      32.430  18.062  22.670  1.00  0.00     0.004 A 
ATOM     29  C   UNL A   1      34.461  17.241  23.689  1.00  0.00     0.004 A 
ATOM     30  C   UNL A   1      33.527  17.199  22.654  1.00  0.00     0.000 A 
ENDBRANCH  24  25
ENDBRANCH   8  24
ENDBRANCH   5   8
ENDBRANCH   3   4
ENDBRANCH   2   3
ENDBRANCH   1   2
BRANCH   1  31
ATOM     31  C   UNL A   1      39.475  22.441  26.157  1.00  0.00     0.002 C 
BRANCH  31  32
ATOM     32  C   UNL A   1      39.667  21.017  26.682  1.00  0.00     0.021 C 
BRANCH  32  33
ATOM     33  C   UNL A   1      39.791  19.968  25.588  1.00  0.00     0.116 C 
BRANCH  33  34
ATOM     34  N   UNL A   1      40.737  18.928  25.947  1.00  0.00    -0.352 N 
ATOM     35  C   UNL A   1      42.062  19.054  26.278  1.00  0.00     0.251 C 
ATOM     36  H   UNL A   1      40.382  18.010  25.952  1.00  0.00     0.163 HD
ATOM     37  O   UNL A   1      42.785  18.066  26.340  1.00  0.00    -0.269 OA
BRANCH  35  38
ATOM     38  C   UNL A   1      42.613  20.397  26.543  1.00  0.00     0.039 A 
ATOM     39  C   UNL A   1      43.089  21.155  25.472  1.00  0.00     0.014 A 
ATOM     40  C   UNL A   1      42.647  20.910  27.844  1.00  0.00     0.014 A 
ATOM     41  C   UNL A   1      43.553  22.451  25.700  1.00  0.00     0.010 A 
ATOM     42  C   UNL A   1      43.032  22.227  28.057  1.00  0.00     0.010 A 
ATOM     43  C   UNL A   1      43.500  23.008  26.988  1.00  0.00    -0.014 A 
BRANCH  43  44
ATOM     44  C   UNL A   1      43.934  24.404  27.239  1.00  0.00     0.031 A 
ATOM     45  C   UNL A   1      42.930  25.444  27.651  1.00  0.00     0.074 A 
ATOM     46  C   UNL A   1      45.220  24.746  27.039  1.00  0.00     0.049 A 
ATOM     47  N   UNL A   1      43.105  26.723  27.868  1.00  0.00    -0.248 NA
ATOM     48  C   UNL A   1      41.538  24.993  27.815  1.00  0.00     0.031 C 
ATOM     49  C   UNL A   1      46.280  23.838  26.595  1.00  0.00     0.029 A 
ATOM     50  N   UNL A   1      45.856  25.954  27.178  1.00  0.00    -0.354 N 
ATOM     51  C   UNL A   1      41.850  27.228  28.179  1.00  0.00     0.074 A 
ATOM     52  C   UNL A   1      40.912  26.133  28.065  1.00  0.00     0.031 C 
ATOM     53  C   UNL A   1      47.437  24.513  26.527  1.00  0.00     0.029 A 
ATOM     54  C   UNL A   1      47.196  25.908  26.880  1.00  0.00     0.049 A 
ATOM     55  H   UNL A   1      45.395  26.776  27.463  1.00  0.00     0.167 HD
ATOM     56  C   UNL A   1      41.512  28.486  28.551  1.00  0.00     0.037 A 
ATOM     57  C   UNL A   1      48.125  26.884  26.887  1.00  0.00     0.037 A 
ATOM     58  C   UNL A   1      42.452  29.568  28.678  1.00  0.00     0.049 A 
ATOM     59  C   UNL A   1      47.721  28.277  27.282  1.00  0.00     0.074 A 
ATOM     60  C   UNL A   1      42.223  30.865  29.105  1.00  0.00     0.029 A 
ATOM     61  N   UNL A   1      43.802  29.483  28.370  1.00  0.00    -0.354 N 
ATOM     62  N   UNL A   1      46.544  28.727  27.646  1.00  0.00    -0.248 NA
ATOM     63  C   UNL A   1      48.778  29.298  27.273  1.00  0.00     0.031 C 
ATOM     64  C   UNL A   1      43.420  31.579  29.001  1.00  0.00     0.029 A 
ATOM     65  C   UNL A   1      44.412  30.711  28.568  1.00  0.00     0.049 A 
ATOM     66  H   UNL A   1      44.260  28.670  28.057  1.00  0.00     0.167 HD
ATOM     67  C   UNL A   1      46.724  30.073  27.938  1.00  0.00     0.074 A 
ATOM     68  C   UNL A   1      48.127  30.362  27.721  1.00  0.00     0.031 C 
ATOM     69  C   UNL A   1      45.810  30.985  28.350  1.00  0.00     0.037 A 
BRANCH  56  70
ATOM     70  C   UNL A   1      40.063  28.757  28.838  1.00  0.00     0.057 A 
ATOM     71  C   UNL A   1      39.519  28.604  30.121  1.00  0.00     0.134 A 
ATOM     72  C   UNL A   1      39.203  29.196  27.823  1.00  0.00     0.134 A 
ATOM     73  F   UNL A   1      40.283  28.175  31.137  1.00  0.00    -0.206 F 
ATOM     74  C   UNL A   1      38.167  28.845  30.376  1.00  0.00     0.040 A 
ATOM     75  C   UNL A   1      37.857  29.471  28.073  1.00  0.00     0.040 A 
ATOM     76  F   UNL A   1      39.657  29.371  26.573  1.00  0.00    -0.206 F 
ATOM     77  C   UNL A   1      37.333  29.286  29.350  1.00  0.00     0.006 A 
ENDBRANCH  56  70
BRANCH  57  78
ATOM     78  C   UNL A   1      49.531  26.570  26.530  1.00  0.00     0.057 A 
ATOM     79  C   UNL A   1      50.434  26.112  27.496  1.00  0.00     0.134 A 
ATOM     80  C   UNL A   1      50.006  26.717  25.221  1.00  0.00     0.134 A 
ATOM     81  F   UNL A   1      50.044  25.968  28.771  1.00  0.00    -0.206 F 
ATOM     82  C   UNL A   1      51.764  25.829  27.179  1.00  0.00     0.040 A 
ATOM     83  C   UNL A   1      51.326  26.412  24.884  1.00  0.00     0.040 A 
ATOM     84  F   UNL A   1      49.189  27.142  24.247  1.00  0.00    -0.206 F 
ATOM     85  C   UNL A   1      52.211  25.974  25.866  1.00  0.00     0.006 A 
ENDBRANCH  57  78
BRANCH  69  86
ATOM     86  C   UNL A   1      46.305  32.375  28.630  1.00  0.00     0.057 A 
ATOM     87  C   UNL A   1      46.791  32.752  29.889  1.00  0.00     0.134 A 
ATOM     88  C   UNL A   1      46.331  33.339  27.613  1.00  0.00     0.134 A 
ATOM     89  F   UNL A   1      46.781  31.880  30.910  1.00  0.00    -0.206 F 
ATOM     90  C   UNL A   1      47.260  34.043  30.133  1.00  0.00     0.040 A 
ATOM     91  C   UNL A   1      46.827  34.625  27.838  1.00  0.00     0.040 A 
ATOM     92  F   UNL A   1      45.890  33.043  26.382  1.00  0.00    -0.206 F 
ATOM     93  C   UNL A   1      47.287  34.981  29.103  1.00  0.00     0.006 A 
ENDBRANCH  69  86
ENDBRANCH  43  44
ENDBRANCH  35  38
ENDBRANCH  33  34
ENDBRANCH  32  33
ENDBRANCH  31  32
ENDBRANCH   1  31
TORSDOF 17
ENDMDL
