MODEL 1
REMARK VINA RESULT:     -10.9      0.000      0.000
REMARK SMILES CCC[NH+]1CCN(c2ccc(C(=O)NCCCCCCNC(=O)c3ccc(-c4c5nc(c(-c6c(F)cccc6F)c6ccc([nH]6)c(-c6c(F)cccc6F)c6nc(c(-c7c(F)cccc7F)c7ccc4[nH]7)C=C6)C=C5)cc3)cc2NS(=O)(=O)CC)CC1
REMARK SMILES IDX 17 1 16 2 15 3 14 4 12 5 13 6 11 8 8 9 9 10 79 11 10 12
REMARK SMILES IDX 78 13 7 14 4 15 5 16 87 17 6 19 86 20 3 21 2 22 1 23 80 24
REMARK SMILES IDX 81 26 82 27 83 28 84 29 85 30 18 31 19 32 20 33 21 34 22 35
REMARK SMILES IDX 23 37 24 38 25 39 77 40 26 41 76 42 27 43 28 44 29 45 70 46
REMARK SMILES IDX 30 47 75 48 69 49 71 50 31 51 74 52 68 53 67 54 32 56 58 57
REMARK SMILES IDX 41 58 57 59 42 60 45 61 56 62 72 63 43 64 44 65 55 67 73 68
REMARK SMILES IDX 46 69 33 70 34 71 39 72 35 73 36 74 38 75 40 76 37 77 59 78
REMARK SMILES IDX 60 79 65 80 61 81 62 82 64 83 66 84 63 85 47 86 48 87 53 88
REMARK SMILES IDX 49 89 50 90 52 91 54 92 51 93
REMARK H PARENT 14 7 4 18 80 25 21 36 71 55 45 66
REMARK Flexibility Score: inf
ROOT
ATOM      1  C   UNL A   1      35.929  21.297  24.750  1.00  0.00     0.002 C 
ENDROOT
BRANCH   1   2
ATOM      2  C   UNL A   1      34.481  21.593  24.377  1.00  0.00     0.021 C 
BRANCH   2   3
ATOM      3  C   UNL A   1      33.683  22.420  25.378  1.00  0.00     0.116 C 
BRANCH   3   4
ATOM      4  N   UNL A   1      32.451  21.844  25.854  1.00  0.00    -0.352 N 
ATOM      5  C   UNL A   1      31.156  22.318  25.763  1.00  0.00     0.251 C 
ATOM      6  O   UNL A   1      30.260  21.624  26.244  1.00  0.00    -0.269 OA
ATOM      7  H   UNL A   1      32.546  20.979  26.315  1.00  0.00     0.163 HD
BRANCH   5   8
ATOM      8  C   UNL A   1      30.800  23.664  25.197  1.00  0.00     0.042 A 
ATOM      9  C   UNL A   1      30.316  26.358  24.408  1.00  0.00     0.062 A 
ATOM     10  C   UNL A   1      30.010  25.929  25.699  1.00  0.00     0.029 A 
ATOM     11  C   UNL A   1      30.901  25.404  23.531  1.00  0.00     0.073 A 
ATOM     12  C   UNL A   1      30.285  24.611  26.099  1.00  0.00     0.016 A 
ATOM     13  C   UNL A   1      30.997  24.054  23.869  1.00  0.00     0.042 A 
BRANCH   9  14
ATOM     14  N   UNL A   1      30.139  27.672  23.991  1.00  0.00    -0.359 N 
ATOM     15  N   UNL A   1      29.822  30.244  22.592  1.00  0.00    -0.332 N 
ATOM     16  C   UNL A   1      31.121  29.801  23.175  1.00  0.00     0.283 C 
ATOM     17  C   UNL A   1      29.026  29.039  22.289  1.00  0.00     0.283 C 
ATOM     18  H   UNL A   1      29.965  30.754  21.721  1.00  0.00     0.348 HD
ATOM     19  C   UNL A   1      31.051  28.769  24.344  1.00  0.00     0.178 C 
ATOM     20  C   UNL A   1      28.811  28.120  23.513  1.00  0.00     0.178 C 
BRANCH  15  21
ATOM     21  C   UNL A   1      29.145  31.206  23.476  1.00  0.00     0.262 C 
BRANCH  21  22
ATOM     22  C   UNL A   1      28.624  32.498  22.815  1.00  0.00     0.058 C 
ATOM     23  C   UNL A   1      29.250  33.798  23.310  1.00  0.00     0.010 C 
ENDBRANCH  21  22
ENDBRANCH  15  21
ENDBRANCH   9  14
BRANCH  11  24
ATOM     24  N   UNL A   1      31.595  25.986  22.429  1.00  0.00    -0.281 N 
ATOM     25  H   UNL A   1      31.061  26.631  21.912  1.00  0.00     0.180 HD
BRANCH  24  26
ATOM     26  S   UNL A   1      33.117  25.777  21.869  1.00  0.00     0.232 S 
ATOM     27  O   UNL A   1      33.141  24.660  20.956  1.00  0.00    -0.207 OA
ATOM     28  O   UNL A   1      33.539  27.100  21.445  1.00  0.00    -0.207 OA
BRANCH  26  29
ATOM     29  C   UNL A   1      34.104  25.365  23.299  1.00  0.00     0.156 C 
ATOM     30  C   UNL A   1      33.978  26.311  24.480  1.00  0.00     0.023 C 
ENDBRANCH  26  29
ENDBRANCH  24  26
ENDBRANCH  11  24
ENDBRANCH   5   8
ENDBRANCH   3   4
ENDBRANCH   2   3
ENDBRANCH   1   2
BRANCH   1  31
ATOM     31  C   UNL A   1      36.288  19.817  24.931  1.00  0.00     0.002 C 
BRANCH  31  32
ATOM     32  C   UNL A   1      37.750  19.431  24.683  1.00  0.00     0.021 C 
BRANCH  32  33
ATOM     33  C   UNL A   1      38.768  20.020  25.658  1.00  0.00     0.116 C 
BRANCH  33  34
ATOM     34  N   UNL A   1      39.956  19.194  25.786  1.00  0.00    -0.352 N 
ATOM     35  C   UNL A   1      41.246  19.534  26.107  1.00  0.00     0.251 C 
ATOM     36  H   UNL A   1      39.813  18.235  25.615  1.00  0.00     0.163 HD
ATOM     37  O   UNL A   1      42.146  18.711  25.961  1.00  0.00    -0.269 OA
BRANCH  35  38
ATOM     38  C   UNL A   1      41.565  20.883  26.618  1.00  0.00     0.039 A 
ATOM     39  C   UNL A   1      41.521  21.107  27.997  1.00  0.00     0.014 A 
ATOM     40  C   UNL A   1      41.864  21.936  25.748  1.00  0.00     0.014 A 
ATOM     41  C   UNL A   1      41.832  22.369  28.506  1.00  0.00     0.010 A 
ATOM     42  C   UNL A   1      42.246  23.172  26.261  1.00  0.00     0.010 A 
ATOM     43  C   UNL A   1      42.229  23.405  27.645  1.00  0.00    -0.014 A 
BRANCH  43  44
ATOM     44  C   UNL A   1      42.643  24.728  28.179  1.00  0.00     0.031 A 
ATOM     45  C   UNL A   1      41.627  25.808  28.416  1.00  0.00     0.074 A 
ATOM     46  C   UNL A   1      43.950  24.979  28.384  1.00  0.00     0.049 A 
ATOM     47  N   UNL A   1      41.807  27.039  28.825  1.00  0.00    -0.248 NA
ATOM     48  C   UNL A   1      40.225  25.472  28.126  1.00  0.00     0.031 C 
ATOM     49  C   UNL A   1      45.040  24.033  28.133  1.00  0.00     0.029 A 
ATOM     50  N   UNL A   1      44.586  26.109  28.830  1.00  0.00    -0.354 N 
ATOM     51  C   UNL A   1      40.549  27.627  28.824  1.00  0.00     0.074 A 
ATOM     52  C   UNL A   1      39.622  26.635  28.322  1.00  0.00     0.031 C 
ATOM     53  C   UNL A   1      46.207  24.618  28.442  1.00  0.00     0.029 A 
ATOM     54  C   UNL A   1      45.954  25.989  28.873  1.00  0.00     0.049 A 
ATOM     55  H   UNL A   1      44.108  26.928  29.095  1.00  0.00     0.167 HD
ATOM     56  C   UNL A   1      40.195  28.875  29.220  1.00  0.00     0.037 A 
ATOM     57  C   UNL A   1      46.902  26.886  29.204  1.00  0.00     0.037 A 
ATOM     58  C   UNL A   1      41.123  29.852  29.729  1.00  0.00     0.049 A 
ATOM     59  C   UNL A   1      46.490  28.263  29.643  1.00  0.00     0.074 A 
ATOM     60  C   UNL A   1      40.855  31.113  30.234  1.00  0.00     0.029 A 
ATOM     61  N   UNL A   1      42.499  29.687  29.780  1.00  0.00    -0.354 N 
ATOM     62  N   UNL A   1      45.286  28.776  29.729  1.00  0.00    -0.248 NA
ATOM     63  C   UNL A   1      47.566  29.181  30.042  1.00  0.00     0.031 C 
ATOM     64  C   UNL A   1      42.074  31.734  30.527  1.00  0.00     0.029 A 
ATOM     65  C   UNL A   1      43.098  30.837  30.271  1.00  0.00     0.049 A 
ATOM     66  H   UNL A   1      42.980  28.872  29.508  1.00  0.00     0.167 HD
ATOM     67  C   UNL A   1      45.456  30.069  30.208  1.00  0.00     0.074 A 
ATOM     68  C   UNL A   1      46.879  30.253  30.412  1.00  0.00     0.031 C 
ATOM     69  C   UNL A   1      44.517  31.015  30.458  1.00  0.00     0.037 A 
BRANCH  56  70
ATOM     70  C   UNL A   1      38.746  29.254  29.093  1.00  0.00     0.057 A 
ATOM     71  C   UNL A   1      38.189  29.685  27.881  1.00  0.00     0.134 A 
ATOM     72  C   UNL A   1      37.891  29.178  30.201  1.00  0.00     0.134 A 
ATOM     73  F   UNL A   1      38.950  29.789  26.781  1.00  0.00    -0.206 F 
ATOM     74  C   UNL A   1      36.849  30.072  27.787  1.00  0.00     0.040 A 
ATOM     75  C   UNL A   1      36.542  29.528  30.110  1.00  0.00     0.040 A 
ATOM     76  F   UNL A   1      38.350  28.763  31.391  1.00  0.00    -0.206 F 
ATOM     77  C   UNL A   1      36.022  29.989  28.904  1.00  0.00     0.006 A 
ENDBRANCH  56  70
BRANCH  57  78
ATOM     78  C   UNL A   1      48.331  26.494  29.136  1.00  0.00     0.057 A 
ATOM     79  C   UNL A   1      49.114  26.785  28.015  1.00  0.00     0.134 A 
ATOM     80  C   UNL A   1      48.959  25.851  30.211  1.00  0.00     0.134 A 
ATOM     81  F   UNL A   1      48.567  27.385  26.946  1.00  0.00    -0.206 F 
ATOM     82  C   UNL A   1      50.467  26.446  27.959  1.00  0.00     0.040 A 
ATOM     83  C   UNL A   1      50.316  25.530  30.181  1.00  0.00     0.040 A 
ATOM     84  F   UNL A   1      48.265  25.555  31.321  1.00  0.00    -0.206 F 
ATOM     85  C   UNL A   1      51.074  25.823  29.049  1.00  0.00     0.006 A 
ENDBRANCH  57  78
BRANCH  69  86
ATOM     86  C   UNL A   1      44.995  32.332  31.003  1.00  0.00     0.057 A 
ATOM     87  C   UNL A   1      45.156  32.553  32.377  1.00  0.00     0.134 A 
ATOM     88  C   UNL A   1      45.335  33.379  30.137  1.00  0.00     0.134 A 
ATOM     89  F   UNL A   1      44.837  31.597  33.262  1.00  0.00    -0.206 F 
ATOM     90  C   UNL A   1      45.615  33.776  32.870  1.00  0.00     0.040 A 
ATOM     91  C   UNL A   1      45.824  34.595  30.617  1.00  0.00     0.040 A 
ATOM     92  F   UNL A   1      45.213  33.234  28.809  1.00  0.00    -0.206 F 
ATOM     93  C   UNL A   1      45.959  34.798  31.989  1.00  0.00     0.006 A 
ENDBRANCH  69  86
ENDBRANCH  43  44
ENDBRANCH  35  38
ENDBRANCH  33  34
ENDBRANCH  32  33
ENDBRANCH  31  32
ENDBRANCH   1  31
TORSDOF 19
ENDMDL
MODEL 2
REMARK VINA RESULT:     -10.5      1.355      1.930
REMARK SMILES CCC[NH+]1CCN(c2ccc(C(=O)NCCCCCCNC(=O)c3ccc(-c4c5nc(c(-c6c(F)cccc6F)c6ccc([nH]6)c(-c6c(F)cccc6F)c6nc(c(-c7c(F)cccc7F)c7ccc4[nH]7)C=C6)C=C5)cc3)cc2NS(=O)(=O)CC)CC1
REMARK SMILES IDX 17 1 16 2 15 3 14 4 12 5 13 6 11 8 8 9 9 10 79 11 10 12
REMARK SMILES IDX 78 13 7 14 4 15 5 16 87 17 6 19 86 20 3 21 2 22 1 23 80 24
REMARK SMILES IDX 81 26 82 27 83 28 84 29 85 30 18 31 19 32 20 33 21 34 22 35
REMARK SMILES IDX 23 37 24 38 25 39 77 40 26 41 76 42 27 43 28 44 29 45 70 46
REMARK SMILES IDX 30 47 75 48 69 49 71 50 31 51 74 52 68 53 67 54 32 56 58 57
REMARK SMILES IDX 41 58 57 59 42 60 45 61 56 62 72 63 43 64 44 65 55 67 73 68
REMARK SMILES IDX 46 69 33 70 34 71 39 72 35 73 36 74 38 75 40 76 37 77 59 78
REMARK SMILES IDX 60 79 65 80 61 81 62 82 64 83 66 84 63 85 47 86 48 87 53 88
REMARK SMILES IDX 49 89 50 90 52 91 54 92 51 93
REMARK H PARENT 14 7 4 18 80 25 21 36 71 55 45 66
REMARK Flexibility Score: inf
ROOT
ATOM      1  C   UNL A   1      36.573  21.556  24.377  1.00  0.00     0.002 C 
ENDROOT
BRANCH   1   2
ATOM      2  C   UNL A   1      35.462  22.520  24.779  1.00  0.00     0.021 C 
BRANCH   2   3
ATOM      3  C   UNL A   1      34.728  22.197  26.075  1.00  0.00     0.116 C 
BRANCH   3   4
ATOM      4  N   UNL A   1      33.485  21.478  25.949  1.00  0.00    -0.352 N 
ATOM      5  C   UNL A   1      32.275  21.881  25.417  1.00  0.00     0.251 C 
ATOM      6  O   UNL A   1      31.353  21.065  25.413  1.00  0.00    -0.269 OA
ATOM      7  H   UNL A   1      33.500  20.556  26.296  1.00  0.00     0.163 HD
BRANCH   5   8
ATOM      8  C   UNL A   1      32.004  23.278  24.931  1.00  0.00     0.042 A 
ATOM      9  C   UNL A   1      31.170  25.790  23.879  1.00  0.00     0.062 A 
ATOM     10  C   UNL A   1      31.206  24.656  23.069  1.00  0.00     0.029 A 
ATOM     11  C   UNL A   1      31.536  25.622  25.243  1.00  0.00     0.073 A 
ATOM     12  C   UNL A   1      31.580  23.410  23.597  1.00  0.00     0.016 A 
ATOM     13  C   UNL A   1      32.085  24.431  25.717  1.00  0.00     0.042 A 
BRANCH   9  14
ATOM     14  N   UNL A   1      30.727  27.026  23.423  1.00  0.00    -0.359 N 
ATOM     15  N   UNL A   1      30.122  29.852  22.859  1.00  0.00    -0.332 N 
ATOM     16  C   UNL A   1      29.237  28.992  23.696  1.00  0.00     0.283 C 
ATOM     17  C   UNL A   1      31.489  29.302  22.930  1.00  0.00     0.283 C 
ATOM     18  H   UNL A   1      30.147  30.808  23.213  1.00  0.00     0.348 HD
ATOM     19  C   UNL A   1      29.322  27.452  23.455  1.00  0.00     0.178 C 
ATOM     20  C   UNL A   1      31.579  27.819  22.507  1.00  0.00     0.178 C 
BRANCH  15  21
ATOM     21  C   UNL A   1      29.595  29.980  21.491  1.00  0.00     0.262 C 
BRANCH  21  22
ATOM     22  C   UNL A   1      28.963  31.337  21.122  1.00  0.00     0.058 C 
ATOM     23  C   UNL A   1      27.868  31.838  22.059  1.00  0.00     0.010 C 
ENDBRANCH  21  22
ENDBRANCH  15  21
ENDBRANCH   9  14
BRANCH  11  24
ATOM     24  N   UNL A   1      31.054  26.657  26.099  1.00  0.00    -0.281 N 
ATOM     25  H   UNL A   1      30.081  26.634  26.250  1.00  0.00     0.180 HD
BRANCH  24  26
ATOM     26  S   UNL A   1      31.823  27.874  26.874  1.00  0.00     0.232 S 
ATOM     27  O   UNL A   1      31.455  29.132  26.272  1.00  0.00    -0.207 OA
ATOM     28  O   UNL A   1      31.586  27.620  28.284  1.00  0.00    -0.207 OA
BRANCH  26  29
ATOM     29  C   UNL A   1      33.564  27.598  26.595  1.00  0.00     0.156 C 
ATOM     30  C   UNL A   1      34.189  28.415  25.479  1.00  0.00     0.023 C 
ENDBRANCH  26  29
ENDBRANCH  24  26
ENDBRANCH  11  24
ENDBRANCH   5   8
ENDBRANCH   3   4
ENDBRANCH   2   3
ENDBRANCH   1   2
BRANCH   1  31
ATOM     31  C   UNL A   1      36.368  20.089  24.777  1.00  0.00     0.002 C 
BRANCH  31  32
ATOM     32  C   UNL A   1      37.635  19.259  25.008  1.00  0.00     0.021 C 
BRANCH  32  33
ATOM     33  C   UNL A   1      38.879  20.044  25.421  1.00  0.00     0.116 C 
BRANCH  33  34
ATOM     34  N   UNL A   1      40.010  19.180  25.710  1.00  0.00    -0.352 N 
ATOM     35  C   UNL A   1      41.272  19.484  26.154  1.00  0.00     0.251 C 
ATOM     36  H   UNL A   1      39.844  18.220  25.565  1.00  0.00     0.163 HD
ATOM     37  O   UNL A   1      42.146  18.622  26.141  1.00  0.00    -0.269 OA
BRANCH  35  38
ATOM     38  C   UNL A   1      41.593  20.843  26.640  1.00  0.00     0.039 A 
ATOM     39  C   UNL A   1      41.681  21.061  28.018  1.00  0.00     0.014 A 
ATOM     40  C   UNL A   1      41.765  21.908  25.751  1.00  0.00     0.014 A 
ATOM     41  C   UNL A   1      41.997  22.332  28.501  1.00  0.00     0.010 A 
ATOM     42  C   UNL A   1      42.153  23.156  26.231  1.00  0.00     0.010 A 
ATOM     43  C   UNL A   1      42.268  23.383  27.611  1.00  0.00    -0.014 A 
BRANCH  43  44
ATOM     44  C   UNL A   1      42.687  24.719  28.109  1.00  0.00     0.031 A 
ATOM     45  C   UNL A   1      41.668  25.794  28.363  1.00  0.00     0.074 A 
ATOM     46  C   UNL A   1      43.998  24.985  28.266  1.00  0.00     0.049 A 
ATOM     47  N   UNL A   1      41.850  27.033  28.746  1.00  0.00    -0.248 NA
ATOM     48  C   UNL A   1      40.261  25.440  28.125  1.00  0.00     0.031 C 
ATOM     49  C   UNL A   1      45.087  24.046  27.995  1.00  0.00     0.029 A 
ATOM     50  N   UNL A   1      44.637  26.129  28.673  1.00  0.00    -0.354 N 
ATOM     51  C   UNL A   1      40.587  27.609  28.776  1.00  0.00     0.074 A 
ATOM     52  C   UNL A   1      39.654  26.600  28.322  1.00  0.00     0.031 C 
ATOM     53  C   UNL A   1      46.259  24.646  28.255  1.00  0.00     0.029 A 
ATOM     54  C   UNL A   1      46.007  26.021  28.672  1.00  0.00     0.049 A 
ATOM     55  H   UNL A   1      44.160  26.947  28.940  1.00  0.00     0.167 HD
ATOM     56  C   UNL A   1      40.235  28.860  29.164  1.00  0.00     0.037 A 
ATOM     57  C   UNL A   1      46.956  26.933  28.956  1.00  0.00     0.037 A 
ATOM     58  C   UNL A   1      41.169  29.854  29.625  1.00  0.00     0.049 A 
ATOM     59  C   UNL A   1      46.546  28.313  29.387  1.00  0.00     0.074 A 
ATOM     60  C   UNL A   1      40.907  31.121  30.119  1.00  0.00     0.029 A 
ATOM     61  N   UNL A   1      42.549  29.702  29.633  1.00  0.00    -0.354 N 
ATOM     62  N   UNL A   1      45.341  28.816  29.504  1.00  0.00    -0.248 NA
ATOM     63  C   UNL A   1      47.626  29.247  29.734  1.00  0.00     0.031 C 
ATOM     64  C   UNL A   1      42.129  31.757  30.361  1.00  0.00     0.029 A 
ATOM     65  C   UNL A   1      43.152  30.866  30.085  1.00  0.00     0.049 A 
ATOM     66  H   UNL A   1      43.028  28.888  29.359  1.00  0.00     0.167 HD
ATOM     67  C   UNL A   1      45.514  30.118  29.956  1.00  0.00     0.074 A 
ATOM     68  C   UNL A   1      46.941  30.319  30.109  1.00  0.00     0.031 C 
ATOM     69  C   UNL A   1      44.575  31.059  30.222  1.00  0.00     0.037 A 
BRANCH  56  70
ATOM     70  C   UNL A   1      38.779  29.224  29.080  1.00  0.00     0.057 A 
ATOM     71  C   UNL A   1      38.184  29.658  27.886  1.00  0.00     0.134 A 
ATOM     72  C   UNL A   1      37.955  29.130  30.209  1.00  0.00     0.134 A 
ATOM     73  F   UNL A   1      38.914  29.778  26.767  1.00  0.00    -0.206 F 
ATOM     74  C   UNL A   1      36.838  30.031  27.831  1.00  0.00     0.040 A 
ATOM     75  C   UNL A   1      36.600  29.466  30.158  1.00  0.00     0.040 A 
ATOM     76  F   UNL A   1      38.451  28.711  31.383  1.00  0.00    -0.206 F 
ATOM     77  C   UNL A   1      36.042  29.930  28.970  1.00  0.00     0.006 A 
ENDBRANCH  56  70
BRANCH  57  78
ATOM     78  C   UNL A   1      48.386  26.553  28.847  1.00  0.00     0.057 A 
ATOM     79  C   UNL A   1      49.055  25.923  29.902  1.00  0.00     0.134 A 
ATOM     80  C   UNL A   1      49.110  26.777  27.669  1.00  0.00     0.134 A 
ATOM     81  F   UNL A   1      48.420  25.695  31.063  1.00  0.00    -0.206 F 
ATOM     82  C   UNL A   1      50.391  25.536  29.795  1.00  0.00     0.040 A 
ATOM     83  C   UNL A   1      50.438  26.372  27.537  1.00  0.00     0.040 A 
ATOM     84  F   UNL A   1      48.523  27.368  26.616  1.00  0.00    -0.206 F 
ATOM     85  C   UNL A   1      51.084  25.753  28.604  1.00  0.00     0.006 A 
ENDBRANCH  57  78
BRANCH  69  86
ATOM     86  C   UNL A   1      45.057  32.390  30.729  1.00  0.00     0.057 A 
ATOM     87  C   UNL A   1      45.276  32.631  32.092  1.00  0.00     0.134 A 
ATOM     88  C   UNL A   1      45.345  33.431  29.836  1.00  0.00     0.134 A 
ATOM     89  F   UNL A   1      45.009  31.682  33.002  1.00  0.00    -0.206 F 
ATOM     90  C   UNL A   1      45.739  33.866  32.549  1.00  0.00     0.040 A 
ATOM     91  C   UNL A   1      45.838  34.659  30.279  1.00  0.00     0.040 A 
ATOM     92  F   UNL A   1      45.168  33.266  28.517  1.00  0.00    -0.206 F 
ATOM     93  C   UNL A   1      46.030  34.881  31.641  1.00  0.00     0.006 A 
ENDBRANCH  69  86
ENDBRANCH  43  44
ENDBRANCH  35  38
ENDBRANCH  33  34
ENDBRANCH  32  33
ENDBRANCH  31  32
ENDBRANCH   1  31
TORSDOF 19
ENDMDL
MODEL 3
REMARK VINA RESULT:     -10.4      3.120      8.904
REMARK SMILES CCC[NH+]1CCN(c2ccc(C(=O)NCCCCCCNC(=O)c3ccc(-c4c5nc(c(-c6c(F)cccc6F)c6ccc([nH]6)c(-c6c(F)cccc6F)c6nc(c(-c7c(F)cccc7F)c7ccc4[nH]7)C=C6)C=C5)cc3)cc2NS(=O)(=O)CC)CC1
REMARK SMILES IDX 17 1 16 2 15 3 14 4 12 5 13 6 11 8 8 9 9 10 79 11 10 12
REMARK SMILES IDX 78 13 7 14 4 15 5 16 87 17 6 19 86 20 3 21 2 22 1 23 80 24
REMARK SMILES IDX 81 26 82 27 83 28 84 29 85 30 18 31 19 32 20 33 21 34 22 35
REMARK SMILES IDX 23 37 24 38 25 39 77 40 26 41 76 42 27 43 28 44 29 45 70 46
REMARK SMILES IDX 30 47 75 48 69 49 71 50 31 51 74 52 68 53 67 54 32 56 58 57
REMARK SMILES IDX 41 58 57 59 42 60 45 61 56 62 72 63 43 64 44 65 55 67 73 68
REMARK SMILES IDX 46 69 33 70 34 71 39 72 35 73 36 74 38 75 40 76 37 77 59 78
REMARK SMILES IDX 60 79 65 80 61 81 62 82 64 83 66 84 63 85 47 86 48 87 53 88
REMARK SMILES IDX 49 89 50 90 52 91 54 92 51 93
REMARK H PARENT 14 7 4 18 80 25 21 36 71 55 45 66
REMARK Flexibility Score: inf
ROOT
ATOM      1  C   UNL A   1      37.296  30.152  29.168  1.00  0.00     0.002 C 
ENDROOT
BRANCH   1   2
ATOM      2  C   UNL A   1      36.287  30.645  28.137  1.00  0.00     0.021 C 
BRANCH   2   3
ATOM      3  C   UNL A   1      35.105  29.724  27.857  1.00  0.00     0.116 C 
BRANCH   3   4
ATOM      4  N   UNL A   1      34.010  30.289  27.110  1.00  0.00    -0.352 N 
ATOM      5  C   UNL A   1      33.086  29.674  26.287  1.00  0.00     0.251 C 
ATOM      6  O   UNL A   1      32.225  30.384  25.766  1.00  0.00    -0.269 OA
ATOM      7  H   UNL A   1      33.903  31.264  27.201  1.00  0.00     0.163 HD
BRANCH   5   8
ATOM      8  C   UNL A   1      33.133  28.215  25.927  1.00  0.00     0.042 A 
ATOM      9  C   UNL A   1      32.849  25.462  25.254  1.00  0.00     0.062 A 
ATOM     10  C   UNL A   1      32.225  25.986  26.385  1.00  0.00     0.029 A 
ATOM     11  C   UNL A   1      33.598  26.367  24.452  1.00  0.00     0.073 A 
ATOM     12  C   UNL A   1      32.332  27.351  26.694  1.00  0.00     0.016 A 
ATOM     13  C   UNL A   1      33.858  27.674  24.862  1.00  0.00     0.042 A 
BRANCH   9  14
ATOM     14  N   UNL A   1      32.705  24.137  24.860  1.00  0.00    -0.359 N 
ATOM     15  N   UNL A   1      32.802  21.451  23.657  1.00  0.00    -0.332 N 
ATOM     16  C   UNL A   1      31.796  22.476  23.255  1.00  0.00     0.283 C 
ATOM     17  C   UNL A   1      33.983  22.158  24.188  1.00  0.00     0.283 C 
ATOM     18  H   UNL A   1      33.101  20.895  22.857  1.00  0.00     0.348 HD
ATOM     19  C   UNL A   1      31.463  23.583  24.304  1.00  0.00     0.178 C 
ATOM     20  C   UNL A   1      33.654  23.115  25.356  1.00  0.00     0.178 C 
BRANCH  15  21
ATOM     21  C   UNL A   1      32.217  20.473  24.587  1.00  0.00     0.262 C 
BRANCH  21  22
ATOM     22  C   UNL A   1      32.859  19.071  24.604  1.00  0.00     0.058 C 
ATOM     23  C   UNL A   1      32.687  18.245  23.333  1.00  0.00     0.010 C 
ENDBRANCH  21  22
ENDBRANCH  15  21
ENDBRANCH   9  14
BRANCH  11  24
ATOM     24  N   UNL A   1      33.816  25.908  23.118  1.00  0.00    -0.281 N 
ATOM     25  H   UNL A   1      34.504  25.207  23.042  1.00  0.00     0.180 HD
BRANCH  24  26
ATOM     26  S   UNL A   1      33.132  26.332  21.695  1.00  0.00     0.232 S 
ATOM     27  O   UNL A   1      33.647  27.615  21.281  1.00  0.00    -0.207 OA
ATOM     28  O   UNL A   1      33.278  25.159  20.852  1.00  0.00    -0.207 OA
BRANCH  26  29
ATOM     29  C   UNL A   1      31.387  26.501  22.031  1.00  0.00     0.156 C 
ATOM     30  C   UNL A   1      30.929  27.888  22.448  1.00  0.00     0.023 C 
ENDBRANCH  26  29
ENDBRANCH  24  26
ENDBRANCH  11  24
ENDBRANCH   5   8
ENDBRANCH   3   4
ENDBRANCH   2   3
ENDBRANCH   1   2
BRANCH   1  31
ATOM     31  C   UNL A   1      36.790  30.054  30.612  1.00  0.00     0.002 C 
BRANCH  31  32
ATOM     32  C   UNL A   1      35.785  31.121  31.059  1.00  0.00     0.021 C 
BRANCH  32  33
ATOM     33  C   UNL A   1      35.854  31.524  32.531  1.00  0.00     0.116 C 
BRANCH  33  34
ATOM     34  N   UNL A   1      36.085  32.947  32.705  1.00  0.00    -0.352 N 
ATOM     35  C   UNL A   1      37.221  33.694  32.520  1.00  0.00     0.251 C 
ATOM     36  H   UNL A   1      35.300  33.460  33.005  1.00  0.00     0.163 HD
ATOM     37  O   UNL A   1      37.260  34.854  32.921  1.00  0.00    -0.269 OA
BRANCH  35  38
ATOM     38  C   UNL A   1      38.404  33.113  31.850  1.00  0.00     0.039 A 
ATOM     39  C   UNL A   1      39.332  32.405  32.619  1.00  0.00     0.014 A 
ATOM     40  C   UNL A   1      38.627  33.299  30.483  1.00  0.00     0.014 A 
ATOM     41  C   UNL A   1      40.451  31.836  32.008  1.00  0.00     0.010 A 
ATOM     42  C   UNL A   1      39.702  32.668  29.863  1.00  0.00     0.010 A 
ATOM     43  C   UNL A   1      40.628  31.934  30.619  1.00  0.00    -0.014 A 
BRANCH  43  44
ATOM     44  C   UNL A   1      41.769  31.263  29.943  1.00  0.00     0.031 A 
ATOM     45  C   UNL A   1      43.029  32.021  29.636  1.00  0.00     0.074 A 
ATOM     46  C   UNL A   1      41.640  29.983  29.544  1.00  0.00     0.049 A 
ATOM     47  N   UNL A   1      44.104  31.619  29.006  1.00  0.00    -0.248 NA
ATOM     48  C   UNL A   1      43.075  33.426  30.064  1.00  0.00     0.031 C 
ATOM     49  C   UNL A   1      40.446  29.158  29.729  1.00  0.00     0.029 A 
ATOM     50  N   UNL A   1      42.515  29.159  28.882  1.00  0.00    -0.354 N 
ATOM     51  C   UNL A   1      44.944  32.723  28.947  1.00  0.00     0.074 A 
ATOM     52  C   UNL A   1      44.232  33.825  29.557  1.00  0.00     0.031 C 
ATOM     53  C   UNL A   1      40.667  27.942  29.207  1.00  0.00     0.029 A 
ATOM     54  C   UNL A   1      42.001  27.914  28.614  1.00  0.00     0.049 A 
ATOM     55  H   UNL A   1      43.425  29.434  28.624  1.00  0.00     0.167 HD
ATOM     56  C   UNL A   1      46.201  32.807  28.445  1.00  0.00     0.037 A 
ATOM     57  C   UNL A   1      42.533  26.871  27.950  1.00  0.00     0.037 A 
ATOM     58  C   UNL A   1      46.907  31.701  27.851  1.00  0.00     0.049 A 
ATOM     59  C   UNL A   1      43.929  26.982  27.405  1.00  0.00     0.074 A 
ATOM     60  C   UNL A   1      48.211  31.660  27.388  1.00  0.00     0.029 A 
ATOM     61  N   UNL A   1      46.362  30.447  27.617  1.00  0.00    -0.354 N 
ATOM     62  N   UNL A   1      44.750  28.003  27.441  1.00  0.00    -0.248 NA
ATOM     63  C   UNL A   1      44.476  25.793  26.737  1.00  0.00     0.031 C 
ATOM     64  C   UNL A   1      48.432  30.403  26.816  1.00  0.00     0.029 A 
ATOM     65  C   UNL A   1      47.290  29.636  26.982  1.00  0.00     0.049 A 
ATOM     66  H   UNL A   1      45.450  30.172  27.866  1.00  0.00     0.167 HD
ATOM     67  C   UNL A   1      45.917  27.577  26.818  1.00  0.00     0.074 A 
ATOM     68  C   UNL A   1      45.701  26.197  26.431  1.00  0.00     0.031 C 
ATOM     69  C   UNL A   1      47.062  28.267  26.590  1.00  0.00     0.037 A 
BRANCH  56  70
ATOM     70  C   UNL A   1      46.878  34.148  28.501  1.00  0.00     0.057 A 
ATOM     71  C   UNL A   1      46.782  35.078  27.456  1.00  0.00     0.134 A 
ATOM     72  C   UNL A   1      47.632  34.520  29.622  1.00  0.00     0.134 A 
ATOM     73  F   UNL A   1      46.082  34.787  26.348  1.00  0.00    -0.206 F 
ATOM     74  C   UNL A   1      47.448  36.305  27.503  1.00  0.00     0.040 A 
ATOM     75  C   UNL A   1      48.274  35.758  29.696  1.00  0.00     0.040 A 
ATOM     76  F   UNL A   1      47.759  33.686  30.666  1.00  0.00    -0.206 F 
ATOM     77  C   UNL A   1      48.193  36.649  28.629  1.00  0.00     0.006 A 
ENDBRANCH  56  70
BRANCH  57  78
ATOM     78  C   UNL A   1      41.736  25.631  27.781  1.00  0.00     0.057 A 
ATOM     79  C   UNL A   1      40.723  25.542  26.820  1.00  0.00     0.134 A 
ATOM     80  C   UNL A   1      41.994  24.491  28.552  1.00  0.00     0.134 A 
ATOM     81  F   UNL A   1      40.418  26.606  26.061  1.00  0.00    -0.206 F 
ATOM     82  C   UNL A   1      39.991  24.369  26.635  1.00  0.00     0.040 A 
ATOM     83  C   UNL A   1      41.289  23.303  28.361  1.00  0.00     0.040 A 
ATOM     84  F   UNL A   1      42.960  24.508  29.484  1.00  0.00    -0.206 F 
ATOM     85  C   UNL A   1      40.279  23.241  27.403  1.00  0.00     0.006 A 
ENDBRANCH  57  78
BRANCH  69  86
ATOM     86  C   UNL A   1      48.183  27.534  25.909  1.00  0.00     0.057 A 
ATOM     87  C   UNL A   1      49.194  26.885  26.630  1.00  0.00     0.134 A 
ATOM     88  C   UNL A   1      48.230  27.444  24.511  1.00  0.00     0.134 A 
ATOM     89  F   UNL A   1      49.217  26.943  27.971  1.00  0.00    -0.206 F 
ATOM     90  C   UNL A   1      50.222  26.195  25.987  1.00  0.00     0.040 A 
ATOM     91  C   UNL A   1      49.235  26.730  23.858  1.00  0.00     0.040 A 
ATOM     92  F   UNL A   1      47.289  28.033  23.758  1.00  0.00    -0.206 F 
ATOM     93  C   UNL A   1      50.240  26.108  24.596  1.00  0.00     0.006 A 
ENDBRANCH  69  86
ENDBRANCH  43  44
ENDBRANCH  35  38
ENDBRANCH  33  34
ENDBRANCH  32  33
ENDBRANCH  31  32
ENDBRANCH   1  31
TORSDOF 19
ENDMDL
