MODEL 1
REMARK VINA RESULT:     -11.4      0.000      0.000
REMARK SMILES O=C(NCCCCCCNC(=O)c1ccc(CSc2ccc(Cl)cn2)nc1)c1ccc(-c2c3nc(c(-c4c(F)cccc4F)c4ccc([nH]4)c(-c4c(F)cccc4F)c4nc(c(-c5c(F)cccc5F)c5ccc2[nH]5)C=C4)C=C3)cc1
REMARK SMILES IDX 7 1 6 2 5 3 4 4 3 5 1 6 2 7 28 9 29 10 81 11 30 12 80 13
REMARK SMILES IDX 31 14 32 15 33 16 74 17 34 18 79 19 73 20 75 21 35 22 78 23
REMARK SMILES IDX 72 24 71 25 36 27 62 28 45 29 61 30 46 31 49 32 60 33 76 34
REMARK SMILES IDX 47 35 48 36 59 38 77 39 50 40 37 41 38 42 43 43 39 44 40 45
REMARK SMILES IDX 42 46 44 47 41 48 63 49 64 50 69 51 65 52 66 53 68 54 70 55
REMARK SMILES IDX 67 56 51 57 52 58 57 59 53 60 54 61 56 62 58 63 55 64 8 65
REMARK SMILES IDX 9 66 10 67 11 68 12 70 13 71 14 72 27 73 15 74 26 75 16 76
REMARK SMILES IDX 17 77 18 78 19 79 20 80 25 81 21 82 24 83 22 84 23 85
REMARK H PARENT 3 8 75 26 49 37 10 69
REMARK Flexibility Score: inf
ROOT
ATOM      1  C   UNL A   1      32.336  29.762  26.571  1.00  0.00     0.002 C 
ENDROOT
BRANCH   1   2
ATOM      2  C   UNL A   1      31.490  30.897  25.986  1.00  0.00     0.002 C 
BRANCH   2   3
ATOM      3  C   UNL A   1      31.323  32.115  26.893  1.00  0.00     0.021 C 
BRANCH   3   4
ATOM      4  C   UNL A   1      32.621  32.841  27.211  1.00  0.00     0.116 C 
BRANCH   4   5
ATOM      5  N   UNL A   1      32.390  34.216  27.621  1.00  0.00    -0.352 N 
ATOM      6  O   UNL A   1      32.551  36.007  28.986  1.00  0.00    -0.269 OA
ATOM      7  C   UNL A   1      32.990  34.916  28.635  1.00  0.00     0.251 C 
ATOM      8  H   UNL A   1      31.713  34.708  27.103  1.00  0.00     0.163 HD
BRANCH   7   9
ATOM      9  C   UNL A   1      34.171  34.340  29.307  1.00  0.00     0.039 A 
ATOM     10  C   UNL A   1      34.017  33.571  30.465  1.00  0.00     0.014 A 
ATOM     11  C   UNL A   1      35.440  34.556  28.764  1.00  0.00     0.014 A 
ATOM     12  C   UNL A   1      35.137  33.101  31.137  1.00  0.00     0.010 A 
ATOM     13  C   UNL A   1      36.560  34.008  29.393  1.00  0.00     0.010 A 
ATOM     14  C   UNL A   1      36.415  33.279  30.585  1.00  0.00    -0.014 A 
BRANCH  14  15
ATOM     15  C   UNL A   1      37.567  32.566  31.185  1.00  0.00     0.031 A 
ATOM     16  C   UNL A   1      38.222  31.409  30.492  1.00  0.00     0.074 A 
ATOM     17  C   UNL A   1      37.996  32.972  32.396  1.00  0.00     0.049 A 
ATOM     18  N   UNL A   1      39.203  30.652  30.912  1.00  0.00    -0.248 NA
ATOM     19  C   UNL A   1      37.714  31.048  29.159  1.00  0.00     0.031 C 
ATOM     20  C   UNL A   1      37.414  34.077  33.167  1.00  0.00     0.029 A 
ATOM     21  N   UNL A   1      39.007  32.510  33.197  1.00  0.00    -0.354 N 
ATOM     22  C   UNL A   1      39.415  29.711  29.913  1.00  0.00     0.074 A 
ATOM     23  C   UNL A   1      38.455  29.986  28.865  1.00  0.00     0.031 C 
ATOM     24  C   UNL A   1      38.087  34.216  34.318  1.00  0.00     0.029 A 
ATOM     25  C   UNL A   1      39.094  33.168  34.401  1.00  0.00     0.049 A 
ATOM     26  H   UNL A   1      39.611  31.778  32.936  1.00  0.00     0.167 HD
ATOM     27  C   UNL A   1      40.329  28.713  29.885  1.00  0.00     0.037 A 
ATOM     28  C   UNL A   1      39.867  32.927  35.475  1.00  0.00     0.037 A 
ATOM     29  C   UNL A   1      41.289  28.464  30.932  1.00  0.00     0.049 A 
ATOM     30  C   UNL A   1      40.837  31.783  35.424  1.00  0.00     0.074 A 
ATOM     31  C   UNL A   1      42.309  27.529  30.957  1.00  0.00     0.029 A 
ATOM     32  N   UNL A   1      41.334  29.139  32.142  1.00  0.00    -0.354 N 
ATOM     33  N   UNL A   1      41.084  30.955  34.438  1.00  0.00    -0.248 NA
ATOM     34  C   UNL A   1      41.629  31.533  36.635  1.00  0.00     0.031 C 
ATOM     35  C   UNL A   1      42.927  27.590  32.209  1.00  0.00     0.029 A 
ATOM     36  C   UNL A   1      42.331  28.604  32.942  1.00  0.00     0.049 A 
ATOM     37  H   UNL A   1      40.747  29.886  32.396  1.00  0.00     0.167 HD
ATOM     38  C   UNL A   1      42.065  30.093  34.905  1.00  0.00     0.074 A 
ATOM     39  C   UNL A   1      42.390  30.518  36.251  1.00  0.00     0.031 C 
ATOM     40  C   UNL A   1      42.640  29.038  34.280  1.00  0.00     0.037 A 
BRANCH  27  41
ATOM     41  C   UNL A   1      40.337  27.786  28.705  1.00  0.00     0.057 A 
ATOM     42  C   UNL A   1      41.099  28.044  27.560  1.00  0.00     0.134 A 
ATOM     43  C   UNL A   1      39.653  26.563  28.764  1.00  0.00     0.134 A 
ATOM     44  F   UNL A   1      41.772  29.198  27.436  1.00  0.00    -0.206 F 
ATOM     45  C   UNL A   1      41.178  27.121  26.513  1.00  0.00     0.040 A 
ATOM     46  C   UNL A   1      39.742  25.624  27.735  1.00  0.00     0.040 A 
ATOM     47  F   UNL A   1      38.912  26.249  29.836  1.00  0.00    -0.206 F 
ATOM     48  C   UNL A   1      40.508  25.903  26.605  1.00  0.00     0.006 A 
ENDBRANCH  27  41
BRANCH  28  49
ATOM     49  C   UNL A   1      39.713  33.746  36.703  1.00  0.00     0.057 A 
ATOM     50  C   UNL A   1      40.427  34.935  36.881  1.00  0.00     0.134 A 
ATOM     51  C   UNL A   1      38.862  33.344  37.742  1.00  0.00     0.134 A 
ATOM     52  F   UNL A   1      41.269  35.365  35.929  1.00  0.00    -0.206 F 
ATOM     53  C   UNL A   1      40.324  35.681  38.057  1.00  0.00     0.040 A 
ATOM     54  C   UNL A   1      38.722  34.097  38.908  1.00  0.00     0.040 A 
ATOM     55  F   UNL A   1      38.141  32.219  37.631  1.00  0.00    -0.206 F 
ATOM     56  C   UNL A   1      39.466  35.263  39.073  1.00  0.00     0.006 A 
ENDBRANCH  28  49
BRANCH  40  57
ATOM     57  C   UNL A   1      43.684  28.278  35.041  1.00  0.00     0.057 A 
ATOM     58  C   UNL A   1      45.033  28.657  35.016  1.00  0.00     0.134 A 
ATOM     59  C   UNL A   1      43.333  27.185  35.843  1.00  0.00     0.134 A 
ATOM     60  F   UNL A   1      45.436  29.686  34.252  1.00  0.00    -0.206 F 
ATOM     61  C   UNL A   1      45.997  27.965  35.747  1.00  0.00     0.040 A 
ATOM     62  C   UNL A   1      44.284  26.503  36.602  1.00  0.00     0.040 A 
ATOM     63  F   UNL A   1      42.058  26.775  35.916  1.00  0.00    -0.206 F 
ATOM     64  C   UNL A   1      45.621  26.890  36.552  1.00  0.00     0.006 A 
ENDBRANCH  40  57
ENDBRANCH  14  15
ENDBRANCH   7   9
ENDBRANCH   4   5
ENDBRANCH   3   4
ENDBRANCH   2   3
ENDBRANCH   1   2
BRANCH   1  65
ATOM     65  C   UNL A   1      32.684  28.640  25.591  1.00  0.00     0.021 C 
BRANCH  65  66
ATOM     66  C   UNL A   1      32.957  29.109  24.169  1.00  0.00     0.116 C 
BRANCH  66  67
ATOM     67  N   UNL A   1      31.743  29.163  23.373  1.00  0.00    -0.352 N 
ATOM     68  C   UNL A   1      31.210  28.204  22.553  1.00  0.00     0.252 C 
ATOM     69  H   UNL A   1      31.233  30.005  23.432  1.00  0.00     0.163 HD
ATOM     70  O   UNL A   1      30.295  28.484  21.781  1.00  0.00    -0.269 OA
BRANCH  68  71
ATOM     71  C   UNL A   1      31.733  26.832  22.601  1.00  0.00     0.058 A 
ATOM     72  C   UNL A   1      31.088  25.829  23.321  1.00  0.00     0.017 A 
ATOM     73  C   UNL A   1      32.882  26.509  21.903  1.00  0.00     0.125 A 
ATOM     74  C   UNL A   1      31.658  24.565  23.377  1.00  0.00     0.025 A 
ATOM     75  N   UNL A   1      33.427  25.266  21.902  1.00  0.00    -0.260 NA
ATOM     76  C   UNL A   1      32.795  24.300  22.615  1.00  0.00     0.051 A 
BRANCH  76  77
ATOM     77  C   UNL A   1      33.331  22.888  22.547  1.00  0.00     0.132 C 
BRANCH  77  78
ATOM     78  S   UNL A   1      33.463  22.024  24.149  1.00  0.00    -0.100 SA
BRANCH  78  79
ATOM     79  C   UNL A   1      35.135  22.258  24.712  1.00  0.00     0.096 A 
ATOM     80  C   UNL A   1      35.703  23.457  25.128  1.00  0.00     0.037 A 
ATOM     81  N   UNL A   1      35.869  21.119  24.692  1.00  0.00    -0.248 NA
ATOM     82  C   UNL A   1      37.018  23.484  25.604  1.00  0.00     0.025 A 
ATOM     83  C   UNL A   1      37.154  21.169  25.125  1.00  0.00     0.132 A 
ATOM     84  C   UNL A   1      37.761  22.316  25.599  1.00  0.00     0.059 A 
ATOM     85  Cl  UNL A   1      39.384  22.309  26.148  1.00  0.00    -0.083 Cl
ENDBRANCH  78  79
ENDBRANCH  77  78
ENDBRANCH  76  77
ENDBRANCH  68  71
ENDBRANCH  66  67
ENDBRANCH  65  66
ENDBRANCH   1  65
TORSDOF 16
ENDMDL
MODEL 2
REMARK VINA RESULT:     -11.0      1.863      2.887
REMARK SMILES O=C(NCCCCCCNC(=O)c1ccc(CSc2ccc(Cl)cn2)nc1)c1ccc(-c2c3nc(c(-c4c(F)cccc4F)c4ccc([nH]4)c(-c4c(F)cccc4F)c4nc(c(-c5c(F)cccc5F)c5ccc2[nH]5)C=C4)C=C3)cc1
REMARK SMILES IDX 7 1 6 2 5 3 4 4 3 5 1 6 2 7 28 9 29 10 81 11 30 12 80 13
REMARK SMILES IDX 31 14 32 15 33 16 74 17 34 18 79 19 73 20 75 21 35 22 78 23
REMARK SMILES IDX 72 24 71 25 36 27 62 28 45 29 61 30 46 31 49 32 60 33 76 34
REMARK SMILES IDX 47 35 48 36 59 38 77 39 50 40 37 41 38 42 43 43 39 44 40 45
REMARK SMILES IDX 42 46 44 47 41 48 63 49 64 50 69 51 65 52 66 53 68 54 70 55
REMARK SMILES IDX 67 56 51 57 52 58 57 59 53 60 54 61 56 62 58 63 55 64 8 65
REMARK SMILES IDX 9 66 10 67 11 68 12 70 13 71 14 72 27 73 15 74 26 75 16 76
REMARK SMILES IDX 17 77 18 78 19 79 20 80 25 81 21 82 24 83 22 84 23 85
REMARK H PARENT 3 8 75 26 49 37 10 69
REMARK Flexibility Score: inf
ROOT
ATOM      1  C   UNL A   1      34.610  31.976  28.711  1.00  0.00     0.002 C 
ENDROOT
BRANCH   1   2
ATOM      2  C   UNL A   1      34.790  33.491  28.853  1.00  0.00     0.002 C 
BRANCH   2   3
ATOM      3  C   UNL A   1      33.500  34.306  28.777  1.00  0.00     0.021 C 
BRANCH   3   4
ATOM      4  C   UNL A   1      33.588  35.680  29.424  1.00  0.00     0.116 C 
BRANCH   4   5
ATOM      5  N   UNL A   1      32.641  35.831  30.515  1.00  0.00    -0.352 N 
ATOM      6  O   UNL A   1      31.748  35.374  32.537  1.00  0.00    -0.269 OA
ATOM      7  C   UNL A   1      32.717  35.326  31.787  1.00  0.00     0.251 C 
ATOM      8  H   UNL A   1      31.840  36.366  30.314  1.00  0.00     0.163 HD
BRANCH   7   9
ATOM      9  C   UNL A   1      33.981  34.714  32.245  1.00  0.00     0.039 A 
ATOM     10  C   UNL A   1      34.029  33.354  32.563  1.00  0.00     0.014 A 
ATOM     11  C   UNL A   1      35.128  35.505  32.338  1.00  0.00     0.014 A 
ATOM     12  C   UNL A   1      35.198  32.804  33.071  1.00  0.00     0.010 A 
ATOM     13  C   UNL A   1      36.327  34.929  32.764  1.00  0.00     0.010 A 
ATOM     14  C   UNL A   1      36.369  33.576  33.135  1.00  0.00    -0.014 A 
BRANCH  14  15
ATOM     15  C   UNL A   1      37.656  32.911  33.446  1.00  0.00     0.031 A 
ATOM     16  C   UNL A   1      38.259  31.897  32.523  1.00  0.00     0.074 A 
ATOM     17  C   UNL A   1      38.262  33.228  34.608  1.00  0.00     0.049 A 
ATOM     18  N   UNL A   1      39.351  31.192  32.681  1.00  0.00    -0.248 NA
ATOM     19  C   UNL A   1      37.551  31.630  31.261  1.00  0.00     0.031 C 
ATOM     20  C   UNL A   1      37.748  34.189  35.590  1.00  0.00     0.029 A 
ATOM     21  N   UNL A   1      39.429  32.778  35.169  1.00  0.00    -0.354 N 
ATOM     22  C   UNL A   1      39.450  30.382  31.558  1.00  0.00     0.074 A 
ATOM     23  C   UNL A   1      38.303  30.676  30.724  1.00  0.00     0.031 C 
ATOM     24  C   UNL A   1      38.601  34.269  36.620  1.00  0.00     0.029 A 
ATOM     25  C   UNL A   1      39.679  33.314  36.410  1.00  0.00     0.049 A 
ATOM     26  H   UNL A   1      40.028  32.135  34.726  1.00  0.00     0.167 HD
ATOM     27  C   UNL A   1      40.413  29.479  31.260  1.00  0.00     0.037 A 
ATOM     28  C   UNL A   1      40.644  33.033  37.304  1.00  0.00     0.037 A 
ATOM     29  C   UNL A   1      41.558  29.212  32.094  1.00  0.00     0.049 A 
ATOM     30  C   UNL A   1      41.669  31.994  36.958  1.00  0.00     0.074 A 
ATOM     31  C   UNL A   1      42.630  28.375  31.838  1.00  0.00     0.029 A 
ATOM     32  N   UNL A   1      41.768  29.759  33.351  1.00  0.00    -0.354 N 
ATOM     33  N   UNL A   1      41.797  31.298  35.854  1.00  0.00    -0.248 NA
ATOM     34  C   UNL A   1      42.678  31.692  37.981  1.00  0.00     0.031 C 
ATOM     35  C   UNL A   1      43.453  28.361  32.968  1.00  0.00     0.029 A 
ATOM     36  C   UNL A   1      42.926  29.236  33.904  1.00  0.00     0.049 A 
ATOM     37  H   UNL A   1      41.182  30.420  33.785  1.00  0.00     0.167 HD
ATOM     38  C   UNL A   1      42.904  30.484  36.046  1.00  0.00     0.074 A 
ATOM     39  C   UNL A   1      43.430  30.796  37.359  1.00  0.00     0.031 C 
ATOM     40  C   UNL A   1      43.433  29.556  35.214  1.00  0.00     0.037 A 
BRANCH  27  41
ATOM     41  C   UNL A   1      40.279  28.684  29.994  1.00  0.00     0.057 A 
ATOM     42  C   UNL A   1      39.469  27.546  29.911  1.00  0.00     0.134 A 
ATOM     43  C   UNL A   1      40.890  29.130  28.813  1.00  0.00     0.134 A 
ATOM     44  F   UNL A   1      38.860  27.063  31.005  1.00  0.00    -0.206 F 
ATOM     45  C   UNL A   1      39.272  26.878  28.700  1.00  0.00     0.040 A 
ATOM     46  C   UNL A   1      40.684  28.483  27.593  1.00  0.00     0.040 A 
ATOM     47  F   UNL A   1      41.673  30.218  28.821  1.00  0.00    -0.206 F 
ATOM     48  C   UNL A   1      39.871  27.353  27.535  1.00  0.00     0.006 A 
ENDBRANCH  27  41
BRANCH  28  49
ATOM     49  C   UNL A   1      40.652  33.704  38.628  1.00  0.00     0.057 A 
ATOM     50  C   UNL A   1      39.796  33.298  39.657  1.00  0.00     0.134 A 
ATOM     51  C   UNL A   1      41.504  34.787  38.888  1.00  0.00     0.134 A 
ATOM     52  F   UNL A   1      38.947  32.277  39.464  1.00  0.00    -0.206 F 
ATOM     53  C   UNL A   1      39.765  33.960  40.885  1.00  0.00     0.040 A 
ATOM     54  C   UNL A   1      41.507  35.436  40.123  1.00  0.00     0.040 A 
ATOM     55  F   UNL A   1      42.356  35.220  37.948  1.00  0.00    -0.206 F 
ATOM     56  C   UNL A   1      40.625  35.030  41.121  1.00  0.00     0.006 A 
ENDBRANCH  28  49
BRANCH  40  57
ATOM     57  C   UNL A   1      44.647  28.819  35.695  1.00  0.00     0.057 A 
ATOM     58  C   UNL A   1      45.941  29.294  35.447  1.00  0.00     0.134 A 
ATOM     59  C   UNL A   1      44.520  27.647  36.452  1.00  0.00     0.134 A 
ATOM     60  F   UNL A   1      46.129  30.402  34.712  1.00  0.00    -0.206 F 
ATOM     61  C   UNL A   1      47.067  28.621  35.920  1.00  0.00     0.040 A 
ATOM     62  C   UNL A   1      45.638  26.981  36.956  1.00  0.00     0.040 A 
ATOM     63  F   UNL A   1      43.309  27.143  36.730  1.00  0.00    -0.206 F 
ATOM     64  C   UNL A   1      46.916  27.466  36.686  1.00  0.00     0.006 A 
ENDBRANCH  40  57
ENDBRANCH  14  15
ENDBRANCH   7   9
ENDBRANCH   4   5
ENDBRANCH   3   4
ENDBRANCH   2   3
ENDBRANCH   1   2
BRANCH   1  65
ATOM     65  C   UNL A   1      33.703  31.535  27.562  1.00  0.00     0.021 C 
BRANCH  65  66
ATOM     66  C   UNL A   1      33.808  30.058  27.207  1.00  0.00     0.116 C 
BRANCH  66  67
ATOM     67  N   UNL A   1      32.770  29.271  27.849  1.00  0.00    -0.352 N 
ATOM     68  C   UNL A   1      32.054  28.218  27.343  1.00  0.00     0.252 C 
ATOM     69  H   UNL A   1      32.551  29.530  28.774  1.00  0.00     0.163 HD
ATOM     70  O   UNL A   1      31.060  27.800  27.934  1.00  0.00    -0.269 OA
BRANCH  68  71
ATOM     71  C   UNL A   1      32.481  27.582  26.090  1.00  0.00     0.058 A 
ATOM     72  C   UNL A   1      33.611  26.771  26.029  1.00  0.00     0.017 A 
ATOM     73  C   UNL A   1      31.741  27.770  24.936  1.00  0.00     0.125 A 
ATOM     74  C   UNL A   1      34.000  26.243  24.806  1.00  0.00     0.025 A 
ATOM     75  N   UNL A   1      32.073  27.219  23.741  1.00  0.00    -0.260 NA
ATOM     76  C   UNL A   1      33.182  26.439  23.693  1.00  0.00     0.051 A 
BRANCH  76  77
ATOM     77  C   UNL A   1      33.515  25.738  22.396  1.00  0.00     0.132 C 
BRANCH  77  78
ATOM     78  S   UNL A   1      33.028  23.981  22.308  1.00  0.00    -0.100 SA
BRANCH  78  79
ATOM     79  C   UNL A   1      34.278  23.068  23.186  1.00  0.00     0.096 A 
ATOM     80  C   UNL A   1      34.058  22.095  24.155  1.00  0.00     0.037 A 
ATOM     81  N   UNL A   1      35.539  23.418  22.835  1.00  0.00    -0.248 NA
ATOM     82  C   UNL A   1      35.139  21.412  24.722  1.00  0.00     0.025 A 
ATOM     83  C   UNL A   1      36.577  22.768  23.420  1.00  0.00     0.132 A 
ATOM     84  C   UNL A   1      36.426  21.758  24.350  1.00  0.00     0.059 A 
ATOM     85  Cl  UNL A   1      37.779  20.966  25.040  1.00  0.00    -0.083 Cl
ENDBRANCH  78  79
ENDBRANCH  77  78
ENDBRANCH  76  77
ENDBRANCH  68  71
ENDBRANCH  66  67
ENDBRANCH  65  66
ENDBRANCH   1  65
TORSDOF 16
ENDMDL
MODEL 3
REMARK VINA RESULT:     -11.0      4.581     10.120
REMARK SMILES O=C(NCCCCCCNC(=O)c1ccc(CSc2ccc(Cl)cn2)nc1)c1ccc(-c2c3nc(c(-c4c(F)cccc4F)c4ccc([nH]4)c(-c4c(F)cccc4F)c4nc(c(-c5c(F)cccc5F)c5ccc2[nH]5)C=C4)C=C3)cc1
REMARK SMILES IDX 7 1 6 2 5 3 4 4 3 5 1 6 2 7 28 9 29 10 81 11 30 12 80 13
REMARK SMILES IDX 31 14 32 15 33 16 74 17 34 18 79 19 73 20 75 21 35 22 78 23
REMARK SMILES IDX 72 24 71 25 36 27 62 28 45 29 61 30 46 31 49 32 60 33 76 34
REMARK SMILES IDX 47 35 48 36 59 38 77 39 50 40 37 41 38 42 43 43 39 44 40 45
REMARK SMILES IDX 42 46 44 47 41 48 63 49 64 50 69 51 65 52 66 53 68 54 70 55
REMARK SMILES IDX 67 56 51 57 52 58 57 59 53 60 54 61 56 62 58 63 55 64 8 65
REMARK SMILES IDX 9 66 10 67 11 68 12 70 13 71 14 72 27 73 15 74 26 75 16 76
REMARK SMILES IDX 17 77 18 78 19 79 20 80 25 81 21 82 24 83 22 84 23 85
REMARK H PARENT 3 8 75 26 49 37 10 69
REMARK Flexibility Score: inf
ROOT
ATOM      1  C   UNL A   1      38.012  34.147  30.146  1.00  0.00     0.002 C 
ENDROOT
BRANCH   1   2
ATOM      2  C   UNL A   1      37.391  33.308  29.024  1.00  0.00     0.002 C 
BRANCH   2   3
ATOM      3  C   UNL A   1      35.914  33.585  28.748  1.00  0.00     0.021 C 
BRANCH   3   4
ATOM      4  C   UNL A   1      34.955  32.694  29.523  1.00  0.00     0.116 C 
BRANCH   4   5
ATOM      5  N   UNL A   1      34.218  31.798  28.649  1.00  0.00    -0.352 N 
ATOM      6  O   UNL A   1      33.979  30.147  27.127  1.00  0.00    -0.269 OA
ATOM      7  C   UNL A   1      34.672  30.690  27.983  1.00  0.00     0.251 C 
ATOM      8  H   UNL A   1      33.266  32.016  28.518  1.00  0.00     0.163 HD
BRANCH   7   9
ATOM      9  C   UNL A   1      36.011  30.157  28.301  1.00  0.00     0.039 A 
ATOM     10  C   UNL A   1      37.034  30.208  27.349  1.00  0.00     0.014 A 
ATOM     11  C   UNL A   1      36.250  29.619  29.568  1.00  0.00     0.014 A 
ATOM     12  C   UNL A   1      38.266  29.632  27.626  1.00  0.00     0.010 A 
ATOM     13  C   UNL A   1      37.517  29.120  29.876  1.00  0.00     0.010 A 
ATOM     14  C   UNL A   1      38.532  29.121  28.906  1.00  0.00    -0.014 A 
BRANCH  14  15
ATOM     15  C   UNL A   1      39.919  28.735  29.256  1.00  0.00     0.031 A 
ATOM     16  C   UNL A   1      40.830  29.667  29.996  1.00  0.00     0.074 A 
ATOM     17  C   UNL A   1      40.352  27.521  28.861  1.00  0.00     0.049 A 
ATOM     18  N   UNL A   1      42.085  29.494  30.327  1.00  0.00    -0.248 NA
ATOM     19  C   UNL A   1      40.272  30.962  30.416  1.00  0.00     0.031 C 
ATOM     20  C   UNL A   1      39.550  26.543  28.116  1.00  0.00     0.029 A 
ATOM     21  N   UNL A   1      41.563  26.900  29.019  1.00  0.00    -0.354 N 
ATOM     22  C   UNL A   1      42.474  30.661  30.971  1.00  0.00     0.074 A 
ATOM     23  C   UNL A   1      41.325  31.542  30.979  1.00  0.00     0.031 C 
ATOM     24  C   UNL A   1      40.284  25.444  27.898  1.00  0.00     0.029 A 
ATOM     25  C   UNL A   1      41.626  25.666  28.418  1.00  0.00     0.049 A 
ATOM     26  H   UNL A   1      42.314  27.299  29.514  1.00  0.00     0.167 HD
ATOM     27  C   UNL A   1      43.683  30.960  31.501  1.00  0.00     0.037 A 
ATOM     28  C   UNL A   1      42.662  24.823  28.259  1.00  0.00     0.037 A 
ATOM     29  C   UNL A   1      44.812  30.063  31.499  1.00  0.00     0.049 A 
ATOM     30  C   UNL A   1      43.999  25.208  28.821  1.00  0.00     0.074 A 
ATOM     31  C   UNL A   1      46.053  30.243  32.084  1.00  0.00     0.029 A 
ATOM     32  N   UNL A   1      44.844  28.830  30.865  1.00  0.00    -0.354 N 
ATOM     33  N   UNL A   1      44.329  26.278  29.502  1.00  0.00    -0.248 NA
ATOM     34  C   UNL A   1      45.109  24.276  28.587  1.00  0.00     0.031 C 
ATOM     35  C   UNL A   1      46.859  29.152  31.746  1.00  0.00     0.029 A 
ATOM     36  C   UNL A   1      46.101  28.263  31.000  1.00  0.00     0.049 A 
ATOM     37  H   UNL A   1      44.087  28.419  30.390  1.00  0.00     0.167 HD
ATOM     38  C   UNL A   1      45.680  26.144  29.786  1.00  0.00     0.074 A 
ATOM     39  C   UNL A   1      46.101  24.874  29.231  1.00  0.00     0.031 C 
ATOM     40  C   UNL A   1      46.503  26.999  30.439  1.00  0.00     0.037 A 
BRANCH  27  41
ATOM     41  C   UNL A   1      43.879  32.316  32.113  1.00  0.00     0.057 A 
ATOM     42  C   UNL A   1      44.143  33.452  31.339  1.00  0.00     0.134 A 
ATOM     43  C   UNL A   1      43.694  32.501  33.491  1.00  0.00     0.134 A 
ATOM     44  F   UNL A   1      44.337  33.344  30.016  1.00  0.00    -0.206 F 
ATOM     45  C   UNL A   1      44.219  34.724  31.913  1.00  0.00     0.040 A 
ATOM     46  C   UNL A   1      43.746  33.770  34.072  1.00  0.00     0.040 A 
ATOM     47  F   UNL A   1      43.430  31.457  34.289  1.00  0.00    -0.206 F 
ATOM     48  C   UNL A   1      44.008  34.886  33.281  1.00  0.00     0.006 A 
ENDBRANCH  27  41
BRANCH  28  49
ATOM     49  C   UNL A   1      42.489  23.565  27.490  1.00  0.00     0.057 A 
ATOM     50  C   UNL A   1      42.118  22.371  28.117  1.00  0.00     0.134 A 
ATOM     51  C   UNL A   1      42.713  23.523  26.106  1.00  0.00     0.134 A 
ATOM     52  F   UNL A   1      41.904  22.343  29.441  1.00  0.00    -0.206 F 
ATOM     53  C   UNL A   1      42.005  21.176  27.404  1.00  0.00     0.040 A 
ATOM     54  C   UNL A   1      42.571  22.344  25.376  1.00  0.00     0.040 A 
ATOM     55  F   UNL A   1      43.062  24.635  25.443  1.00  0.00    -0.206 F 
ATOM     56  C   UNL A   1      42.228  21.162  26.029  1.00  0.00     0.006 A 
ENDBRANCH  28  49
BRANCH  40  57
ATOM     57  C   UNL A   1      47.934  26.584  30.597  1.00  0.00     0.057 A 
ATOM     58  C   UNL A   1      48.902  26.899  29.635  1.00  0.00     0.134 A 
ATOM     59  C   UNL A   1      48.359  25.900  31.744  1.00  0.00     0.134 A 
ATOM     60  F   UNL A   1      48.554  27.537  28.505  1.00  0.00    -0.206 F 
ATOM     61  C   UNL A   1      50.238  26.536  29.799  1.00  0.00     0.040 A 
ATOM     62  C   UNL A   1      49.699  25.557  31.933  1.00  0.00     0.040 A 
ATOM     63  F   UNL A   1      47.484  25.574  32.706  1.00  0.00    -0.206 F 
ATOM     64  C   UNL A   1      50.641  25.871  30.956  1.00  0.00     0.006 A 
ENDBRANCH  40  57
ENDBRANCH  14  15
ENDBRANCH   7   9
ENDBRANCH   4   5
ENDBRANCH   3   4
ENDBRANCH   2   3
ENDBRANCH   1   2
BRANCH   1  65
ATOM     65  C   UNL A   1      37.339  34.002  31.512  1.00  0.00     0.021 C 
BRANCH  65  66
ATOM     66  C   UNL A   1      38.219  34.392  32.692  1.00  0.00     0.116 C 
BRANCH  66  67
ATOM     67  N   UNL A   1      37.529  34.229  33.960  1.00  0.00    -0.352 N 
ATOM     68  C   UNL A   1      37.456  33.120  34.761  1.00  0.00     0.252 C 
ATOM     69  H   UNL A   1      37.048  35.024  34.288  1.00  0.00     0.163 HD
ATOM     70  O   UNL A   1      36.653  33.076  35.691  1.00  0.00    -0.269 OA
BRANCH  68  71
ATOM     71  C   UNL A   1      38.346  31.979  34.509  1.00  0.00     0.058 A 
ATOM     72  C   UNL A   1      37.989  30.952  33.638  1.00  0.00     0.017 A 
ATOM     73  C   UNL A   1      39.581  31.919  35.129  1.00  0.00     0.125 A 
ATOM     74  C   UNL A   1      38.844  29.871  33.482  1.00  0.00     0.025 A 
ATOM     75  N   UNL A   1      40.455  30.897  34.949  1.00  0.00    -0.260 NA
ATOM     76  C   UNL A   1      40.091  29.898  34.106  1.00  0.00     0.051 A 
BRANCH  76  77
ATOM     77  C   UNL A   1      41.089  28.800  33.816  1.00  0.00     0.132 C 
BRANCH  77  78
ATOM     78  S   UNL A   1      41.908  28.079  35.280  1.00  0.00    -0.100 SA
BRANCH  78  79
ATOM     79  C   UNL A   1      42.696  26.581  34.729  1.00  0.00     0.096 A 
ATOM     80  C   UNL A   1      43.625  26.469  33.702  1.00  0.00     0.037 A 
ATOM     81  N   UNL A   1      42.291  25.483  35.414  1.00  0.00    -0.248 NA
ATOM     82  C   UNL A   1      44.210  25.231  33.415  1.00  0.00     0.025 A 
ATOM     83  C   UNL A   1      42.844  24.285  35.100  1.00  0.00     0.132 A 
ATOM     84  C   UNL A   1      43.809  24.114  34.127  1.00  0.00     0.059 A 
ATOM     85  Cl  UNL A   1      44.479  22.574  33.790  1.00  0.00    -0.083 Cl
ENDBRANCH  78  79
ENDBRANCH  77  78
ENDBRANCH  76  77
ENDBRANCH  68  71
ENDBRANCH  66  67
ENDBRANCH  65  66
ENDBRANCH   1  65
TORSDOF 16
ENDMDL
