MODEL 1
REMARK VINA RESULT:     -11.1      0.000      0.000
REMARK SMILES CC(C)c1cc(=O)[nH]c(SCC(=O)NCCCCCCNC(=O)c2ccc(-c3c4nc(c(-c5c(F)cccc5F)c5ccc([nH]5)c(-c5c(F)cccc5F)c5nc(c(-c6c(F)cccc6F)c6ccc3[nH]6)C=C5)C=C4)cc2)n1
REMARK SMILES IDX 17 1 16 2 15 3 14 4 12 5 13 6 11 8 10 9 9 10 4 11 5 12 78 13
REMARK SMILES IDX 6 14 7 15 8 16 2 18 1 19 3 20 18 21 19 22 20 23 21 24 22 25
REMARK SMILES IDX 23 27 24 28 25 29 77 30 26 31 76 32 27 33 28 34 29 35 70 36
REMARK SMILES IDX 30 37 75 38 69 39 71 40 31 41 74 42 68 43 67 44 32 46 58 47
REMARK SMILES IDX 41 48 57 49 42 50 45 51 56 52 72 53 43 54 44 55 55 57 73 58
REMARK SMILES IDX 46 59 33 60 34 61 39 62 35 63 36 64 38 65 40 66 37 67 59 68
REMARK SMILES IDX 60 69 65 70 61 71 62 72 64 73 66 74 63 75 47 76 48 77 53 78
REMARK SMILES IDX 49 79 50 80 52 81 54 82 51 83
REMARK H PARENT 14 7 8 17 21 26 71 45 45 56
REMARK Flexibility Score: inf
ROOT
ATOM      1  C   UNL A   1      32.374  29.960  26.806  1.00  0.00     0.002 C 
ENDROOT
BRANCH   1   2
ATOM      2  C   UNL A   1      31.787  28.645  27.342  1.00  0.00     0.021 C 
BRANCH   2   3
ATOM      3  C   UNL A   1      31.619  27.559  26.277  1.00  0.00     0.116 C 
BRANCH   3   4
ATOM      4  N   UNL A   1      31.344  26.276  26.893  1.00  0.00    -0.355 N 
ATOM      5  C   UNL A   1      31.521  25.010  26.423  1.00  0.00     0.230 C 
ATOM      6  O   UNL A   1      31.194  24.084  27.171  1.00  0.00    -0.274 OA
ATOM      7  H   UNL A   1      30.968  26.329  27.802  1.00  0.00     0.163 HD
BRANCH   5   8
ATOM      8  C   UNL A   1      32.231  24.746  25.107  1.00  0.00     0.178 C 
BRANCH   8   9
ATOM      9  S   UNL A   1      31.569  23.379  24.122  1.00  0.00    -0.078 SA
BRANCH   9  10
ATOM     10  C   UNL A   1      32.680  22.100  24.465  1.00  0.00     0.168 A 
ATOM     11  C   UNL A   1      34.709  21.143  24.857  1.00  0.00     0.051 A 
ATOM     12  C   UNL A   1      34.175  19.919  25.001  1.00  0.00     0.095 A 
ATOM     13  N   UNL A   1      33.951  22.260  24.571  1.00  0.00    -0.229 NA
ATOM     14  C   UNL A   1      32.720  19.766  24.862  1.00  0.00     0.251 A 
ATOM     15  O   UNL A   1      32.172  18.675  24.985  1.00  0.00    -0.269 OA
ATOM     16  N   UNL A   1      32.042  20.910  24.596  1.00  0.00    -0.301 N 
ATOM     17  H   UNL A   1      31.063  20.876  24.496  1.00  0.00     0.172 HD
BRANCH  11  18
ATOM     18  C   UNL A   1      36.206  21.415  24.977  1.00  0.00     0.032 C 
ATOM     19  C   UNL A   1      36.990  20.101  24.934  1.00  0.00     0.014 C 
ATOM     20  C   UNL A   1      36.762  22.395  23.938  1.00  0.00     0.014 C 
ENDBRANCH  11  18
ENDBRANCH   9  10
ENDBRANCH   8   9
ENDBRANCH   5   8
ENDBRANCH   3   4
ENDBRANCH   2   3
ENDBRANCH   1   2
BRANCH   1  21
ATOM     21  C   UNL A   1      31.400  30.831  26.005  1.00  0.00     0.002 C 
BRANCH  21  22
ATOM     22  C   UNL A   1      31.256  32.270  26.507  1.00  0.00     0.021 C 
BRANCH  22  23
ATOM     23  C   UNL A   1      32.474  32.806  27.251  1.00  0.00     0.116 C 
BRANCH  23  24
ATOM     24  N   UNL A   1      32.320  34.202  27.626  1.00  0.00    -0.352 N 
ATOM     25  C   UNL A   1      32.998  34.930  28.573  1.00  0.00     0.251 C 
ATOM     26  H   UNL A   1      31.629  34.698  27.129  1.00  0.00     0.163 HD
ATOM     27  O   UNL A   1      32.610  36.051  28.887  1.00  0.00    -0.269 OA
BRANCH  25  28
ATOM     28  C   UNL A   1      34.187  34.351  29.235  1.00  0.00     0.039 A 
ATOM     29  C   UNL A   1      34.021  33.653  30.433  1.00  0.00     0.014 A 
ATOM     30  C   UNL A   1      35.460  34.497  28.678  1.00  0.00     0.014 A 
ATOM     31  C   UNL A   1      35.123  33.049  31.040  1.00  0.00     0.010 A 
ATOM     32  C   UNL A   1      36.544  33.831  29.243  1.00  0.00     0.010 A 
ATOM     33  C   UNL A   1      36.388  33.101  30.430  1.00  0.00    -0.014 A 
BRANCH  33  34
ATOM     34  C   UNL A   1      37.556  32.397  31.020  1.00  0.00     0.031 A 
ATOM     35  C   UNL A   1      38.199  32.916  32.276  1.00  0.00     0.074 A 
ATOM     36  C   UNL A   1      38.074  31.324  30.391  1.00  0.00     0.049 A 
ATOM     37  N   UNL A   1      39.263  32.479  32.903  1.00  0.00    -0.248 NA
ATOM     38  C   UNL A   1      37.582  34.100  32.896  1.00  0.00     0.031 C 
ATOM     39  C   UNL A   1      37.569  30.747  29.144  1.00  0.00     0.029 A 
ATOM     40  N   UNL A   1      39.148  30.532  30.711  1.00  0.00    -0.354 N 
ATOM     41  C   UNL A   1      39.444  33.334  33.982  1.00  0.00     0.074 A 
ATOM     42  C   UNL A   1      38.419  34.352  33.891  1.00  0.00     0.031 C 
ATOM     43  C   UNL A   1      38.317  29.682  28.817  1.00  0.00     0.029 A 
ATOM     44  C   UNL A   1      39.378  29.524  29.806  1.00  0.00     0.049 A 
ATOM     45  H   UNL A   1      39.703  30.672  31.513  1.00  0.00     0.167 HD
ATOM     46  C   UNL A   1      40.364  33.265  34.974  1.00  0.00     0.037 A 
ATOM     47  C   UNL A   1      40.342  28.583  29.771  1.00  0.00     0.037 A 
ATOM     48  C   UNL A   1      41.373  32.243  35.070  1.00  0.00     0.049 A 
ATOM     49  C   UNL A   1      41.368  28.544  30.870  1.00  0.00     0.074 A 
ATOM     50  C   UNL A   1      42.323  32.059  36.060  1.00  0.00     0.029 A 
ATOM     51  N   UNL A   1      41.570  31.234  34.138  1.00  0.00    -0.354 N 
ATOM     52  N   UNL A   1      41.488  29.320  31.919  1.00  0.00    -0.248 NA
ATOM     53  C   UNL A   1      42.392  27.491  30.783  1.00  0.00     0.031 C 
ATOM     54  C   UNL A   1      43.124  30.971  35.703  1.00  0.00     0.029 A 
ATOM     55  C   UNL A   1      42.639  30.440  34.518  1.00  0.00     0.049 A 
ATOM     56  H   UNL A   1      41.029  31.103  33.326  1.00  0.00     0.167 HD
ATOM     57  C   UNL A   1      42.577  28.832  32.632  1.00  0.00     0.074 A 
ATOM     58  C   UNL A   1      43.073  27.684  31.903  1.00  0.00     0.031 C 
ATOM     59  C   UNL A   1      43.116  29.293  33.787  1.00  0.00     0.037 A 
BRANCH  46  60
ATOM     60  C   UNL A   1      40.317  34.323  36.038  1.00  0.00     0.057 A 
ATOM     61  C   UNL A   1      39.516  34.188  37.181  1.00  0.00     0.134 A 
ATOM     62  C   UNL A   1      41.105  35.476  35.938  1.00  0.00     0.134 A 
ATOM     63  F   UNL A   1      38.728  33.113  37.335  1.00  0.00    -0.206 F 
ATOM     64  C   UNL A   1      39.480  35.173  38.170  1.00  0.00     0.040 A 
ATOM     65  C   UNL A   1      41.101  36.454  36.936  1.00  0.00     0.040 A 
ATOM     66  F   UNL A   1      41.902  35.668  34.876  1.00  0.00    -0.206 F 
ATOM     67  C   UNL A   1      40.280  36.307  38.051  1.00  0.00     0.006 A 
ENDBRANCH  46  60
BRANCH  47  68
ATOM     68  C   UNL A   1      40.378  27.591  28.666  1.00  0.00     0.057 A 
ATOM     69  C   UNL A   1      41.140  27.821  27.514  1.00  0.00     0.134 A 
ATOM     70  C   UNL A   1      39.640  26.403  28.724  1.00  0.00     0.134 A 
ATOM     71  F   UNL A   1      41.853  28.949  27.390  1.00  0.00    -0.206 F 
ATOM     72  C   UNL A   1      41.147  26.917  26.450  1.00  0.00     0.040 A 
ATOM     73  C   UNL A   1      39.661  25.477  27.680  1.00  0.00     0.040 A 
ATOM     74  F   UNL A   1      38.897  26.119  29.803  1.00  0.00    -0.206 F 
ATOM     75  C   UNL A   1      40.409  25.738  26.533  1.00  0.00     0.006 A 
ENDBRANCH  47  68
BRANCH  59  76
ATOM     76  C   UNL A   1      44.278  28.532  34.356  1.00  0.00     0.057 A 
ATOM     77  C   UNL A   1      44.102  27.441  35.217  1.00  0.00     0.134 A 
ATOM     78  C   UNL A   1      45.591  28.874  34.006  1.00  0.00     0.134 A 
ATOM     79  F   UNL A   1      42.871  27.069  35.602  1.00  0.00    -0.206 F 
ATOM     80  C   UNL A   1      45.191  26.734  35.730  1.00  0.00     0.040 A 
ATOM     81  C   UNL A   1      46.687  28.156  34.489  1.00  0.00     0.040 A 
ATOM     82  F   UNL A   1      45.830  29.902  33.179  1.00  0.00    -0.206 F 
ATOM     83  C   UNL A   1      46.488  27.087  35.360  1.00  0.00     0.006 A 
ENDBRANCH  59  76
ENDBRANCH  33  34
ENDBRANCH  25  28
ENDBRANCH  23  24
ENDBRANCH  22  23
ENDBRANCH  21  22
ENDBRANCH   1  21
TORSDOF 16
ENDMDL
MODEL 2
REMARK VINA RESULT:     -11.0      2.107      7.218
REMARK SMILES CC(C)c1cc(=O)[nH]c(SCC(=O)NCCCCCCNC(=O)c2ccc(-c3c4nc(c(-c5c(F)cccc5F)c5ccc([nH]5)c(-c5c(F)cccc5F)c5nc(c(-c6c(F)cccc6F)c6ccc3[nH]6)C=C5)C=C4)cc2)n1
REMARK SMILES IDX 17 1 16 2 15 3 14 4 12 5 13 6 11 8 10 9 9 10 4 11 5 12 78 13
REMARK SMILES IDX 6 14 7 15 8 16 2 18 1 19 3 20 18 21 19 22 20 23 21 24 22 25
REMARK SMILES IDX 23 27 24 28 25 29 77 30 26 31 76 32 27 33 28 34 29 35 70 36
REMARK SMILES IDX 30 37 75 38 69 39 71 40 31 41 74 42 68 43 67 44 32 46 58 47
REMARK SMILES IDX 41 48 57 49 42 50 45 51 56 52 72 53 43 54 44 55 55 57 73 58
REMARK SMILES IDX 46 59 33 60 34 61 39 62 35 63 36 64 38 65 40 66 37 67 59 68
REMARK SMILES IDX 60 69 65 70 61 71 62 72 64 73 66 74 63 75 47 76 48 77 53 78
REMARK SMILES IDX 49 79 50 80 52 81 54 82 51 83
REMARK H PARENT 14 7 8 17 21 26 71 45 45 56
REMARK Flexibility Score: inf
ROOT
ATOM      1  C   UNL A   1      32.560  29.778  26.959  1.00  0.00     0.002 C 
ENDROOT
BRANCH   1   2
ATOM      2  C   UNL A   1      31.849  28.575  27.598  1.00  0.00     0.021 C 
BRANCH   2   3
ATOM      3  C   UNL A   1      31.253  27.594  26.585  1.00  0.00     0.116 C 
BRANCH   3   4
ATOM      4  N   UNL A   1      31.820  26.272  26.758  1.00  0.00    -0.355 N 
ATOM      5  C   UNL A   1      31.388  25.057  26.318  1.00  0.00     0.230 C 
ATOM      6  O   UNL A   1      32.076  24.076  26.617  1.00  0.00    -0.274 OA
ATOM      7  H   UNL A   1      32.655  26.247  27.280  1.00  0.00     0.163 HD
BRANCH   5   8
ATOM      8  C   UNL A   1      30.207  24.931  25.373  1.00  0.00     0.178 C 
BRANCH   8   9
ATOM      9  S   UNL A   1      30.607  24.994  23.609  1.00  0.00    -0.078 SA
BRANCH   9  10
ATOM     10  C   UNL A   1      30.506  26.685  23.263  1.00  0.00     0.168 A 
ATOM     11  C   UNL A   1      29.482  28.683  22.883  1.00  0.00     0.051 A 
ATOM     12  C   UNL A   1      30.652  29.322  22.711  1.00  0.00     0.095 A 
ATOM     13  N   UNL A   1      29.401  27.332  23.154  1.00  0.00    -0.229 NA
ATOM     14  C   UNL A   1      31.898  28.551  22.831  1.00  0.00     0.251 A 
ATOM     15  O   UNL A   1      32.996  29.077  22.687  1.00  0.00    -0.269 OA
ATOM     16  N   UNL A   1      31.737  27.234  23.113  1.00  0.00    -0.301 N 
ATOM     17  H   UNL A   1      32.533  26.663  23.209  1.00  0.00     0.172 HD
BRANCH  11  18
ATOM     18  C   UNL A   1      28.130  29.383  22.778  1.00  0.00     0.032 C 
ATOM     19  C   UNL A   1      27.019  28.477  23.315  1.00  0.00     0.014 C 
ATOM     20  C   UNL A   1      28.067  30.755  23.458  1.00  0.00     0.014 C 
ENDBRANCH  11  18
ENDBRANCH   9  10
ENDBRANCH   8   9
ENDBRANCH   5   8
ENDBRANCH   3   4
ENDBRANCH   2   3
ENDBRANCH   1   2
BRANCH   1  21
ATOM     21  C   UNL A   1      31.671  30.670  26.084  1.00  0.00     0.002 C 
BRANCH  21  22
ATOM     22  C   UNL A   1      31.407  32.069  26.645  1.00  0.00     0.021 C 
BRANCH  22  23
ATOM     23  C   UNL A   1      32.640  32.771  27.205  1.00  0.00     0.116 C 
BRANCH  23  24
ATOM     24  N   UNL A   1      32.371  34.153  27.565  1.00  0.00    -0.352 N 
ATOM     25  C   UNL A   1      32.956  34.931  28.534  1.00  0.00     0.251 C 
ATOM     26  H   UNL A   1      31.668  34.597  27.037  1.00  0.00     0.163 HD
ATOM     27  O   UNL A   1      32.476  36.022  28.825  1.00  0.00    -0.269 OA
BRANCH  25  28
ATOM     28  C   UNL A   1      34.156  34.441  29.247  1.00  0.00     0.039 A 
ATOM     29  C   UNL A   1      34.002  33.858  30.506  1.00  0.00     0.014 A 
ATOM     30  C   UNL A   1      35.427  34.558  28.677  1.00  0.00     0.014 A 
ATOM     31  C   UNL A   1      35.116  33.336  31.167  1.00  0.00     0.010 A 
ATOM     32  C   UNL A   1      36.523  33.970  29.302  1.00  0.00     0.010 A 
ATOM     33  C   UNL A   1      36.379  33.354  30.554  1.00  0.00    -0.014 A 
BRANCH  33  34
ATOM     34  C   UNL A   1      37.560  32.732  31.207  1.00  0.00     0.031 A 
ATOM     35  C   UNL A   1      38.221  31.529  30.593  1.00  0.00     0.074 A 
ATOM     36  C   UNL A   1      38.002  33.216  32.385  1.00  0.00     0.049 A 
ATOM     37  N   UNL A   1      39.218  30.811  31.046  1.00  0.00    -0.248 NA
ATOM     38  C   UNL A   1      37.673  31.053  29.312  1.00  0.00     0.031 C 
ATOM     39  C   UNL A   1      37.421  34.351  33.105  1.00  0.00     0.029 A 
ATOM     40  N   UNL A   1      39.036  32.808  33.189  1.00  0.00    -0.354 N 
ATOM     41  C   UNL A   1      39.411  29.800  30.114  1.00  0.00     0.074 A 
ATOM     42  C   UNL A   1      38.389  29.959  29.101  1.00  0.00     0.031 C 
ATOM     43  C   UNL A   1      38.121  34.562  34.231  1.00  0.00     0.029 A 
ATOM     44  C   UNL A   1      39.172  33.554  34.334  1.00  0.00     0.049 A 
ATOM     45  H   UNL A   1      39.626  32.051  32.967  1.00  0.00     0.167 HD
ATOM     46  C   UNL A   1      40.366  28.840  30.089  1.00  0.00     0.037 A 
ATOM     47  C   UNL A   1      40.039  33.435  35.358  1.00  0.00     0.037 A 
ATOM     48  C   UNL A   1      41.390  28.692  31.090  1.00  0.00     0.049 A 
ATOM     49  C   UNL A   1      41.074  32.344  35.319  1.00  0.00     0.074 A 
ATOM     50  C   UNL A   1      42.431  27.781  31.131  1.00  0.00     0.029 A 
ATOM     51  N   UNL A   1      41.499  29.473  32.232  1.00  0.00    -0.354 N 
ATOM     52  N   UNL A   1      41.284  31.435  34.399  1.00  0.00    -0.248 NA
ATOM     53  C   UNL A   1      41.997  32.267  36.461  1.00  0.00     0.031 C 
ATOM     54  C   UNL A   1      43.139  27.978  32.321  1.00  0.00     0.029 A 
ATOM     55  C   UNL A   1      42.574  29.048  32.994  1.00  0.00     0.049 A 
ATOM     56  H   UNL A   1      40.899  30.218  32.465  1.00  0.00     0.167 HD
ATOM     57  C   UNL A   1      42.380  30.700  34.833  1.00  0.00     0.074 A 
ATOM     58  C   UNL A   1      42.800  31.279  36.093  1.00  0.00     0.031 C 
ATOM     59  C   UNL A   1      42.986  29.641  34.242  1.00  0.00     0.037 A 
BRANCH  46  60
ATOM     60  C   UNL A   1      40.350  27.877  28.937  1.00  0.00     0.057 A 
ATOM     61  C   UNL A   1      39.576  26.708  28.961  1.00  0.00     0.134 A 
ATOM     62  C   UNL A   1      41.089  28.135  27.776  1.00  0.00     0.134 A 
ATOM     63  F   UNL A   1      38.853  26.395  30.046  1.00  0.00    -0.206 F 
ATOM     64  C   UNL A   1      39.561  25.818  27.885  1.00  0.00     0.040 A 
ATOM     65  C   UNL A   1      41.058  27.268  26.681  1.00  0.00     0.040 A 
ATOM     66  F   UNL A   1      41.846  29.239  27.680  1.00  0.00    -0.206 F 
ATOM     67  C   UNL A   1      40.298  26.103  26.738  1.00  0.00     0.006 A 
ENDBRANCH  46  60
BRANCH  47  68
ATOM     68  C   UNL A   1      39.978  34.380  36.503  1.00  0.00     0.057 A 
ATOM     69  C   UNL A   1      39.210  34.092  37.637  1.00  0.00     0.134 A 
ATOM     70  C   UNL A   1      40.667  35.598  36.484  1.00  0.00     0.134 A 
ATOM     71  F   UNL A   1      38.511  32.950  37.708  1.00  0.00    -0.206 F 
ATOM     72  C   UNL A   1      39.108  34.991  38.700  1.00  0.00     0.040 A 
ATOM     73  C   UNL A   1      40.598  36.494  37.552  1.00  0.00     0.040 A 
ATOM     74  F   UNL A   1      41.427  35.931  35.431  1.00  0.00    -0.206 F 
ATOM     75  C   UNL A   1      39.809  36.195  38.661  1.00  0.00     0.006 A 
ENDBRANCH  47  68
BRANCH  59  76
ATOM     76  C   UNL A   1      44.191  29.066  34.928  1.00  0.00     0.057 A 
ATOM     77  C   UNL A   1      44.090  28.028  35.863  1.00  0.00     0.134 A 
ATOM     78  C   UNL A   1      45.476  29.535  34.619  1.00  0.00     0.134 A 
ATOM     79  F   UNL A   1      42.889  27.542  36.213  1.00  0.00    -0.206 F 
ATOM     80  C   UNL A   1      45.220  27.494  36.484  1.00  0.00     0.040 A 
ATOM     81  C   UNL A   1      46.615  28.989  35.212  1.00  0.00     0.040 A 
ATOM     82  F   UNL A   1      45.645  30.521  33.726  1.00  0.00    -0.206 F 
ATOM     83  C   UNL A   1      46.488  27.970  36.154  1.00  0.00     0.006 A 
ENDBRANCH  59  76
ENDBRANCH  33  34
ENDBRANCH  25  28
ENDBRANCH  23  24
ENDBRANCH  22  23
ENDBRANCH  21  22
ENDBRANCH   1  21
TORSDOF 16
ENDMDL
MODEL 3
REMARK VINA RESULT:     -11.0      1.013      6.482
REMARK SMILES CC(C)c1cc(=O)[nH]c(SCC(=O)NCCCCCCNC(=O)c2ccc(-c3c4nc(c(-c5c(F)cccc5F)c5ccc([nH]5)c(-c5c(F)cccc5F)c5nc(c(-c6c(F)cccc6F)c6ccc3[nH]6)C=C5)C=C4)cc2)n1
REMARK SMILES IDX 17 1 16 2 15 3 14 4 12 5 13 6 11 8 10 9 9 10 4 11 5 12 78 13
REMARK SMILES IDX 6 14 7 15 8 16 2 18 1 19 3 20 18 21 19 22 20 23 21 24 22 25
REMARK SMILES IDX 23 27 24 28 25 29 77 30 26 31 76 32 27 33 28 34 29 35 70 36
REMARK SMILES IDX 30 37 75 38 69 39 71 40 31 41 74 42 68 43 67 44 32 46 58 47
REMARK SMILES IDX 41 48 57 49 42 50 45 51 56 52 72 53 43 54 44 55 55 57 73 58
REMARK SMILES IDX 46 59 33 60 34 61 39 62 35 63 36 64 38 65 40 66 37 67 59 68
REMARK SMILES IDX 60 69 65 70 61 71 62 72 64 73 66 74 63 75 47 76 48 77 53 78
REMARK SMILES IDX 49 79 50 80 52 81 54 82 51 83
REMARK H PARENT 14 7 8 17 21 26 71 45 45 56
REMARK Flexibility Score: inf
ROOT
ATOM      1  C   UNL A   1      32.409  29.478  26.907  1.00  0.00     0.002 C 
ENDROOT
BRANCH   1   2
ATOM      2  C   UNL A   1      31.693  28.187  27.333  1.00  0.00     0.021 C 
BRANCH   2   3
ATOM      3  C   UNL A   1      31.821  27.043  26.325  1.00  0.00     0.116 C 
BRANCH   3   4
ATOM      4  N   UNL A   1      31.383  25.792  26.911  1.00  0.00    -0.355 N 
ATOM      5  C   UNL A   1      31.518  24.510  26.471  1.00  0.00     0.230 C 
ATOM      6  O   UNL A   1      31.039  23.621  27.181  1.00  0.00    -0.274 OA
ATOM      7  H   UNL A   1      30.909  25.884  27.769  1.00  0.00     0.163 HD
BRANCH   5   8
ATOM      8  C   UNL A   1      32.354  24.177  25.248  1.00  0.00     0.178 C 
BRANCH   8   9
ATOM      9  S   UNL A   1      31.775  22.773  24.264  1.00  0.00    -0.078 SA
BRANCH   9  10
ATOM     10  C   UNL A   1      33.016  21.597  24.524  1.00  0.00     0.168 A 
ATOM     11  C   UNL A   1      33.922  19.514  24.672  1.00  0.00     0.051 A 
ATOM     12  C   UNL A   1      35.137  19.996  24.988  1.00  0.00     0.095 A 
ATOM     13  N   UNL A   1      32.832  20.327  24.445  1.00  0.00    -0.229 NA
ATOM     14  C   UNL A   1      35.312  21.452  25.082  1.00  0.00     0.251 A 
ATOM     15  O   UNL A   1      36.395  21.953  25.365  1.00  0.00    -0.269 OA
ATOM     16  N   UNL A   1      34.199  22.185  24.832  1.00  0.00    -0.301 N 
ATOM     17  H   UNL A   1      34.251  23.167  24.875  1.00  0.00     0.172 HD
BRANCH  11  18
ATOM     18  C   UNL A   1      33.627  18.022  24.551  1.00  0.00     0.032 C 
ATOM     19  C   UNL A   1      32.528  17.616  25.536  1.00  0.00     0.014 C 
ATOM     20  C   UNL A   1      33.268  17.554  23.136  1.00  0.00     0.014 C 
ENDBRANCH  11  18
ENDBRANCH   9  10
ENDBRANCH   8   9
ENDBRANCH   5   8
ENDBRANCH   3   4
ENDBRANCH   2   3
ENDBRANCH   1   2
BRANCH   1  21
ATOM     21  C   UNL A   1      31.604  30.395  25.978  1.00  0.00     0.002 C 
BRANCH  21  22
ATOM     22  C   UNL A   1      31.401  31.821  26.495  1.00  0.00     0.021 C 
BRANCH  22  23
ATOM     23  C   UNL A   1      32.632  32.439  27.150  1.00  0.00     0.116 C 
BRANCH  23  24
ATOM     24  N   UNL A   1      32.427  33.835  27.501  1.00  0.00    -0.352 N 
ATOM     25  C   UNL A   1      33.041  34.589  28.470  1.00  0.00     0.251 C 
ATOM     26  H   UNL A   1      31.749  34.309  26.965  1.00  0.00     0.163 HD
ATOM     27  O   UNL A   1      32.612  35.704  28.752  1.00  0.00    -0.269 OA
BRANCH  25  28
ATOM     28  C   UNL A   1      34.211  34.047  29.194  1.00  0.00     0.039 A 
ATOM     29  C   UNL A   1      33.998  33.198  30.282  1.00  0.00     0.014 A 
ATOM     30  C   UNL A   1      35.512  34.375  28.803  1.00  0.00     0.014 A 
ATOM     31  C   UNL A   1      35.090  32.629  30.940  1.00  0.00     0.010 A 
ATOM     32  C   UNL A   1      36.596  33.748  29.410  1.00  0.00     0.010 A 
ATOM     33  C   UNL A   1      36.397  32.869  30.486  1.00  0.00    -0.014 A 
BRANCH  33  34
ATOM     34  C   UNL A   1      37.566  32.210  31.123  1.00  0.00     0.031 A 
ATOM     35  C   UNL A   1      38.295  31.105  30.411  1.00  0.00     0.074 A 
ATOM     36  C   UNL A   1      37.936  32.567  32.368  1.00  0.00     0.049 A 
ATOM     37  N   UNL A   1      39.293  30.367  30.829  1.00  0.00    -0.248 NA
ATOM     38  C   UNL A   1      37.824  30.764  29.058  1.00  0.00     0.031 C 
ATOM     39  C   UNL A   1      37.285  33.596  33.183  1.00  0.00     0.029 A 
ATOM     40  N   UNL A   1      38.944  32.099  33.172  1.00  0.00    -0.354 N 
ATOM     41  C   UNL A   1      39.562  29.475  29.799  1.00  0.00     0.074 A 
ATOM     42  C   UNL A   1      38.584  29.721  28.761  1.00  0.00     0.031 C 
ATOM     43  C   UNL A   1      37.924  33.696  34.359  1.00  0.00     0.029 A 
ATOM     44  C   UNL A   1      39.001  32.713  34.400  1.00  0.00     0.049 A 
ATOM     45  H   UNL A   1      39.569  31.389  32.896  1.00  0.00     0.167 HD
ATOM     46  C   UNL A   1      40.550  28.552  29.713  1.00  0.00     0.037 A 
ATOM     47  C   UNL A   1      39.823  32.500  35.446  1.00  0.00     0.037 A 
ATOM     48  C   UNL A   1      41.529  28.318  30.742  1.00  0.00     0.049 A 
ATOM     49  C   UNL A   1      40.894  31.450  35.336  1.00  0.00     0.074 A 
ATOM     50  C   UNL A   1      42.598  27.438  30.732  1.00  0.00     0.029 A 
ATOM     51  N   UNL A   1      41.559  28.965  31.968  1.00  0.00    -0.354 N 
ATOM     52  N   UNL A   1      41.178  30.659  34.330  1.00  0.00    -0.248 NA
ATOM     53  C   UNL A   1      41.765  31.268  36.507  1.00  0.00     0.031 C 
ATOM     54  C   UNL A   1      43.242  27.516  31.970  1.00  0.00     0.029 A 
ATOM     55  C   UNL A   1      42.611  28.486  32.731  1.00  0.00     0.049 A 
ATOM     56  H   UNL A   1      40.925  29.662  32.254  1.00  0.00     0.167 HD
ATOM     57  C   UNL A   1      42.276  29.910  34.733  1.00  0.00     0.074 A 
ATOM     58  C   UNL A   1      42.617  30.352  36.070  1.00  0.00     0.031 C 
ATOM     59  C   UNL A   1      42.944  28.943  34.057  1.00  0.00     0.037 A 
BRANCH  46  60
ATOM     60  C   UNL A   1      40.620  27.727  28.460  1.00  0.00     0.057 A 
ATOM     61  C   UNL A   1      41.365  28.137  27.346  1.00  0.00     0.134 A 
ATOM     62  C   UNL A   1      39.964  26.493  28.376  1.00  0.00     0.134 A 
ATOM     63  F   UNL A   1      42.009  29.314  27.355  1.00  0.00    -0.206 F 
ATOM     64  C   UNL A   1      41.432  27.365  26.185  1.00  0.00     0.040 A 
ATOM     65  C   UNL A   1      40.049  25.696  27.232  1.00  0.00     0.040 A 
ATOM     66  F   UNL A   1      39.240  26.033  29.408  1.00  0.00    -0.206 F 
ATOM     67  C   UNL A   1      40.777  26.136  26.130  1.00  0.00     0.006 A 
ENDBRANCH  46  60
BRANCH  47  68
ATOM     68  C   UNL A   1      39.677  33.306  36.686  1.00  0.00     0.057 A 
ATOM     69  C   UNL A   1      38.778  32.928  37.691  1.00  0.00     0.134 A 
ATOM     70  C   UNL A   1      40.415  34.478  36.888  1.00  0.00     0.134 A 
ATOM     71  F   UNL A   1      38.029  31.826  37.548  1.00  0.00    -0.206 F 
ATOM     72  C   UNL A   1      38.599  33.700  38.840  1.00  0.00     0.040 A 
ATOM     73  C   UNL A   1      40.267  35.244  38.046  1.00  0.00     0.040 A 
ATOM     74  F   UNL A   1      41.299  34.890  35.968  1.00  0.00    -0.206 F 
ATOM     75  C   UNL A   1      39.350  34.861  39.022  1.00  0.00     0.006 A 
ENDBRANCH  47  68
BRANCH  59  76
ATOM     76  C   UNL A   1      44.135  28.327  34.733  1.00  0.00     0.057 A 
ATOM     77  C   UNL A   1      44.032  27.159  35.500  1.00  0.00     0.134 A 
ATOM     78  C   UNL A   1      45.408  28.891  34.582  1.00  0.00     0.134 A 
ATOM     79  F   UNL A   1      42.840  26.575  35.695  1.00  0.00    -0.206 F 
ATOM     80  C   UNL A   1      45.149  26.590  36.113  1.00  0.00     0.040 A 
ATOM     81  C   UNL A   1      46.538  28.315  35.166  1.00  0.00     0.040 A 
ATOM     82  F   UNL A   1      45.579  30.005  33.853  1.00  0.00    -0.206 F 
ATOM     83  C   UNL A   1      46.407  27.164  35.941  1.00  0.00     0.006 A 
ENDBRANCH  59  76
ENDBRANCH  33  34
ENDBRANCH  25  28
ENDBRANCH  23  24
ENDBRANCH  22  23
ENDBRANCH  21  22
ENDBRANCH   1  21
TORSDOF 16
ENDMDL
