MODEL 1
REMARK VINA RESULT:      -9.5      0.000      0.000
REMARK SMILES Cc1cc(=O)n2nc(C[N@@H+](C)CC(=O)NCCCCCCNC(=O)c3ccc(-c4c5nc(c(-c6c(F)cccc6F)c6ccc([nH]6)c(-c6c(F)cccc6F)c6nc(c(-c7c(F)cccc7F)c7ccc4[nH]7)C=C6)C=C5)cc3)sc2n1
REMARK SMILES IDX 18 1 17 2 16 3 15 4 13 5 14 6 12 8 10 9 11 10 9 12 8 13 1 14
REMARK SMILES IDX 2 15 3 16 81 17 4 18 80 19 5 20 6 21 79 22 7 23 19 24 20 25
REMARK SMILES IDX 21 26 22 27 23 28 24 30 25 31 26 32 78 33 27 34 77 35 28 36
REMARK SMILES IDX 29 37 30 38 71 39 31 40 76 41 70 42 72 43 32 44 75 45 69 46
REMARK SMILES IDX 68 47 33 49 59 50 42 51 58 52 43 53 46 54 57 55 73 56 44 57
REMARK SMILES IDX 45 58 56 60 74 61 47 62 34 63 35 64 40 65 36 66 37 67 39 68
REMARK SMILES IDX 41 69 38 70 60 71 61 72 66 73 62 74 63 75 65 76 67 77 64 78
REMARK SMILES IDX 48 79 49 80 54 81 50 82 51 83 53 84 55 85 52 86
REMARK H PARENT 15 7 10 11 22 29 72 48 46 59
REMARK Flexibility Score: inf
ROOT
ATOM      1  C   UNL A   1      36.371  31.227  32.657  1.00  0.00     0.002 C 
ENDROOT
BRANCH   1   2
ATOM      2  C   UNL A   1      37.798  30.699  32.820  1.00  0.00     0.021 C 
BRANCH   2   3
ATOM      3  C   UNL A   1      38.551  31.283  34.015  1.00  0.00     0.116 C 
BRANCH   3   4
ATOM      4  N   UNL A   1      38.153  30.624  35.236  1.00  0.00    -0.351 N 
ATOM      5  C   UNL A   1      37.908  31.163  36.461  1.00  0.00     0.275 C 
ATOM      6  O   UNL A   1      37.705  30.387  37.398  1.00  0.00    -0.269 OA
ATOM      7  H   UNL A   1      38.046  29.647  35.174  1.00  0.00     0.163 HD
BRANCH   5   8
ATOM      8  C   UNL A   1      37.854  32.679  36.660  1.00  0.00     0.363 C 
BRANCH   8   9
ATOM      9  N   UNL A   1      39.145  33.345  36.905  1.00  0.00    -0.324 N 
ATOM     10  C   UNL A   1      39.730  33.181  38.217  1.00  0.00     0.333 C 
ATOM     11  H   UNL A   1      39.746  32.771  36.314  1.00  0.00     0.348 HD
BRANCH   9  12
ATOM     12  C   UNL A   1      39.288  34.700  36.357  1.00  0.00     0.333 C 
BRANCH  12  13
ATOM     13  C   UNL A   1      39.867  34.615  34.968  1.00  0.00     0.172 A 
ATOM     14  C   UNL A   1      42.914  33.460  29.967  1.00  0.00     0.067 C 
ATOM     15  C   UNL A   1      41.845  33.887  30.930  1.00  0.00     0.046 A 
ATOM     16  C   UNL A   1      40.607  34.197  30.512  1.00  0.00     0.097 A 
ATOM     17  N   UNL A   1      42.238  33.910  32.249  1.00  0.00    -0.224 NA
ATOM     18  C   UNL A   1      39.572  34.579  31.504  1.00  0.00     0.275 A 
ATOM     19  C   UNL A   1      41.318  34.216  33.097  1.00  0.00     0.215 A 
ATOM     20  O   UNL A   1      38.454  34.897  31.114  1.00  0.00    -0.267 OA
ATOM     21  N   UNL A   1      40.018  34.529  32.806  1.00  0.00    -0.167 N 
ATOM     22  S   UNL A   1      41.582  34.282  34.803  1.00  0.00    -0.073 S 
ATOM     23  N   UNL A   1      39.184  34.760  33.876  1.00  0.00    -0.150 NA
ENDBRANCH  12  13
ENDBRANCH   9  12
ENDBRANCH   8   9
ENDBRANCH   5   8
ENDBRANCH   3   4
ENDBRANCH   2   3
ENDBRANCH   1   2
BRANCH   1  24
ATOM     24  C   UNL A   1      36.206  32.748  32.794  1.00  0.00     0.002 C 
BRANCH  24  25
ATOM     25  C   UNL A   1      35.321  33.432  31.743  1.00  0.00     0.021 C 
BRANCH  25  26
ATOM     26  C   UNL A   1      34.553  32.457  30.868  1.00  0.00     0.116 C 
BRANCH  26  27
ATOM     27  N   UNL A   1      34.610  32.812  29.452  1.00  0.00    -0.352 N 
ATOM     28  C   UNL A   1      35.639  32.598  28.554  1.00  0.00     0.251 C 
ATOM     29  H   UNL A   1      33.813  33.261  29.090  1.00  0.00     0.163 HD
ATOM     30  O   UNL A   1      35.710  33.235  27.517  1.00  0.00    -0.269 OA
BRANCH  28  31
ATOM     31  C   UNL A   1      36.654  31.578  28.876  1.00  0.00     0.039 A 
ATOM     32  C   UNL A   1      36.390  30.218  28.706  1.00  0.00     0.014 A 
ATOM     33  C   UNL A   1      37.890  32.008  29.352  1.00  0.00     0.014 A 
ATOM     34  C   UNL A   1      37.409  29.306  28.966  1.00  0.00     0.010 A 
ATOM     35  C   UNL A   1      38.940  31.134  29.424  1.00  0.00     0.010 A 
ATOM     36  C   UNL A   1      38.689  29.777  29.309  1.00  0.00    -0.014 A 
BRANCH  36  37
ATOM     37  C   UNL A   1      39.798  28.853  29.495  1.00  0.00     0.031 A 
ATOM     38  C   UNL A   1      40.106  28.543  30.912  1.00  0.00     0.074 A 
ATOM     39  C   UNL A   1      40.415  28.208  28.482  1.00  0.00     0.049 A 
ATOM     40  N   UNL A   1      41.120  28.956  31.594  1.00  0.00    -0.248 NA
ATOM     41  C   UNL A   1      39.103  27.820  31.709  1.00  0.00     0.031 C 
ATOM     42  C   UNL A   1      40.066  28.161  27.057  1.00  0.00     0.029 A 
ATOM     43  N   UNL A   1      41.494  27.383  28.549  1.00  0.00    -0.354 N 
ATOM     44  C   UNL A   1      40.996  28.384  32.855  1.00  0.00     0.074 A 
ATOM     45  C   UNL A   1      39.663  27.843  32.920  1.00  0.00     0.031 C 
ATOM     46  C   UNL A   1      40.778  27.189  26.444  1.00  0.00     0.029 A 
ATOM     47  C   UNL A   1      41.761  26.680  27.382  1.00  0.00     0.049 A 
ATOM     48  H   UNL A   1      42.041  27.290  29.361  1.00  0.00     0.167 HD
ATOM     49  C   UNL A   1      42.090  28.209  33.647  1.00  0.00     0.037 A 
ATOM     50  C   UNL A   1      42.730  25.750  27.205  1.00  0.00     0.037 A 
ATOM     51  C   UNL A   1      43.195  29.012  33.183  1.00  0.00     0.049 A 
ATOM     52  C   UNL A   1      43.753  25.987  28.252  1.00  0.00     0.074 A 
ATOM     53  C   UNL A   1      43.410  30.367  33.012  1.00  0.00     0.029 A 
ATOM     54  N   UNL A   1      44.166  28.387  32.437  1.00  0.00    -0.354 N 
ATOM     55  N   UNL A   1      44.514  27.045  28.294  1.00  0.00    -0.248 NA
ATOM     56  C   UNL A   1      43.608  25.269  29.508  1.00  0.00     0.031 C 
ATOM     57  C   UNL A   1      44.161  30.471  31.804  1.00  0.00     0.029 A 
ATOM     58  C   UNL A   1      44.423  29.178  31.347  1.00  0.00     0.049 A 
ATOM     59  H   UNL A   1      44.597  27.527  32.646  1.00  0.00     0.167 HD
ATOM     60  C   UNL A   1      44.585  27.374  29.639  1.00  0.00     0.074 A 
ATOM     61  C   UNL A   1      44.084  26.196  30.344  1.00  0.00     0.031 C 
ATOM     62  C   UNL A   1      44.775  28.665  30.041  1.00  0.00     0.037 A 
BRANCH  49  63
ATOM     63  C   UNL A   1      42.284  27.050  34.592  1.00  0.00     0.057 A 
ATOM     64  C   UNL A   1      41.907  27.197  35.941  1.00  0.00     0.134 A 
ATOM     65  C   UNL A   1      43.084  25.923  34.317  1.00  0.00     0.134 A 
ATOM     66  F   UNL A   1      41.152  28.234  36.336  1.00  0.00    -0.206 F 
ATOM     67  C   UNL A   1      42.364  26.338  36.948  1.00  0.00     0.040 A 
ATOM     68  C   UNL A   1      43.503  25.030  35.307  1.00  0.00     0.040 A 
ATOM     69  F   UNL A   1      43.589  25.676  33.103  1.00  0.00    -0.206 F 
ATOM     70  C   UNL A   1      43.173  25.255  36.633  1.00  0.00     0.006 A 
ENDBRANCH  49  63
BRANCH  50  71
ATOM     71  C   UNL A   1      42.670  24.489  26.431  1.00  0.00     0.057 A 
ATOM     72  C   UNL A   1      43.554  24.256  25.368  1.00  0.00     0.134 A 
ATOM     73  C   UNL A   1      41.968  23.369  26.909  1.00  0.00     0.134 A 
ATOM     74  F   UNL A   1      44.293  25.256  24.867  1.00  0.00    -0.206 F 
ATOM     75  C   UNL A   1      43.764  22.975  24.840  1.00  0.00     0.040 A 
ATOM     76  C   UNL A   1      42.164  22.086  26.387  1.00  0.00     0.040 A 
ATOM     77  F   UNL A   1      41.140  23.466  27.959  1.00  0.00    -0.206 F 
ATOM     78  C   UNL A   1      43.079  21.882  25.362  1.00  0.00     0.006 A 
ENDBRANCH  50  71
BRANCH  62  79
ATOM     79  C   UNL A   1      45.153  29.683  28.998  1.00  0.00     0.057 A 
ATOM     80  C   UNL A   1      46.460  29.889  28.529  1.00  0.00     0.134 A 
ATOM     81  C   UNL A   1      44.130  30.362  28.325  1.00  0.00     0.134 A 
ATOM     82  F   UNL A   1      47.497  29.222  29.047  1.00  0.00    -0.206 F 
ATOM     83  C   UNL A   1      46.736  30.750  27.461  1.00  0.00     0.040 A 
ATOM     84  C   UNL A   1      44.389  31.199  27.236  1.00  0.00     0.040 A 
ATOM     85  F   UNL A   1      42.850  30.178  28.682  1.00  0.00    -0.206 F 
ATOM     86  C   UNL A   1      45.697  31.401  26.804  1.00  0.00     0.006 A 
ENDBRANCH  62  79
ENDBRANCH  36  37
ENDBRANCH  28  31
ENDBRANCH  26  27
ENDBRANCH  25  26
ENDBRANCH  24  25
ENDBRANCH   1  24
TORSDOF 16
ENDMDL
MODEL 2
REMARK VINA RESULT:      -9.1      4.911      8.608
REMARK SMILES Cc1cc(=O)n2nc(C[N@@H+](C)CC(=O)NCCCCCCNC(=O)c3ccc(-c4c5nc(c(-c6c(F)cccc6F)c6ccc([nH]6)c(-c6c(F)cccc6F)c6nc(c(-c7c(F)cccc7F)c7ccc4[nH]7)C=C6)C=C5)cc3)sc2n1
REMARK SMILES IDX 18 1 17 2 16 3 15 4 13 5 14 6 12 8 10 9 11 10 9 12 8 13 1 14
REMARK SMILES IDX 2 15 3 16 81 17 4 18 80 19 5 20 6 21 79 22 7 23 19 24 20 25
REMARK SMILES IDX 21 26 22 27 23 28 24 30 25 31 26 32 78 33 27 34 77 35 28 36
REMARK SMILES IDX 29 37 30 38 71 39 31 40 76 41 70 42 72 43 32 44 75 45 69 46
REMARK SMILES IDX 68 47 33 49 59 50 42 51 58 52 43 53 46 54 57 55 73 56 44 57
REMARK SMILES IDX 45 58 56 60 74 61 47 62 34 63 35 64 40 65 36 66 37 67 39 68
REMARK SMILES IDX 41 69 38 70 60 71 61 72 66 73 62 74 63 75 65 76 67 77 64 78
REMARK SMILES IDX 48 79 49 80 54 81 50 82 51 83 53 84 55 85 52 86
REMARK H PARENT 15 7 10 11 22 29 72 48 46 59
REMARK Flexibility Score: inf
ROOT
ATOM      1  C   UNL A   1      33.994  32.790  27.883  1.00  0.00     0.002 C 
ENDROOT
BRANCH   1   2
ATOM      2  C   UNL A   1      34.684  31.445  27.643  1.00  0.00     0.021 C 
BRANCH   2   3
ATOM      3  C   UNL A   1      33.726  30.294  27.337  1.00  0.00     0.116 C 
BRANCH   3   4
ATOM      4  N   UNL A   1      34.037  29.703  26.057  1.00  0.00    -0.351 N 
ATOM      5  C   UNL A   1      33.259  28.921  25.261  1.00  0.00     0.275 C 
ATOM      6  O   UNL A   1      33.782  28.419  24.264  1.00  0.00    -0.269 OA
ATOM      7  H   UNL A   1      34.940  29.891  25.714  1.00  0.00     0.163 HD
BRANCH   5   8
ATOM      8  C   UNL A   1      31.777  28.701  25.576  1.00  0.00     0.363 C 
BRANCH   8   9
ATOM      9  N   UNL A   1      31.173  27.478  25.020  1.00  0.00    -0.324 N 
ATOM     10  C   UNL A   1      30.279  27.640  23.896  1.00  0.00     0.333 C 
ATOM     11  H   UNL A   1      32.001  27.059  24.595  1.00  0.00     0.348 HD
BRANCH   9  12
ATOM     12  C   UNL A   1      30.724  26.477  25.996  1.00  0.00     0.333 C 
BRANCH  12  13
ATOM     13  C   UNL A   1      31.353  25.147  25.670  1.00  0.00     0.172 A 
ATOM     14  C   UNL A   1      32.698  19.459  24.458  1.00  0.00     0.067 C 
ATOM     15  C   UNL A   1      32.746  20.955  24.555  1.00  0.00     0.046 A 
ATOM     16  C   UNL A   1      33.654  21.674  23.876  1.00  0.00     0.097 A 
ATOM     17  N   UNL A   1      31.784  21.508  25.370  1.00  0.00    -0.224 NA
ATOM     18  C   UNL A   1      33.642  23.154  23.973  1.00  0.00     0.275 A 
ATOM     19  C   UNL A   1      31.770  22.796  25.419  1.00  0.00     0.215 A 
ATOM     20  O   UNL A   1      34.496  23.803  23.379  1.00  0.00    -0.267 OA
ATOM     21  N   UNL A   1      32.621  23.641  24.760  1.00  0.00    -0.167 N 
ATOM     22  S   UNL A   1      30.636  23.699  26.356  1.00  0.00    -0.073 S 
ATOM     23  N   UNL A   1      32.385  24.989  24.903  1.00  0.00    -0.150 NA
ENDBRANCH  12  13
ENDBRANCH   9  12
ENDBRANCH   8   9
ENDBRANCH   5   8
ENDBRANCH   3   4
ENDBRANCH   2   3
ENDBRANCH   1   2
BRANCH   1  24
ATOM     24  C   UNL A   1      34.931  33.982  28.130  1.00  0.00     0.002 C 
BRANCH  24  25
ATOM     25  C   UNL A   1      34.305  35.207  28.811  1.00  0.00     0.021 C 
BRANCH  25  26
ATOM     26  C   UNL A   1      32.903  34.960  29.339  1.00  0.00     0.116 C 
BRANCH  26  27
ATOM     27  N   UNL A   1      32.660  35.627  30.615  1.00  0.00    -0.352 N 
ATOM     28  C   UNL A   1      33.182  35.322  31.857  1.00  0.00     0.251 C 
ATOM     29  H   UNL A   1      32.044  36.394  30.587  1.00  0.00     0.163 HD
ATOM     30  O   UNL A   1      32.648  35.719  32.878  1.00  0.00    -0.269 OA
BRANCH  28  31
ATOM     31  C   UNL A   1      34.406  34.503  31.924  1.00  0.00     0.039 A 
ATOM     32  C   UNL A   1      34.365  33.123  31.718  1.00  0.00     0.014 A 
ATOM     33  C   UNL A   1      35.612  35.144  32.196  1.00  0.00     0.014 A 
ATOM     34  C   UNL A   1      35.561  32.413  31.730  1.00  0.00     0.010 A 
ATOM     35  C   UNL A   1      36.797  34.482  32.021  1.00  0.00     0.010 A 
ATOM     36  C   UNL A   1      36.777  33.106  31.866  1.00  0.00    -0.014 A 
BRANCH  36  37
ATOM     37  C   UNL A   1      38.049  32.403  31.789  1.00  0.00     0.031 A 
ATOM     38  C   UNL A   1      38.802  32.357  33.066  1.00  0.00     0.074 A 
ATOM     39  C   UNL A   1      38.464  31.720  30.701  1.00  0.00     0.049 A 
ATOM     40  N   UNL A   1      39.869  33.019  33.361  1.00  0.00    -0.248 NA
ATOM     41  C   UNL A   1      38.226  31.613  34.196  1.00  0.00     0.031 C 
ATOM     42  C   UNL A   1      37.738  31.409  29.463  1.00  0.00     0.029 A 
ATOM     43  N   UNL A   1      39.654  31.091  30.511  1.00  0.00    -0.354 N 
ATOM     44  C   UNL A   1      40.222  32.626  34.647  1.00  0.00     0.074 A 
ATOM     45  C   UNL A   1      39.093  31.901  35.169  1.00  0.00     0.031 C 
ATOM     46  C   UNL A   1      38.419  30.479  28.756  1.00  0.00     0.029 A 
ATOM     47  C   UNL A   1      39.707  30.274  29.390  1.00  0.00     0.049 A 
ATOM     48  H   UNL A   1      40.418  31.205  31.121  1.00  0.00     0.167 HD
ATOM     49  C   UNL A   1      41.509  32.742  35.078  1.00  0.00     0.037 A 
ATOM     50  C   UNL A   1      40.745  29.489  29.012  1.00  0.00     0.037 A 
ATOM     51  C   UNL A   1      42.261  33.630  34.224  1.00  0.00     0.049 A 
ATOM     52  C   UNL A   1      41.959  30.034  29.668  1.00  0.00     0.074 A 
ATOM     53  C   UNL A   1      42.152  34.961  33.868  1.00  0.00     0.029 A 
ATOM     54  N   UNL A   1      43.079  33.060  33.278  1.00  0.00    -0.354 N 
ATOM     55  N   UNL A   1      42.482  31.192  29.374  1.00  0.00    -0.248 NA
ATOM     56  C   UNL A   1      42.320  29.496  30.969  1.00  0.00     0.031 C 
ATOM     57  C   UNL A   1      42.493  35.001  32.484  1.00  0.00     0.029 A 
ATOM     58  C   UNL A   1      42.857  33.712  32.092  1.00  0.00     0.049 A 
ATOM     59  H   UNL A   1      43.709  32.318  33.425  1.00  0.00     0.167 HD
ATOM     60  C   UNL A   1      42.870  31.723  30.595  1.00  0.00     0.074 A 
ATOM     61  C   UNL A   1      42.827  30.598  31.528  1.00  0.00     0.031 C 
ATOM     62  C   UNL A   1      42.914  33.073  30.796  1.00  0.00     0.037 A 
BRANCH  49  63
ATOM     63  C   UNL A   1      42.184  31.779  36.023  1.00  0.00     0.057 A 
ATOM     64  C   UNL A   1      42.916  32.290  37.112  1.00  0.00     0.134 A 
ATOM     65  C   UNL A   1      42.396  30.413  35.750  1.00  0.00     0.134 A 
ATOM     66  F   UNL A   1      42.809  33.579  37.470  1.00  0.00    -0.206 F 
ATOM     67  C   UNL A   1      43.850  31.522  37.817  1.00  0.00     0.040 A 
ATOM     68  C   UNL A   1      43.289  29.624  36.481  1.00  0.00     0.040 A 
ATOM     69  F   UNL A   1      41.838  29.790  34.707  1.00  0.00    -0.206 F 
ATOM     70  C   UNL A   1      44.046  30.185  37.495  1.00  0.00     0.006 A 
ENDBRANCH  49  63
BRANCH  50  71
ATOM     71  C   UNL A   1      40.711  28.135  28.417  1.00  0.00     0.057 A 
ATOM     72  C   UNL A   1      40.000  27.096  29.036  1.00  0.00     0.134 A 
ATOM     73  C   UNL A   1      41.103  27.909  27.086  1.00  0.00     0.134 A 
ATOM     74  F   UNL A   1      39.555  27.231  30.292  1.00  0.00    -0.206 F 
ATOM     75  C   UNL A   1      39.659  25.919  28.356  1.00  0.00     0.040 A 
ATOM     76  C   UNL A   1      40.773  26.736  26.398  1.00  0.00     0.040 A 
ATOM     77  F   UNL A   1      41.738  28.856  26.380  1.00  0.00    -0.206 F 
ATOM     78  C   UNL A   1      40.031  25.744  27.027  1.00  0.00     0.006 A 
ENDBRANCH  50  71
BRANCH  62  79
ATOM     79  C   UNL A   1      42.775  33.972  29.596  1.00  0.00     0.057 A 
ATOM     80  C   UNL A   1      41.578  34.595  29.208  1.00  0.00     0.134 A 
ATOM     81  C   UNL A   1      43.933  34.352  28.907  1.00  0.00     0.134 A 
ATOM     82  F   UNL A   1      40.433  34.365  29.859  1.00  0.00    -0.206 F 
ATOM     83  C   UNL A   1      41.534  35.529  28.167  1.00  0.00     0.040 A 
ATOM     84  C   UNL A   1      43.908  35.308  27.888  1.00  0.00     0.040 A 
ATOM     85  F   UNL A   1      45.123  33.838  29.254  1.00  0.00    -0.206 F 
ATOM     86  C   UNL A   1      42.703  35.895  27.510  1.00  0.00     0.006 A 
ENDBRANCH  62  79
ENDBRANCH  36  37
ENDBRANCH  28  31
ENDBRANCH  26  27
ENDBRANCH  25  26
ENDBRANCH  24  25
ENDBRANCH   1  24
TORSDOF 16
ENDMDL
MODEL 3
REMARK VINA RESULT:      -9.0      5.119      7.989
REMARK SMILES Cc1cc(=O)n2nc(C[N@@H+](C)CC(=O)NCCCCCCNC(=O)c3ccc(-c4c5nc(c(-c6c(F)cccc6F)c6ccc([nH]6)c(-c6c(F)cccc6F)c6nc(c(-c7c(F)cccc7F)c7ccc4[nH]7)C=C6)C=C5)cc3)sc2n1
REMARK SMILES IDX 18 1 17 2 16 3 15 4 13 5 14 6 12 8 10 9 11 10 9 12 8 13 1 14
REMARK SMILES IDX 2 15 3 16 81 17 4 18 80 19 5 20 6 21 79 22 7 23 19 24 20 25
REMARK SMILES IDX 21 26 22 27 23 28 24 30 25 31 26 32 78 33 27 34 77 35 28 36
REMARK SMILES IDX 29 37 30 38 71 39 31 40 76 41 70 42 72 43 32 44 75 45 69 46
REMARK SMILES IDX 68 47 33 49 59 50 42 51 58 52 43 53 46 54 57 55 73 56 44 57
REMARK SMILES IDX 45 58 56 60 74 61 47 62 34 63 35 64 40 65 36 66 37 67 39 68
REMARK SMILES IDX 41 69 38 70 60 71 61 72 66 73 62 74 63 75 65 76 67 77 64 78
REMARK SMILES IDX 48 79 49 80 54 81 50 82 51 83 53 84 55 85 52 86
REMARK H PARENT 15 7 10 11 22 29 72 48 46 59
REMARK Flexibility Score: inf
ROOT
ATOM      1  C   UNL A   1      31.722  28.614  27.271  1.00  0.00     0.002 C 
ENDROOT
BRANCH   1   2
ATOM      2  C   UNL A   1      31.755  27.695  26.048  1.00  0.00     0.021 C 
BRANCH   2   3
ATOM      3  C   UNL A   1      32.525  26.392  26.263  1.00  0.00     0.116 C 
BRANCH   3   4
ATOM      4  N   UNL A   1      31.686  25.405  26.899  1.00  0.00    -0.351 N 
ATOM      5  C   UNL A   1      31.572  24.075  26.635  1.00  0.00     0.275 C 
ATOM      6  O   UNL A   1      30.691  23.448  27.225  1.00  0.00    -0.269 OA
ATOM      7  H   UNL A   1      31.113  25.743  27.625  1.00  0.00     0.163 HD
BRANCH   5   8
ATOM      8  C   UNL A   1      32.530  23.379  25.665  1.00  0.00     0.363 C 
BRANCH   8   9
ATOM      9  N   UNL A   1      31.903  22.528  24.640  1.00  0.00    -0.324 N 
ATOM     10  C   UNL A   1      32.095  21.100  24.764  1.00  0.00     0.333 C 
ATOM     11  H   UNL A   1      30.923  22.650  24.894  1.00  0.00     0.348 HD
BRANCH   9  12
ATOM     12  C   UNL A   1      31.980  23.019  23.257  1.00  0.00     0.333 C 
BRANCH  12  13
ATOM     13  C   UNL A   1      31.416  24.414  23.193  1.00  0.00     0.172 A 
ATOM     14  C   UNL A   1      29.772  29.999  21.873  1.00  0.00     0.067 C 
ATOM     15  C   UNL A   1      29.826  28.620  22.463  1.00  0.00     0.046 A 
ATOM     16  C   UNL A   1      28.805  28.123  23.180  1.00  0.00     0.097 A 
ATOM     17  N   UNL A   1      30.981  27.924  22.190  1.00  0.00    -0.224 NA
ATOM     18  C   UNL A   1      28.886  26.742  23.715  1.00  0.00     0.275 A 
ATOM     19  C   UNL A   1      31.022  26.716  22.638  1.00  0.00     0.215 A 
ATOM     20  O   UNL A   1      27.967  26.307  24.399  1.00  0.00    -0.267 OA
ATOM     21  N   UNL A   1      30.044  26.086  23.359  1.00  0.00    -0.167 N 
ATOM     22  S   UNL A   1      32.362  25.656  22.391  1.00  0.00    -0.073 S 
ATOM     23  N   UNL A   1      30.268  24.767  23.679  1.00  0.00    -0.150 NA
ENDBRANCH  12  13
ENDBRANCH   9  12
ENDBRANCH   8   9
ENDBRANCH   5   8
ENDBRANCH   3   4
ENDBRANCH   2   3
ENDBRANCH   1   2
BRANCH   1  24
ATOM     24  C   UNL A   1      32.541  29.908  27.151  1.00  0.00     0.002 C 
BRANCH  24  25
ATOM     25  C   UNL A   1      34.022  29.812  27.545  1.00  0.00     0.021 C 
BRANCH  25  26
ATOM     26  C   UNL A   1      34.785  31.112  27.363  1.00  0.00     0.116 C 
BRANCH  26  27
ATOM     27  N   UNL A   1      34.608  32.027  28.488  1.00  0.00    -0.352 N 
ATOM     28  C   UNL A   1      35.187  31.971  29.741  1.00  0.00     0.251 C 
ATOM     29  H   UNL A   1      33.996  32.782  28.333  1.00  0.00     0.163 HD
ATOM     30  O   UNL A   1      34.704  32.574  30.684  1.00  0.00    -0.269 OA
BRANCH  28  31
ATOM     31  C   UNL A   1      36.408  31.163  29.916  1.00  0.00     0.039 A 
ATOM     32  C   UNL A   1      36.340  29.830  30.323  1.00  0.00     0.014 A 
ATOM     33  C   UNL A   1      37.637  31.766  29.661  1.00  0.00     0.014 A 
ATOM     34  C   UNL A   1      37.522  29.100  30.409  1.00  0.00     0.010 A 
ATOM     35  C   UNL A   1      38.769  31.003  29.563  1.00  0.00     0.010 A 
ATOM     36  C   UNL A   1      38.733  29.693  30.010  1.00  0.00    -0.014 A 
BRANCH  36  37
ATOM     37  C   UNL A   1      39.970  28.927  29.999  1.00  0.00     0.031 A 
ATOM     38  C   UNL A   1      40.569  28.713  31.338  1.00  0.00     0.074 A 
ATOM     39  C   UNL A   1      40.473  28.329  28.898  1.00  0.00     0.049 A 
ATOM     40  N   UNL A   1      41.626  29.280  31.814  1.00  0.00    -0.248 NA
ATOM     41  C   UNL A   1      39.834  27.899  32.317  1.00  0.00     0.031 C 
ATOM     42  C   UNL A   1      39.879  28.182  27.563  1.00  0.00     0.029 A 
ATOM     43  N   UNL A   1      41.645  27.652  28.775  1.00  0.00    -0.354 N 
ATOM     44  C   UNL A   1      41.812  28.745  33.084  1.00  0.00     0.074 A 
ATOM     45  C   UNL A   1      40.597  28.040  33.403  1.00  0.00     0.031 C 
ATOM     46  C   UNL A   1      40.591  27.287  26.843  1.00  0.00     0.029 A 
ATOM     47  C   UNL A   1      41.787  26.945  27.589  1.00  0.00     0.049 A 
ATOM     48  H   UNL A   1      42.339  27.661  29.473  1.00  0.00     0.167 HD
ATOM     49  C   UNL A   1      43.045  28.742  33.662  1.00  0.00     0.037 A 
ATOM     50  C   UNL A   1      42.823  26.141  27.247  1.00  0.00     0.037 A 
ATOM     51  C   UNL A   1      43.931  29.662  32.990  1.00  0.00     0.049 A 
ATOM     52  C   UNL A   1      43.978  26.547  28.083  1.00  0.00     0.074 A 
ATOM     53  C   UNL A   1      43.928  31.025  32.763  1.00  0.00     0.029 A 
ATOM     54  N   UNL A   1      44.823  29.139  32.085  1.00  0.00    -0.354 N 
ATOM     55  N   UNL A   1      44.586  27.695  27.968  1.00  0.00    -0.248 NA
ATOM     56  C   UNL A   1      44.162  25.865  29.354  1.00  0.00     0.031 C 
ATOM     57  C   UNL A   1      44.425  31.179  31.435  1.00  0.00     0.029 A 
ATOM     58  C   UNL A   1      44.769  29.914  30.955  1.00  0.00     0.049 A 
ATOM     59  H   UNL A   1      45.396  28.350  32.223  1.00  0.00     0.167 HD
ATOM     60  C   UNL A   1      44.857  28.082  29.272  1.00  0.00     0.074 A 
ATOM     61  C   UNL A   1      44.655  26.877  30.074  1.00  0.00     0.031 C 
ATOM     62  C   UNL A   1      44.943  29.401  29.614  1.00  0.00     0.037 A 
BRANCH  49  63
ATOM     63  C   UNL A   1      43.561  27.655  34.571  1.00  0.00     0.057 A 
ATOM     64  C   UNL A   1      44.003  27.996  35.863  1.00  0.00     0.134 A 
ATOM     65  C   UNL A   1      43.918  26.361  34.141  1.00  0.00     0.134 A 
ATOM     66  F   UNL A   1      43.734  29.202  36.386  1.00  0.00    -0.206 F 
ATOM     67  C   UNL A   1      44.810  27.148  36.631  1.00  0.00     0.040 A 
ATOM     68  C   UNL A   1      44.681  25.487  34.920  1.00  0.00     0.040 A 
ATOM     69  F   UNL A   1      43.643  25.906  32.914  1.00  0.00    -0.206 F 
ATOM     70  C   UNL A   1      45.160  25.892  36.155  1.00  0.00     0.006 A 
ENDBRANCH  49  63
BRANCH  50  71
ATOM     71  C   UNL A   1      42.791  24.854  26.516  1.00  0.00     0.057 A 
ATOM     72  C   UNL A   1      43.564  24.666  25.361  1.00  0.00     0.134 A 
ATOM     73  C   UNL A   1      42.258  23.692  27.100  1.00  0.00     0.134 A 
ATOM     74  F   UNL A   1      44.142  25.710  24.753  1.00  0.00    -0.206 F 
ATOM     75  C   UNL A   1      43.829  23.391  24.842  1.00  0.00     0.040 A 
ATOM     76  C   UNL A   1      42.511  22.415  26.588  1.00  0.00     0.040 A 
ATOM     77  F   UNL A   1      41.552  23.750  28.238  1.00  0.00    -0.206 F 
ATOM     78  C   UNL A   1      43.316  22.260  25.467  1.00  0.00     0.006 A 
ENDBRANCH  50  71
BRANCH  62  79
ATOM     79  C   UNL A   1      44.985  30.419  28.505  1.00  0.00     0.057 A 
ATOM     80  C   UNL A   1      46.146  30.773  27.799  1.00  0.00     0.134 A 
ATOM     81  C   UNL A   1      43.776  30.934  28.023  1.00  0.00     0.134 A 
ATOM     82  F   UNL A   1      47.339  30.265  28.125  1.00  0.00    -0.206 F 
ATOM     83  C   UNL A   1      46.105  31.621  26.686  1.00  0.00     0.040 A 
ATOM     84  C   UNL A   1      43.718  31.755  26.894  1.00  0.00     0.040 A 
ATOM     85  F   UNL A   1      42.618  30.600  28.614  1.00  0.00    -0.206 F 
ATOM     86  C   UNL A   1      44.888  32.107  26.225  1.00  0.00     0.006 A 
ENDBRANCH  62  79
ENDBRANCH  36  37
ENDBRANCH  28  31
ENDBRANCH  26  27
ENDBRANCH  25  26
ENDBRANCH  24  25
ENDBRANCH   1  24
TORSDOF 16
ENDMDL
