MODEL 1
REMARK VINA RESULT:      -9.6      0.000      0.000
REMARK SMILES C[C@@]([NH2+]CCCO)(C(=O)NCCCCCCNC(=O)c1ccc(-c2c3nc(c(-c4c(F)cccc4F)c4ccc([nH]4)c(-c4c(F)cccc4F)c4nc(c(-c5c(F)cccc5F)c5ccc2[nH]5)C=C4)C=C3)cc1)C(F)(F)F
REMARK SMILES IDX 12 1 11 2 10 3 8 4 9 5 2 7 1 8 3 9 4 12 5 13 6 14 7 15 74 17
REMARK SMILES IDX 75 18 76 19 77 20 13 21 14 22 15 23 16 24 17 25 18 26 19 28
REMARK SMILES IDX 20 29 21 30 73 31 22 32 72 33 23 34 24 35 25 36 66 37 26 38
REMARK SMILES IDX 71 39 65 40 67 41 27 42 70 43 64 44 63 45 28 47 54 48 37 49
REMARK SMILES IDX 53 50 38 51 41 52 52 53 68 54 39 55 40 56 51 58 69 59 42 60
REMARK SMILES IDX 29 61 30 62 35 63 31 64 32 65 34 66 36 67 33 68 55 69 56 70
REMARK SMILES IDX 61 71 57 72 58 73 60 74 62 75 59 76 43 77 44 78 49 79 45 80
REMARK SMILES IDX 46 81 48 82 50 83 47 84
REMARK H PARENT 10 6 3 10 3 11 7 16 17 27 67 46 41 57
REMARK Flexibility Score: inf
ROOT
ATOM      1  C   UNL A   1      32.204  28.515  27.552  1.00  0.00     0.021 C 
ENDROOT
BRANCH   1   2
ATOM      2  C   UNL A   1      31.666  27.622  26.432  1.00  0.00     0.116 C 
BRANCH   2   3
ATOM      3  N   UNL A   1      32.743  27.270  25.528  1.00  0.00    -0.350 N 
ATOM      4  C   UNL A   1      32.726  26.767  24.259  1.00  0.00     0.290 C 
ATOM      5  O   UNL A   1      33.824  26.430  23.810  1.00  0.00    -0.267 OA
ATOM      6  H   UNL A   1      33.645  27.420  25.894  1.00  0.00     0.163 HD
BRANCH   4   7
ATOM      7  C   UNL A   1      31.428  26.668  23.432  1.00  0.00     0.268 C 
ATOM      8  C   UNL A   1      31.711  26.051  22.042  1.00  0.00     0.101 C 
BRANCH   7   9
ATOM      9  N   UNL A   1      30.428  25.744  24.095  1.00  0.00    -0.326 N 
ATOM     10  H   UNL A   1      29.500  26.011  23.767  1.00  0.00     0.347 HD
ATOM     11  H   UNL A   1      30.584  25.863  25.096  1.00  0.00     0.347 HD
BRANCH   9  12
ATOM     12  C   UNL A   1      30.582  24.305  23.858  1.00  0.00     0.264 C 
BRANCH  12  13
ATOM     13  C   UNL A   1      30.983  23.413  25.039  1.00  0.00     0.089 C 
BRANCH  13  14
ATOM     14  C   UNL A   1      30.812  24.032  26.420  1.00  0.00     0.162 C 
BRANCH  14  15
ATOM     15  O   UNL A   1      29.448  24.330  26.679  1.00  0.00    -0.396 OA
ATOM     16  H   UNL A   1      29.002  23.538  27.018  1.00  0.00     0.210 HD
ENDBRANCH  14  15
ENDBRANCH  13  14
ENDBRANCH  12  13
ENDBRANCH   9  12
ENDBRANCH   7   9
BRANCH   7  17
ATOM     17  C   UNL A   1      30.959  28.124  23.143  1.00  0.00     0.453 C 
ATOM     18  F   UNL A   1      31.963  29.023  23.262  1.00  0.00    -0.164 F 
ATOM     19  F   UNL A   1      30.527  28.203  21.851  1.00  0.00    -0.164 F 
ATOM     20  F   UNL A   1      29.935  28.545  23.910  1.00  0.00    -0.164 F 
ENDBRANCH   7  17
ENDBRANCH   4   7
ENDBRANCH   2   3
ENDBRANCH   1   2
BRANCH   1  21
ATOM     21  C   UNL A   1      32.571  29.928  27.077  1.00  0.00     0.002 C 
BRANCH  21  22
ATOM     22  C   UNL A   1      31.480  30.631  26.263  1.00  0.00     0.002 C 
BRANCH  22  23
ATOM     23  C   UNL A   1      31.387  32.140  26.491  1.00  0.00     0.021 C 
BRANCH  23  24
ATOM     24  C   UNL A   1      32.634  32.752  27.118  1.00  0.00     0.116 C 
BRANCH  24  25
ATOM     25  N   UNL A   1      32.396  34.110  27.580  1.00  0.00    -0.352 N 
ATOM     26  C   UNL A   1      32.976  34.784  28.625  1.00  0.00     0.251 C 
ATOM     27  H   UNL A   1      31.724  34.617  27.070  1.00  0.00     0.163 HD
ATOM     28  O   UNL A   1      32.506  35.847  29.015  1.00  0.00    -0.269 OA
BRANCH  26  29
ATOM     29  C   UNL A   1      34.163  34.211  29.292  1.00  0.00     0.039 A 
ATOM     30  C   UNL A   1      33.982  33.387  30.404  1.00  0.00     0.014 A 
ATOM     31  C   UNL A   1      35.449  34.487  28.818  1.00  0.00     0.014 A 
ATOM     32  C   UNL A   1      35.091  32.793  31.008  1.00  0.00     0.010 A 
ATOM     33  C   UNL A   1      36.543  33.832  29.369  1.00  0.00     0.010 A 
ATOM     34  C   UNL A   1      36.377  32.983  30.475  1.00  0.00    -0.014 A 
BRANCH  34  35
ATOM     35  C   UNL A   1      37.560  32.305  31.061  1.00  0.00     0.031 A 
ATOM     36  C   UNL A   1      38.173  32.819  32.335  1.00  0.00     0.074 A 
ATOM     37  C   UNL A   1      38.117  31.264  30.416  1.00  0.00     0.049 A 
ATOM     38  N   UNL A   1      39.232  32.393  32.974  1.00  0.00    -0.248 NA
ATOM     39  C   UNL A   1      37.524  33.984  32.958  1.00  0.00     0.031 C 
ATOM     40  C   UNL A   1      37.641  30.698  29.152  1.00  0.00     0.029 A 
ATOM     41  N   UNL A   1      39.210  30.497  30.732  1.00  0.00    -0.354 N 
ATOM     42  C   UNL A   1      39.383  33.242  34.063  1.00  0.00     0.074 A 
ATOM     43  C   UNL A   1      38.344  34.244  33.965  1.00  0.00     0.031 C 
ATOM     44  C   UNL A   1      38.416  29.653  28.820  1.00  0.00     0.029 A 
ATOM     45  C   UNL A   1      39.468  29.503  29.819  1.00  0.00     0.049 A 
ATOM     46  H   UNL A   1      39.758  30.644  31.537  1.00  0.00     0.167 HD
ATOM     47  C   UNL A   1      40.291  33.180  35.067  1.00  0.00     0.037 A 
ATOM     48  C   UNL A   1      40.446  28.577  29.790  1.00  0.00     0.037 A 
ATOM     49  C   UNL A   1      41.314  32.172  35.168  1.00  0.00     0.049 A 
ATOM     50  C   UNL A   1      41.461  28.548  30.901  1.00  0.00     0.074 A 
ATOM     51  C   UNL A   1      42.244  31.985  36.175  1.00  0.00     0.029 A 
ATOM     52  N   UNL A   1      41.548  31.186  34.220  1.00  0.00    -0.354 N 
ATOM     53  N   UNL A   1      41.546  29.310  31.964  1.00  0.00    -0.248 NA
ATOM     54  C   UNL A   1      42.513  27.527  30.806  1.00  0.00     0.031 C 
ATOM     55  C   UNL A   1      43.078  30.923  35.808  1.00  0.00     0.029 A 
ATOM     56  C   UNL A   1      42.628  30.408  34.602  1.00  0.00     0.049 A 
ATOM     57  H   UNL A   1      41.024  31.058  33.396  1.00  0.00     0.167 HD
ATOM     58  C   UNL A   1      42.637  28.838  32.683  1.00  0.00     0.074 A 
ATOM     59  C   UNL A   1      43.174  27.717  31.939  1.00  0.00     0.031 C 
ATOM     60  C   UNL A   1      43.148  29.291  33.854  1.00  0.00     0.037 A 
BRANCH  47  61
ATOM     61  C   UNL A   1      40.218  34.240  36.131  1.00  0.00     0.057 A 
ATOM     62  C   UNL A   1      39.419  34.093  37.272  1.00  0.00     0.134 A 
ATOM     63  C   UNL A   1      40.972  35.414  36.021  1.00  0.00     0.134 A 
ATOM     64  F   UNL A   1      38.662  32.997  37.438  1.00  0.00    -0.206 F 
ATOM     65  C   UNL A   1      39.343  35.091  38.246  1.00  0.00     0.040 A 
ATOM     66  C   UNL A   1      40.931  36.405  37.003  1.00  0.00     0.040 A 
ATOM     67  F   UNL A   1      41.767  35.619  34.958  1.00  0.00    -0.206 F 
ATOM     68  C   UNL A   1      40.106  36.249  38.115  1.00  0.00     0.006 A 
ENDBRANCH  47  61
BRANCH  48  69
ATOM     69  C   UNL A   1      40.498  27.581  28.691  1.00  0.00     0.057 A 
ATOM     70  C   UNL A   1      41.274  27.811  27.548  1.00  0.00     0.134 A 
ATOM     71  C   UNL A   1      39.770  26.386  28.744  1.00  0.00     0.134 A 
ATOM     72  F   UNL A   1      41.981  28.945  27.431  1.00  0.00    -0.206 F 
ATOM     73  C   UNL A   1      41.308  26.902  26.490  1.00  0.00     0.040 A 
ATOM     74  C   UNL A   1      39.816  25.455  27.706  1.00  0.00     0.040 A 
ATOM     75  F   UNL A   1      39.014  26.101  29.815  1.00  0.00    -0.206 F 
ATOM     76  C   UNL A   1      40.581  25.716  26.570  1.00  0.00     0.006 A 
ENDBRANCH  48  69
BRANCH  60  77
ATOM     77  C   UNL A   1      44.321  28.548  34.426  1.00  0.00     0.057 A 
ATOM     78  C   UNL A   1      45.643  28.927  34.161  1.00  0.00     0.134 A 
ATOM     79  C   UNL A   1      44.122  27.456  35.282  1.00  0.00     0.134 A 
ATOM     80  F   UNL A   1      45.905  29.954  33.339  1.00  0.00    -0.206 F 
ATOM     81  C   UNL A   1      46.725  28.231  34.706  1.00  0.00     0.040 A 
ATOM     82  C   UNL A   1      45.193  26.773  35.858  1.00  0.00     0.040 A 
ATOM     83  F   UNL A   1      42.881  27.045  35.586  1.00  0.00    -0.206 F 
ATOM     84  C   UNL A   1      46.500  27.155  35.564  1.00  0.00     0.006 A 
ENDBRANCH  60  77
ENDBRANCH  34  35
ENDBRANCH  26  29
ENDBRANCH  24  25
ENDBRANCH  23  24
ENDBRANCH  22  23
ENDBRANCH  21  22
ENDBRANCH   1  21
TORSDOF 19
ENDMDL
MODEL 2
REMARK VINA RESULT:      -9.6      0.440      6.478
REMARK SMILES C[C@@]([NH2+]CCCO)(C(=O)NCCCCCCNC(=O)c1ccc(-c2c3nc(c(-c4c(F)cccc4F)c4ccc([nH]4)c(-c4c(F)cccc4F)c4nc(c(-c5c(F)cccc5F)c5ccc2[nH]5)C=C4)C=C3)cc1)C(F)(F)F
REMARK SMILES IDX 12 1 11 2 10 3 8 4 9 5 2 7 1 8 3 9 4 12 5 13 6 14 7 15 74 17
REMARK SMILES IDX 75 18 76 19 77 20 13 21 14 22 15 23 16 24 17 25 18 26 19 28
REMARK SMILES IDX 20 29 21 30 73 31 22 32 72 33 23 34 24 35 25 36 66 37 26 38
REMARK SMILES IDX 71 39 65 40 67 41 27 42 70 43 64 44 63 45 28 47 54 48 37 49
REMARK SMILES IDX 53 50 38 51 41 52 52 53 68 54 39 55 40 56 51 58 69 59 42 60
REMARK SMILES IDX 29 61 30 62 35 63 31 64 32 65 34 66 36 67 33 68 55 69 56 70
REMARK SMILES IDX 61 71 57 72 58 73 60 74 62 75 59 76 43 77 44 78 49 79 45 80
REMARK SMILES IDX 46 81 48 82 50 83 47 84
REMARK H PARENT 10 6 3 10 3 11 7 16 17 27 67 46 41 57
REMARK Flexibility Score: inf
ROOT
ATOM      1  C   UNL A   1      32.187  28.576  27.548  1.00  0.00     0.021 C 
ENDROOT
BRANCH   1   2
ATOM      2  C   UNL A   1      31.687  27.654  26.435  1.00  0.00     0.116 C 
BRANCH   2   3
ATOM      3  N   UNL A   1      32.779  27.337  25.537  1.00  0.00    -0.350 N 
ATOM      4  C   UNL A   1      32.784  26.871  24.254  1.00  0.00     0.290 C 
ATOM      5  O   UNL A   1      33.892  26.555  23.811  1.00  0.00    -0.267 OA
ATOM      6  H   UNL A   1      33.674  27.482  25.920  1.00  0.00     0.163 HD
BRANCH   4   7
ATOM      7  C   UNL A   1      31.499  26.787  23.405  1.00  0.00     0.268 C 
ATOM      8  C   UNL A   1      31.814  26.258  21.986  1.00  0.00     0.101 C 
BRANCH   7   9
ATOM      9  N   UNL A   1      30.516  25.800  24.000  1.00  0.00    -0.326 N 
ATOM     10  H   UNL A   1      29.584  26.072  23.689  1.00  0.00     0.347 HD
ATOM     11  H   UNL A   1      30.669  25.854  25.008  1.00  0.00     0.347 HD
BRANCH   9  12
ATOM     12  C   UNL A   1      30.697  24.385  23.665  1.00  0.00     0.264 C 
BRANCH  12  13
ATOM     13  C   UNL A   1      30.937  23.392  24.810  1.00  0.00     0.089 C 
BRANCH  13  14
ATOM     14  C   UNL A   1      31.211  24.013  26.174  1.00  0.00     0.162 C 
BRANCH  14  15
ATOM     15  O   UNL A   1      30.024  24.554  26.734  1.00  0.00    -0.396 OA
ATOM     16  H   UNL A   1      29.532  23.854  27.191  1.00  0.00     0.210 HD
ENDBRANCH  14  15
ENDBRANCH  13  14
ENDBRANCH  12  13
ENDBRANCH   9  12
ENDBRANCH   7   9
BRANCH   7  17
ATOM     17  C   UNL A   1      30.996  28.244  23.195  1.00  0.00     0.453 C 
ATOM     18  F   UNL A   1      31.999  29.150  23.246  1.00  0.00    -0.164 F 
ATOM     19  F   UNL A   1      30.450  28.350  21.948  1.00  0.00    -0.164 F 
ATOM     20  F   UNL A   1      30.041  28.637  24.058  1.00  0.00    -0.164 F 
ENDBRANCH   7  17
ENDBRANCH   4   7
ENDBRANCH   2   3
ENDBRANCH   1   2
BRANCH   1  21
ATOM     21  C   UNL A   1      32.591  29.969  27.046  1.00  0.00     0.002 C 
BRANCH  21  22
ATOM     22  C   UNL A   1      31.517  30.687  26.221  1.00  0.00     0.002 C 
BRANCH  22  23
ATOM     23  C   UNL A   1      31.383  32.182  26.514  1.00  0.00     0.021 C 
BRANCH  23  24
ATOM     24  C   UNL A   1      32.565  32.777  27.269  1.00  0.00     0.116 C 
BRANCH  24  25
ATOM     25  N   UNL A   1      32.360  34.184  27.572  1.00  0.00    -0.352 N 
ATOM     26  C   UNL A   1      32.965  34.963  28.527  1.00  0.00     0.251 C 
ATOM     27  H   UNL A   1      31.692  34.644  27.013  1.00  0.00     0.163 HD
ATOM     28  O   UNL A   1      32.521  36.073  28.795  1.00  0.00    -0.269 OA
BRANCH  26  29
ATOM     29  C   UNL A   1      34.148  34.445  29.244  1.00  0.00     0.039 A 
ATOM     30  C   UNL A   1      33.972  33.843  30.491  1.00  0.00     0.014 A 
ATOM     31  C   UNL A   1      35.424  34.555  28.685  1.00  0.00     0.014 A 
ATOM     32  C   UNL A   1      35.074  33.299  31.154  1.00  0.00     0.010 A 
ATOM     33  C   UNL A   1      36.505  33.942  29.308  1.00  0.00     0.010 A 
ATOM     34  C   UNL A   1      36.343  33.314  30.552  1.00  0.00    -0.014 A 
BRANCH  34  35
ATOM     35  C   UNL A   1      37.512  32.680  31.210  1.00  0.00     0.031 A 
ATOM     36  C   UNL A   1      38.176  31.484  30.585  1.00  0.00     0.074 A 
ATOM     37  C   UNL A   1      37.939  33.144  32.400  1.00  0.00     0.049 A 
ATOM     38  N   UNL A   1      39.175  30.765  31.030  1.00  0.00    -0.248 NA
ATOM     39  C   UNL A   1      37.626  31.018  29.302  1.00  0.00     0.031 C 
ATOM     40  C   UNL A   1      37.352  34.270  33.129  1.00  0.00     0.029 A 
ATOM     41  N   UNL A   1      38.964  32.722  33.209  1.00  0.00    -0.354 N 
ATOM     42  C   UNL A   1      39.364  29.759  30.091  1.00  0.00     0.074 A 
ATOM     43  C   UNL A   1      38.339  29.923  29.084  1.00  0.00     0.031 C 
ATOM     44  C   UNL A   1      38.049  34.472  34.259  1.00  0.00     0.029 A 
ATOM     45  C   UNL A   1      39.099  33.464  34.358  1.00  0.00     0.049 A 
ATOM     46  H   UNL A   1      39.547  31.960  32.988  1.00  0.00     0.167 HD
ATOM     47  C   UNL A   1      40.320  28.799  30.058  1.00  0.00     0.037 A 
ATOM     48  C   UNL A   1      39.971  33.342  35.377  1.00  0.00     0.037 A 
ATOM     49  C   UNL A   1      41.347  28.649  31.056  1.00  0.00     0.049 A 
ATOM     50  C   UNL A   1      41.002  32.248  35.332  1.00  0.00     0.074 A 
ATOM     51  C   UNL A   1      42.397  27.748  31.084  1.00  0.00     0.029 A 
ATOM     52  N   UNL A   1      41.447  29.416  32.208  1.00  0.00    -0.354 N 
ATOM     53  N   UNL A   1      41.218  31.351  34.401  1.00  0.00    -0.248 NA
ATOM     54  C   UNL A   1      41.914  32.155  36.480  1.00  0.00     0.031 C 
ATOM     55  C   UNL A   1      43.097  27.930  32.281  1.00  0.00     0.029 A 
ATOM     56  C   UNL A   1      42.521  28.986  32.970  1.00  0.00     0.049 A 
ATOM     57  H   UNL A   1      40.844  30.155  32.449  1.00  0.00     0.167 HD
ATOM     58  C   UNL A   1      42.310  30.609  34.833  1.00  0.00     0.074 A 
ATOM     59  C   UNL A   1      42.719  31.171  36.104  1.00  0.00     0.031 C 
ATOM     60  C   UNL A   1      42.921  29.559  34.231  1.00  0.00     0.037 A 
BRANCH  47  61
ATOM     61  C   UNL A   1      40.288  27.832  28.908  1.00  0.00     0.057 A 
ATOM     62  C   UNL A   1      41.001  28.063  27.723  1.00  0.00     0.134 A 
ATOM     63  C   UNL A   1      39.550  26.645  28.992  1.00  0.00     0.134 A 
ATOM     64  F   UNL A   1      41.722  29.185  27.570  1.00  0.00    -0.206 F 
ATOM     65  C   UNL A   1      40.951  27.169  26.652  1.00  0.00     0.040 A 
ATOM     66  C   UNL A   1      39.518  25.727  27.941  1.00  0.00     0.040 A 
ATOM     67  F   UNL A   1      38.849  26.355  30.099  1.00  0.00    -0.206 F 
ATOM     68  C   UNL A   1      40.212  25.993  26.763  1.00  0.00     0.006 A 
ENDBRANCH  47  61
BRANCH  48  69
ATOM     69  C   UNL A   1      39.928  34.297  36.513  1.00  0.00     0.057 A 
ATOM     70  C   UNL A   1      39.209  34.000  37.677  1.00  0.00     0.134 A 
ATOM     71  C   UNL A   1      40.590  35.530  36.464  1.00  0.00     0.134 A 
ATOM     72  F   UNL A   1      38.539  32.842  37.777  1.00  0.00    -0.206 F 
ATOM     73  C   UNL A   1      39.130  34.901  38.740  1.00  0.00     0.040 A 
ATOM     74  C   UNL A   1      40.544  36.429  37.531  1.00  0.00     0.040 A 
ATOM     75  F   UNL A   1      41.305  35.872  35.381  1.00  0.00    -0.206 F 
ATOM     76  C   UNL A   1      39.804  36.117  38.670  1.00  0.00     0.006 A 
ENDBRANCH  48  69
BRANCH  60  77
ATOM     77  C   UNL A   1      44.123  28.977  34.918  1.00  0.00     0.057 A 
ATOM     78  C   UNL A   1      44.020  27.913  35.823  1.00  0.00     0.134 A 
ATOM     79  C   UNL A   1      45.406  29.467  34.642  1.00  0.00     0.134 A 
ATOM     80  F   UNL A   1      42.820  27.406  36.143  1.00  0.00    -0.206 F 
ATOM     81  C   UNL A   1      45.147  27.376  36.449  1.00  0.00     0.040 A 
ATOM     82  C   UNL A   1      46.542  28.918  35.236  1.00  0.00     0.040 A 
ATOM     83  F   UNL A   1      45.578  30.479  33.777  1.00  0.00    -0.206 F 
ATOM     84  C   UNL A   1      46.414  27.874  36.149  1.00  0.00     0.006 A 
ENDBRANCH  60  77
ENDBRANCH  34  35
ENDBRANCH  26  29
ENDBRANCH  24  25
ENDBRANCH  23  24
ENDBRANCH  22  23
ENDBRANCH  21  22
ENDBRANCH   1  21
TORSDOF 19
ENDMDL
MODEL 3
REMARK VINA RESULT:      -9.6      1.548      6.731
REMARK SMILES C[C@@]([NH2+]CCCO)(C(=O)NCCCCCCNC(=O)c1ccc(-c2c3nc(c(-c4c(F)cccc4F)c4ccc([nH]4)c(-c4c(F)cccc4F)c4nc(c(-c5c(F)cccc5F)c5ccc2[nH]5)C=C4)C=C3)cc1)C(F)(F)F
REMARK SMILES IDX 12 1 11 2 10 3 8 4 9 5 2 7 1 8 3 9 4 12 5 13 6 14 7 15 74 17
REMARK SMILES IDX 75 18 76 19 77 20 13 21 14 22 15 23 16 24 17 25 18 26 19 28
REMARK SMILES IDX 20 29 21 30 73 31 22 32 72 33 23 34 24 35 25 36 66 37 26 38
REMARK SMILES IDX 71 39 65 40 67 41 27 42 70 43 64 44 63 45 28 47 54 48 37 49
REMARK SMILES IDX 53 50 38 51 41 52 52 53 68 54 39 55 40 56 51 58 69 59 42 60
REMARK SMILES IDX 29 61 30 62 35 63 31 64 32 65 34 66 36 67 33 68 55 69 56 70
REMARK SMILES IDX 61 71 57 72 58 73 60 74 62 75 59 76 43 77 44 78 49 79 45 80
REMARK SMILES IDX 46 81 48 82 50 83 47 84
REMARK H PARENT 10 6 3 10 3 11 7 16 17 27 67 46 41 57
REMARK Flexibility Score: inf
ROOT
ATOM      1  C   UNL A   1      31.479  28.212  27.297  1.00  0.00     0.021 C 
ENDROOT
BRANCH   1   2
ATOM      2  C   UNL A   1      31.671  27.050  26.322  1.00  0.00     0.116 C 
BRANCH   2   3
ATOM      3  N   UNL A   1      31.250  25.812  26.948  1.00  0.00    -0.350 N 
ATOM      4  C   UNL A   1      31.330  24.517  26.528  1.00  0.00     0.290 C 
ATOM      5  O   UNL A   1      30.739  23.695  27.234  1.00  0.00    -0.267 OA
ATOM      6  H   UNL A   1      30.833  25.927  27.833  1.00  0.00     0.163 HD
BRANCH   4   7
ATOM      7  C   UNL A   1      32.139  24.106  25.281  1.00  0.00     0.268 C 
ATOM      8  C   UNL A   1      31.732  22.691  24.806  1.00  0.00     0.101 C 
BRANCH   7   9
ATOM      9  N   UNL A   1      31.849  25.028  24.115  1.00  0.00    -0.326 N 
ATOM     10  H   UNL A   1      32.516  25.798  24.160  1.00  0.00     0.347 HD
ATOM     11  H   UNL A   1      30.871  25.296  24.229  1.00  0.00     0.347 HD
BRANCH   9  12
ATOM     12  C   UNL A   1      31.929  24.455  22.768  1.00  0.00     0.264 C 
BRANCH  12  13
ATOM     13  C   UNL A   1      33.108  24.861  21.875  1.00  0.00     0.089 C 
BRANCH  13  14
ATOM     14  C   UNL A   1      32.819  25.959  20.860  1.00  0.00     0.162 C 
BRANCH  14  15
ATOM     15  O   UNL A   1      31.450  25.953  20.479  1.00  0.00    -0.396 OA
ATOM     16  H   UNL A   1      31.206  26.826  20.134  1.00  0.00     0.210 HD
ENDBRANCH  14  15
ENDBRANCH  13  14
ENDBRANCH  12  13
ENDBRANCH   9  12
ENDBRANCH   7   9
BRANCH   7  17
ATOM     17  C   UNL A   1      33.625  23.975  25.724  1.00  0.00     0.453 C 
ATOM     18  F   UNL A   1      34.288  23.019  25.033  1.00  0.00    -0.164 F 
ATOM     19  F   UNL A   1      34.270  25.150  25.467  1.00  0.00    -0.164 F 
ATOM     20  F   UNL A   1      33.798  23.730  27.037  1.00  0.00    -0.164 F 
ENDBRANCH   7  17
ENDBRANCH   4   7
ENDBRANCH   2   3
ENDBRANCH   1   2
BRANCH   1  21
ATOM     21  C   UNL A   1      32.314  29.450  26.936  1.00  0.00     0.002 C 
BRANCH  21  22
ATOM     22  C   UNL A   1      31.629  30.420  25.968  1.00  0.00     0.002 C 
BRANCH  22  23
ATOM     23  C   UNL A   1      31.443  31.837  26.512  1.00  0.00     0.021 C 
BRANCH  23  24
ATOM     24  C   UNL A   1      32.674  32.402  27.212  1.00  0.00     0.116 C 
BRANCH  24  25
ATOM     25  N   UNL A   1      32.516  33.811  27.532  1.00  0.00    -0.352 N 
ATOM     26  C   UNL A   1      33.150  34.559  28.492  1.00  0.00     0.251 C 
ATOM     27  H   UNL A   1      31.859  34.298  26.983  1.00  0.00     0.163 HD
ATOM     28  O   UNL A   1      32.744  35.680  28.775  1.00  0.00    -0.269 OA
BRANCH  26  29
ATOM     29  C   UNL A   1      34.321  33.996  29.196  1.00  0.00     0.039 A 
ATOM     30  C   UNL A   1      34.113  33.188  30.315  1.00  0.00     0.014 A 
ATOM     31  C   UNL A   1      35.618  34.265  28.750  1.00  0.00     0.014 A 
ATOM     32  C   UNL A   1      35.206  32.604  30.956  1.00  0.00     0.010 A 
ATOM     33  C   UNL A   1      36.698  33.618  29.338  1.00  0.00     0.010 A 
ATOM     34  C   UNL A   1      36.505  32.786  30.452  1.00  0.00    -0.014 A 
BRANCH  34  35
ATOM     35  C   UNL A   1      37.673  32.117  31.077  1.00  0.00     0.031 A 
ATOM     36  C   UNL A   1      38.397  31.020  30.348  1.00  0.00     0.074 A 
ATOM     37  C   UNL A   1      38.044  32.457  32.326  1.00  0.00     0.049 A 
ATOM     38  N   UNL A   1      39.404  30.286  30.746  1.00  0.00    -0.248 NA
ATOM     39  C   UNL A   1      37.906  30.685  29.001  1.00  0.00     0.031 C 
ATOM     40  C   UNL A   1      37.395  33.476  33.154  1.00  0.00     0.029 A 
ATOM     41  N   UNL A   1      39.055  31.978  33.120  1.00  0.00    -0.354 N 
ATOM     42  C   UNL A   1      39.658  29.398  29.709  1.00  0.00     0.074 A 
ATOM     43  C   UNL A   1      38.662  29.643  28.689  1.00  0.00     0.031 C 
ATOM     44  C   UNL A   1      38.047  33.570  34.324  1.00  0.00     0.029 A 
ATOM     45  C   UNL A   1      39.127  32.590  34.349  1.00  0.00     0.049 A 
ATOM     46  H   UNL A   1      39.670  31.263  32.838  1.00  0.00     0.167 HD
ATOM     47  C   UNL A   1      40.646  28.477  29.604  1.00  0.00     0.037 A 
ATOM     48  C   UNL A   1      39.968  32.380  35.379  1.00  0.00     0.037 A 
ATOM     49  C   UNL A   1      41.644  28.246  30.615  1.00  0.00     0.049 A 
ATOM     50  C   UNL A   1      41.037  31.329  35.251  1.00  0.00     0.074 A 
ATOM     51  C   UNL A   1      42.723  27.379  30.582  1.00  0.00     0.029 A 
ATOM     52  N   UNL A   1      41.680  28.881  31.849  1.00  0.00    -0.354 N 
ATOM     53  N   UNL A   1      41.313  30.549  34.234  1.00  0.00    -0.248 NA
ATOM     54  C   UNL A   1      41.913  31.134  36.414  1.00  0.00     0.031 C 
ATOM     55  C   UNL A   1      43.376  27.446  31.817  1.00  0.00     0.029 A 
ATOM     56  C   UNL A   1      42.743  28.401  32.597  1.00  0.00     0.049 A 
ATOM     57  H   UNL A   1      41.045  29.570  32.148  1.00  0.00     0.167 HD
ATOM     58  C   UNL A   1      42.415  29.796  34.621  1.00  0.00     0.074 A 
ATOM     59  C   UNL A   1      42.763  30.224  35.961  1.00  0.00     0.031 C 
ATOM     60  C   UNL A   1      43.080  28.839  33.928  1.00  0.00     0.037 A 
BRANCH  47  61
ATOM     61  C   UNL A   1      40.686  27.645  28.353  1.00  0.00     0.057 A 
ATOM     62  C   UNL A   1      41.427  28.030  27.227  1.00  0.00     0.134 A 
ATOM     63  C   UNL A   1      39.988  26.433  28.278  1.00  0.00     0.134 A 
ATOM     64  F   UNL A   1      42.112  29.184  27.226  1.00  0.00    -0.206 F 
ATOM     65  C   UNL A   1      41.443  27.261  26.062  1.00  0.00     0.040 A 
ATOM     66  C   UNL A   1      40.022  25.638  27.131  1.00  0.00     0.040 A 
ATOM     67  F   UNL A   1      39.263  25.998  29.320  1.00  0.00    -0.206 F 
ATOM     68  C   UNL A   1      40.743  26.057  26.014  1.00  0.00     0.006 A 
ENDBRANCH  47  61
BRANCH  48  69
ATOM     69  C   UNL A   1      39.856  33.199  36.612  1.00  0.00     0.057 A 
ATOM     70  C   UNL A   1      38.991  32.826  37.648  1.00  0.00     0.134 A 
ATOM     71  C   UNL A   1      40.595  34.376  36.784  1.00  0.00     0.134 A 
ATOM     72  F   UNL A   1      38.244  31.718  37.535  1.00  0.00    -0.206 F 
ATOM     73  C   UNL A   1      38.848  33.602  38.799  1.00  0.00     0.040 A 
ATOM     74  C   UNL A   1      40.482  35.148  37.942  1.00  0.00     0.040 A 
ATOM     75  F   UNL A   1      41.448  34.785  35.833  1.00  0.00    -0.206 F 
ATOM     76  C   UNL A   1      39.600  34.765  38.950  1.00  0.00     0.006 A 
ENDBRANCH  48  69
BRANCH  60  77
ATOM     77  C   UNL A   1      44.278  28.220  34.589  1.00  0.00     0.057 A 
ATOM     78  C   UNL A   1      45.562  28.764  34.464  1.00  0.00     0.134 A 
ATOM     79  C   UNL A   1      44.137  27.078  35.390  1.00  0.00     0.134 A 
ATOM     80  F   UNL A   1      45.770  29.848  33.701  1.00  0.00    -0.206 F 
ATOM     81  C   UNL A   1      46.667  28.182  35.090  1.00  0.00     0.040 A 
ATOM     82  C   UNL A   1      45.227  26.506  36.046  1.00  0.00     0.040 A 
ATOM     83  F   UNL A   1      42.933  26.509  35.561  1.00  0.00    -0.206 F 
ATOM     84  C   UNL A   1      46.498  27.053  35.891  1.00  0.00     0.006 A 
ENDBRANCH  60  77
ENDBRANCH  34  35
ENDBRANCH  26  29
ENDBRANCH  24  25
ENDBRANCH  23  24
ENDBRANCH  22  23
ENDBRANCH  21  22
ENDBRANCH   1  21
TORSDOF 19
ENDMDL
