MODEL 1
REMARK VINA RESULT:     -10.2      0.000      0.000
REMARK SMILES Cc1cc(Br)cc([N+](=O)[O-])c1OCCC[C@@](C)([NH3+])C(=O)NCCCCCCNC(=O)c1ccc(-c2c3nc(c(-c4c(F)cccc4F)c4ccc([nH]4)c(-c4c(F)cccc4F)c4nc(c(-c5c(F)cccc5F)c5ccc2[nH]5)C=C4)C=C3)cc1
REMARK SMILES IDX 22 1 21 2 19 3 20 4 16 6 17 7 15 8 14 9 13 10 12 11 11 12
REMARK SMILES IDX 1 13 2 14 3 15 4 16 7 17 5 18 6 19 8 20 9 21 10 22 18 23
REMARK SMILES IDX 23 27 24 28 25 29 26 30 27 31 28 32 29 33 30 35 31 36 32 37
REMARK SMILES IDX 84 38 33 39 83 40 34 41 35 42 36 43 77 44 37 45 82 46 76 47
REMARK SMILES IDX 78 48 38 49 81 50 75 51 74 52 39 54 65 55 48 56 64 57 49 58
REMARK SMILES IDX 52 59 63 60 79 61 50 62 51 63 62 65 80 66 53 67 40 68 41 69
REMARK SMILES IDX 46 70 42 71 43 72 45 73 47 74 44 75 66 76 67 77 72 78 68 79
REMARK SMILES IDX 69 80 71 81 73 82 70 83 54 84 55 85 60 86 56 87 57 88 59 89
REMARK SMILES IDX 61 90 58 91
REMARK H PARENT 21 5 18 24 18 25 18 26 28 34 78 53 52 64
REMARK Flexibility Score: inf
ROOT
ATOM      1  C   UNL A   1      33.668  30.392  27.158  1.00  0.00     0.116 C 
ENDROOT
BRANCH   1   2
ATOM      2  N   UNL A   1      34.147  29.501  26.121  1.00  0.00    -0.351 N 
ATOM      3  C   UNL A   1      33.549  28.905  25.058  1.00  0.00     0.280 C 
ATOM      4  O   UNL A   1      34.334  28.555  24.167  1.00  0.00    -0.268 OA
ATOM      5  H   UNL A   1      35.103  29.282  26.203  1.00  0.00     0.163 HD
BRANCH   3   6
ATOM      6  C   UNL A   1      32.012  28.683  24.895  1.00  0.00     0.171 C 
ATOM      7  C   UNL A   1      31.814  28.178  23.458  1.00  0.00     0.090 C 
BRANCH   6   8
ATOM      8  C   UNL A   1      31.393  27.685  25.937  1.00  0.00     0.082 C 
BRANCH   8   9
ATOM      9  C   UNL A   1      30.599  26.446  25.469  1.00  0.00     0.049 C 
BRANCH   9  10
ATOM     10  C   UNL A   1      31.060  25.058  25.989  1.00  0.00     0.230 C 
BRANCH  10  11
ATOM     11  O   UNL A   1      32.476  24.895  25.792  1.00  0.00    -0.487 OA
BRANCH  11  12
ATOM     12  C   UNL A   1      32.922  23.694  25.282  1.00  0.00     0.200 A 
ATOM     13  C   UNL A   1      33.370  22.757  27.611  1.00  0.00     0.049 C 
ATOM     14  C   UNL A   1      33.102  22.606  26.158  1.00  0.00    -0.001 A 
ATOM     15  C   UNL A   1      32.992  21.286  25.691  1.00  0.00     0.023 A 
ATOM     16  C   UNL A   1      32.784  21.027  24.347  1.00  0.00     0.025 A 
ATOM     17  C   UNL A   1      32.823  23.407  23.908  1.00  0.00     0.312 A 
ATOM     18  Br  UNL A   1      32.556  19.243  23.773  1.00  0.00    -0.051 Br
ATOM     19  C   UNL A   1      32.752  22.077  23.440  1.00  0.00     0.105 A 
BRANCH  17  20
ATOM     20  N   UNL A   1      32.866  24.466  22.900  1.00  0.00     0.066 N 
ATOM     21  O   UNL A   1      31.783  24.846  22.429  1.00  0.00    -0.258 OA
ATOM     22  O   UNL A   1      33.972  24.857  22.507  1.00  0.00    -0.258 OA
ENDBRANCH  17  20
ENDBRANCH  11  12
ENDBRANCH  10  11
ENDBRANCH   9  10
ENDBRANCH   8   9
ENDBRANCH   6   8
BRANCH   6  23
ATOM     23  N   UNL A   1      31.217  29.935  24.964  1.00  0.00    -0.345 N 
ATOM     24  H   UNL A   1      31.813  30.730  24.729  1.00  0.00     0.345 HD
ATOM     25  H   UNL A   1      30.850  30.054  25.907  1.00  0.00     0.345 HD
ATOM     26  H   UNL A   1      30.442  29.884  24.302  1.00  0.00     0.345 HD
ENDBRANCH   6  23
ENDBRANCH   3   6
ENDBRANCH   1   2
BRANCH   1  27
ATOM     27  C   UNL A   1      34.785  31.284  27.706  1.00  0.00     0.021 C 
BRANCH  27  28
ATOM     28  C   UNL A   1      34.420  32.127  28.936  1.00  0.00     0.002 C 
BRANCH  28  29
ATOM     29  C   UNL A   1      34.581  33.642  28.780  1.00  0.00     0.002 C 
BRANCH  29  30
ATOM     30  C   UNL A   1      33.295  34.457  28.911  1.00  0.00     0.021 C 
BRANCH  30  31
ATOM     31  C   UNL A   1      33.482  35.858  29.476  1.00  0.00     0.116 C 
BRANCH  31  32
ATOM     32  N   UNL A   1      32.572  36.136  30.572  1.00  0.00    -0.352 N 
ATOM     33  C   UNL A   1      32.629  35.699  31.874  1.00  0.00     0.251 C 
ATOM     34  H   UNL A   1      31.807  36.716  30.352  1.00  0.00     0.163 HD
ATOM     35  O   UNL A   1      31.679  35.868  32.628  1.00  0.00    -0.269 OA
BRANCH  33  36
ATOM     36  C   UNL A   1      33.841  34.998  32.354  1.00  0.00     0.039 A 
ATOM     37  C   UNL A   1      33.719  33.694  32.839  1.00  0.00     0.014 A 
ATOM     38  C   UNL A   1      35.092  35.620  32.316  1.00  0.00     0.014 A 
ATOM     39  C   UNL A   1      34.862  32.991  33.228  1.00  0.00     0.010 A 
ATOM     40  C   UNL A   1      36.237  34.892  32.628  1.00  0.00     0.010 A 
ATOM     41  C   UNL A   1      36.134  33.572  33.091  1.00  0.00    -0.014 A 
BRANCH  41  42
ATOM     42  C   UNL A   1      37.366  32.813  33.426  1.00  0.00     0.031 A 
ATOM     43  C   UNL A   1      38.116  33.109  34.695  1.00  0.00     0.074 A 
ATOM     44  C   UNL A   1      37.845  31.901  32.557  1.00  0.00     0.049 A 
ATOM     45  N   UNL A   1      39.239  32.598  35.132  1.00  0.00    -0.248 NA
ATOM     46  C   UNL A   1      37.540  34.135  35.580  1.00  0.00     0.031 C 
ATOM     47  C   UNL A   1      37.237  31.557  31.270  1.00  0.00     0.029 A 
ATOM     48  N   UNL A   1      38.958  31.102  32.623  1.00  0.00    -0.354 N 
ATOM     49  C   UNL A   1      39.509  33.246  36.330  1.00  0.00     0.074 A 
ATOM     50  C   UNL A   1      38.465  34.228  36.525  1.00  0.00     0.031 C 
ATOM     51  C   UNL A   1      37.971  30.600  30.680  1.00  0.00     0.029 A 
ATOM     52  C   UNL A   1      39.120  30.292  31.524  1.00  0.00     0.049 A 
ATOM     53  H   UNL A   1      39.582  31.108  33.384  1.00  0.00     0.167 HD
ATOM     54  C   UNL A   1      40.524  33.028  37.201  1.00  0.00     0.037 A 
ATOM     55  C   UNL A   1      40.091  29.406  31.227  1.00  0.00     0.037 A 
ATOM     56  C   UNL A   1      41.551  32.036  37.015  1.00  0.00     0.049 A 
ATOM     57  C   UNL A   1      41.211  29.190  32.206  1.00  0.00     0.074 A 
ATOM     58  C   UNL A   1      42.586  31.697  37.867  1.00  0.00     0.029 A 
ATOM     59  N   UNL A   1      41.672  31.227  35.895  1.00  0.00    -0.354 N 
ATOM     60  N   UNL A   1      41.417  29.760  33.368  1.00  0.00    -0.248 NA
ATOM     61  C   UNL A   1      42.234  28.201  31.834  1.00  0.00     0.031 C 
ATOM     62  C   UNL A   1      43.365  30.718  37.242  1.00  0.00     0.029 A 
ATOM     63  C   UNL A   1      42.782  30.407  36.024  1.00  0.00     0.049 A 
ATOM     64  H   UNL A   1      41.061  31.233  35.123  1.00  0.00     0.167 HD
ATOM     65  C   UNL A   1      42.570  29.181  33.879  1.00  0.00     0.074 A 
ATOM     66  C   UNL A   1      43.013  28.204  32.906  1.00  0.00     0.031 C 
ATOM     67  C   UNL A   1      43.207  29.434  35.049  1.00  0.00     0.037 A 
BRANCH  54  68
ATOM     68  C   UNL A   1      40.570  33.878  38.439  1.00  0.00     0.057 A 
ATOM     69  C   UNL A   1      39.861  33.535  39.599  1.00  0.00     0.134 A 
ATOM     70  C   UNL A   1      41.359  35.034  38.485  1.00  0.00     0.134 A 
ATOM     71  F   UNL A   1      39.077  32.447  39.620  1.00  0.00    -0.206 F 
ATOM     72  C   UNL A   1      39.914  34.325  40.748  1.00  0.00     0.040 A 
ATOM     73  C   UNL A   1      41.443  35.816  39.638  1.00  0.00     0.040 A 
ATOM     74  F   UNL A   1      42.069  35.417  37.412  1.00  0.00    -0.206 F 
ATOM     75  C   UNL A   1      40.713  35.467  40.772  1.00  0.00     0.006 A 
ENDBRANCH  54  68
BRANCH  55  76
ATOM     76  C   UNL A   1      40.035  28.641  29.956  1.00  0.00     0.057 A 
ATOM     77  C   UNL A   1      40.694  29.098  28.809  1.00  0.00     0.134 A 
ATOM     78  C   UNL A   1      39.317  27.443  29.852  1.00  0.00     0.134 A 
ATOM     79  F   UNL A   1      41.383  30.248  28.839  1.00  0.00    -0.206 F 
ATOM     80  C   UNL A   1      40.624  28.404  27.599  1.00  0.00     0.040 A 
ATOM     81  C   UNL A   1      39.261  26.725  28.657  1.00  0.00     0.040 A 
ATOM     82  F   UNL A   1      38.670  26.947  30.918  1.00  0.00    -0.206 F 
ATOM     83  C   UNL A   1      39.910  27.210  27.523  1.00  0.00     0.006 A 
ENDBRANCH  55  76
BRANCH  67  84
ATOM     84  C   UNL A   1      44.427  28.616  35.360  1.00  0.00     0.057 A 
ATOM     85  C   UNL A   1      45.713  29.039  35.001  1.00  0.00     0.134 A 
ATOM     86  C   UNL A   1      44.314  27.410  36.063  1.00  0.00     0.134 A 
ATOM     87  F   UNL A   1      45.889  30.178  34.315  1.00  0.00    -0.206 F 
ATOM     88  C   UNL A   1      46.842  28.277  35.309  1.00  0.00     0.040 A 
ATOM     89  C   UNL A   1      45.437  26.655  36.402  1.00  0.00     0.040 A 
ATOM     90  F   UNL A   1      43.112  26.954  36.445  1.00  0.00    -0.206 F 
ATOM     91  C   UNL A   1      46.706  27.084  36.019  1.00  0.00     0.006 A 
ENDBRANCH  67  84
ENDBRANCH  41  42
ENDBRANCH  33  36
ENDBRANCH  31  32
ENDBRANCH  30  31
ENDBRANCH  29  30
ENDBRANCH  28  29
ENDBRANCH  27  28
ENDBRANCH   1  27
TORSDOF 20
ENDMDL
MODEL 2
REMARK VINA RESULT:     -10.1      2.902      7.402
REMARK SMILES Cc1cc(Br)cc([N+](=O)[O-])c1OCCC[C@@](C)([NH3+])C(=O)NCCCCCCNC(=O)c1ccc(-c2c3nc(c(-c4c(F)cccc4F)c4ccc([nH]4)c(-c4c(F)cccc4F)c4nc(c(-c5c(F)cccc5F)c5ccc2[nH]5)C=C4)C=C3)cc1
REMARK SMILES IDX 22 1 21 2 19 3 20 4 16 6 17 7 15 8 14 9 13 10 12 11 11 12
REMARK SMILES IDX 1 13 2 14 3 15 4 16 7 17 5 18 6 19 8 20 9 21 10 22 18 23
REMARK SMILES IDX 23 27 24 28 25 29 26 30 27 31 28 32 29 33 30 35 31 36 32 37
REMARK SMILES IDX 84 38 33 39 83 40 34 41 35 42 36 43 77 44 37 45 82 46 76 47
REMARK SMILES IDX 78 48 38 49 81 50 75 51 74 52 39 54 65 55 48 56 64 57 49 58
REMARK SMILES IDX 52 59 63 60 79 61 50 62 51 63 62 65 80 66 53 67 40 68 41 69
REMARK SMILES IDX 46 70 42 71 43 72 45 73 47 74 44 75 66 76 67 77 72 78 68 79
REMARK SMILES IDX 69 80 71 81 73 82 70 83 54 84 55 85 60 86 56 87 57 88 59 89
REMARK SMILES IDX 61 90 58 91
REMARK H PARENT 21 5 18 24 18 25 18 26 28 34 78 53 52 64
REMARK Flexibility Score: inf
ROOT
ATOM      1  C   UNL A   1      33.052  26.935  25.971  1.00  0.00     0.116 C 
ENDROOT
BRANCH   1   2
ATOM      2  N   UNL A   1      33.881  26.284  24.976  1.00  0.00    -0.351 N 
ATOM      3  C   UNL A   1      33.971  25.004  24.534  1.00  0.00     0.280 C 
ATOM      4  O   UNL A   1      34.481  24.891  23.412  1.00  0.00    -0.268 OA
ATOM      5  H   UNL A   1      34.508  26.896  24.529  1.00  0.00     0.163 HD
BRANCH   3   6
ATOM      6  C   UNL A   1      33.464  23.745  25.306  1.00  0.00     0.171 C 
ATOM      7  C   UNL A   1      34.387  23.604  26.525  1.00  0.00     0.090 C 
BRANCH   6   8
ATOM      8  C   UNL A   1      31.957  23.823  25.743  1.00  0.00     0.082 C 
BRANCH   8   9
ATOM      9  C   UNL A   1      30.824  23.585  24.721  1.00  0.00     0.049 C 
BRANCH   9  10
ATOM     10  C   UNL A   1      30.651  24.628  23.585  1.00  0.00     0.230 C 
BRANCH  10  11
ATOM     11  O   UNL A   1      30.559  25.956  24.133  1.00  0.00    -0.487 OA
BRANCH  11  12
ATOM     12  C   UNL A   1      30.094  26.961  23.311  1.00  0.00     0.200 A 
ATOM     13  C   UNL A   1      27.679  26.567  24.030  1.00  0.00     0.049 C 
ATOM     14  C   UNL A   1      28.766  27.405  23.462  1.00  0.00    -0.001 A 
ATOM     15  C   UNL A   1      28.406  28.716  23.109  1.00  0.00     0.023 A 
ATOM     16  C   UNL A   1      29.330  29.571  22.533  1.00  0.00     0.025 A 
ATOM     17  C   UNL A   1      30.983  27.807  22.624  1.00  0.00     0.312 A 
ATOM     18  Br  UNL A   1      28.831  31.352  22.154  1.00  0.00    -0.051 Br
ATOM     19  C   UNL A   1      30.605  29.110  22.237  1.00  0.00     0.105 A 
BRANCH  17  20
ATOM     20  N   UNL A   1      32.311  27.350  22.213  1.00  0.00     0.066 N 
ATOM     21  O   UNL A   1      33.287  27.998  22.622  1.00  0.00    -0.258 OA
ATOM     22  O   UNL A   1      32.386  26.408  21.414  1.00  0.00    -0.258 OA
ENDBRANCH  17  20
ENDBRANCH  11  12
ENDBRANCH  10  11
ENDBRANCH   9  10
ENDBRANCH   8   9
ENDBRANCH   6   8
BRANCH   6  23
ATOM     23  N   UNL A   1      33.636  22.475  24.557  1.00  0.00    -0.345 N 
ATOM     24  H   UNL A   1      34.570  22.446  24.146  1.00  0.00     0.345 HD
ATOM     25  H   UNL A   1      32.938  22.419  23.816  1.00  0.00     0.345 HD
ATOM     26  H   UNL A   1      33.520  21.686  25.193  1.00  0.00     0.345 HD
ENDBRANCH   6  23
ENDBRANCH   3   6
ENDBRANCH   1   2
BRANCH   1  27
ATOM     27  C   UNL A   1      33.677  28.240  26.470  1.00  0.00     0.021 C 
BRANCH  27  28
ATOM     28  C   UNL A   1      33.245  29.511  25.725  1.00  0.00     0.002 C 
BRANCH  28  29
ATOM     29  C   UNL A   1      31.765  29.889  25.849  1.00  0.00     0.002 C 
BRANCH  29  30
ATOM     30  C   UNL A   1      31.481  31.212  26.559  1.00  0.00     0.021 C 
BRANCH  30  31
ATOM     31  C   UNL A   1      32.720  31.979  26.997  1.00  0.00     0.116 C 
BRANCH  31  32
ATOM     32  N   UNL A   1      32.412  33.341  27.395  1.00  0.00    -0.352 N 
ATOM     33  C   UNL A   1      33.080  34.153  28.280  1.00  0.00     0.251 C 
ATOM     34  H   UNL A   1      31.614  33.737  26.974  1.00  0.00     0.163 HD
ATOM     35  O   UNL A   1      32.582  35.209  28.651  1.00  0.00    -0.269 OA
BRANCH  33  36
ATOM     36  C   UNL A   1      34.398  33.732  28.804  1.00  0.00     0.039 A 
ATOM     37  C   UNL A   1      34.449  32.990  29.987  1.00  0.00     0.014 A 
ATOM     38  C   UNL A   1      35.576  34.057  28.127  1.00  0.00     0.014 A 
ATOM     39  C   UNL A   1      35.678  32.521  30.456  1.00  0.00     0.010 A 
ATOM     40  C   UNL A   1      36.790  33.522  28.553  1.00  0.00     0.010 A 
ATOM     41  C   UNL A   1      36.854  32.752  29.723  1.00  0.00    -0.014 A 
BRANCH  41  42
ATOM     42  C   UNL A   1      38.158  32.196  30.166  1.00  0.00     0.031 A 
ATOM     43  C   UNL A   1      38.642  30.879  29.626  1.00  0.00     0.074 A 
ATOM     44  C   UNL A   1      38.876  32.846  31.103  1.00  0.00     0.049 A 
ATOM     45  N   UNL A   1      39.721  30.204  29.934  1.00  0.00    -0.248 NA
ATOM     46  C   UNL A   1      37.789  30.220  28.623  1.00  0.00     0.031 C 
ATOM     47  C   UNL A   1      38.492  34.106  31.741  1.00  0.00     0.029 A 
ATOM     48  N   UNL A   1      40.078  32.532  31.687  1.00  0.00    -0.354 N 
ATOM     49  C   UNL A   1      39.669  29.041  29.177  1.00  0.00     0.074 A 
ATOM     50  C   UNL A   1      38.426  29.074  28.436  1.00  0.00     0.031 C 
ATOM     51  C   UNL A   1      39.450  34.470  32.609  1.00  0.00     0.029 A 
ATOM     52  C   UNL A   1      40.494  33.451  32.619  1.00  0.00     0.049 A 
ATOM     53  H   UNL A   1      40.592  31.723  31.460  1.00  0.00     0.167 HD
ATOM     54  C   UNL A   1      40.584  28.046  29.088  1.00  0.00     0.037 A 
ATOM     55  C   UNL A   1      41.592  33.467  33.400  1.00  0.00     0.037 A 
ATOM     56  C   UNL A   1      41.829  28.026  29.811  1.00  0.00     0.049 A 
ATOM     57  C   UNL A   1      42.588  32.346  33.290  1.00  0.00     0.074 A 
ATOM     58  C   UNL A   1      42.849  27.094  29.744  1.00  0.00     0.029 A 
ATOM     59  N   UNL A   1      42.221  28.983  30.735  1.00  0.00    -0.354 N 
ATOM     60  N   UNL A   1      42.559  31.287  32.519  1.00  0.00    -0.248 NA
ATOM     61  C   UNL A   1      43.772  32.424  34.157  1.00  0.00     0.031 C 
ATOM     62  C   UNL A   1      43.836  27.459  30.665  1.00  0.00     0.029 A 
ATOM     63  C   UNL A   1      43.457  28.649  31.265  1.00  0.00     0.049 A 
ATOM     64  H   UNL A   1      41.699  29.781  30.979  1.00  0.00     0.167 HD
ATOM     65  C   UNL A   1      43.731  30.590  32.783  1.00  0.00     0.074 A 
ATOM     66  C   UNL A   1      44.455  31.354  33.778  1.00  0.00     0.031 C 
ATOM     67  C   UNL A   1      44.169  29.423  32.251  1.00  0.00     0.037 A 
BRANCH  54  68
ATOM     68  C   UNL A   1      40.272  26.896  28.173  1.00  0.00     0.057 A 
ATOM     69  C   UNL A   1      40.795  26.821  26.875  1.00  0.00     0.134 A 
ATOM     70  C   UNL A   1      39.468  25.835  28.606  1.00  0.00     0.134 A 
ATOM     71  F   UNL A   1      41.563  27.810  26.392  1.00  0.00    -0.206 F 
ATOM     72  C   UNL A   1      40.507  25.747  26.032  1.00  0.00     0.040 A 
ATOM     73  C   UNL A   1      39.198  24.740  27.783  1.00  0.00     0.040 A 
ATOM     74  F   UNL A   1      38.940  25.839  29.840  1.00  0.00    -0.206 F 
ATOM     75  C   UNL A   1      39.711  24.698  26.489  1.00  0.00     0.006 A 
ENDBRANCH  54  68
BRANCH  55  76
ATOM     76  C   UNL A   1      41.819  34.594  34.340  1.00  0.00     0.057 A 
ATOM     77  C   UNL A   1      41.403  34.516  35.674  1.00  0.00     0.134 A 
ATOM     78  C   UNL A   1      42.445  35.777  33.928  1.00  0.00     0.134 A 
ATOM     79  F   UNL A   1      40.781  33.417  36.124  1.00  0.00    -0.206 F 
ATOM     80  C   UNL A   1      41.583  35.580  36.561  1.00  0.00     0.040 A 
ATOM     81  C   UNL A   1      42.656  36.838  34.809  1.00  0.00     0.040 A 
ATOM     82  F   UNL A   1      42.874  35.912  32.664  1.00  0.00    -0.206 F 
ATOM     83  C   UNL A   1      42.216  36.744  36.129  1.00  0.00     0.006 A 
ENDBRANCH  55  76
BRANCH  67  84
ATOM     84  C   UNL A   1      45.509  28.920  32.703  1.00  0.00     0.057 A 
ATOM     85  C   UNL A   1      45.644  28.042  33.785  1.00  0.00     0.134 A 
ATOM     86  C   UNL A   1      46.675  29.290  32.020  1.00  0.00     0.134 A 
ATOM     87  F   UNL A   1      44.569  27.659  34.490  1.00  0.00    -0.206 F 
ATOM     88  C   UNL A   1      46.895  27.569  34.187  1.00  0.00     0.040 A 
ATOM     89  C   UNL A   1      47.927  28.801  32.394  1.00  0.00     0.040 A 
ATOM     90  F   UNL A   1      46.614  30.120  30.968  1.00  0.00    -0.206 F 
ATOM     91  C   UNL A   1      48.040  27.942  33.486  1.00  0.00     0.006 A 
ENDBRANCH  67  84
ENDBRANCH  41  42
ENDBRANCH  33  36
ENDBRANCH  31  32
ENDBRANCH  30  31
ENDBRANCH  29  30
ENDBRANCH  28  29
ENDBRANCH  27  28
ENDBRANCH   1  27
TORSDOF 20
ENDMDL
MODEL 3
REMARK VINA RESULT:     -10.0      5.399     10.204
REMARK SMILES Cc1cc(Br)cc([N+](=O)[O-])c1OCCC[C@@](C)([NH3+])C(=O)NCCCCCCNC(=O)c1ccc(-c2c3nc(c(-c4c(F)cccc4F)c4ccc([nH]4)c(-c4c(F)cccc4F)c4nc(c(-c5c(F)cccc5F)c5ccc2[nH]5)C=C4)C=C3)cc1
REMARK SMILES IDX 22 1 21 2 19 3 20 4 16 6 17 7 15 8 14 9 13 10 12 11 11 12
REMARK SMILES IDX 1 13 2 14 3 15 4 16 7 17 5 18 6 19 8 20 9 21 10 22 18 23
REMARK SMILES IDX 23 27 24 28 25 29 26 30 27 31 28 32 29 33 30 35 31 36 32 37
REMARK SMILES IDX 84 38 33 39 83 40 34 41 35 42 36 43 77 44 37 45 82 46 76 47
REMARK SMILES IDX 78 48 38 49 81 50 75 51 74 52 39 54 65 55 48 56 64 57 49 58
REMARK SMILES IDX 52 59 63 60 79 61 50 62 51 63 62 65 80 66 53 67 40 68 41 69
REMARK SMILES IDX 46 70 42 71 43 72 45 73 47 74 44 75 66 76 67 77 72 78 68 79
REMARK SMILES IDX 69 80 71 81 73 82 70 83 54 84 55 85 60 86 56 87 57 88 59 89
REMARK SMILES IDX 61 90 58 91
REMARK H PARENT 21 5 18 24 18 25 18 26 28 34 78 53 52 64
REMARK Flexibility Score: inf
ROOT
ATOM      1  C   UNL A   1      36.664  22.642  25.757  1.00  0.00     0.116 C 
ENDROOT
BRANCH   1   2
ATOM      2  N   UNL A   1      35.483  22.399  26.562  1.00  0.00    -0.351 N 
ATOM      3  C   UNL A   1      34.521  21.442  26.536  1.00  0.00     0.280 C 
ATOM      4  O   UNL A   1      33.912  21.309  27.604  1.00  0.00    -0.268 OA
ATOM      5  H   UNL A   1      35.352  23.065  27.274  1.00  0.00     0.163 HD
BRANCH   3   6
ATOM      6  C   UNL A   1      34.187  20.532  25.312  1.00  0.00     0.171 C 
ATOM      7  C   UNL A   1      32.968  19.699  25.732  1.00  0.00     0.090 C 
BRANCH   6   8
ATOM      8  C   UNL A   1      33.904  21.320  23.983  1.00  0.00     0.082 C 
BRANCH   8   9
ATOM      9  C   UNL A   1      32.478  21.806  23.640  1.00  0.00     0.049 C 
BRANCH   9  10
ATOM     10  C   UNL A   1      32.345  23.084  22.771  1.00  0.00     0.230 C 
BRANCH  10  11
ATOM     11  O   UNL A   1      31.225  23.874  23.210  1.00  0.00    -0.487 OA
BRANCH  11  12
ATOM     12  C   UNL A   1      31.488  25.067  23.851  1.00  0.00     0.200 A 
ATOM     13  C   UNL A   1      30.461  24.236  26.032  1.00  0.00     0.049 C 
ATOM     14  C   UNL A   1      31.350  25.134  25.250  1.00  0.00    -0.001 A 
ATOM     15  C   UNL A   1      32.101  26.054  26.000  1.00  0.00     0.023 A 
ATOM     16  C   UNL A   1      32.932  26.966  25.371  1.00  0.00     0.025 A 
ATOM     17  C   UNL A   1      32.250  26.073  23.228  1.00  0.00     0.312 A 
ATOM     18  Br  UNL A   1      33.990  28.127  26.418  1.00  0.00    -0.051 Br
ATOM     19  C   UNL A   1      32.972  27.020  23.986  1.00  0.00     0.105 A 
BRANCH  17  20
ATOM     20  N   UNL A   1      32.267  26.230  21.774  1.00  0.00     0.066 N 
ATOM     21  O   UNL A   1      33.349  26.043  21.195  1.00  0.00    -0.258 OA
ATOM     22  O   UNL A   1      31.238  26.628  21.215  1.00  0.00    -0.258 OA
ENDBRANCH  17  20
ENDBRANCH  11  12
ENDBRANCH  10  11
ENDBRANCH   9  10
ENDBRANCH   8   9
ENDBRANCH   6   8
BRANCH   6  23
ATOM     23  N   UNL A   1      35.239  19.529  25.009  1.00  0.00    -0.345 N 
ATOM     24  H   UNL A   1      34.803  18.623  24.829  1.00  0.00     0.345 HD
ATOM     25  H   UNL A   1      35.872  19.449  25.803  1.00  0.00     0.345 HD
ATOM     26  H   UNL A   1      35.763  19.823  24.185  1.00  0.00     0.345 HD
ENDBRANCH   6  23
ENDBRANCH   3   6
ENDBRANCH   1   2
BRANCH   1  27
ATOM     27  C   UNL A   1      37.431  23.881  26.227  1.00  0.00     0.021 C 
BRANCH  27  28
ATOM     28  C   UNL A   1      38.958  23.807  26.095  1.00  0.00     0.002 C 
BRANCH  28  29
ATOM     29  C   UNL A   1      39.641  22.665  26.855  1.00  0.00     0.002 C 
BRANCH  29  30
ATOM     30  C   UNL A   1      39.812  21.364  26.073  1.00  0.00     0.021 C 
BRANCH  30  31
ATOM     31  C   UNL A   1      40.522  20.252  26.831  1.00  0.00     0.116 C 
BRANCH  31  32
ATOM     32  N   UNL A   1      41.661  19.727  26.100  1.00  0.00    -0.352 N 
ATOM     33  C   UNL A   1      42.805  20.377  25.700  1.00  0.00     0.251 C 
ATOM     34  H   UNL A   1      41.607  18.774  25.856  1.00  0.00     0.163 HD
ATOM     35  O   UNL A   1      43.585  19.840  24.924  1.00  0.00    -0.269 OA
BRANCH  33  36
ATOM     36  C   UNL A   1      43.075  21.746  26.194  1.00  0.00     0.039 A 
ATOM     37  C   UNL A   1      43.117  22.799  25.278  1.00  0.00     0.014 A 
ATOM     38  C   UNL A   1      43.276  21.990  27.556  1.00  0.00     0.014 A 
ATOM     39  C   UNL A   1      43.297  24.107  25.735  1.00  0.00     0.010 A 
ATOM     40  C   UNL A   1      43.377  23.300  28.017  1.00  0.00     0.010 A 
ATOM     41  C   UNL A   1      43.392  24.371  27.111  1.00  0.00    -0.014 A 
BRANCH  41  42
ATOM     42  C   UNL A   1      43.507  25.761  27.621  1.00  0.00     0.031 A 
ATOM     43  C   UNL A   1      44.861  26.378  27.840  1.00  0.00     0.074 A 
ATOM     44  C   UNL A   1      42.394  26.447  27.947  1.00  0.00     0.049 A 
ATOM     45  N   UNL A   1      45.167  27.552  28.332  1.00  0.00    -0.248 NA
ATOM     46  C   UNL A   1      46.029  25.556  27.481  1.00  0.00     0.031 C 
ATOM     47  C   UNL A   1      41.024  25.944  27.827  1.00  0.00     0.029 A 
ATOM     48  N   UNL A   1      42.239  27.713  28.453  1.00  0.00    -0.354 N 
ATOM     49  C   UNL A   1      46.555  27.603  28.354  1.00  0.00     0.074 A 
ATOM     50  C   UNL A   1      47.033  26.323  27.879  1.00  0.00     0.031 C 
ATOM     51  C   UNL A   1      40.169  26.898  28.225  1.00  0.00     0.029 A 
ATOM     52  C   UNL A   1      40.928  28.065  28.664  1.00  0.00     0.049 A 
ATOM     53  H   UNL A   1      42.995  28.313  28.647  1.00  0.00     0.167 HD
ATOM     54  C   UNL A   1      47.359  28.632  28.715  1.00  0.00     0.037 A 
ATOM     55  C   UNL A   1      40.396  29.198  29.163  1.00  0.00     0.037 A 
ATOM     56  C   UNL A   1      46.879  29.913  29.167  1.00  0.00     0.049 A 
ATOM     57  C   UNL A   1      41.310  30.322  29.566  1.00  0.00     0.074 A 
ATOM     58  C   UNL A   1      47.612  31.039  29.499  1.00  0.00     0.029 A 
ATOM     59  N   UNL A   1      45.543  30.234  29.355  1.00  0.00    -0.354 N 
ATOM     60  N   UNL A   1      42.619  30.382  29.516  1.00  0.00    -0.248 NA
ATOM     61  C   UNL A   1      40.674  31.538  30.091  1.00  0.00     0.031 C 
ATOM     62  C   UNL A   1      46.723  32.026  29.935  1.00  0.00     0.029 A 
ATOM     63  C   UNL A   1      45.432  31.534  29.822  1.00  0.00     0.049 A 
ATOM     64  H   UNL A   1      44.786  29.629  29.181  1.00  0.00     0.167 HD
ATOM     65  C   UNL A   1      42.960  31.648  29.972  1.00  0.00     0.074 A 
ATOM     66  C   UNL A   1      41.719  32.328  30.283  1.00  0.00     0.031 C 
ATOM     67  C   UNL A   1      44.189  32.200  30.121  1.00  0.00     0.037 A 
BRANCH  54  68
ATOM     68  C   UNL A   1      48.843  28.416  28.631  1.00  0.00     0.057 A 
ATOM     69  C   UNL A   1      49.566  28.688  27.462  1.00  0.00     0.134 A 
ATOM     70  C   UNL A   1      49.563  27.962  29.742  1.00  0.00     0.134 A 
ATOM     71  F   UNL A   1      48.936  29.114  26.357  1.00  0.00    -0.206 F 
ATOM     72  C   UNL A   1      50.945  28.491  27.393  1.00  0.00     0.040 A 
ATOM     73  C   UNL A   1      50.948  27.790  29.695  1.00  0.00     0.040 A 
ATOM     74  F   UNL A   1      48.935  27.688  30.896  1.00  0.00    -0.206 F 
ATOM     75  C   UNL A   1      51.642  28.047  28.515  1.00  0.00     0.006 A 
ENDBRANCH  54  68
BRANCH  55  76
ATOM     76  C   UNL A   1      38.923  29.335  29.290  1.00  0.00     0.057 A 
ATOM     77  C   UNL A   1      38.128  29.639  28.179  1.00  0.00     0.134 A 
ATOM     78  C   UNL A   1      38.276  29.176  30.522  1.00  0.00     0.134 A 
ATOM     79  F   UNL A   1      38.691  29.822  26.976  1.00  0.00    -0.206 F 
ATOM     80  C   UNL A   1      36.745  29.801  28.290  1.00  0.00     0.040 A 
ATOM     81  C   UNL A   1      36.892  29.308  30.643  1.00  0.00     0.040 A 
ATOM     82  F   UNL A   1      38.980  28.876  31.623  1.00  0.00    -0.206 F 
ATOM     83  C   UNL A   1      36.123  29.630  29.525  1.00  0.00     0.006 A 
ENDBRANCH  55  76
BRANCH  67  84
ATOM     84  C   UNL A   1      44.253  33.620  30.604  1.00  0.00     0.057 A 
ATOM     85  C   UNL A   1      44.183  34.706  29.723  1.00  0.00     0.134 A 
ATOM     86  C   UNL A   1      44.345  33.902  31.973  1.00  0.00     0.134 A 
ATOM     87  F   UNL A   1      44.107  34.505  28.399  1.00  0.00    -0.206 F 
ATOM     88  C   UNL A   1      44.228  36.023  30.186  1.00  0.00     0.040 A 
ATOM     89  C   UNL A   1      44.362  35.213  32.449  1.00  0.00     0.040 A 
ATOM     90  F   UNL A   1      44.405  32.907  32.871  1.00  0.00    -0.206 F 
ATOM     91  C   UNL A   1      44.310  36.279  31.554  1.00  0.00     0.006 A 
ENDBRANCH  67  84
ENDBRANCH  41  42
ENDBRANCH  33  36
ENDBRANCH  31  32
ENDBRANCH  30  31
ENDBRANCH  29  30
ENDBRANCH  28  29
ENDBRANCH  27  28
ENDBRANCH   1  27
TORSDOF 20
ENDMDL
