MODEL 1
REMARK VINA RESULT:     -11.5      0.000      0.000
REMARK SMILES C[C@@H](C(=O)NCCCCCCNC(=O)c1ccc(-c2c3nc(c(-c4c(F)cccc4F)c4ccc([nH]4)c(-c4c(F)cccc4F)c4nc(c(-c5c(F)cccc5F)c5ccc2[nH]5)C=C4)C=C3)cc1)c1ccc(N[C@H]2CCC[C@@H]2O)cc1F
REMARK SMILES IDX 7 1 6 2 5 3 3 4 4 5 2 7 1 8 69 9 70 10 81 11 71 12 80 13
REMARK SMILES IDX 82 14 72 15 73 16 74 18 75 19 78 20 76 21 77 22 79 23 8 25
REMARK SMILES IDX 9 26 10 27 11 28 12 29 13 30 14 32 15 33 16 34 68 35 17 36
REMARK SMILES IDX 67 37 18 38 19 39 20 40 61 41 21 42 66 43 60 44 62 45 22 46
REMARK SMILES IDX 65 47 59 48 58 49 23 51 49 52 32 53 48 54 33 55 36 56 47 57
REMARK SMILES IDX 63 58 34 59 35 60 46 62 64 63 37 64 24 65 25 66 30 67 26 68
REMARK SMILES IDX 27 69 29 70 31 71 28 72 50 73 51 74 56 75 52 76 53 77 55 78
REMARK SMILES IDX 57 79 54 80 38 81 39 82 44 83 40 84 41 85 43 86 45 87 42 88
REMARK H PARENT 5 6 73 17 79 24 12 31 62 50 36 61
REMARK Flexibility Score: inf
ROOT
ATOM      1  C   UNL A   1      32.359  28.953  27.287  1.00  0.00     0.021 C 
ENDROOT
BRANCH   1   2
ATOM      2  C   UNL A   1      32.331  27.504  26.790  1.00  0.00     0.116 C 
BRANCH   2   3
ATOM      3  N   UNL A   1      33.101  27.399  25.572  1.00  0.00    -0.356 N 
ATOM      4  C   UNL A   1      32.966  26.509  24.547  1.00  0.00     0.227 C 
ATOM      5  O   UNL A   1      33.931  26.378  23.792  1.00  0.00    -0.274 OA
ATOM      6  H   UNL A   1      33.823  28.061  25.467  1.00  0.00     0.163 HD
BRANCH   4   7
ATOM      7  C   UNL A   1      31.635  25.757  24.362  1.00  0.00     0.108 C 
ATOM      8  C   UNL A   1      31.825  24.478  23.529  1.00  0.00     0.023 C 
BRANCH   7   9
ATOM      9  C   UNL A   1      30.576  26.678  23.771  1.00  0.00     0.000 A 
ATOM     10  C   UNL A   1      30.895  27.705  22.883  1.00  0.00     0.009 A 
ATOM     11  C   UNL A   1      29.234  26.549  24.145  1.00  0.00     0.129 A 
ATOM     12  C   UNL A   1      29.911  28.566  22.406  1.00  0.00     0.026 A 
ATOM     13  C   UNL A   1      28.252  27.426  23.673  1.00  0.00     0.065 A 
ATOM     14  F   UNL A   1      28.868  25.563  24.980  1.00  0.00    -0.207 F 
ATOM     15  C   UNL A   1      28.576  28.464  22.796  1.00  0.00     0.037 A 
BRANCH  15  16
ATOM     16  N   UNL A   1      27.583  29.294  22.315  1.00  0.00    -0.380 N 
ATOM     17  H   UNL A   1      26.834  28.851  21.852  1.00  0.00     0.160 HD
BRANCH  16  18
ATOM     18  C   UNL A   1      27.508  30.752  22.413  1.00  0.00     0.107 C 
ATOM     19  C   UNL A   1      27.972  31.328  23.757  1.00  0.00     0.027 C 
ATOM     20  C   UNL A   1      28.315  31.486  21.324  1.00  0.00     0.136 C 
ATOM     21  C   UNL A   1      28.894  32.502  23.414  1.00  0.00     0.005 C 
ATOM     22  C   UNL A   1      28.601  32.839  21.958  1.00  0.00     0.034 C 
BRANCH  20  23
ATOM     23  O   UNL A   1      27.572  31.623  20.120  1.00  0.00    -0.391 OA
ATOM     24  H   UNL A   1      28.170  31.882  19.401  1.00  0.00     0.211 HD
ENDBRANCH  20  23
ENDBRANCH  16  18
ENDBRANCH  15  16
ENDBRANCH   7   9
ENDBRANCH   4   7
ENDBRANCH   2   3
ENDBRANCH   1   2
BRANCH   1  25
ATOM     25  C   UNL A   1      32.560  29.977  26.162  1.00  0.00     0.002 C 
BRANCH  25  26
ATOM     26  C   UNL A   1      31.296  30.750  25.778  1.00  0.00     0.002 C 
BRANCH  26  27
ATOM     27  C   UNL A   1      31.199  32.143  26.401  1.00  0.00     0.021 C 
BRANCH  27  28
ATOM     28  C   UNL A   1      32.497  32.619  27.040  1.00  0.00     0.116 C 
BRANCH  28  29
ATOM     29  N   UNL A   1      32.366  33.964  27.583  1.00  0.00    -0.352 N 
ATOM     30  C   UNL A   1      33.088  34.552  28.590  1.00  0.00     0.251 C 
ATOM     31  H   UNL A   1      31.668  34.523  27.173  1.00  0.00     0.163 HD
ATOM     32  O   UNL A   1      32.724  35.611  29.092  1.00  0.00    -0.269 OA
BRANCH  30  33
ATOM     33  C   UNL A   1      34.307  33.879  29.076  1.00  0.00     0.039 A 
ATOM     34  C   UNL A   1      35.557  34.335  28.652  1.00  0.00     0.014 A 
ATOM     35  C   UNL A   1      34.203  32.821  29.983  1.00  0.00     0.014 A 
ATOM     36  C   UNL A   1      36.713  33.766  29.189  1.00  0.00     0.010 A 
ATOM     37  C   UNL A   1      35.351  32.311  30.574  1.00  0.00     0.010 A 
ATOM     38  C   UNL A   1      36.617  32.775  30.179  1.00  0.00    -0.014 A 
BRANCH  38  39
ATOM     39  C   UNL A   1      37.818  32.184  30.816  1.00  0.00     0.031 A 
ATOM     40  C   UNL A   1      38.555  31.075  30.122  1.00  0.00     0.074 A 
ATOM     41  C   UNL A   1      38.175  32.561  32.058  1.00  0.00     0.049 A 
ATOM     42  N   UNL A   1      39.521  30.315  30.569  1.00  0.00    -0.248 NA
ATOM     43  C   UNL A   1      38.117  30.753  28.755  1.00  0.00     0.031 C 
ATOM     44  C   UNL A   1      37.512  33.596  32.851  1.00  0.00     0.029 A 
ATOM     45  N   UNL A   1      39.166  32.093  32.882  1.00  0.00    -0.354 N 
ATOM     46  C   UNL A   1      39.784  29.408  29.550  1.00  0.00     0.074 A 
ATOM     47  C   UNL A   1      38.842  29.679  28.487  1.00  0.00     0.031 C 
ATOM     48  C   UNL A   1      38.111  33.683  34.048  1.00  0.00     0.029 A 
ATOM     49  C   UNL A   1      39.170  32.679  34.124  1.00  0.00     0.049 A 
ATOM     50  H   UNL A   1      39.813  31.402  32.610  1.00  0.00     0.167 HD
ATOM     51  C   UNL A   1      40.738  28.447  29.500  1.00  0.00     0.037 A 
ATOM     52  C   UNL A   1      39.922  32.420  35.211  1.00  0.00     0.037 A 
ATOM     53  C   UNL A   1      41.682  28.199  30.556  1.00  0.00     0.049 A 
ATOM     54  C   UNL A   1      40.972  31.346  35.141  1.00  0.00     0.074 A 
ATOM     55  C   UNL A   1      42.734  27.300  30.576  1.00  0.00     0.029 A 
ATOM     56  N   UNL A   1      41.682  28.845  31.784  1.00  0.00    -0.354 N 
ATOM     57  N   UNL A   1      41.262  30.543  34.147  1.00  0.00    -0.248 NA
ATOM     58  C   UNL A   1      41.801  31.146  36.338  1.00  0.00     0.031 C 
ATOM     59  C   UNL A   1      43.333  27.362  31.838  1.00  0.00     0.029 A 
ATOM     60  C   UNL A   1      42.696  28.344  32.582  1.00  0.00     0.049 A 
ATOM     61  H   UNL A   1      41.054  29.556  32.047  1.00  0.00     0.167 HD
ATOM     62  C   UNL A   1      42.325  29.762  34.584  1.00  0.00     0.074 A 
ATOM     63  C   UNL A   1      42.627  30.189  35.936  1.00  0.00     0.031 C 
ATOM     64  C   UNL A   1      42.991  28.786  33.922  1.00  0.00     0.037 A 
BRANCH  51  65
ATOM     65  C   UNL A   1      40.782  27.586  28.270  1.00  0.00     0.057 A 
ATOM     66  C   UNL A   1      41.559  27.923  27.152  1.00  0.00     0.134 A 
ATOM     67  C   UNL A   1      40.031  26.405  28.199  1.00  0.00     0.134 A 
ATOM     68  F   UNL A   1      42.294  29.045  27.147  1.00  0.00    -0.206 F 
ATOM     69  C   UNL A   1      41.549  27.143  25.993  1.00  0.00     0.040 A 
ATOM     70  C   UNL A   1      40.041  25.599  27.060  1.00  0.00     0.040 A 
ATOM     71  F   UNL A   1      39.273  26.017  29.235  1.00  0.00    -0.206 F 
ATOM     72  C   UNL A   1      40.791  25.975  25.947  1.00  0.00     0.006 A 
ENDBRANCH  51  65
BRANCH  52  73
ATOM     73  C   UNL A   1      39.702  33.205  36.452  1.00  0.00     0.057 A 
ATOM     74  C   UNL A   1      40.385  34.404  36.682  1.00  0.00     0.134 A 
ATOM     75  C   UNL A   1      38.771  32.796  37.416  1.00  0.00     0.134 A 
ATOM     76  F   UNL A   1      41.299  34.839  35.802  1.00  0.00    -0.206 F 
ATOM     77  C   UNL A   1      40.156  35.167  37.828  1.00  0.00     0.040 A 
ATOM     78  C   UNL A   1      38.514  33.561  38.554  1.00  0.00     0.040 A 
ATOM     79  F   UNL A   1      38.076  31.662  37.248  1.00  0.00    -0.206 F 
ATOM     80  C   UNL A   1      39.211  34.750  38.764  1.00  0.00     0.006 A 
ENDBRANCH  52  73
BRANCH  64  81
ATOM     81  C   UNL A   1      44.146  28.131  34.622  1.00  0.00     0.057 A 
ATOM     82  C   UNL A   1      44.000  26.938  35.341  1.00  0.00     0.134 A 
ATOM     83  C   UNL A   1      45.440  28.654  34.493  1.00  0.00     0.134 A 
ATOM     84  F   UNL A   1      42.788  26.392  35.512  1.00  0.00    -0.206 F 
ATOM     85  C   UNL A   1      45.099  26.294  35.911  1.00  0.00     0.040 A 
ATOM     86  C   UNL A   1      46.549  28.006  35.035  1.00  0.00     0.040 A 
ATOM     87  F   UNL A   1      45.649  29.790  33.808  1.00  0.00    -0.206 F 
ATOM     88  C   UNL A   1      46.379  26.820  35.748  1.00  0.00     0.006 A 
ENDBRANCH  64  81
ENDBRANCH  38  39
ENDBRANCH  30  33
ENDBRANCH  28  29
ENDBRANCH  27  28
ENDBRANCH  26  27
ENDBRANCH  25  26
ENDBRANCH   1  25
TORSDOF 17
ENDMDL
MODEL 2
REMARK VINA RESULT:     -11.3      5.687     10.745
REMARK SMILES C[C@@H](C(=O)NCCCCCCNC(=O)c1ccc(-c2c3nc(c(-c4c(F)cccc4F)c4ccc([nH]4)c(-c4c(F)cccc4F)c4nc(c(-c5c(F)cccc5F)c5ccc2[nH]5)C=C4)C=C3)cc1)c1ccc(N[C@H]2CCC[C@@H]2O)cc1F
REMARK SMILES IDX 7 1 6 2 5 3 3 4 4 5 2 7 1 8 69 9 70 10 81 11 71 12 80 13
REMARK SMILES IDX 82 14 72 15 73 16 74 18 75 19 78 20 76 21 77 22 79 23 8 25
REMARK SMILES IDX 9 26 10 27 11 28 12 29 13 30 14 32 15 33 16 34 68 35 17 36
REMARK SMILES IDX 67 37 18 38 19 39 20 40 61 41 21 42 66 43 60 44 62 45 22 46
REMARK SMILES IDX 65 47 59 48 58 49 23 51 49 52 32 53 48 54 33 55 36 56 47 57
REMARK SMILES IDX 63 58 34 59 35 60 46 62 64 63 37 64 24 65 25 66 30 67 26 68
REMARK SMILES IDX 27 69 29 70 31 71 28 72 50 73 51 74 56 75 52 76 53 77 55 78
REMARK SMILES IDX 57 79 54 80 38 81 39 82 44 83 40 84 41 85 43 86 45 87 42 88
REMARK H PARENT 5 6 73 17 79 24 12 31 62 50 36 61
REMARK Flexibility Score: inf
ROOT
ATOM      1  C   UNL A   1      36.524  22.543  23.460  1.00  0.00     0.021 C 
ENDROOT
BRANCH   1   2
ATOM      2  C   UNL A   1      35.340  23.515  23.479  1.00  0.00     0.116 C 
BRANCH   2   3
ATOM      3  N   UNL A   1      34.833  23.628  24.827  1.00  0.00    -0.356 N 
ATOM      4  C   UNL A   1      33.548  23.811  25.246  1.00  0.00     0.227 C 
ATOM      5  O   UNL A   1      33.390  24.226  26.396  1.00  0.00    -0.274 OA
ATOM      6  H   UNL A   1      35.508  23.564  25.542  1.00  0.00     0.163 HD
BRANCH   4   7
ATOM      7  C   UNL A   1      32.382  23.463  24.303  1.00  0.00     0.108 C 
ATOM      8  C   UNL A   1      31.039  23.961  24.862  1.00  0.00     0.023 C 
BRANCH   7   9
ATOM      9  C   UNL A   1      32.363  21.970  24.002  1.00  0.00     0.000 A 
ATOM     10  C   UNL A   1      32.244  21.475  22.704  1.00  0.00     0.009 A 
ATOM     11  C   UNL A   1      32.419  21.035  25.041  1.00  0.00     0.129 A 
ATOM     12  C   UNL A   1      32.172  20.105  22.467  1.00  0.00     0.026 A 
ATOM     13  C   UNL A   1      32.333  19.660  24.798  1.00  0.00     0.065 A 
ATOM     14  F   UNL A   1      32.557  21.456  26.308  1.00  0.00    -0.207 F 
ATOM     15  C   UNL A   1      32.197  19.166  23.497  1.00  0.00     0.037 A 
BRANCH  15  16
ATOM     16  N   UNL A   1      32.150  17.804  23.280  1.00  0.00    -0.380 N 
ATOM     17  H   UNL A   1      31.371  17.471  22.778  1.00  0.00     0.160 HD
BRANCH  16  18
ATOM     18  C   UNL A   1      33.121  16.795  23.705  1.00  0.00     0.107 C 
ATOM     19  C   UNL A   1      34.588  17.235  23.603  1.00  0.00     0.027 C 
ATOM     20  C   UNL A   1      32.913  16.309  25.152  1.00  0.00     0.136 C 
ATOM     21  C   UNL A   1      35.241  16.827  24.927  1.00  0.00     0.005 C 
ATOM     22  C   UNL A   1      34.294  15.811  25.552  1.00  0.00     0.034 C 
BRANCH  20  23
ATOM     23  O   UNL A   1      31.945  15.271  25.226  1.00  0.00    -0.391 OA
ATOM     24  H   UNL A   1      31.074  15.655  25.415  1.00  0.00     0.211 HD
ENDBRANCH  20  23
ENDBRANCH  16  18
ENDBRANCH  15  16
ENDBRANCH   7   9
ENDBRANCH   4   7
ENDBRANCH   2   3
ENDBRANCH   1   2
BRANCH   1  25
ATOM     25  C   UNL A   1      36.766  21.855  24.810  1.00  0.00     0.002 C 
BRANCH  25  26
ATOM     26  C   UNL A   1      36.488  20.350  24.812  1.00  0.00     0.002 C 
BRANCH  26  27
ATOM     27  C   UNL A   1      37.743  19.479  24.844  1.00  0.00     0.021 C 
BRANCH  27  28
ATOM     28  C   UNL A   1      38.874  20.066  25.678  1.00  0.00     0.116 C 
BRANCH  28  29
ATOM     29  N   UNL A   1      40.007  19.155  25.764  1.00  0.00    -0.352 N 
ATOM     30  C   UNL A   1      41.315  19.444  26.058  1.00  0.00     0.251 C 
ATOM     31  H   UNL A   1      39.806  18.208  25.589  1.00  0.00     0.163 HD
ATOM     32  O   UNL A   1      42.200  18.614  25.881  1.00  0.00    -0.269 OA
BRANCH  30  33
ATOM     33  C   UNL A   1      41.646  20.784  26.579  1.00  0.00     0.039 A 
ATOM     34  C   UNL A   1      41.869  20.952  27.948  1.00  0.00     0.014 A 
ATOM     35  C   UNL A   1      41.772  21.861  25.698  1.00  0.00     0.014 A 
ATOM     36  C   UNL A   1      42.281  22.195  28.428  1.00  0.00     0.010 A 
ATOM     37  C   UNL A   1      42.258  23.074  26.166  1.00  0.00     0.010 A 
ATOM     38  C   UNL A   1      42.512  23.255  27.536  1.00  0.00    -0.014 A 
BRANCH  38  39
ATOM     39  C   UNL A   1      43.005  24.575  27.997  1.00  0.00     0.031 A 
ATOM     40  C   UNL A   1      42.018  25.651  28.350  1.00  0.00     0.074 A 
ATOM     41  C   UNL A   1      44.324  24.841  27.988  1.00  0.00     0.049 A 
ATOM     42  N   UNL A   1      42.230  26.914  28.615  1.00  0.00    -0.248 NA
ATOM     43  C   UNL A   1      40.600  25.261  28.365  1.00  0.00     0.031 C 
ATOM     44  C   UNL A   1      45.376  23.892  27.624  1.00  0.00     0.029 A 
ATOM     45  N   UNL A   1      45.002  26.001  28.265  1.00  0.00    -0.354 N 
ATOM     46  C   UNL A   1      40.972  27.473  28.800  1.00  0.00     0.074 A 
ATOM     47  C   UNL A   1      40.004  26.425  28.563  1.00  0.00     0.031 C 
ATOM     48  C   UNL A   1      46.566  24.508  27.696  1.00  0.00     0.029 A 
ATOM     49  C   UNL A   1      46.357  25.905  28.066  1.00  0.00     0.049 A 
ATOM     50  H   UNL A   1      44.560  26.824  28.575  1.00  0.00     0.167 HD
ATOM     51  C   UNL A   1      40.654  28.742  29.152  1.00  0.00     0.037 A 
ATOM     52  C   UNL A   1      47.321  26.842  28.146  1.00  0.00     0.037 A 
ATOM     53  C   UNL A   1      41.626  29.772  29.403  1.00  0.00     0.049 A 
ATOM     54  C   UNL A   1      46.952  28.248  28.532  1.00  0.00     0.074 A 
ATOM     55  C   UNL A   1      41.414  31.069  29.836  1.00  0.00     0.029 A 
ATOM     56  N   UNL A   1      42.996  29.623  29.234  1.00  0.00    -0.354 N 
ATOM     57  N   UNL A   1      45.765  28.750  28.775  1.00  0.00    -0.248 NA
ATOM     58  C   UNL A   1      48.050  29.215  28.659  1.00  0.00     0.031 C 
ATOM     59  C   UNL A   1      42.650  31.722  29.872  1.00  0.00     0.029 A 
ATOM     60  C   UNL A   1      43.639  30.814  29.523  1.00  0.00     0.049 A 
ATOM     61  H   UNL A   1      43.442  28.793  28.950  1.00  0.00     0.167 HD
ATOM     62  C   UNL A   1      45.974  30.080  29.114  1.00  0.00     0.074 A 
ATOM     63  C   UNL A   1      47.404  30.308  29.043  1.00  0.00     0.031 C 
ATOM     64  C   UNL A   1      45.064  31.023  29.457  1.00  0.00     0.037 A 
BRANCH  51  65
ATOM     65  C   UNL A   1      39.194  29.080  29.259  1.00  0.00     0.057 A 
ATOM     66  C   UNL A   1      38.501  29.010  30.477  1.00  0.00     0.134 A 
ATOM     67  C   UNL A   1      38.470  29.477  28.128  1.00  0.00     0.134 A 
ATOM     68  F   UNL A   1      39.131  28.627  31.597  1.00  0.00    -0.206 F 
ATOM     69  C   UNL A   1      37.132  29.274  30.554  1.00  0.00     0.040 A 
ATOM     70  C   UNL A   1      37.109  29.778  28.200  1.00  0.00     0.040 A 
ATOM     71  F   UNL A   1      39.071  29.576  26.933  1.00  0.00    -0.206 F 
ATOM     72  C   UNL A   1      36.433  29.663  29.414  1.00  0.00     0.006 A 
ENDBRANCH  51  65
BRANCH  52  73
ATOM     73  C   UNL A   1      48.728  26.467  27.857  1.00  0.00     0.057 A 
ATOM     74  C   UNL A   1      49.585  26.033  28.874  1.00  0.00     0.134 A 
ATOM     75  C   UNL A   1      49.234  26.489  26.551  1.00  0.00     0.134 A 
ATOM     76  F   UNL A   1      49.162  26.004  30.146  1.00  0.00    -0.206 F 
ATOM     77  C   UNL A   1      50.898  25.641  28.605  1.00  0.00     0.040 A 
ATOM     78  C   UNL A   1      50.536  26.077  26.264  1.00  0.00     0.040 A 
ATOM     79  F   UNL A   1      48.459  26.883  25.531  1.00  0.00    -0.206 F 
ATOM     80  C   UNL A   1      51.373  25.654  27.295  1.00  0.00     0.006 A 
ENDBRANCH  52  73
BRANCH  64  81
ATOM     81  C   UNL A   1      45.576  32.385  29.829  1.00  0.00     0.057 A 
ATOM     82  C   UNL A   1      45.669  33.424  28.895  1.00  0.00     0.134 A 
ATOM     83  C   UNL A   1      45.891  32.682  31.161  1.00  0.00     0.134 A 
ATOM     84  F   UNL A   1      45.393  33.202  27.601  1.00  0.00    -0.206 F 
ATOM     85  C   UNL A   1      46.061  34.709  29.273  1.00  0.00     0.040 A 
ATOM     86  C   UNL A   1      46.259  33.968  31.556  1.00  0.00     0.040 A 
ATOM     87  F   UNL A   1      45.814  31.733  32.107  1.00  0.00    -0.206 F 
ATOM     88  C   UNL A   1      46.345  34.987  30.609  1.00  0.00     0.006 A 
ENDBRANCH  64  81
ENDBRANCH  38  39
ENDBRANCH  30  33
ENDBRANCH  28  29
ENDBRANCH  27  28
ENDBRANCH  26  27
ENDBRANCH  25  26
ENDBRANCH   1  25
TORSDOF 17
ENDMDL
MODEL 3
REMARK VINA RESULT:     -11.2      2.476      4.805
REMARK SMILES C[C@@H](C(=O)NCCCCCCNC(=O)c1ccc(-c2c3nc(c(-c4c(F)cccc4F)c4ccc([nH]4)c(-c4c(F)cccc4F)c4nc(c(-c5c(F)cccc5F)c5ccc2[nH]5)C=C4)C=C3)cc1)c1ccc(N[C@H]2CCC[C@@H]2O)cc1F
REMARK SMILES IDX 7 1 6 2 5 3 3 4 4 5 2 7 1 8 69 9 70 10 81 11 71 12 80 13
REMARK SMILES IDX 82 14 72 15 73 16 74 18 75 19 78 20 76 21 77 22 79 23 8 25
REMARK SMILES IDX 9 26 10 27 11 28 12 29 13 30 14 32 15 33 16 34 68 35 17 36
REMARK SMILES IDX 67 37 18 38 19 39 20 40 61 41 21 42 66 43 60 44 62 45 22 46
REMARK SMILES IDX 65 47 59 48 58 49 23 51 49 52 32 53 48 54 33 55 36 56 47 57
REMARK SMILES IDX 63 58 34 59 35 60 46 62 64 63 37 64 24 65 25 66 30 67 26 68
REMARK SMILES IDX 27 69 29 70 31 71 28 72 50 73 51 74 56 75 52 76 53 77 55 78
REMARK SMILES IDX 57 79 54 80 38 81 39 82 44 83 40 84 41 85 43 86 45 87 42 88
REMARK H PARENT 5 6 73 17 79 24 12 31 62 50 36 61
REMARK Flexibility Score: inf
ROOT
ATOM      1  C   UNL A   1      33.231  28.603  27.267  1.00  0.00     0.021 C 
ENDROOT
BRANCH   1   2
ATOM      2  C   UNL A   1      33.522  27.434  26.319  1.00  0.00     0.116 C 
BRANCH   2   3
ATOM      3  N   UNL A   1      32.291  27.009  25.691  1.00  0.00    -0.356 N 
ATOM      4  C   UNL A   1      32.111  26.413  24.477  1.00  0.00     0.227 C 
ATOM      5  O   UNL A   1      30.978  26.460  23.997  1.00  0.00    -0.274 OA
ATOM      6  H   UNL A   1      31.470  27.173  26.210  1.00  0.00     0.163 HD
BRANCH   4   7
ATOM      7  C   UNL A   1      33.292  25.694  23.799  1.00  0.00     0.108 C 
ATOM      8  C   UNL A   1      33.506  26.199  22.362  1.00  0.00     0.023 C 
BRANCH   7   9
ATOM      9  C   UNL A   1      33.105  24.184  23.858  1.00  0.00     0.000 A 
ATOM     10  C   UNL A   1      32.575  23.457  22.792  1.00  0.00     0.009 A 
ATOM     11  C   UNL A   1      33.424  23.474  25.020  1.00  0.00     0.129 A 
ATOM     12  C   UNL A   1      32.364  22.086  22.898  1.00  0.00     0.026 A 
ATOM     13  C   UNL A   1      33.197  22.097  25.126  1.00  0.00     0.065 A 
ATOM     14  F   UNL A   1      33.958  24.119  26.069  1.00  0.00    -0.207 F 
ATOM     15  C   UNL A   1      32.650  21.374  24.063  1.00  0.00     0.037 A 
BRANCH  15  16
ATOM     16  N   UNL A   1      32.469  20.011  24.179  1.00  0.00    -0.380 N 
ATOM     17  H   UNL A   1      31.660  19.720  24.660  1.00  0.00     0.160 HD
BRANCH  16  18
ATOM     18  C   UNL A   1      33.335  18.946  23.672  1.00  0.00     0.107 C 
ATOM     19  C   UNL A   1      34.469  18.536  24.621  1.00  0.00     0.027 C 
ATOM     20  C   UNL A   1      32.579  17.652  23.315  1.00  0.00     0.136 C 
ATOM     21  C   UNL A   1      34.460  17.005  24.647  1.00  0.00     0.005 C 
ATOM     22  C   UNL A   1      33.652  16.580  23.428  1.00  0.00     0.034 C 
BRANCH  20  23
ATOM     23  O   UNL A   1      32.033  17.704  22.003  1.00  0.00    -0.391 OA
ATOM     24  H   UNL A   1      32.393  18.475  21.535  1.00  0.00     0.211 HD
ENDBRANCH  20  23
ENDBRANCH  16  18
ENDBRANCH  15  16
ENDBRANCH   7   9
ENDBRANCH   4   7
ENDBRANCH   2   3
ENDBRANCH   1   2
BRANCH   1  25
ATOM     25  C   UNL A   1      31.850  29.233  27.049  1.00  0.00     0.002 C 
BRANCH  25  26
ATOM     26  C   UNL A   1      31.850  30.448  26.117  1.00  0.00     0.002 C 
BRANCH  26  27
ATOM     27  C   UNL A   1      31.530  31.771  26.811  1.00  0.00     0.021 C 
BRANCH  27  28
ATOM     28  C   UNL A   1      32.762  32.505  27.325  1.00  0.00     0.116 C 
BRANCH  28  29
ATOM     29  N   UNL A   1      32.484  33.913  27.571  1.00  0.00    -0.352 N 
ATOM     30  C   UNL A   1      33.030  34.738  28.521  1.00  0.00     0.251 C 
ATOM     31  H   UNL A   1      31.817  34.326  26.977  1.00  0.00     0.163 HD
ATOM     32  O   UNL A   1      32.544  35.840  28.755  1.00  0.00    -0.269 OA
BRANCH  30  33
ATOM     33  C   UNL A   1      34.209  34.271  29.273  1.00  0.00     0.039 A 
ATOM     34  C   UNL A   1      34.027  33.565  30.465  1.00  0.00     0.014 A 
ATOM     35  C   UNL A   1      35.492  34.502  28.770  1.00  0.00     0.014 A 
ATOM     36  C   UNL A   1      35.136  33.034  31.124  1.00  0.00     0.010 A 
ATOM     37  C   UNL A   1      36.586  33.907  29.384  1.00  0.00     0.010 A 
ATOM     38  C   UNL A   1      36.419  33.172  30.570  1.00  0.00    -0.014 A 
BRANCH  38  39
ATOM     39  C   UNL A   1      37.617  32.575  31.208  1.00  0.00     0.031 A 
ATOM     40  C   UNL A   1      38.319  31.429  30.538  1.00  0.00     0.074 A 
ATOM     41  C   UNL A   1      38.001  32.984  32.431  1.00  0.00     0.049 A 
ATOM     42  N   UNL A   1      39.275  30.662  30.994  1.00  0.00    -0.248 NA
ATOM     43  C   UNL A   1      37.853  31.074  29.189  1.00  0.00     0.031 C 
ATOM     44  C   UNL A   1      37.373  34.057  33.201  1.00  0.00     0.029 A 
ATOM     45  N   UNL A   1      38.996  32.520  33.255  1.00  0.00    -0.354 N 
ATOM     46  C   UNL A   1      39.503  29.719  30.001  1.00  0.00     0.074 A 
ATOM     47  C   UNL A   1      38.550  29.977  28.944  1.00  0.00     0.031 C 
ATOM     48  C   UNL A   1      37.993  34.168  34.386  1.00  0.00     0.029 A 
ATOM     49  C   UNL A   1      39.031  33.144  34.478  1.00  0.00     0.049 A 
ATOM     50  H   UNL A   1      39.623  31.807  32.996  1.00  0.00     0.167 HD
ATOM     51  C   UNL A   1      40.435  28.736  29.967  1.00  0.00     0.037 A 
ATOM     52  C   UNL A   1      39.794  32.904  35.560  1.00  0.00     0.037 A 
ATOM     53  C   UNL A   1      41.390  28.500  31.016  1.00  0.00     0.049 A 
ATOM     54  C   UNL A   1      40.820  31.805  35.510  1.00  0.00     0.074 A 
ATOM     55  C   UNL A   1      42.423  27.580  31.049  1.00  0.00     0.029 A 
ATOM     56  N   UNL A   1      41.423  29.185  32.223  1.00  0.00    -0.354 N 
ATOM     57  N   UNL A   1      41.077  30.964  34.537  1.00  0.00    -0.248 NA
ATOM     58  C   UNL A   1      41.663  31.625  36.699  1.00  0.00     0.031 C 
ATOM     59  C   UNL A   1      43.043  27.668  32.300  1.00  0.00     0.029 A 
ATOM     60  C   UNL A   1      42.439  28.686  33.021  1.00  0.00     0.049 A 
ATOM     61  H   UNL A   1      40.815  29.917  32.473  1.00  0.00     0.167 HD
ATOM     62  C   UNL A   1      42.129  30.175  34.983  1.00  0.00     0.074 A 
ATOM     63  C   UNL A   1      42.462  30.638  36.315  1.00  0.00     0.031 C 
ATOM     64  C   UNL A   1      42.764  29.164  34.342  1.00  0.00     0.037 A 
BRANCH  51  65
ATOM     65  C   UNL A   1      40.441  27.836  28.765  1.00  0.00     0.057 A 
ATOM     66  C   UNL A   1      41.195  28.128  27.618  1.00  0.00     0.134 A 
ATOM     67  C   UNL A   1      39.677  26.661  28.750  1.00  0.00     0.134 A 
ATOM     68  F   UNL A   1      41.940  29.242  27.560  1.00  0.00    -0.206 F 
ATOM     69  C   UNL A   1      41.149  27.312  26.486  1.00  0.00     0.040 A 
ATOM     70  C   UNL A   1      39.652  25.819  27.637  1.00  0.00     0.040 A 
ATOM     71  F   UNL A   1      38.940  26.314  29.815  1.00  0.00    -0.206 F 
ATOM     72  C   UNL A   1      40.379  26.151  26.495  1.00  0.00     0.006 A 
ENDBRANCH  51  65
BRANCH  52  73
ATOM     73  C   UNL A   1      39.611  33.731  36.780  1.00  0.00     0.057 A 
ATOM     74  C   UNL A   1      40.252  34.966  36.920  1.00  0.00     0.134 A 
ATOM     75  C   UNL A   1      38.755  33.327  37.812  1.00  0.00     0.134 A 
ATOM     76  F   UNL A   1      41.096  35.400  35.971  1.00  0.00    -0.206 F 
ATOM     77  C   UNL A   1      40.055  35.768  38.045  1.00  0.00     0.040 A 
ATOM     78  C   UNL A   1      38.529  34.129  38.931  1.00  0.00     0.040 A 
ATOM     79  F   UNL A   1      38.101  32.159  37.731  1.00  0.00    -0.206 F 
ATOM     80  C   UNL A   1      39.184  35.354  39.050  1.00  0.00     0.006 A 
ENDBRANCH  52  73
BRANCH  64  81
ATOM     81  C   UNL A   1      43.916  28.506  35.045  1.00  0.00     0.057 A 
ATOM     82  C   UNL A   1      45.223  29.002  34.953  1.00  0.00     0.134 A 
ATOM     83  C   UNL A   1      43.696  27.417  35.898  1.00  0.00     0.134 A 
ATOM     84  F   UNL A   1      45.503  30.034  34.145  1.00  0.00    -0.206 F 
ATOM     85  C   UNL A   1      46.268  28.434  35.683  1.00  0.00     0.040 A 
ATOM     86  C   UNL A   1      44.727  26.858  36.652  1.00  0.00     0.040 A 
ATOM     87  F   UNL A   1      42.465  26.900  36.037  1.00  0.00    -0.206 F 
ATOM     88  C   UNL A   1      46.020  27.367  36.544  1.00  0.00     0.006 A 
ENDBRANCH  64  81
ENDBRANCH  38  39
ENDBRANCH  30  33
ENDBRANCH  28  29
ENDBRANCH  27  28
ENDBRANCH  26  27
ENDBRANCH  25  26
ENDBRANCH   1  25
TORSDOF 17
ENDMDL
