MODEL 1
REMARK VINA RESULT:     -12.8      0.000      0.000
REMARK SMILES O=C1C[C@@H](c2cccc(O)c2)c2c(c(C(=O)NCCCCCCNC(=O)c3ccc(-c4c5nc(c(-c6c(F)cccc6F)c6ccc([nH]6)c(-c6c(F)cccc6F)c6nc(c(-c7c(F)cccc7F)c7ccc4[nH]7)C=C6)C=C5)cc3)cn2-c2cccc(C(F)(F)F)c2)N1
REMARK SMILES IDX 20 1 19 2 18 3 17 4 15 5 16 6 14 8 1 9 2 10 3 11 93 12 4 13
REMARK SMILES IDX 13 14 12 16 82 17 81 18 5 19 6 20 11 21 7 22 9 23 8 24 10 25
REMARK SMILES IDX 83 27 84 28 92 29 85 30 87 31 86 32 88 33 89 34 90 35 91 36
REMARK SMILES IDX 21 37 22 38 23 39 24 40 25 41 26 43 27 44 28 45 80 46 29 47
REMARK SMILES IDX 79 48 30 49 31 50 32 51 73 52 33 53 78 54 72 55 74 56 34 57
REMARK SMILES IDX 77 58 71 59 70 60 35 62 61 63 44 64 60 65 45 66 48 67 59 68
REMARK SMILES IDX 75 69 46 70 47 71 58 73 76 74 49 75 36 76 37 77 42 78 38 79
REMARK SMILES IDX 39 80 41 81 43 82 40 83 62 84 63 85 68 86 64 87 65 88 67 89
REMARK SMILES IDX 69 90 66 91 50 92 51 93 56 94 52 95 53 96 55 97 57 98 54 99
REMARK H PARENT 17 7 93 15 10 26 24 42 74 61 48 72
REMARK Flexibility Score: inf
ROOT
ATOM      1  C   UNL A   1      37.720  22.195  25.307  1.00  0.00     0.002 C 
ENDROOT
BRANCH   1   2
ATOM      2  C   UNL A   1      36.471  22.017  24.446  1.00  0.00     0.021 C 
BRANCH   2   3
ATOM      3  C   UNL A   1      35.186  21.751  25.222  1.00  0.00     0.116 C 
BRANCH   3   4
ATOM      4  N   UNL A   1      34.057  21.471  24.363  1.00  0.00    -0.352 N 
ATOM      5  C   UNL A   1      33.084  22.275  23.826  1.00  0.00     0.254 C 
ATOM      6  O   UNL A   1      32.183  21.716  23.200  1.00  0.00    -0.269 OA
ATOM      7  H   UNL A   1      33.970  20.522  24.115  1.00  0.00     0.163 HD
BRANCH   5   8
ATOM      8  C   UNL A   1      33.069  23.725  24.009  1.00  0.00     0.081 A 
ATOM      9  O   UNL A   1      32.478  25.318  19.534  1.00  0.00    -0.275 OA
ATOM     10  C   UNL A   1      32.705  25.512  20.728  1.00  0.00     0.225 C 
ATOM     11  C   UNL A   1      33.153  26.874  21.251  1.00  0.00     0.115 C 
ATOM     12  N   UNL A   1      32.694  24.477  21.629  1.00  0.00    -0.324 N 
ATOM     13  C   UNL A   1      32.688  27.187  22.688  1.00  0.00     0.078 C 
ATOM     14  C   UNL A   1      32.851  24.677  22.981  1.00  0.00     0.076 A 
ATOM     15  H   UNL A   1      32.570  23.559  21.297  1.00  0.00     0.170 HD
ATOM     16  C   UNL A   1      32.811  25.944  23.517  1.00  0.00     0.055 A 
ATOM     17  N   UNL A   1      33.015  25.825  24.876  1.00  0.00    -0.317 N 
ATOM     18  C   UNL A   1      33.365  24.504  25.116  1.00  0.00     0.107 A 
BRANCH  13  19
ATOM     19  C   UNL A   1      31.293  27.788  22.696  1.00  0.00    -0.035 A 
ATOM     20  C   UNL A   1      30.183  27.102  23.217  1.00  0.00     0.005 A 
ATOM     21  C   UNL A   1      31.113  29.098  22.225  1.00  0.00     0.050 A 
ATOM     22  C   UNL A   1      28.938  27.726  23.304  1.00  0.00     0.004 A 
ATOM     23  C   UNL A   1      29.877  29.720  22.349  1.00  0.00     0.115 A 
ATOM     24  C   UNL A   1      28.786  29.046  22.883  1.00  0.00     0.046 A 
BRANCH  23  25
ATOM     25  O   UNL A   1      29.793  31.029  21.975  1.00  0.00    -0.508 OA
ATOM     26  H   UNL A   1      29.020  31.522  22.170  1.00  0.00     0.293 HD
ENDBRANCH  23  25
ENDBRANCH  13  19
BRANCH  17  27
ATOM     27  C   UNL A   1      32.853  26.772  25.920  1.00  0.00     0.046 A 
ATOM     28  C   UNL A   1      31.584  26.971  26.479  1.00  0.00     0.026 A 
ATOM     29  C   UNL A   1      33.904  27.630  26.265  1.00  0.00     0.039 A 
ATOM     30  C   UNL A   1      31.381  27.988  27.412  1.00  0.00     0.003 A 
ATOM     31  C   UNL A   1      33.707  28.663  27.199  1.00  0.00     0.058 A 
ATOM     32  C   UNL A   1      32.437  28.823  27.776  1.00  0.00     0.013 A 
BRANCH  31  33
ATOM     33  C   UNL A   1      34.819  29.618  27.567  1.00  0.00     0.416 C 
ATOM     34  F   UNL A   1      35.884  29.517  26.720  1.00  0.00    -0.166 F 
ATOM     35  F   UNL A   1      34.430  30.921  27.514  1.00  0.00    -0.166 F 
ATOM     36  F   UNL A   1      35.331  29.425  28.814  1.00  0.00    -0.166 F 
ENDBRANCH  31  33
ENDBRANCH  17  27
ENDBRANCH   5   8
ENDBRANCH   3   4
ENDBRANCH   2   3
ENDBRANCH   1   2
BRANCH   1  37
ATOM     37  C   UNL A   1      38.680  20.998  25.353  1.00  0.00     0.002 C 
BRANCH  37  38
ATOM     38  C   UNL A   1      39.820  21.054  26.384  1.00  0.00     0.021 C 
BRANCH  38  39
ATOM     39  C   UNL A   1      40.474  22.418  26.513  1.00  0.00     0.116 C 
BRANCH  39  40
ATOM     40  N   UNL A   1      41.780  22.478  25.845  1.00  0.00    -0.352 N 
ATOM     41  C   UNL A   1      42.530  23.582  25.469  1.00  0.00     0.251 C 
ATOM     42  H   UNL A   1      42.182  21.605  25.633  1.00  0.00     0.163 HD
ATOM     43  O   UNL A   1      43.387  23.495  24.607  1.00  0.00    -0.269 OA
BRANCH  41  44
ATOM     44  C   UNL A   1      42.291  24.863  26.158  1.00  0.00     0.039 A 
ATOM     45  C   UNL A   1      41.364  25.813  25.713  1.00  0.00     0.014 A 
ATOM     46  C   UNL A   1      43.031  25.090  27.307  1.00  0.00     0.014 A 
ATOM     47  C   UNL A   1      41.205  26.983  26.458  1.00  0.00     0.010 A 
ATOM     48  C   UNL A   1      42.633  26.050  28.180  1.00  0.00     0.010 A 
ATOM     49  C   UNL A   1      41.868  27.088  27.687  1.00  0.00    -0.014 A 
BRANCH  49  50
ATOM     50  C   UNL A   1      41.759  28.228  28.580  1.00  0.00     0.031 A 
ATOM     51  C   UNL A   1      42.825  29.230  28.361  1.00  0.00     0.074 A 
ATOM     52  C   UNL A   1      40.614  28.490  29.251  1.00  0.00     0.049 A 
ATOM     53  N   UNL A   1      43.841  29.477  29.117  1.00  0.00    -0.248 NA
ATOM     54  C   UNL A   1      42.893  29.884  27.041  1.00  0.00     0.031 C 
ATOM     55  C   UNL A   1      39.340  27.756  29.217  1.00  0.00     0.029 A 
ATOM     56  N   UNL A   1      40.309  29.563  30.031  1.00  0.00    -0.354 N 
ATOM     57  C   UNL A   1      44.525  30.508  28.481  1.00  0.00     0.074 A 
ATOM     58  C   UNL A   1      44.079  30.489  27.116  1.00  0.00     0.031 C 
ATOM     59  C   UNL A   1      38.357  28.517  29.757  1.00  0.00     0.029 A 
ATOM     60  C   UNL A   1      38.948  29.723  30.304  1.00  0.00     0.049 A 
ATOM     61  H   UNL A   1      40.995  30.180  30.375  1.00  0.00     0.167 HD
ATOM     62  C   UNL A   1      45.131  31.490  29.203  1.00  0.00     0.037 A 
ATOM     63  C   UNL A   1      38.385  30.812  30.893  1.00  0.00     0.037 A 
ATOM     64  C   UNL A   1      45.237  31.098  30.593  1.00  0.00     0.049 A 
ATOM     65  C   UNL A   1      39.490  31.567  31.547  1.00  0.00     0.074 A 
ATOM     66  C   UNL A   1      45.791  30.020  31.260  1.00  0.00     0.029 A 
ATOM     67  N   UNL A   1      44.346  31.659  31.478  1.00  0.00    -0.354 N 
ATOM     68  N   UNL A   1      40.151  31.128  32.582  1.00  0.00    -0.248 NA
ATOM     69  C   UNL A   1      40.182  32.559  30.736  1.00  0.00     0.031 C 
ATOM     70  C   UNL A   1      44.849  29.696  32.282  1.00  0.00     0.029 A 
ATOM     71  C   UNL A   1      43.832  30.649  32.250  1.00  0.00     0.049 A 
ATOM     72  H   UNL A   1      44.119  32.614  31.546  1.00  0.00     0.167 HD
ATOM     73  C   UNL A   1      41.477  31.437  32.309  1.00  0.00     0.074 A 
ATOM     74  C   UNL A   1      41.427  32.371  31.183  1.00  0.00     0.031 C 
ATOM     75  C   UNL A   1      42.497  30.674  32.802  1.00  0.00     0.037 A 
BRANCH  62  76
ATOM     76  C   UNL A   1      45.228  32.944  28.775  1.00  0.00     0.057 A 
ATOM     77  C   UNL A   1      46.495  33.559  28.798  1.00  0.00     0.134 A 
ATOM     78  C   UNL A   1      44.147  33.837  28.619  1.00  0.00     0.134 A 
ATOM     79  F   UNL A   1      47.614  32.830  28.917  1.00  0.00    -0.206 F 
ATOM     80  C   UNL A   1      46.661  34.949  28.792  1.00  0.00     0.040 A 
ATOM     81  C   UNL A   1      44.307  35.225  28.562  1.00  0.00     0.040 A 
ATOM     82  F   UNL A   1      42.869  33.450  28.598  1.00  0.00    -0.206 F 
ATOM     83  C   UNL A   1      45.562  35.789  28.690  1.00  0.00     0.006 A 
ENDBRANCH  62  76
BRANCH  63  84
ATOM     84  C   UNL A   1      37.050  31.431  30.689  1.00  0.00     0.057 A 
ATOM     85  C   UNL A   1      36.111  31.485  31.734  1.00  0.00     0.134 A 
ATOM     86  C   UNL A   1      36.776  32.248  29.580  1.00  0.00     0.134 A 
ATOM     87  F   UNL A   1      36.294  30.766  32.850  1.00  0.00    -0.206 F 
ATOM     88  C   UNL A   1      34.995  32.333  31.696  1.00  0.00     0.040 A 
ATOM     89  C   UNL A   1      35.662  33.095  29.528  1.00  0.00     0.040 A 
ATOM     90  F   UNL A   1      37.630  32.324  28.548  1.00  0.00    -0.206 F 
ATOM     91  C   UNL A   1      34.777  33.155  30.596  1.00  0.00     0.006 A 
ENDBRANCH  63  84
BRANCH  75  92
ATOM     92  C   UNL A   1      42.169  29.633  33.840  1.00  0.00     0.057 A 
ATOM     93  C   UNL A   1      41.839  28.297  33.556  1.00  0.00     0.134 A 
ATOM     94  C   UNL A   1      42.334  29.964  35.189  1.00  0.00     0.134 A 
ATOM     95  F   UNL A   1      41.761  27.854  32.296  1.00  0.00    -0.206 F 
ATOM     96  C   UNL A   1      41.636  27.353  34.568  1.00  0.00     0.040 A 
ATOM     97  C   UNL A   1      42.170  29.023  36.207  1.00  0.00     0.040 A 
ATOM     98  F   UNL A   1      42.704  31.207  35.538  1.00  0.00    -0.206 F 
ATOM     99  C   UNL A   1      41.806  27.716  35.901  1.00  0.00     0.006 A 
ENDBRANCH  75  92
ENDBRANCH  49  50
ENDBRANCH  41  44
ENDBRANCH  39  40
ENDBRANCH  38  39
ENDBRANCH  37  38
ENDBRANCH   1  37
TORSDOF 17
ENDMDL
MODEL 2
REMARK VINA RESULT:     -12.7      2.524      3.688
REMARK SMILES O=C1C[C@@H](c2cccc(O)c2)c2c(c(C(=O)NCCCCCCNC(=O)c3ccc(-c4c5nc(c(-c6c(F)cccc6F)c6ccc([nH]6)c(-c6c(F)cccc6F)c6nc(c(-c7c(F)cccc7F)c7ccc4[nH]7)C=C6)C=C5)cc3)cn2-c2cccc(C(F)(F)F)c2)N1
REMARK SMILES IDX 20 1 19 2 18 3 17 4 15 5 16 6 14 8 1 9 2 10 3 11 93 12 4 13
REMARK SMILES IDX 13 14 12 16 82 17 81 18 5 19 6 20 11 21 7 22 9 23 8 24 10 25
REMARK SMILES IDX 83 27 84 28 92 29 85 30 87 31 86 32 88 33 89 34 90 35 91 36
REMARK SMILES IDX 21 37 22 38 23 39 24 40 25 41 26 43 27 44 28 45 80 46 29 47
REMARK SMILES IDX 79 48 30 49 31 50 32 51 73 52 33 53 78 54 72 55 74 56 34 57
REMARK SMILES IDX 77 58 71 59 70 60 35 62 61 63 44 64 60 65 45 66 48 67 59 68
REMARK SMILES IDX 75 69 46 70 47 71 58 73 76 74 49 75 36 76 37 77 42 78 38 79
REMARK SMILES IDX 39 80 41 81 43 82 40 83 62 84 63 85 68 86 64 87 65 88 67 89
REMARK SMILES IDX 69 90 66 91 50 92 51 93 56 94 52 95 53 96 55 97 57 98 54 99
REMARK H PARENT 17 7 93 15 10 26 24 42 74 61 48 72
REMARK Flexibility Score: inf
ROOT
ATOM      1  C   UNL A   1      40.544  22.174  26.518  1.00  0.00     0.002 C 
ENDROOT
BRANCH   1   2
ATOM      2  C   UNL A   1      39.517  23.244  26.881  1.00  0.00     0.021 C 
BRANCH   2   3
ATOM      3  C   UNL A   1      38.201  23.159  26.117  1.00  0.00     0.116 C 
BRANCH   3   4
ATOM      4  N   UNL A   1      37.930  21.833  25.608  1.00  0.00    -0.352 N 
ATOM      5  C   UNL A   1      36.867  21.309  24.916  1.00  0.00     0.254 C 
ATOM      6  O   UNL A   1      36.886  20.096  24.704  1.00  0.00    -0.269 OA
ATOM      7  H   UNL A   1      38.645  21.182  25.793  1.00  0.00     0.163 HD
BRANCH   5   8
ATOM      8  C   UNL A   1      35.735  22.120  24.477  1.00  0.00     0.081 A 
ATOM      9  O   UNL A   1      32.166  18.932  24.378  1.00  0.00    -0.275 OA
ATOM     10  C   UNL A   1      32.620  20.051  24.143  1.00  0.00     0.225 C 
ATOM     11  C   UNL A   1      31.854  21.071  23.306  1.00  0.00     0.115 C 
ATOM     12  N   UNL A   1      33.899  20.389  24.512  1.00  0.00    -0.324 N 
ATOM     13  C   UNL A   1      32.116  22.541  23.697  1.00  0.00     0.078 C 
ATOM     14  C   UNL A   1      34.400  21.660  24.347  1.00  0.00     0.076 A 
ATOM     15  H   UNL A   1      34.477  19.699  24.909  1.00  0.00     0.170 HD
ATOM     16  C   UNL A   1      33.575  22.706  24.003  1.00  0.00     0.055 A 
ATOM     17  N   UNL A   1      34.361  23.834  23.894  1.00  0.00    -0.317 N 
ATOM     18  C   UNL A   1      35.680  23.416  23.989  1.00  0.00     0.107 A 
BRANCH  13  19
ATOM     19  C   UNL A   1      31.205  22.979  24.829  1.00  0.00    -0.035 A 
ATOM     20  C   UNL A   1      30.696  22.075  25.776  1.00  0.00     0.005 A 
ATOM     21  C   UNL A   1      30.907  24.344  24.975  1.00  0.00     0.050 A 
ATOM     22  C   UNL A   1      29.948  22.531  26.863  1.00  0.00     0.004 A 
ATOM     23  C   UNL A   1      30.191  24.788  26.079  1.00  0.00     0.115 A 
ATOM     24  C   UNL A   1      29.707  23.893  27.025  1.00  0.00     0.046 A 
BRANCH  23  25
ATOM     25  O   UNL A   1      30.030  26.134  26.223  1.00  0.00    -0.508 OA
ATOM     26  H   UNL A   1      29.183  26.486  26.414  1.00  0.00     0.293 HD
ENDBRANCH  23  25
ENDBRANCH  13  19
BRANCH  17  27
ATOM     27  C   UNL A   1      34.001  25.203  23.784  1.00  0.00     0.046 A 
ATOM     28  C   UNL A   1      33.849  25.774  22.515  1.00  0.00     0.026 A 
ATOM     29  C   UNL A   1      33.977  26.021  24.919  1.00  0.00     0.039 A 
ATOM     30  C   UNL A   1      33.624  27.146  22.386  1.00  0.00     0.003 A 
ATOM     31  C   UNL A   1      33.760  27.404  24.799  1.00  0.00     0.058 A 
ATOM     32  C   UNL A   1      33.572  27.954  23.521  1.00  0.00     0.013 A 
BRANCH  31  33
ATOM     33  C   UNL A   1      33.757  28.311  26.008  1.00  0.00     0.416 C 
ATOM     34  F   UNL A   1      33.595  29.622  25.667  1.00  0.00    -0.166 F 
ATOM     35  F   UNL A   1      32.744  28.029  26.873  1.00  0.00    -0.166 F 
ATOM     36  F   UNL A   1      34.904  28.270  26.741  1.00  0.00    -0.166 F 
ENDBRANCH  31  33
ENDBRANCH  17  27
ENDBRANCH   5   8
ENDBRANCH   3   4
ENDBRANCH   2   3
ENDBRANCH   1   2
BRANCH   1  37
ATOM     37  C   UNL A   1      41.247  21.490  27.700  1.00  0.00     0.002 C 
BRANCH  37  38
ATOM     38  C   UNL A   1      42.127  20.269  27.381  1.00  0.00     0.021 C 
BRANCH  38  39
ATOM     39  C   UNL A   1      42.344  20.031  25.897  1.00  0.00     0.116 C 
BRANCH  39  40
ATOM     40  N   UNL A   1      43.767  19.953  25.547  1.00  0.00    -0.352 N 
ATOM     41  C   UNL A   1      44.657  20.969  25.235  1.00  0.00     0.251 C 
ATOM     42  H   UNL A   1      44.145  19.044  25.531  1.00  0.00     0.163 HD
ATOM     43  O   UNL A   1      45.678  20.740  24.609  1.00  0.00    -0.269 OA
BRANCH  41  44
ATOM     44  C   UNL A   1      44.360  22.334  25.705  1.00  0.00     0.039 A 
ATOM     45  C   UNL A   1      43.582  23.244  24.979  1.00  0.00     0.014 A 
ATOM     46  C   UNL A   1      44.883  22.687  26.938  1.00  0.00     0.014 A 
ATOM     47  C   UNL A   1      43.346  24.503  25.532  1.00  0.00     0.010 A 
ATOM     48  C   UNL A   1      44.379  23.762  27.596  1.00  0.00     0.010 A 
ATOM     49  C   UNL A   1      43.773  24.748  26.843  1.00  0.00    -0.014 A 
BRANCH  49  50
ATOM     50  C   UNL A   1      43.559  25.996  27.553  1.00  0.00     0.031 A 
ATOM     51  C   UNL A   1      44.501  27.059  27.142  1.00  0.00     0.074 A 
ATOM     52  C   UNL A   1      42.405  26.237  28.220  1.00  0.00     0.049 A 
ATOM     53  N   UNL A   1      45.500  27.528  27.812  1.00  0.00    -0.248 NA
ATOM     54  C   UNL A   1      44.469  27.501  25.736  1.00  0.00     0.031 C 
ATOM     55  C   UNL A   1      41.220  25.377  28.347  1.00  0.00     0.029 A 
ATOM     56  N   UNL A   1      42.001  27.381  28.836  1.00  0.00    -0.354 N 
ATOM     57  C   UNL A   1      46.052  28.512  26.999  1.00  0.00     0.074 A 
ATOM     58  C   UNL A   1      45.582  28.232  25.672  1.00  0.00     0.031 C 
ATOM     59  C   UNL A   1      40.171  26.104  28.801  1.00  0.00     0.029 A 
ATOM     60  C   UNL A   1      40.636  27.437  29.134  1.00  0.00     0.049 A 
ATOM     61  H   UNL A   1      42.621  28.114  29.055  1.00  0.00     0.167 HD
ATOM     62  C   UNL A   1      46.561  29.655  27.538  1.00  0.00     0.037 A 
ATOM     63  C   UNL A   1      39.969  28.539  29.569  1.00  0.00     0.037 A 
ATOM     64  C   UNL A   1      46.740  29.499  28.967  1.00  0.00     0.049 A 
ATOM     65  C   UNL A   1      40.997  29.500  30.057  1.00  0.00     0.074 A 
ATOM     66  C   UNL A   1      47.423  28.604  29.769  1.00  0.00     0.029 A 
ATOM     67  N   UNL A   1      45.811  30.094  29.789  1.00  0.00    -0.354 N 
ATOM     68  N   UNL A   1      41.725  29.301  31.121  1.00  0.00    -0.248 NA
ATOM     69  C   UNL A   1      41.558  30.420  29.077  1.00  0.00     0.031 C 
ATOM     70  C   UNL A   1      46.545  28.347  30.865  1.00  0.00     0.029 A 
ATOM     71  C   UNL A   1      45.428  29.169  30.726  1.00  0.00     0.049 A 
ATOM     72  H   UNL A   1      45.481  31.019  29.717  1.00  0.00     0.167 HD
ATOM     73  C   UNL A   1      43.002  29.703  30.753  1.00  0.00     0.074 A 
ATOM     74  C   UNL A   1      42.826  30.438  29.500  1.00  0.00     0.031 C 
ATOM     75  C   UNL A   1      44.111  29.139  31.318  1.00  0.00     0.037 A 
BRANCH  62  76
ATOM     76  C   UNL A   1      46.487  31.026  26.889  1.00  0.00     0.057 A 
ATOM     77  C   UNL A   1      47.661  31.803  26.846  1.00  0.00     0.134 A 
ATOM     78  C   UNL A   1      45.308  31.729  26.566  1.00  0.00     0.134 A 
ATOM     79  F   UNL A   1      48.859  31.259  27.106  1.00  0.00    -0.206 F 
ATOM     80  C   UNL A   1      47.645  33.185  26.624  1.00  0.00     0.040 A 
ATOM     81  C   UNL A   1      45.288  33.100  26.295  1.00  0.00     0.040 A 
ATOM     82  F   UNL A   1      44.093  31.173  26.575  1.00  0.00    -0.206 F 
ATOM     83  C   UNL A   1      46.452  33.842  26.363  1.00  0.00     0.006 A 
ENDBRANCH  62  76
BRANCH  63  84
ATOM     84  C   UNL A   1      38.570  28.974  29.324  1.00  0.00     0.057 A 
ATOM     85  C   UNL A   1      37.650  29.078  30.382  1.00  0.00     0.134 A 
ATOM     86  C   UNL A   1      38.187  29.584  28.119  1.00  0.00     0.134 A 
ATOM     87  F   UNL A   1      37.932  28.556  31.583  1.00  0.00    -0.206 F 
ATOM     88  C   UNL A   1      36.445  29.787  30.260  1.00  0.00     0.040 A 
ATOM     89  C   UNL A   1      36.984  30.289  27.983  1.00  0.00     0.040 A 
ATOM     90  F   UNL A   1      39.007  29.599  27.059  1.00  0.00    -0.206 F 
ATOM     91  C   UNL A   1      36.117  30.409  29.062  1.00  0.00     0.006 A 
ENDBRANCH  63  84
BRANCH  75  92
ATOM     92  C   UNL A   1      43.922  28.245  32.516  1.00  0.00     0.057 A 
ATOM     93  C   UNL A   1      43.783  26.848  32.456  1.00  0.00     0.134 A 
ATOM     94  C   UNL A   1      44.029  28.810  33.791  1.00  0.00     0.134 A 
ATOM     95  F   UNL A   1      43.777  26.200  31.286  1.00  0.00    -0.206 F 
ATOM     96  C   UNL A   1      43.705  26.062  33.611  1.00  0.00     0.040 A 
ATOM     97  C   UNL A   1      43.989  28.034  34.950  1.00  0.00     0.040 A 
ATOM     98  F   UNL A   1      44.220  30.132  33.929  1.00  0.00    -0.206 F 
ATOM     99  C   UNL A   1      43.813  26.656  34.864  1.00  0.00     0.006 A 
ENDBRANCH  75  92
ENDBRANCH  49  50
ENDBRANCH  41  44
ENDBRANCH  39  40
ENDBRANCH  38  39
ENDBRANCH  37  38
ENDBRANCH   1  37
TORSDOF 17
ENDMDL
MODEL 3
REMARK VINA RESULT:     -12.3      3.026      8.093
REMARK SMILES O=C1C[C@@H](c2cccc(O)c2)c2c(c(C(=O)NCCCCCCNC(=O)c3ccc(-c4c5nc(c(-c6c(F)cccc6F)c6ccc([nH]6)c(-c6c(F)cccc6F)c6nc(c(-c7c(F)cccc7F)c7ccc4[nH]7)C=C6)C=C5)cc3)cn2-c2cccc(C(F)(F)F)c2)N1
REMARK SMILES IDX 20 1 19 2 18 3 17 4 15 5 16 6 14 8 1 9 2 10 3 11 93 12 4 13
REMARK SMILES IDX 13 14 12 16 82 17 81 18 5 19 6 20 11 21 7 22 9 23 8 24 10 25
REMARK SMILES IDX 83 27 84 28 92 29 85 30 87 31 86 32 88 33 89 34 90 35 91 36
REMARK SMILES IDX 21 37 22 38 23 39 24 40 25 41 26 43 27 44 28 45 80 46 29 47
REMARK SMILES IDX 79 48 30 49 31 50 32 51 73 52 33 53 78 54 72 55 74 56 34 57
REMARK SMILES IDX 77 58 71 59 70 60 35 62 61 63 44 64 60 65 45 66 48 67 59 68
REMARK SMILES IDX 75 69 46 70 47 71 58 73 76 74 49 75 36 76 37 77 42 78 38 79
REMARK SMILES IDX 39 80 41 81 43 82 40 83 62 84 63 85 68 86 64 87 65 88 67 89
REMARK SMILES IDX 69 90 66 91 50 92 51 93 56 94 52 95 53 96 55 97 57 98 54 99
REMARK H PARENT 17 7 93 15 10 26 24 42 74 61 48 72
REMARK Flexibility Score: inf
ROOT
ATOM      1  C   UNL A   1      31.713  30.936  26.648  1.00  0.00     0.002 C 
ENDROOT
BRANCH   1   2
ATOM      2  C   UNL A   1      31.380  30.204  25.350  1.00  0.00     0.021 C 
BRANCH   2   3
ATOM      3  C   UNL A   1      31.678  28.709  25.357  1.00  0.00     0.116 C 
BRANCH   3   4
ATOM      4  N   UNL A   1      30.697  27.936  24.629  1.00  0.00    -0.352 N 
ATOM      5  C   UNL A   1      30.640  26.610  24.281  1.00  0.00     0.254 C 
ATOM      6  O   UNL A   1      29.702  26.264  23.561  1.00  0.00    -0.269 OA
ATOM      7  H   UNL A   1      29.922  28.461  24.326  1.00  0.00     0.163 HD
BRANCH   5   8
ATOM      8  C   UNL A   1      31.652  25.642  24.695  1.00  0.00     0.081 A 
ATOM      9  O   UNL A   1      29.074  22.456  27.169  1.00  0.00    -0.275 OA
ATOM     10  C   UNL A   1      30.152  22.907  26.786  1.00  0.00     0.225 C 
ATOM     11  C   UNL A   1      31.480  22.404  27.345  1.00  0.00     0.115 C 
ATOM     12  N   UNL A   1      30.209  23.980  25.930  1.00  0.00    -0.324 N 
ATOM     13  C   UNL A   1      32.652  22.454  26.343  1.00  0.00     0.078 C 
ATOM     14  C   UNL A   1      31.395  24.444  25.411  1.00  0.00     0.076 A 
ATOM     15  H   UNL A   1      29.372  24.431  25.679  1.00  0.00     0.170 HD
ATOM     16  C   UNL A   1      32.559  23.725  25.554  1.00  0.00     0.055 A 
ATOM     17  N   UNL A   1      33.569  24.448  24.953  1.00  0.00    -0.317 N 
ATOM     18  C   UNL A   1      33.035  25.684  24.621  1.00  0.00     0.107 A 
BRANCH  13  19
ATOM     19  C   UNL A   1      32.691  21.205  25.481  1.00  0.00    -0.035 A 
ATOM     20  C   UNL A   1      32.992  19.938  26.007  1.00  0.00     0.005 A 
ATOM     21  C   UNL A   1      32.355  21.305  24.121  1.00  0.00     0.050 A 
ATOM     22  C   UNL A   1      32.915  18.798  25.206  1.00  0.00     0.004 A 
ATOM     23  C   UNL A   1      32.248  20.160  23.342  1.00  0.00     0.115 A 
ATOM     24  C   UNL A   1      32.527  18.906  23.872  1.00  0.00     0.046 A 
BRANCH  23  25
ATOM     25  O   UNL A   1      31.811  20.311  22.060  1.00  0.00    -0.508 OA
ATOM     26  H   UNL A   1      31.262  21.038  21.836  1.00  0.00     0.293 HD
ENDBRANCH  23  25
ENDBRANCH  13  19
BRANCH  17  27
ATOM     27  C   UNL A   1      34.898  24.077  24.620  1.00  0.00     0.046 A 
ATOM     28  C   UNL A   1      35.144  23.411  23.413  1.00  0.00     0.026 A 
ATOM     29  C   UNL A   1      35.925  24.206  25.562  1.00  0.00     0.039 A 
ATOM     30  C   UNL A   1      36.420  22.924  23.130  1.00  0.00     0.003 A 
ATOM     31  C   UNL A   1      37.212  23.711  25.289  1.00  0.00     0.058 A 
ATOM     32  C   UNL A   1      37.449  23.080  24.058  1.00  0.00     0.013 A 
BRANCH  31  33
ATOM     33  C   UNL A   1      38.330  23.815  26.301  1.00  0.00     0.416 C 
ATOM     34  F   UNL A   1      38.875  22.599  26.591  1.00  0.00    -0.166 F 
ATOM     35  F   UNL A   1      39.363  24.586  25.864  1.00  0.00    -0.166 F 
ATOM     36  F   UNL A   1      37.950  24.335  27.501  1.00  0.00    -0.166 F 
ENDBRANCH  31  33
ENDBRANCH  17  27
ENDBRANCH   5   8
ENDBRANCH   3   4
ENDBRANCH   2   3
ENDBRANCH   1   2
BRANCH   1  37
ATOM     37  C   UNL A   1      33.183  30.880  27.092  1.00  0.00     0.002 C 
BRANCH  37  38
ATOM     38  C   UNL A   1      33.730  32.097  27.857  1.00  0.00     0.021 C 
BRANCH  38  39
ATOM     39  C   UNL A   1      34.983  31.810  28.666  1.00  0.00     0.116 C 
BRANCH  39  40
ATOM     40  N   UNL A   1      34.887  32.311  30.042  1.00  0.00    -0.352 N 
ATOM     41  C   UNL A   1      35.474  31.826  31.201  1.00  0.00     0.251 C 
ATOM     42  H   UNL A   1      34.322  33.108  30.159  1.00  0.00     0.163 HD
ATOM     43  O   UNL A   1      35.017  32.098  32.298  1.00  0.00    -0.269 OA
BRANCH  41  44
ATOM     44  C   UNL A   1      36.686  30.996  31.082  1.00  0.00     0.039 A 
ATOM     45  C   UNL A   1      36.658  29.597  31.040  1.00  0.00     0.014 A 
ATOM     46  C   UNL A   1      37.890  31.676  30.994  1.00  0.00     0.014 A 
ATOM     47  C   UNL A   1      37.868  28.914  30.903  1.00  0.00     0.010 A 
ATOM     48  C   UNL A   1      38.991  31.030  30.534  1.00  0.00     0.010 A 
ATOM     49  C   UNL A   1      39.031  29.656  30.669  1.00  0.00    -0.014 A 
BRANCH  49  50
ATOM     50  C   UNL A   1      40.346  29.074  30.468  1.00  0.00     0.031 A 
ATOM     51  C   UNL A   1      41.090  28.886  31.733  1.00  0.00     0.074 A 
ATOM     52  C   UNL A   1      40.670  28.450  29.311  1.00  0.00     0.049 A 
ATOM     53  N   UNL A   1      42.100  29.566  32.161  1.00  0.00    -0.248 NA
ATOM     54  C   UNL A   1      40.509  27.983  32.744  1.00  0.00     0.031 C 
ATOM     55  C   UNL A   1      39.837  28.229  28.120  1.00  0.00     0.029 A 
ATOM     56  N   UNL A   1      41.803  27.761  29.003  1.00  0.00    -0.354 N 
ATOM     57  C   UNL A   1      42.435  28.988  33.381  1.00  0.00     0.074 A 
ATOM     58  C   UNL A   1      41.272  28.261  33.802  1.00  0.00     0.031 C 
ATOM     59  C   UNL A   1      40.406  27.289  27.328  1.00  0.00     0.029 A 
ATOM     60  C   UNL A   1      41.706  26.945  27.873  1.00  0.00     0.049 A 
ATOM     61  H   UNL A   1      42.629  27.833  29.536  1.00  0.00     0.167 HD
ATOM     62  C   UNL A   1      43.738  28.878  33.763  1.00  0.00     0.037 A 
ATOM     63  C   UNL A   1      42.630  26.027  27.481  1.00  0.00     0.037 A 
ATOM     64  C   UNL A   1      44.577  29.717  32.933  1.00  0.00     0.049 A 
ATOM     65  C   UNL A   1      43.891  26.351  28.203  1.00  0.00     0.074 A 
ATOM     66  C   UNL A   1      44.597  31.063  32.617  1.00  0.00     0.029 A 
ATOM     67  N   UNL A   1      45.313  29.098  31.949  1.00  0.00    -0.354 N 
ATOM     68  N   UNL A   1      44.599  27.424  27.976  1.00  0.00    -0.248 NA
ATOM     69  C   UNL A   1      44.076  25.745  29.514  1.00  0.00     0.031 C 
ATOM     70  C   UNL A   1      44.896  31.109  31.222  1.00  0.00     0.029 A 
ATOM     71  C   UNL A   1      45.141  29.807  30.789  1.00  0.00     0.049 A 
ATOM     72  H   UNL A   1      45.865  28.290  32.059  1.00  0.00     0.167 HD
ATOM     73  C   UNL A   1      44.965  27.876  29.237  1.00  0.00     0.074 A 
ATOM     74  C   UNL A   1      44.663  26.768  30.143  1.00  0.00     0.031 C 
ATOM     75  C   UNL A   1      45.179  29.204  29.477  1.00  0.00     0.037 A 
BRANCH  62  76
ATOM     76  C   UNL A   1      44.310  27.721  34.563  1.00  0.00     0.057 A 
ATOM     77  C   UNL A   1      45.119  28.021  35.677  1.00  0.00     0.134 A 
ATOM     78  C   UNL A   1      44.352  26.371  34.157  1.00  0.00     0.134 A 
ATOM     79  F   UNL A   1      45.159  29.260  36.187  1.00  0.00    -0.206 F 
ATOM     80  C   UNL A   1      45.987  27.087  36.255  1.00  0.00     0.040 A 
ATOM     81  C   UNL A   1      45.178  25.418  34.759  1.00  0.00     0.040 A 
ATOM     82  F   UNL A   1      43.674  25.896  33.108  1.00  0.00    -0.206 F 
ATOM     83  C   UNL A   1      46.030  25.782  35.785  1.00  0.00     0.006 A 
ENDBRANCH  62  76
BRANCH  63  84
ATOM     84  C   UNL A   1      42.455  24.723  26.792  1.00  0.00     0.057 A 
ATOM     85  C   UNL A   1      43.028  24.490  25.530  1.00  0.00     0.134 A 
ATOM     86  C   UNL A   1      41.993  23.585  27.472  1.00  0.00     0.134 A 
ATOM     87  F   UNL A   1      43.527  25.505  24.811  1.00  0.00    -0.206 F 
ATOM     88  C   UNL A   1      43.174  23.200  24.999  1.00  0.00     0.040 A 
ATOM     89  C   UNL A   1      42.128  22.292  26.950  1.00  0.00     0.040 A 
ATOM     90  F   UNL A   1      41.480  23.677  28.708  1.00  0.00    -0.206 F 
ATOM     91  C   UNL A   1      42.738  22.093  25.718  1.00  0.00     0.006 A 
ENDBRANCH  63  84
BRANCH  75  92
ATOM     92  C   UNL A   1      45.243  30.138  28.297  1.00  0.00     0.057 A 
ATOM     93  C   UNL A   1      44.136  30.811  27.750  1.00  0.00     0.134 A 
ATOM     94  C   UNL A   1      46.499  30.481  27.787  1.00  0.00     0.134 A 
ATOM     95  F   UNL A   1      42.904  30.633  28.240  1.00  0.00    -0.206 F 
ATOM     96  C   UNL A   1      44.274  31.740  26.713  1.00  0.00     0.040 A 
ATOM     97  C   UNL A   1      46.653  31.432  26.777  1.00  0.00     0.040 A 
ATOM     98  F   UNL A   1      47.609  29.923  28.296  1.00  0.00    -0.206 F 
ATOM     99  C   UNL A   1      45.538  32.056  26.227  1.00  0.00     0.006 A 
ENDBRANCH  75  92
ENDBRANCH  49  50
ENDBRANCH  41  44
ENDBRANCH  39  40
ENDBRANCH  38  39
ENDBRANCH  37  38
ENDBRANCH   1  37
TORSDOF 17
ENDMDL
