MODEL 1
REMARK VINA RESULT:     -10.7      0.000      0.000
REMARK SMILES Nc1ccc(Cl)c(SC[C@H]2CC[C@@H](C(=O)NCCCCCCNC(=O)c3ccc(-c4c5nc(c(-c6c(F)cccc6F)c6ccc([nH]6)c(-c6c(F)cccc6F)c6nc(c(-c7c(F)cccc7F)c7ccc4[nH]7)C=C6)C=C5)cc3)O2)c1
REMARK SMILES IDX 18 1 17 2 16 3 14 4 15 5 13 7 10 8 11 9 80 10 12 11 9 12
REMARK SMILES IDX 8 13 7 14 2 15 3 16 81 17 4 18 5 19 6 20 1 21 19 24 20 25
REMARK SMILES IDX 21 26 22 27 23 28 24 29 25 31 26 32 27 33 79 34 28 35 78 36
REMARK SMILES IDX 29 37 30 38 31 39 72 40 32 41 77 42 71 43 73 44 33 45 76 46
REMARK SMILES IDX 70 47 69 48 34 50 60 51 43 52 59 53 44 54 47 55 58 56 74 57
REMARK SMILES IDX 45 58 46 59 57 61 75 62 48 63 35 64 36 65 41 66 37 67 38 68
REMARK SMILES IDX 40 69 42 70 39 71 61 72 62 73 67 74 63 75 64 76 66 77 68 78
REMARK SMILES IDX 65 79 49 80 50 81 55 82 51 83 52 84 54 85 56 86 53 87
REMARK H PARENT 16 6 1 22 1 23 23 30 73 49 47 60
REMARK Flexibility Score: inf
ROOT
ATOM      1  C   UNL A   1      35.369  33.338  28.008  1.00  0.00     0.021 C 
ENDROOT
BRANCH   1   2
ATOM      2  C   UNL A   1      34.683  32.074  28.532  1.00  0.00     0.116 C 
BRANCH   2   3
ATOM      3  N   UNL A   1      35.264  30.884  27.954  1.00  0.00    -0.354 N 
ATOM      4  C   UNL A   1      34.716  29.768  27.404  1.00  0.00     0.249 C 
ATOM      5  O   UNL A   1      35.527  28.923  27.003  1.00  0.00    -0.272 OA
ATOM      6  H   UNL A   1      36.249  30.881  27.960  1.00  0.00     0.163 HD
BRANCH   4   7
ATOM      7  C   UNL A   1      33.194  29.571  27.182  1.00  0.00     0.207 C 
ATOM      8  C   UNL A   1      31.972  29.273  25.183  1.00  0.00     0.129 C 
ATOM      9  C   UNL A   1      31.428  28.313  26.218  1.00  0.00     0.036 C 
ATOM     10  O   UNL A   1      32.787  30.185  25.931  1.00  0.00    -0.364 OA
ATOM     11  C   UNL A   1      32.593  28.175  27.159  1.00  0.00     0.045 C 
BRANCH   8  12
ATOM     12  C   UNL A   1      32.702  28.577  24.005  1.00  0.00     0.107 C 
BRANCH  12  13
ATOM     13  S   UNL A   1      31.726  27.637  22.774  1.00  0.00    -0.122 SA
BRANCH  13  14
ATOM     14  C   UNL A   1      30.181  28.564  22.604  1.00  0.00     0.028 A 
ATOM     15  C   UNL A   1      28.918  30.485  21.736  1.00  0.00     0.033 A 
ATOM     16  C   UNL A   1      27.754  29.975  22.299  1.00  0.00     0.027 A 
ATOM     17  C   UNL A   1      30.124  29.806  21.948  1.00  0.00     0.042 A 
ATOM     18  C   UNL A   1      27.778  28.760  22.984  1.00  0.00     0.024 A 
ATOM     19  C   UNL A   1      28.977  28.051  23.126  1.00  0.00     0.054 A 
ATOM     20  Cl  UNL A   1      28.886  26.539  23.973  1.00  0.00    -0.083 Cl
BRANCH  15  21
ATOM     21  N   UNL A   1      28.917  31.719  21.097  1.00  0.00    -0.399 N 
ATOM     22  H   UNL A   1      28.917  32.549  21.628  1.00  0.00     0.156 HD
ATOM     23  H   UNL A   1      28.915  31.765  20.114  1.00  0.00     0.156 HD
ENDBRANCH  15  21
ENDBRANCH  13  14
ENDBRANCH  12  13
ENDBRANCH   8  12
ENDBRANCH   4   7
ENDBRANCH   2   3
ENDBRANCH   1   2
BRANCH   1  24
ATOM     24  C   UNL A   1      35.149  34.573  28.890  1.00  0.00     0.002 C 
BRANCH  24  25
ATOM     25  C   UNL A   1      34.566  35.794  28.169  1.00  0.00     0.002 C 
BRANCH  25  26
ATOM     26  C   UNL A   1      33.327  36.411  28.825  1.00  0.00     0.021 C 
BRANCH  26  27
ATOM     27  C   UNL A   1      32.649  35.517  29.858  1.00  0.00     0.116 C 
BRANCH  27  28
ATOM     28  N   UNL A   1      32.286  36.258  31.056  1.00  0.00    -0.352 N 
ATOM     29  C   UNL A   1      32.745  36.117  32.341  1.00  0.00     0.251 C 
ATOM     30  H   UNL A   1      31.612  36.964  30.926  1.00  0.00     0.163 HD
ATOM     31  O   UNL A   1      32.167  36.672  33.269  1.00  0.00    -0.269 OA
BRANCH  29  32
ATOM     32  C   UNL A   1      33.938  35.285  32.612  1.00  0.00     0.039 A 
ATOM     33  C   UNL A   1      35.204  35.807  32.332  1.00  0.00     0.014 A 
ATOM     34  C   UNL A   1      33.807  33.987  33.114  1.00  0.00     0.014 A 
ATOM     35  C   UNL A   1      36.342  35.044  32.601  1.00  0.00     0.010 A 
ATOM     36  C   UNL A   1      34.944  33.253  33.441  1.00  0.00     0.010 A 
ATOM     37  C   UNL A   1      36.222  33.772  33.183  1.00  0.00    -0.014 A 
BRANCH  37  38
ATOM     38  C   UNL A   1      37.421  32.967  33.523  1.00  0.00     0.031 A 
ATOM     39  C   UNL A   1      38.177  33.235  34.794  1.00  0.00     0.074 A 
ATOM     40  C   UNL A   1      37.867  32.038  32.655  1.00  0.00     0.049 A 
ATOM     41  N   UNL A   1      39.284  32.688  35.229  1.00  0.00    -0.248 NA
ATOM     42  C   UNL A   1      37.630  34.272  35.682  1.00  0.00     0.031 C 
ATOM     43  C   UNL A   1      37.246  31.715  31.368  1.00  0.00     0.029 A 
ATOM     44  N   UNL A   1      38.952  31.201  32.720  1.00  0.00    -0.354 N 
ATOM     45  C   UNL A   1      39.573  33.323  36.430  1.00  0.00     0.074 A 
ATOM     46  C   UNL A   1      38.553  34.330  36.632  1.00  0.00     0.031 C 
ATOM     47  C   UNL A   1      37.949  30.737  30.775  1.00  0.00     0.029 A 
ATOM     48  C   UNL A   1      39.087  30.389  31.621  1.00  0.00     0.049 A 
ATOM     49  H   UNL A   1      39.575  31.185  33.481  1.00  0.00     0.167 HD
ATOM     50  C   UNL A   1      40.583  33.076  37.296  1.00  0.00     0.037 A 
ATOM     51  C   UNL A   1      40.025  29.470  31.325  1.00  0.00     0.037 A 
ATOM     52  C   UNL A   1      41.582  32.056  37.107  1.00  0.00     0.049 A 
ATOM     53  C   UNL A   1      41.138  29.214  32.304  1.00  0.00     0.074 A 
ATOM     54  C   UNL A   1      42.611  31.690  37.955  1.00  0.00     0.029 A 
ATOM     55  N   UNL A   1      41.673  31.241  35.990  1.00  0.00    -0.354 N 
ATOM     56  N   UNL A   1      41.364  29.781  33.464  1.00  0.00    -0.248 NA
ATOM     57  C   UNL A   1      42.122  28.187  31.935  1.00  0.00     0.031 C 
ATOM     58  C   UNL A   1      43.350  30.676  37.334  1.00  0.00     0.029 A 
ATOM     59  C   UNL A   1      42.753  30.383  36.118  1.00  0.00     0.049 A 
ATOM     60  H   UNL A   1      41.061  31.266  35.220  1.00  0.00     0.167 HD
ATOM     61  C   UNL A   1      42.496  29.162  33.975  1.00  0.00     0.074 A 
ATOM     62  C   UNL A   1      42.905  28.168  33.004  1.00  0.00     0.031 C 
ATOM     63  C   UNL A   1      43.141  29.395  35.145  1.00  0.00     0.037 A 
BRANCH  50  64
ATOM     64  C   UNL A   1      40.655  33.922  38.535  1.00  0.00     0.057 A 
ATOM     65  C   UNL A   1      41.452  35.073  38.596  1.00  0.00     0.134 A 
ATOM     66  C   UNL A   1      39.897  33.601  39.667  1.00  0.00     0.134 A 
ATOM     67  F   UNL A   1      42.213  35.429  37.550  1.00  0.00    -0.206 F 
ATOM     68  C   UNL A   1      41.512  35.859  39.748  1.00  0.00     0.040 A 
ATOM     69  C   UNL A   1      39.929  34.394  40.815  1.00  0.00     0.040 A 
ATOM     70  F   UNL A   1      39.107  32.516  39.673  1.00  0.00    -0.206 F 
ATOM     71  C   UNL A   1      40.744  35.524  40.860  1.00  0.00     0.006 A 
ENDBRANCH  50  64
BRANCH  51  72
ATOM     72  C   UNL A   1      39.940  28.704  30.057  1.00  0.00     0.057 A 
ATOM     73  C   UNL A   1      40.573  29.161  28.896  1.00  0.00     0.134 A 
ATOM     74  C   UNL A   1      39.224  27.504  29.973  1.00  0.00     0.134 A 
ATOM     75  F   UNL A   1      41.258  30.315  28.911  1.00  0.00    -0.206 F 
ATOM     76  C   UNL A   1      40.485  28.464  27.692  1.00  0.00     0.040 A 
ATOM     77  C   UNL A   1      39.148  26.783  28.780  1.00  0.00     0.040 A 
ATOM     78  F   UNL A   1      38.602  27.008  31.053  1.00  0.00    -0.206 F 
ATOM     79  C   UNL A   1      39.774  27.266  27.633  1.00  0.00     0.006 A 
ENDBRANCH  51  72
BRANCH  63  80
ATOM     80  C   UNL A   1      44.333  28.539  35.451  1.00  0.00     0.057 A 
ATOM     81  C   UNL A   1      44.212  27.316  36.122  1.00  0.00     0.134 A 
ATOM     82  C   UNL A   1      45.614  28.926  35.036  1.00  0.00     0.134 A 
ATOM     83  F   UNL A   1      43.015  26.896  36.559  1.00  0.00    -0.206 F 
ATOM     84  C   UNL A   1      45.326  26.518  36.388  1.00  0.00     0.040 A 
ATOM     85  C   UNL A   1      46.731  28.126  35.274  1.00  0.00     0.040 A 
ATOM     86  F   UNL A   1      45.797  30.083  34.382  1.00  0.00    -0.206 F 
ATOM     87  C   UNL A   1      46.589  26.920  35.957  1.00  0.00     0.006 A 
ENDBRANCH  63  80
ENDBRANCH  37  38
ENDBRANCH  29  32
ENDBRANCH  27  28
ENDBRANCH  26  27
ENDBRANCH  25  26
ENDBRANCH  24  25
ENDBRANCH   1  24
TORSDOF 17
ENDMDL
MODEL 2
REMARK VINA RESULT:     -10.5      4.889      9.994
REMARK SMILES Nc1ccc(Cl)c(SC[C@H]2CC[C@@H](C(=O)NCCCCCCNC(=O)c3ccc(-c4c5nc(c(-c6c(F)cccc6F)c6ccc([nH]6)c(-c6c(F)cccc6F)c6nc(c(-c7c(F)cccc7F)c7ccc4[nH]7)C=C6)C=C5)cc3)O2)c1
REMARK SMILES IDX 18 1 17 2 16 3 14 4 15 5 13 7 10 8 11 9 80 10 12 11 9 12
REMARK SMILES IDX 8 13 7 14 2 15 3 16 81 17 4 18 5 19 6 20 1 21 19 24 20 25
REMARK SMILES IDX 21 26 22 27 23 28 24 29 25 31 26 32 27 33 79 34 28 35 78 36
REMARK SMILES IDX 29 37 30 38 31 39 72 40 32 41 77 42 71 43 73 44 33 45 76 46
REMARK SMILES IDX 70 47 69 48 34 50 60 51 43 52 59 53 44 54 47 55 58 56 74 57
REMARK SMILES IDX 45 58 46 59 57 61 75 62 48 63 35 64 36 65 41 66 37 67 38 68
REMARK SMILES IDX 40 69 42 70 39 71 61 72 62 73 67 74 63 75 64 76 66 77 68 78
REMARK SMILES IDX 65 79 49 80 50 81 55 82 51 83 52 84 54 85 56 86 53 87
REMARK H PARENT 16 6 1 22 1 23 23 30 73 49 47 60
REMARK Flexibility Score: inf
ROOT
ATOM      1  C   UNL A   1      35.372  34.016  33.774  1.00  0.00     0.021 C 
ENDROOT
BRANCH   1   2
ATOM      2  C   UNL A   1      36.804  34.194  34.281  1.00  0.00     0.116 C 
BRANCH   2   3
ATOM      3  N   UNL A   1      37.142  33.189  35.263  1.00  0.00    -0.354 N 
ATOM      4  C   UNL A   1      37.767  31.985  35.167  1.00  0.00     0.249 C 
ATOM      5  O   UNL A   1      37.889  31.366  36.232  1.00  0.00    -0.272 OA
ATOM      6  H   UNL A   1      36.867  33.421  36.179  1.00  0.00     0.163 HD
BRANCH   4   7
ATOM      7  C   UNL A   1      38.389  31.435  33.857  1.00  0.00     0.207 C 
ATOM      8  C   UNL A   1      40.322  30.120  33.523  1.00  0.00     0.129 C 
ATOM      9  C   UNL A   1      39.226  29.588  32.625  1.00  0.00     0.036 C 
ATOM     10  O   UNL A   1      39.836  31.393  33.968  1.00  0.00    -0.364 OA
ATOM     11  C   UNL A   1      37.986  30.069  33.328  1.00  0.00     0.045 C 
BRANCH   8  12
ATOM     12  C   UNL A   1      40.723  29.150  34.664  1.00  0.00     0.107 C 
BRANCH  12  13
ATOM     13  S   UNL A   1      42.458  28.577  34.788  1.00  0.00    -0.122 SA
BRANCH  13  14
ATOM     14  C   UNL A   1      42.335  26.824  35.220  1.00  0.00     0.028 A 
ATOM     15  C   UNL A   1      41.439  25.020  36.627  1.00  0.00     0.033 A 
ATOM     16  C   UNL A   1      42.109  24.081  35.852  1.00  0.00     0.027 A 
ATOM     17  C   UNL A   1      41.610  26.379  36.339  1.00  0.00     0.042 A 
ATOM     18  C   UNL A   1      42.863  24.487  34.751  1.00  0.00     0.024 A 
ATOM     19  C   UNL A   1      42.967  25.846  34.426  1.00  0.00     0.054 A 
ATOM     20  Cl  UNL A   1      43.908  26.236  33.022  1.00  0.00    -0.083 Cl
BRANCH  15  21
ATOM     21  N   UNL A   1      40.728  24.632  37.757  1.00  0.00    -0.399 N 
ATOM     22  H   UNL A   1      41.171  24.611  38.636  1.00  0.00     0.156 HD
ATOM     23  H   UNL A   1      39.780  24.377  37.678  1.00  0.00     0.156 HD
ENDBRANCH  15  21
ENDBRANCH  13  14
ENDBRANCH  12  13
ENDBRANCH   8  12
ENDBRANCH   4   7
ENDBRANCH   2   3
ENDBRANCH   1   2
BRANCH   1  24
ATOM     24  C   UNL A   1      34.832  35.227  33.004  1.00  0.00     0.002 C 
BRANCH  24  25
ATOM     25  C   UNL A   1      33.355  35.138  32.601  1.00  0.00     0.002 C 
BRANCH  25  26
ATOM     26  C   UNL A   1      32.858  36.261  31.687  1.00  0.00     0.021 C 
BRANCH  26  27
ATOM     27  C   UNL A   1      33.416  36.214  30.267  1.00  0.00     0.116 C 
BRANCH  27  28
ATOM     28  N   UNL A   1      32.672  35.287  29.427  1.00  0.00    -0.352 N 
ATOM     29  C   UNL A   1      33.115  34.184  28.743  1.00  0.00     0.251 C 
ATOM     30  H   UNL A   1      31.712  35.480  29.336  1.00  0.00     0.163 HD
ATOM     31  O   UNL A   1      32.399  33.649  27.902  1.00  0.00    -0.269 OA
BRANCH  29  32
ATOM     32  C   UNL A   1      34.464  33.640  29.010  1.00  0.00     0.039 A 
ATOM     33  C   UNL A   1      35.505  33.949  28.129  1.00  0.00     0.014 A 
ATOM     34  C   UNL A   1      34.696  32.806  30.108  1.00  0.00     0.014 A 
ATOM     35  C   UNL A   1      36.789  33.461  28.377  1.00  0.00     0.010 A 
ATOM     36  C   UNL A   1      35.989  32.374  30.389  1.00  0.00     0.010 A 
ATOM     37  C   UNL A   1      37.047  32.692  29.523  1.00  0.00    -0.014 A 
BRANCH  37  38
ATOM     38  C   UNL A   1      38.415  32.207  29.831  1.00  0.00     0.031 A 
ATOM     39  C   UNL A   1      38.885  30.882  29.300  1.00  0.00     0.074 A 
ATOM     40  C   UNL A   1      39.211  32.931  30.641  1.00  0.00     0.049 A 
ATOM     41  N   UNL A   1      40.015  30.258  29.516  1.00  0.00    -0.248 NA
ATOM     42  C   UNL A   1      37.951  30.149  28.430  1.00  0.00     0.031 C 
ATOM     43  C   UNL A   1      38.854  34.212  31.255  1.00  0.00     0.029 A 
ATOM     44  N   UNL A   1      40.483  32.687  31.096  1.00  0.00    -0.354 N 
ATOM     45  C   UNL A   1      39.922  29.057  28.824  1.00  0.00     0.074 A 
ATOM     46  C   UNL A   1      38.607  29.017  28.221  1.00  0.00     0.031 C 
ATOM     47  C   UNL A   1      39.889  34.650  31.989  1.00  0.00     0.029 A 
ATOM     48  C   UNL A   1      40.967  33.667  31.926  1.00  0.00     0.049 A 
ATOM     49  H   UNL A   1      40.998  31.886  30.850  1.00  0.00     0.167 HD
ATOM     50  C   UNL A   1      40.855  28.085  28.686  1.00  0.00     0.037 A 
ATOM     51  C   UNL A   1      42.145  33.762  32.570  1.00  0.00     0.037 A 
ATOM     52  C   UNL A   1      42.172  28.139  29.265  1.00  0.00     0.049 A 
ATOM     53  C   UNL A   1      43.165  32.669  32.400  1.00  0.00     0.074 A 
ATOM     54  C   UNL A   1      43.209  27.232  29.134  1.00  0.00     0.029 A 
ATOM     55  N   UNL A   1      42.632  29.158  30.084  1.00  0.00    -0.354 N 
ATOM     56  N   UNL A   1      43.085  31.568  31.695  1.00  0.00    -0.248 NA
ATOM     57  C   UNL A   1      44.439  32.836  33.113  1.00  0.00     0.031 C 
ATOM     58  C   UNL A   1      44.285  27.684  29.906  1.00  0.00     0.029 A 
ATOM     59  C   UNL A   1      43.932  28.893  30.482  1.00  0.00     0.049 A 
ATOM     60  H   UNL A   1      42.113  29.952  30.344  1.00  0.00     0.167 HD
ATOM     61  C   UNL A   1      44.306  30.926  31.854  1.00  0.00     0.074 A 
ATOM     62  C   UNL A   1      45.112  31.766  32.715  1.00  0.00     0.031 C 
ATOM     63  C   UNL A   1      44.723  29.745  31.334  1.00  0.00     0.037 A 
BRANCH  50  64
ATOM     64  C   UNL A   1      40.484  26.881  27.870  1.00  0.00     0.057 A 
ATOM     65  C   UNL A   1      40.971  26.692  26.570  1.00  0.00     0.134 A 
ATOM     66  C   UNL A   1      39.655  25.884  28.400  1.00  0.00     0.134 A 
ATOM     67  F   UNL A   1      41.759  27.616  25.999  1.00  0.00    -0.206 F 
ATOM     68  C   UNL A   1      40.628  25.569  25.817  1.00  0.00     0.040 A 
ATOM     69  C   UNL A   1      39.326  24.743  27.666  1.00  0.00     0.040 A 
ATOM     70  F   UNL A   1      39.160  25.997  29.642  1.00  0.00    -0.206 F 
ATOM     71  C   UNL A   1      39.807  24.586  26.368  1.00  0.00     0.006 A 
ENDBRANCH  50  64
BRANCH  51  72
ATOM     72  C   UNL A   1      42.438  34.947  33.414  1.00  0.00     0.057 A 
ATOM     73  C   UNL A   1      43.047  36.083  32.872  1.00  0.00     0.134 A 
ATOM     74  C   UNL A   1      42.121  34.970  34.778  1.00  0.00     0.134 A 
ATOM     75  F   UNL A   1      43.391  36.112  31.576  1.00  0.00    -0.206 F 
ATOM     76  C   UNL A   1      43.348  37.197  33.657  1.00  0.00     0.040 A 
ATOM     77  C   UNL A   1      42.395  36.087  35.570  1.00  0.00     0.040 A 
ATOM     78  F   UNL A   1      41.529  33.915  35.354  1.00  0.00    -0.206 F 
ATOM     79  C   UNL A   1      43.016  37.202  35.011  1.00  0.00     0.006 A 
ENDBRANCH  51  72
BRANCH  63  80
ATOM     80  C   UNL A   1      46.121  29.311  31.656  1.00  0.00     0.057 A 
ATOM     81  C   UNL A   1      46.450  28.730  32.887  1.00  0.00     0.134 A 
ATOM     82  C   UNL A   1      47.143  29.440  30.707  1.00  0.00     0.134 A 
ATOM     83  F   UNL A   1      45.519  28.591  33.843  1.00  0.00    -0.206 F 
ATOM     84  C   UNL A   1      47.751  28.313  33.171  1.00  0.00     0.040 A 
ATOM     85  C   UNL A   1      48.442  29.004  30.970  1.00  0.00     0.040 A 
ATOM     86  F   UNL A   1      46.893  29.981  29.505  1.00  0.00    -0.206 F 
ATOM     87  C   UNL A   1      48.750  28.444  32.208  1.00  0.00     0.006 A 
ENDBRANCH  63  80
ENDBRANCH  37  38
ENDBRANCH  29  32
ENDBRANCH  27  28
ENDBRANCH  26  27
ENDBRANCH  25  26
ENDBRANCH  24  25
ENDBRANCH   1  24
TORSDOF 17
ENDMDL
MODEL 3
REMARK VINA RESULT:     -10.2      2.081      2.798
REMARK SMILES Nc1ccc(Cl)c(SC[C@H]2CC[C@@H](C(=O)NCCCCCCNC(=O)c3ccc(-c4c5nc(c(-c6c(F)cccc6F)c6ccc([nH]6)c(-c6c(F)cccc6F)c6nc(c(-c7c(F)cccc7F)c7ccc4[nH]7)C=C6)C=C5)cc3)O2)c1
REMARK SMILES IDX 18 1 17 2 16 3 14 4 15 5 13 7 10 8 11 9 80 10 12 11 9 12
REMARK SMILES IDX 8 13 7 14 2 15 3 16 81 17 4 18 5 19 6 20 1 21 19 24 20 25
REMARK SMILES IDX 21 26 22 27 23 28 24 29 25 31 26 32 27 33 79 34 28 35 78 36
REMARK SMILES IDX 29 37 30 38 31 39 72 40 32 41 77 42 71 43 73 44 33 45 76 46
REMARK SMILES IDX 70 47 69 48 34 50 60 51 43 52 59 53 44 54 47 55 58 56 74 57
REMARK SMILES IDX 45 58 46 59 57 61 75 62 48 63 35 64 36 65 41 66 37 67 38 68
REMARK SMILES IDX 40 69 42 70 39 71 61 72 62 73 67 74 63 75 64 76 66 77 68 78
REMARK SMILES IDX 65 79 49 80 50 81 55 82 51 83 52 84 54 85 56 86 53 87
REMARK H PARENT 16 6 1 22 1 23 23 30 73 49 47 60
REMARK Flexibility Score: inf
ROOT
ATOM      1  C   UNL A   1      34.647  32.661  29.115  1.00  0.00     0.021 C 
ENDROOT
BRANCH   1   2
ATOM      2  C   UNL A   1      34.464  31.336  28.373  1.00  0.00     0.116 C 
BRANCH   2   3
ATOM      3  N   UNL A   1      33.308  31.376  27.505  1.00  0.00    -0.354 N 
ATOM      4  C   UNL A   1      32.590  30.401  26.886  1.00  0.00     0.249 C 
ATOM      5  O   UNL A   1      31.643  30.799  26.197  1.00  0.00    -0.272 OA
ATOM      6  H   UNL A   1      32.977  32.285  27.328  1.00  0.00     0.163 HD
BRANCH   4   7
ATOM      7  C   UNL A   1      32.842  28.883  27.084  1.00  0.00     0.207 C 
ATOM      8  C   UNL A   1      31.855  27.023  26.014  1.00  0.00     0.129 C 
ATOM      9  C   UNL A   1      33.341  26.766  26.136  1.00  0.00     0.036 C 
ATOM     10  O   UNL A   1      31.610  28.141  26.878  1.00  0.00    -0.364 OA
ATOM     11  C   UNL A   1      33.890  28.162  26.255  1.00  0.00     0.045 C 
BRANCH   8  12
ATOM     12  C   UNL A   1      31.372  27.222  24.554  1.00  0.00     0.107 C 
BRANCH  12  13
ATOM     13  S   UNL A   1      30.333  25.935  23.769  1.00  0.00    -0.122 SA
BRANCH  13  14
ATOM     14  C   UNL A   1      31.362  24.447  23.771  1.00  0.00     0.028 A 
ATOM     15  C   UNL A   1      31.975  22.266  24.723  1.00  0.00     0.033 A 
ATOM     16  C   UNL A   1      32.937  22.103  23.733  1.00  0.00     0.027 A 
ATOM     17  C   UNL A   1      31.246  23.459  24.765  1.00  0.00     0.042 A 
ATOM     18  C   UNL A   1      33.102  23.075  22.746  1.00  0.00     0.024 A 
ATOM     19  C   UNL A   1      32.314  24.233  22.754  1.00  0.00     0.054 A 
ATOM     20  Cl  UNL A   1      32.585  25.362  21.465  1.00  0.00    -0.083 Cl
BRANCH  15  21
ATOM     21  N   UNL A   1      31.838  21.329  25.741  1.00  0.00    -0.399 N 
ATOM     22  H   UNL A   1      32.391  21.399  26.553  1.00  0.00     0.156 HD
ATOM     23  H   UNL A   1      31.188  20.596  25.650  1.00  0.00     0.156 HD
ENDBRANCH  15  21
ENDBRANCH  13  14
ENDBRANCH  12  13
ENDBRANCH   8  12
ENDBRANCH   4   7
ENDBRANCH   2   3
ENDBRANCH   1   2
BRANCH   1  24
ATOM     24  C   UNL A   1      35.301  33.760  28.269  1.00  0.00     0.002 C 
BRANCH  24  25
ATOM     25  C   UNL A   1      34.444  35.013  28.053  1.00  0.00     0.002 C 
BRANCH  25  26
ATOM     26  C   UNL A   1      33.272  35.179  29.024  1.00  0.00     0.021 C 
BRANCH  26  27
ATOM     27  C   UNL A   1      33.308  36.466  29.843  1.00  0.00     0.116 C 
BRANCH  27  28
ATOM     28  N   UNL A   1      32.419  36.399  30.992  1.00  0.00    -0.352 N 
ATOM     29  C   UNL A   1      32.497  35.607  32.109  1.00  0.00     0.251 C 
ATOM     30  H   UNL A   1      31.649  37.011  30.964  1.00  0.00     0.163 HD
ATOM     31  O   UNL A   1      31.541  35.518  32.873  1.00  0.00    -0.269 OA
BRANCH  29  32
ATOM     32  C   UNL A   1      33.735  34.848  32.393  1.00  0.00     0.039 A 
ATOM     33  C   UNL A   1      34.966  35.502  32.293  1.00  0.00     0.014 A 
ATOM     34  C   UNL A   1      33.684  33.492  32.726  1.00  0.00     0.014 A 
ATOM     35  C   UNL A   1      36.144  34.807  32.577  1.00  0.00     0.010 A 
ATOM     36  C   UNL A   1      34.853  32.818  33.071  1.00  0.00     0.010 A 
ATOM     37  C   UNL A   1      36.094  33.468  32.994  1.00  0.00    -0.014 A 
BRANCH  37  38
ATOM     38  C   UNL A   1      37.330  32.728  33.349  1.00  0.00     0.031 A 
ATOM     39  C   UNL A   1      38.058  33.039  34.627  1.00  0.00     0.074 A 
ATOM     40  C   UNL A   1      37.833  31.821  32.489  1.00  0.00     0.049 A 
ATOM     41  N   UNL A   1      39.187  32.552  35.076  1.00  0.00    -0.248 NA
ATOM     42  C   UNL A   1      37.447  34.048  35.506  1.00  0.00     0.031 C 
ATOM     43  C   UNL A   1      37.244  31.463  31.197  1.00  0.00     0.029 A 
ATOM     44  N   UNL A   1      38.960  31.043  32.568  1.00  0.00    -0.354 N 
ATOM     45  C   UNL A   1      39.430  33.205  36.277  1.00  0.00     0.074 A 
ATOM     46  C   UNL A   1      38.356  34.157  36.465  1.00  0.00     0.031 C 
ATOM     47  C   UNL A   1      38.003  30.522  30.614  1.00  0.00     0.029 A 
ATOM     48  C   UNL A   1      39.149  30.236  31.473  1.00  0.00     0.049 A 
ATOM     49  H   UNL A   1      39.575  31.062  33.336  1.00  0.00     0.167 HD
ATOM     50  C   UNL A   1      40.443  33.014  37.155  1.00  0.00     0.037 A 
ATOM     51  C   UNL A   1      40.137  29.367  31.190  1.00  0.00     0.037 A 
ATOM     52  C   UNL A   1      41.495  32.047  36.979  1.00  0.00     0.049 A 
ATOM     53  C   UNL A   1      41.251  29.173  32.181  1.00  0.00     0.074 A 
ATOM     54  C   UNL A   1      42.534  31.737  37.839  1.00  0.00     0.029 A 
ATOM     55  N   UNL A   1      41.641  31.234  35.865  1.00  0.00    -0.354 N 
ATOM     56  N   UNL A   1      41.435  29.754  33.341  1.00  0.00    -0.248 NA
ATOM     57  C   UNL A   1      42.292  28.198  31.825  1.00  0.00     0.031 C 
ATOM     58  C   UNL A   1      43.331  30.763  37.229  1.00  0.00     0.029 A 
ATOM     59  C   UNL A   1      42.764  30.435  36.008  1.00  0.00     0.049 A 
ATOM     60  H   UNL A   1      41.036  31.225  35.089  1.00  0.00     0.167 HD
ATOM     61  C   UNL A   1      42.593  29.196  33.866  1.00  0.00     0.074 A 
ATOM     62  C   UNL A   1      43.064  28.222  32.902  1.00  0.00     0.031 C 
ATOM     63  C   UNL A   1      43.213  29.466  35.041  1.00  0.00     0.037 A 
BRANCH  50  64
ATOM     64  C   UNL A   1      40.457  33.866  38.391  1.00  0.00     0.057 A 
ATOM     65  C   UNL A   1      41.207  35.047  38.463  1.00  0.00     0.134 A 
ATOM     66  C   UNL A   1      39.690  33.518  39.510  1.00  0.00     0.134 A 
ATOM     67  F   UNL A   1      41.973  35.430  37.430  1.00  0.00    -0.206 F 
ATOM     68  C   UNL A   1      41.213  35.838  39.613  1.00  0.00     0.040 A 
ATOM     69  C   UNL A   1      39.668  34.315  40.655  1.00  0.00     0.040 A 
ATOM     70  F   UNL A   1      38.944  32.403  39.505  1.00  0.00    -0.206 F 
ATOM     71  C   UNL A   1      40.437  35.476  40.712  1.00  0.00     0.006 A 
ENDBRANCH  50  64
BRANCH  51  72
ATOM     72  C   UNL A   1      40.106  28.594  29.924  1.00  0.00     0.057 A 
ATOM     73  C   UNL A   1      39.399  27.390  29.833  1.00  0.00     0.134 A 
ATOM     74  C   UNL A   1      40.782  29.034  28.780  1.00  0.00     0.134 A 
ATOM     75  F   UNL A   1      38.746  26.908  30.902  1.00  0.00    -0.206 F 
ATOM     76  C   UNL A   1      39.377  26.641  28.656  1.00  0.00     0.040 A 
ATOM     77  C   UNL A   1      40.750  28.307  27.589  1.00  0.00     0.040 A 
ATOM     78  F   UNL A   1      41.472  30.184  28.801  1.00  0.00    -0.206 F 
ATOM     79  C   UNL A   1      40.051  27.103  27.527  1.00  0.00     0.006 A 
ENDBRANCH  51  72
BRANCH  63  80
ATOM     80  C   UNL A   1      44.445  28.675  35.363  1.00  0.00     0.057 A 
ATOM     81  C   UNL A   1      44.383  27.456  36.049  1.00  0.00     0.134 A 
ATOM     82  C   UNL A   1      45.706  29.120  34.947  1.00  0.00     0.134 A 
ATOM     83  F   UNL A   1      43.206  26.982  36.487  1.00  0.00    -0.206 F 
ATOM     84  C   UNL A   1      45.534  26.718  36.329  1.00  0.00     0.040 A 
ATOM     85  C   UNL A   1      46.861  28.380  35.199  1.00  0.00     0.040 A 
ATOM     86  F   UNL A   1      45.834  30.277  34.278  1.00  0.00    -0.206 F 
ATOM     87  C   UNL A   1      46.777  27.177  35.897  1.00  0.00     0.006 A 
ENDBRANCH  63  80
ENDBRANCH  37  38
ENDBRANCH  29  32
ENDBRANCH  27  28
ENDBRANCH  26  27
ENDBRANCH  25  26
ENDBRANCH  24  25
ENDBRANCH   1  24
TORSDOF 17
ENDMDL
