MODEL 1
REMARK VINA RESULT:     -12.7      0.000      0.000
REMARK SMILES COc1cccc(-c2nn(-c3cc4c(cc3C(N)=O)OCO4)cc2C(=O)NCCCCCCNC(=O)c2ccc(-c3c4nc(c(-c5c(F)cccc5F)c5ccc([nH]5)c(-c5c(F)cccc5F)c5nc(c(-c6c(F)cccc6F)c6ccc3[nH]6)C=C5)C=C4)cc2)c1
REMARK SMILES IDX 30 1 29 2 28 3 27 4 25 5 26 6 24 8 8 9 9 10 10 11 23 12 7 13
REMARK SMILES IDX 3 14 4 15 91 16 5 17 6 18 2 19 1 20 11 21 12 22 16 23 13 24
REMARK SMILES IDX 15 25 14 26 22 27 20 28 21 29 17 30 18 31 19 32 31 35 32 36
REMARK SMILES IDX 33 37 34 38 35 39 36 41 37 42 38 43 90 44 39 45 89 46 40 47
REMARK SMILES IDX 41 48 42 49 83 50 43 51 88 52 82 53 84 54 44 55 87 56 81 57
REMARK SMILES IDX 80 58 45 60 71 61 54 62 70 63 55 64 58 65 69 66 85 67 56 68
REMARK SMILES IDX 57 69 68 71 86 72 59 73 46 74 47 75 52 76 48 77 49 78 51 79
REMARK SMILES IDX 53 80 50 81 72 82 73 83 78 84 74 85 75 86 77 87 79 88 76 89
REMARK SMILES IDX 60 90 61 91 66 92 62 93 63 94 65 95 67 96 64 97
REMARK H PARENT 27 7 18 33 18 34 34 40 84 59 58 70
REMARK Flexibility Score: inf
ROOT
ATOM      1  C   UNL A   1      39.991  22.635  26.539  1.00  0.00     0.002 C 
ENDROOT
BRANCH   1   2
ATOM      2  C   UNL A   1      38.595  23.213  26.283  1.00  0.00     0.021 C 
BRANCH   2   3
ATOM      3  C   UNL A   1      37.601  22.171  25.773  1.00  0.00     0.116 C 
BRANCH   3   4
ATOM      4  N   UNL A   1      37.420  22.307  24.346  1.00  0.00    -0.352 N 
ATOM      5  C   UNL A   1      36.437  22.858  23.570  1.00  0.00     0.255 C 
ATOM      6  O   UNL A   1      36.628  22.786  22.355  1.00  0.00    -0.269 OA
ATOM      7  H   UNL A   1      38.159  21.921  23.821  1.00  0.00     0.163 HD
BRANCH   5   8
ATOM      8  C   UNL A   1      35.276  23.533  24.137  1.00  0.00     0.086 A 
ATOM      9  C   UNL A   1      33.927  23.038  24.231  1.00  0.00     0.106 A 
ATOM     10  N   UNL A   1      33.075  23.993  24.662  1.00  0.00    -0.167 NA
ATOM     11  N   UNL A   1      33.843  25.103  24.690  1.00  0.00    -0.239 N 
ATOM     12  C   UNL A   1      35.175  24.772  24.729  1.00  0.00     0.129 A 
BRANCH   9  13
ATOM     13  C   UNL A   1      33.467  21.684  23.919  1.00  0.00     0.007 A 
ATOM     14  C   UNL A   1      33.344  19.321  24.442  1.00  0.00     0.119 A 
ATOM     15  C   UNL A   1      32.436  19.137  23.395  1.00  0.00     0.046 A 
ATOM     16  C   UNL A   1      33.873  20.589  24.695  1.00  0.00     0.056 A 
ATOM     17  C   UNL A   1      32.038  20.217  22.611  1.00  0.00     0.005 A 
ATOM     18  C   UNL A   1      32.560  21.484  22.867  1.00  0.00     0.011 A 
BRANCH  14  19
ATOM     19  O   UNL A   1      33.692  18.182  25.118  1.00  0.00    -0.497 OA
ATOM     20  C   UNL A   1      32.596  17.361  25.508  1.00  0.00     0.278 C 
ENDBRANCH  14  19
ENDBRANCH   9  13
BRANCH  11  21
ATOM     21  C   UNL A   1      33.332  26.413  24.861  1.00  0.00     0.081 A 
ATOM     22  C   UNL A   1      33.103  26.865  26.174  1.00  0.00     0.079 A 
ATOM     23  C   UNL A   1      33.147  27.285  23.745  1.00  0.00     0.069 A 
ATOM     24  C   UNL A   1      32.782  28.197  26.337  1.00  0.00     0.167 A 
ATOM     25  C   UNL A   1      32.908  28.650  23.976  1.00  0.00     0.066 A 
ATOM     26  C   UNL A   1      32.716  29.064  25.273  1.00  0.00     0.166 A 
ATOM     27  O   UNL A   1      32.514  28.825  27.515  1.00  0.00    -0.454 OA
ATOM     28  O   UNL A   1      32.399  30.333  25.646  1.00  0.00    -0.454 OA
ATOM     29  C   UNL A   1      32.088  30.120  27.038  1.00  0.00     0.468 C 
BRANCH  23  30
ATOM     30  C   UNL A   1      33.008  26.777  22.335  1.00  0.00     0.251 C 
ATOM     31  N   UNL A   1      31.743  26.581  21.846  1.00  0.00    -0.366 N 
ATOM     32  O   UNL A   1      33.948  26.465  21.622  1.00  0.00    -0.269 OA
ATOM     33  H   UNL A   1      30.962  26.822  22.393  1.00  0.00     0.159 HD
ATOM     34  H   UNL A   1      31.618  26.201  20.946  1.00  0.00     0.159 HD
ENDBRANCH  23  30
ENDBRANCH  11  21
ENDBRANCH   5   8
ENDBRANCH   3   4
ENDBRANCH   2   3
ENDBRANCH   1   2
BRANCH   1  35
ATOM     35  C   UNL A   1      40.040  21.116  26.781  1.00  0.00     0.002 C 
BRANCH  35  36
ATOM     36  C   UNL A   1      41.028  20.322  25.912  1.00  0.00     0.021 C 
BRANCH  36  37
ATOM     37  C   UNL A   1      42.297  19.929  26.649  1.00  0.00     0.116 C 
BRANCH  37  38
ATOM     38  N   UNL A   1      43.437  19.780  25.741  1.00  0.00    -0.352 N 
ATOM     39  C   UNL A   1      44.117  20.762  25.055  1.00  0.00     0.251 C 
ATOM     40  H   UNL A   1      43.759  18.860  25.605  1.00  0.00     0.163 HD
ATOM     41  O   UNL A   1      44.797  20.493  24.065  1.00  0.00    -0.269 OA
BRANCH  39  42
ATOM     42  C   UNL A   1      44.025  22.147  25.533  1.00  0.00     0.039 A 
ATOM     43  C   UNL A   1      43.238  23.103  24.885  1.00  0.00     0.014 A 
ATOM     44  C   UNL A   1      44.732  22.466  26.688  1.00  0.00     0.014 A 
ATOM     45  C   UNL A   1      43.117  24.367  25.456  1.00  0.00     0.010 A 
ATOM     46  C   UNL A   1      44.461  23.633  27.343  1.00  0.00     0.010 A 
ATOM     47  C   UNL A   1      43.723  24.616  26.696  1.00  0.00    -0.014 A 
BRANCH  47  48
ATOM     48  C   UNL A   1      43.544  25.877  27.397  1.00  0.00     0.031 A 
ATOM     49  C   UNL A   1      44.506  26.946  27.019  1.00  0.00     0.074 A 
ATOM     50  C   UNL A   1      42.436  26.125  28.130  1.00  0.00     0.049 A 
ATOM     51  N   UNL A   1      45.388  27.507  27.776  1.00  0.00    -0.248 NA
ATOM     52  C   UNL A   1      44.591  27.352  25.607  1.00  0.00     0.031 C 
ATOM     53  C   UNL A   1      41.263  25.264  28.332  1.00  0.00     0.029 A 
ATOM     54  N   UNL A   1      42.066  27.272  28.754  1.00  0.00    -0.354 N 
ATOM     55  C   UNL A   1      46.002  28.482  26.996  1.00  0.00     0.074 A 
ATOM     56  C   UNL A   1      45.607  28.218  25.637  1.00  0.00     0.031 C 
ATOM     57  C   UNL A   1      40.235  26.000  28.805  1.00  0.00     0.029 A 
ATOM     58  C   UNL A   1      40.719  27.335  29.096  1.00  0.00     0.049 A 
ATOM     59  H   UNL A   1      42.699  28.001  28.949  1.00  0.00     0.167 HD
ATOM     60  C   UNL A   1      46.589  29.570  27.568  1.00  0.00     0.037 A 
ATOM     61  C   UNL A   1      40.054  28.428  29.547  1.00  0.00     0.037 A 
ATOM     62  C   UNL A   1      46.780  29.370  28.984  1.00  0.00     0.049 A 
ATOM     63  C   UNL A   1      41.076  29.373  30.068  1.00  0.00     0.074 A 
ATOM     64  C   UNL A   1      47.459  28.438  29.747  1.00  0.00     0.029 A 
ATOM     65  N   UNL A   1      45.888  29.971  29.840  1.00  0.00    -0.354 N 
ATOM     66  N   UNL A   1      41.793  29.143  31.133  1.00  0.00    -0.248 NA
ATOM     67  C   UNL A   1      41.641  30.337  29.134  1.00  0.00     0.031 C 
ATOM     68  C   UNL A   1      46.602  28.178  30.856  1.00  0.00     0.029 A 
ATOM     69  C   UNL A   1      45.496  29.024  30.752  1.00  0.00     0.049 A 
ATOM     70  H   UNL A   1      45.587  30.908  29.807  1.00  0.00     0.167 HD
ATOM     71  C   UNL A   1      43.071  29.565  30.795  1.00  0.00     0.074 A 
ATOM     72  C   UNL A   1      42.898  30.370  29.587  1.00  0.00     0.031 C 
ATOM     73  C   UNL A   1      44.178  28.976  31.341  1.00  0.00     0.037 A 
BRANCH  60  74
ATOM     74  C   UNL A   1      46.650  30.943  26.946  1.00  0.00     0.057 A 
ATOM     75  C   UNL A   1      47.871  31.643  26.953  1.00  0.00     0.134 A 
ATOM     76  C   UNL A   1      45.519  31.715  26.615  1.00  0.00     0.134 A 
ATOM     77  F   UNL A   1      49.020  31.022  27.262  1.00  0.00    -0.206 F 
ATOM     78  C   UNL A   1      47.946  33.024  26.732  1.00  0.00     0.040 A 
ATOM     79  C   UNL A   1      45.591  33.084  26.340  1.00  0.00     0.040 A 
ATOM     80  F   UNL A   1      44.277  31.220  26.639  1.00  0.00    -0.206 F 
ATOM     81  C   UNL A   1      46.802  33.750  26.431  1.00  0.00     0.006 A 
ENDBRANCH  60  74
BRANCH  61  82
ATOM     82  C   UNL A   1      38.651  28.828  29.282  1.00  0.00     0.057 A 
ATOM     83  C   UNL A   1      37.729  28.964  30.330  1.00  0.00     0.134 A 
ATOM     84  C   UNL A   1      38.247  29.352  28.040  1.00  0.00     0.134 A 
ATOM     85  F   UNL A   1      38.030  28.528  31.562  1.00  0.00    -0.206 F 
ATOM     86  C   UNL A   1      36.498  29.615  30.164  1.00  0.00     0.040 A 
ATOM     87  C   UNL A   1      37.019  29.997  27.858  1.00  0.00     0.040 A 
ATOM     88  F   UNL A   1      39.067  29.342  26.979  1.00  0.00    -0.206 F 
ATOM     89  C   UNL A   1      36.146  30.147  28.927  1.00  0.00     0.006 A 
ENDBRANCH  61  82
BRANCH  73  90
ATOM     90  C   UNL A   1      43.977  28.018  32.486  1.00  0.00     0.057 A 
ATOM     91  C   UNL A   1      43.884  26.624  32.346  1.00  0.00     0.134 A 
ATOM     92  C   UNL A   1      44.025  28.512  33.793  1.00  0.00     0.134 A 
ATOM     93  F   UNL A   1      43.943  26.040  31.145  1.00  0.00    -0.206 F 
ATOM     94  C   UNL A   1      43.789  25.770  33.449  1.00  0.00     0.040 A 
ATOM     95  C   UNL A   1      43.966  27.669  34.906  1.00  0.00     0.040 A 
ATOM     96  F   UNL A   1      44.177  29.828  34.013  1.00  0.00    -0.206 F 
ATOM     97  C   UNL A   1      43.834  26.293  34.737  1.00  0.00     0.006 A 
ENDBRANCH  73  90
ENDBRANCH  47  48
ENDBRANCH  39  42
ENDBRANCH  37  38
ENDBRANCH  36  37
ENDBRANCH  35  36
ENDBRANCH   1  35
TORSDOF 17
ENDMDL
MODEL 2
REMARK VINA RESULT:     -12.1      2.707      8.430
REMARK SMILES COc1cccc(-c2nn(-c3cc4c(cc3C(N)=O)OCO4)cc2C(=O)NCCCCCCNC(=O)c2ccc(-c3c4nc(c(-c5c(F)cccc5F)c5ccc([nH]5)c(-c5c(F)cccc5F)c5nc(c(-c6c(F)cccc6F)c6ccc3[nH]6)C=C5)C=C4)cc2)c1
REMARK SMILES IDX 30 1 29 2 28 3 27 4 25 5 26 6 24 8 8 9 9 10 10 11 23 12 7 13
REMARK SMILES IDX 3 14 4 15 91 16 5 17 6 18 2 19 1 20 11 21 12 22 16 23 13 24
REMARK SMILES IDX 15 25 14 26 22 27 20 28 21 29 17 30 18 31 19 32 31 35 32 36
REMARK SMILES IDX 33 37 34 38 35 39 36 41 37 42 38 43 90 44 39 45 89 46 40 47
REMARK SMILES IDX 41 48 42 49 83 50 43 51 88 52 82 53 84 54 44 55 87 56 81 57
REMARK SMILES IDX 80 58 45 60 71 61 54 62 70 63 55 64 58 65 69 66 85 67 56 68
REMARK SMILES IDX 57 69 68 71 86 72 59 73 46 74 47 75 52 76 48 77 49 78 51 79
REMARK SMILES IDX 53 80 50 81 72 82 73 83 78 84 74 85 75 86 77 87 79 88 76 89
REMARK SMILES IDX 60 90 61 91 66 92 62 93 63 94 65 95 67 96 64 97
REMARK H PARENT 27 7 18 33 18 34 34 40 84 59 58 70
REMARK Flexibility Score: inf
ROOT
ATOM      1  C   UNL A   1      31.995  29.772  25.709  1.00  0.00     0.002 C 
ENDROOT
BRANCH   1   2
ATOM      2  C   UNL A   1      31.852  28.251  25.839  1.00  0.00     0.021 C 
BRANCH   2   3
ATOM      3  C   UNL A   1      33.162  27.505  25.592  1.00  0.00     0.116 C 
BRANCH   3   4
ATOM      4  N   UNL A   1      33.594  27.689  24.225  1.00  0.00    -0.352 N 
ATOM      5  C   UNL A   1      33.413  26.969  23.075  1.00  0.00     0.255 C 
ATOM      6  O   UNL A   1      33.944  27.445  22.071  1.00  0.00    -0.269 OA
ATOM      7  H   UNL A   1      34.133  28.502  24.093  1.00  0.00     0.163 HD
BRANCH   5   8
ATOM      8  C   UNL A   1      32.602  25.758  23.028  1.00  0.00     0.086 A 
ATOM      9  C   UNL A   1      31.168  25.654  23.102  1.00  0.00     0.106 A 
ATOM     10  N   UNL A   1      30.766  24.367  23.195  1.00  0.00    -0.167 NA
ATOM     11  N   UNL A   1      31.926  23.690  23.332  1.00  0.00    -0.239 N 
ATOM     12  C   UNL A   1      32.985  24.443  22.886  1.00  0.00     0.129 A 
BRANCH   9  13
ATOM     13  C   UNL A   1      30.207  26.757  23.080  1.00  0.00     0.007 A 
ATOM     14  C   UNL A   1      29.468  28.900  22.222  1.00  0.00     0.119 A 
ATOM     15  C   UNL A   1      28.271  28.771  22.933  1.00  0.00     0.046 A 
ATOM     16  C   UNL A   1      30.443  27.902  22.307  1.00  0.00     0.056 A 
ATOM     17  C   UNL A   1      28.035  27.642  23.713  1.00  0.00     0.005 A 
ATOM     18  C   UNL A   1      29.004  26.644  23.794  1.00  0.00     0.011 A 
BRANCH  14  19
ATOM     19  O   UNL A   1      29.606  30.068  21.521  1.00  0.00    -0.497 OA
ATOM     20  C   UNL A   1      28.385  30.736  21.226  1.00  0.00     0.278 C 
ENDBRANCH  14  19
ENDBRANCH   9  13
BRANCH  11  21
ATOM     21  C   UNL A   1      32.005  22.324  23.696  1.00  0.00     0.081 A 
ATOM     22  C   UNL A   1      32.016  21.367  22.664  1.00  0.00     0.079 A 
ATOM     23  C   UNL A   1      32.168  21.930  25.059  1.00  0.00     0.069 A 
ATOM     24  C   UNL A   1      32.277  20.059  23.017  1.00  0.00     0.167 A 
ATOM     25  C   UNL A   1      32.518  20.601  25.351  1.00  0.00     0.066 A 
ATOM     26  C   UNL A   1      32.547  19.697  24.315  1.00  0.00     0.166 A 
ATOM     27  O   UNL A   1      32.321  18.989  22.177  1.00  0.00    -0.454 OA
ATOM     28  O   UNL A   1      32.790  18.366  24.451  1.00  0.00    -0.454 OA
ATOM     29  C   UNL A   1      32.454  17.908  23.125  1.00  0.00     0.468 C 
BRANCH  23  30
ATOM     30  C   UNL A   1      31.796  22.826  26.210  1.00  0.00     0.251 C 
ATOM     31  N   UNL A   1      30.561  22.658  26.781  1.00  0.00    -0.366 N 
ATOM     32  O   UNL A   1      32.495  23.737  26.625  1.00  0.00    -0.269 OA
ATOM     33  H   UNL A   1      29.971  21.934  26.472  1.00  0.00     0.159 HD
ATOM     34  H   UNL A   1      30.266  23.261  27.501  1.00  0.00     0.159 HD
ENDBRANCH  23  30
ENDBRANCH  11  21
ENDBRANCH   5   8
ENDBRANCH   3   4
ENDBRANCH   2   3
ENDBRANCH   1   2
BRANCH   1  35
ATOM     35  C   UNL A   1      32.510  30.494  26.966  1.00  0.00     0.002 C 
BRANCH  35  36
ATOM     36  C   UNL A   1      33.928  30.124  27.428  1.00  0.00     0.021 C 
BRANCH  36  37
ATOM     37  C   UNL A   1      34.853  31.323  27.549  1.00  0.00     0.116 C 
BRANCH  37  38
ATOM     38  N   UNL A   1      34.572  32.115  28.748  1.00  0.00    -0.352 N 
ATOM     39  C   UNL A   1      35.077  31.951  30.020  1.00  0.00     0.251 C 
ATOM     40  H   UNL A   1      33.942  32.862  28.631  1.00  0.00     0.163 HD
ATOM     41  O   UNL A   1      34.505  32.429  30.999  1.00  0.00    -0.269 OA
BRANCH  39  42
ATOM     42  C   UNL A   1      36.327  31.200  30.188  1.00  0.00     0.039 A 
ATOM     43  C   UNL A   1      36.346  29.805  30.277  1.00  0.00     0.014 A 
ATOM     44  C   UNL A   1      37.508  31.935  30.223  1.00  0.00     0.014 A 
ATOM     45  C   UNL A   1      37.576  29.155  30.330  1.00  0.00     0.010 A 
ATOM     46  C   UNL A   1      38.705  31.293  30.082  1.00  0.00     0.010 A 
ATOM     47  C   UNL A   1      38.751  29.911  30.217  1.00  0.00    -0.014 A 
BRANCH  47  48
ATOM     48  C   UNL A   1      40.062  29.284  30.155  1.00  0.00     0.031 A 
ATOM     49  C   UNL A   1      40.721  29.079  31.472  1.00  0.00     0.074 A 
ATOM     50  C   UNL A   1      40.514  28.707  29.020  1.00  0.00     0.049 A 
ATOM     51  N   UNL A   1      41.820  29.612  31.888  1.00  0.00    -0.248 NA
ATOM     52  C   UNL A   1      40.017  28.293  32.498  1.00  0.00     0.031 C 
ATOM     53  C   UNL A   1      39.828  28.571  27.728  1.00  0.00     0.029 A 
ATOM     54  N   UNL A   1      41.654  27.996  28.821  1.00  0.00    -0.354 N 
ATOM     55  C   UNL A   1      42.059  29.072  33.148  1.00  0.00     0.074 A 
ATOM     56  C   UNL A   1      40.838  28.420  33.543  1.00  0.00     0.031 C 
ATOM     57  C   UNL A   1      40.444  27.628  26.984  1.00  0.00     0.029 A 
ATOM     58  C   UNL A   1      41.655  27.219  27.668  1.00  0.00     0.049 A 
ATOM     59  H   UNL A   1      42.418  28.028  29.442  1.00  0.00     0.167 HD
ATOM     60  C   UNL A   1      43.321  29.003  33.653  1.00  0.00     0.037 A 
ATOM     61  C   UNL A   1      42.574  26.278  27.333  1.00  0.00     0.037 A 
ATOM     62  C   UNL A   1      44.226  29.840  32.903  1.00  0.00     0.049 A 
ATOM     63  C   UNL A   1      43.795  26.561  28.130  1.00  0.00     0.074 A 
ATOM     64  C   UNL A   1      44.276  31.191  32.610  1.00  0.00     0.029 A 
ATOM     65  N   UNL A   1      45.049  29.232  31.986  1.00  0.00    -0.354 N 
ATOM     66  N   UNL A   1      44.541  27.617  27.953  1.00  0.00    -0.248 NA
ATOM     67  C   UNL A   1      43.907  25.933  29.439  1.00  0.00     0.031 C 
ATOM     68  C   UNL A   1      44.702  31.254  31.250  1.00  0.00     0.029 A 
ATOM     69  C   UNL A   1      44.969  29.953  30.822  1.00  0.00     0.049 A 
ATOM     70  H   UNL A   1      45.597  28.426  32.137  1.00  0.00     0.167 HD
ATOM     71  C   UNL A   1      44.857  28.044  29.235  1.00  0.00     0.074 A 
ATOM     72  C   UNL A   1      44.513  26.920  30.106  1.00  0.00     0.031 C 
ATOM     73  C   UNL A   1      45.075  29.366  29.506  1.00  0.00     0.037 A 
BRANCH  60  74
ATOM     74  C   UNL A   1      43.826  27.915  34.569  1.00  0.00     0.057 A 
ATOM     75  C   UNL A   1      44.469  28.273  35.767  1.00  0.00     0.134 A 
ATOM     76  C   UNL A   1      43.970  26.565  34.192  1.00  0.00     0.134 A 
ATOM     77  F   UNL A   1      44.414  29.532  36.229  1.00  0.00    -0.206 F 
ATOM     78  C   UNL A   1      45.266  27.376  36.489  1.00  0.00     0.040 A 
ATOM     79  C   UNL A   1      44.720  25.648  34.935  1.00  0.00     0.040 A 
ATOM     80  F   UNL A   1      43.486  26.082  33.042  1.00  0.00    -0.206 F 
ATOM     81  C   UNL A   1      45.400  26.060  36.069  1.00  0.00     0.006 A 
ENDBRANCH  60  74
BRANCH  61  82
ATOM     82  C   UNL A   1      42.363  24.998  26.614  1.00  0.00     0.057 A 
ATOM     83  C   UNL A   1      43.114  24.679  25.474  1.00  0.00     0.134 A 
ATOM     84  C   UNL A   1      41.624  23.940  27.176  1.00  0.00     0.134 A 
ATOM     85  F   UNL A   1      43.879  25.607  24.882  1.00  0.00    -0.206 F 
ATOM     86  C   UNL A   1      43.159  23.379  24.947  1.00  0.00     0.040 A 
ATOM     87  C   UNL A   1      41.652  22.642  26.656  1.00  0.00     0.040 A 
ATOM     88  F   UNL A   1      40.919  24.105  28.305  1.00  0.00    -0.206 F 
ATOM     89  C   UNL A   1      42.437  22.353  25.548  1.00  0.00     0.006 A 
ENDBRANCH  61  82
BRANCH  73  90
ATOM     90  C   UNL A   1      45.193  30.316  28.343  1.00  0.00     0.057 A 
ATOM     91  C   UNL A   1      44.111  31.005  27.770  1.00  0.00     0.134 A 
ATOM     92  C   UNL A   1      46.467  30.660  27.881  1.00  0.00     0.134 A 
ATOM     93  F   UNL A   1      42.863  30.834  28.216  1.00  0.00    -0.206 F 
ATOM     94  C   UNL A   1      44.285  31.945  26.750  1.00  0.00     0.040 A 
ATOM     95  C   UNL A   1      46.659  31.623  26.887  1.00  0.00     0.040 A 
ATOM     96  F   UNL A   1      47.557  30.094  28.422  1.00  0.00    -0.206 F 
ATOM     97  C   UNL A   1      45.564  32.260  26.307  1.00  0.00     0.006 A 
ENDBRANCH  73  90
ENDBRANCH  47  48
ENDBRANCH  39  42
ENDBRANCH  37  38
ENDBRANCH  36  37
ENDBRANCH  35  36
ENDBRANCH   1  35
TORSDOF 17
ENDMDL
MODEL 3
REMARK VINA RESULT:     -12.1      3.523      9.066
REMARK SMILES COc1cccc(-c2nn(-c3cc4c(cc3C(N)=O)OCO4)cc2C(=O)NCCCCCCNC(=O)c2ccc(-c3c4nc(c(-c5c(F)cccc5F)c5ccc([nH]5)c(-c5c(F)cccc5F)c5nc(c(-c6c(F)cccc6F)c6ccc3[nH]6)C=C5)C=C4)cc2)c1
REMARK SMILES IDX 30 1 29 2 28 3 27 4 25 5 26 6 24 8 8 9 9 10 10 11 23 12 7 13
REMARK SMILES IDX 3 14 4 15 91 16 5 17 6 18 2 19 1 20 11 21 12 22 16 23 13 24
REMARK SMILES IDX 15 25 14 26 22 27 20 28 21 29 17 30 18 31 19 32 31 35 32 36
REMARK SMILES IDX 33 37 34 38 35 39 36 41 37 42 38 43 90 44 39 45 89 46 40 47
REMARK SMILES IDX 41 48 42 49 83 50 43 51 88 52 82 53 84 54 44 55 87 56 81 57
REMARK SMILES IDX 80 58 45 60 71 61 54 62 70 63 55 64 58 65 69 66 85 67 56 68
REMARK SMILES IDX 57 69 68 71 86 72 59 73 46 74 47 75 52 76 48 77 49 78 51 79
REMARK SMILES IDX 53 80 50 81 72 82 73 83 78 84 74 85 75 86 77 87 79 88 76 89
REMARK SMILES IDX 60 90 61 91 66 92 62 93 63 94 65 95 67 96 64 97
REMARK H PARENT 27 7 18 33 18 34 34 40 84 59 58 70
REMARK Flexibility Score: inf
ROOT
ATOM      1  C   UNL A   1      32.267  29.205  26.423  1.00  0.00     0.002 C 
ENDROOT
BRANCH   1   2
ATOM      2  C   UNL A   1      33.668  28.772  25.975  1.00  0.00     0.021 C 
BRANCH   2   3
ATOM      3  C   UNL A   1      33.682  27.399  25.305  1.00  0.00     0.116 C 
BRANCH   3   4
ATOM      4  N   UNL A   1      33.889  27.537  23.882  1.00  0.00    -0.352 N 
ATOM      5  C   UNL A   1      33.532  26.777  22.801  1.00  0.00     0.255 C 
ATOM      6  O   UNL A   1      33.892  27.220  21.709  1.00  0.00    -0.269 OA
ATOM      7  H   UNL A   1      34.392  28.347  23.638  1.00  0.00     0.163 HD
BRANCH   5   8
ATOM      8  C   UNL A   1      32.734  25.564  22.924  1.00  0.00     0.086 A 
ATOM      9  C   UNL A   1      31.316  25.460  23.148  1.00  0.00     0.106 A 
ATOM     10  N   UNL A   1      30.939  24.182  23.375  1.00  0.00    -0.167 NA
ATOM     11  N   UNL A   1      32.115  23.522  23.447  1.00  0.00    -0.239 N 
ATOM     12  C   UNL A   1      33.115  24.243  22.843  1.00  0.00     0.129 A 
BRANCH   9  13
ATOM     13  C   UNL A   1      30.344  26.555  23.139  1.00  0.00     0.007 A 
ATOM     14  C   UNL A   1      29.599  28.712  22.325  1.00  0.00     0.119 A 
ATOM     15  C   UNL A   1      28.392  28.554  23.014  1.00  0.00     0.046 A 
ATOM     16  C   UNL A   1      30.582  27.721  22.399  1.00  0.00     0.056 A 
ATOM     17  C   UNL A   1      28.155  27.404  23.761  1.00  0.00     0.005 A 
ATOM     18  C   UNL A   1      29.132  26.412  23.832  1.00  0.00     0.011 A 
BRANCH  14  19
ATOM     19  O   UNL A   1      29.737  29.899  21.656  1.00  0.00    -0.497 OA
ATOM     20  C   UNL A   1      28.513  30.558  21.351  1.00  0.00     0.278 C 
ENDBRANCH  14  19
ENDBRANCH   9  13
BRANCH  11  21
ATOM     21  C   UNL A   1      32.244  22.187  23.902  1.00  0.00     0.081 A 
ATOM     22  C   UNL A   1      32.087  21.152  22.961  1.00  0.00     0.079 A 
ATOM     23  C   UNL A   1      32.620  21.899  25.250  1.00  0.00     0.069 A 
ATOM     24  C   UNL A   1      32.395  19.871  23.372  1.00  0.00     0.167 A 
ATOM     25  C   UNL A   1      33.005  20.591  25.587  1.00  0.00     0.066 A 
ATOM     26  C   UNL A   1      32.866  19.608  24.636  1.00  0.00     0.166 A 
ATOM     27  O   UNL A   1      32.300  18.738  22.624  1.00  0.00    -0.454 OA
ATOM     28  O   UNL A   1      33.122  18.288  24.838  1.00  0.00    -0.454 OA
ATOM     29  C   UNL A   1      32.578  17.733  23.622  1.00  0.00     0.468 C 
BRANCH  23  30
ATOM     30  C   UNL A   1      32.438  22.888  26.369  1.00  0.00     0.251 C 
ATOM     31  N   UNL A   1      31.174  23.357  26.613  1.00  0.00    -0.366 N 
ATOM     32  O   UNL A   1      33.354  23.351  27.031  1.00  0.00    -0.269 OA
ATOM     33  H   UNL A   1      30.412  23.007  26.098  1.00  0.00     0.159 HD
ATOM     34  H   UNL A   1      31.029  24.043  27.303  1.00  0.00     0.159 HD
ENDBRANCH  23  30
ENDBRANCH  11  21
ENDBRANCH   5   8
ENDBRANCH   3   4
ENDBRANCH   2   3
ENDBRANCH   1   2
BRANCH   1  35
ATOM     35  C   UNL A   1      31.614  30.307  25.570  1.00  0.00     0.002 C 
BRANCH  35  36
ATOM     36  C   UNL A   1      31.264  31.612  26.302  1.00  0.00     0.021 C 
BRANCH  36  37
ATOM     37  C   UNL A   1      32.416  32.174  27.117  1.00  0.00     0.116 C 
BRANCH  37  38
ATOM     38  N   UNL A   1      32.230  33.593  27.429  1.00  0.00    -0.352 N 
ATOM     39  C   UNL A   1      32.905  34.361  28.351  1.00  0.00     0.251 C 
ATOM     40  H   UNL A   1      31.533  34.058  26.912  1.00  0.00     0.163 HD
ATOM     41  O   UNL A   1      32.428  35.413  28.776  1.00  0.00    -0.269 OA
BRANCH  39  42
ATOM     42  C   UNL A   1      34.222  33.907  28.817  1.00  0.00     0.039 A 
ATOM     43  C   UNL A   1      34.386  33.233  30.030  1.00  0.00     0.014 A 
ATOM     44  C   UNL A   1      35.306  34.145  27.979  1.00  0.00     0.014 A 
ATOM     45  C   UNL A   1      35.646  32.740  30.356  1.00  0.00     0.010 A 
ATOM     46  C   UNL A   1      36.488  33.500  28.207  1.00  0.00     0.010 A 
ATOM     47  C   UNL A   1      36.689  32.867  29.427  1.00  0.00    -0.014 A 
BRANCH  47  48
ATOM     48  C   UNL A   1      37.998  32.279  29.660  1.00  0.00     0.031 A 
ATOM     49  C   UNL A   1      38.139  30.869  29.207  1.00  0.00     0.074 A 
ATOM     50  C   UNL A   1      39.058  33.036  30.014  1.00  0.00     0.049 A 
ATOM     51  N   UNL A   1      38.368  29.832  29.941  1.00  0.00    -0.248 NA
ATOM     52  C   UNL A   1      37.869  30.550  27.796  1.00  0.00     0.031 C 
ATOM     53  C   UNL A   1      39.121  34.493  30.194  1.00  0.00     0.029 A 
ATOM     54  N   UNL A   1      40.357  32.668  30.167  1.00  0.00    -0.354 N 
ATOM     55  C   UNL A   1      38.477  28.756  29.065  1.00  0.00     0.074 A 
ATOM     56  C   UNL A   1      37.983  29.220  27.795  1.00  0.00     0.031 C 
ATOM     57  C   UNL A   1      40.409  34.897  30.180  1.00  0.00     0.029 A 
ATOM     58  C   UNL A   1      41.261  33.725  30.160  1.00  0.00     0.049 A 
ATOM     59  H   UNL A   1      40.635  31.729  30.272  1.00  0.00     0.167 HD
ATOM     60  C   UNL A   1      39.192  27.648  29.403  1.00  0.00     0.037 A 
ATOM     61  C   UNL A   1      42.613  33.626  30.101  1.00  0.00     0.037 A 
ATOM     62  C   UNL A   1      39.470  27.622  30.818  1.00  0.00     0.049 A 
ATOM     63  C   UNL A   1      42.966  32.249  30.532  1.00  0.00     0.074 A 
ATOM     64  C   UNL A   1      38.686  27.625  31.958  1.00  0.00     0.029 A 
ATOM     65  N   UNL A   1      40.725  27.998  31.231  1.00  0.00    -0.354 N 
ATOM     66  N   UNL A   1      42.804  31.812  31.751  1.00  0.00    -0.248 NA
ATOM     67  C   UNL A   1      43.035  31.217  29.506  1.00  0.00     0.031 C 
ATOM     68  C   UNL A   1      39.371  28.481  32.870  1.00  0.00     0.029 A 
ATOM     69  C   UNL A   1      40.567  28.880  32.271  1.00  0.00     0.049 A 
ATOM     70  H   UNL A   1      41.581  27.693  30.851  1.00  0.00     0.167 HD
ATOM     71  C   UNL A   1      42.303  30.526  31.601  1.00  0.00     0.074 A 
ATOM     72  C   UNL A   1      42.550  30.183  30.200  1.00  0.00     0.031 C 
ATOM     73  C   UNL A   1      41.465  29.980  32.533  1.00  0.00     0.037 A 
BRANCH  60  74
ATOM     74  C   UNL A   1      39.960  26.787  28.430  1.00  0.00     0.057 A 
ATOM     75  C   UNL A   1      39.719  25.401  28.405  1.00  0.00     0.134 A 
ATOM     76  C   UNL A   1      41.114  27.206  27.739  1.00  0.00     0.134 A 
ATOM     77  F   UNL A   1      38.657  24.875  29.034  1.00  0.00    -0.206 F 
ATOM     78  C   UNL A   1      40.606  24.495  27.811  1.00  0.00     0.040 A 
ATOM     79  C   UNL A   1      41.978  26.314  27.097  1.00  0.00     0.040 A 
ATOM     80  F   UNL A   1      41.526  28.479  27.732  1.00  0.00    -0.206 F 
ATOM     81  C   UNL A   1      41.745  24.951  27.161  1.00  0.00     0.006 A 
ENDBRANCH  60  74
BRANCH  61  82
ATOM     82  C   UNL A   1      43.574  34.525  29.418  1.00  0.00     0.057 A 
ATOM     83  C   UNL A   1      43.805  34.419  28.039  1.00  0.00     0.134 A 
ATOM     84  C   UNL A   1      44.081  35.683  30.037  1.00  0.00     0.134 A 
ATOM     85  F   UNL A   1      43.334  33.371  27.349  1.00  0.00    -0.206 F 
ATOM     86  C   UNL A   1      44.467  35.420  27.312  1.00  0.00     0.040 A 
ATOM     87  C   UNL A   1      44.750  36.685  29.326  1.00  0.00     0.040 A 
ATOM     88  F   UNL A   1      43.867  35.929  31.337  1.00  0.00    -0.206 F 
ATOM     89  C   UNL A   1      44.929  36.565  27.955  1.00  0.00     0.006 A 
ENDBRANCH  61  82
BRANCH  73  90
ATOM     90  C   UNL A   1      41.282  30.714  33.835  1.00  0.00     0.057 A 
ATOM     91  C   UNL A   1      40.285  31.675  34.070  1.00  0.00     0.134 A 
ATOM     92  C   UNL A   1      42.051  30.329  34.939  1.00  0.00     0.134 A 
ATOM     93  F   UNL A   1      39.424  32.032  33.113  1.00  0.00    -0.206 F 
ATOM     94  C   UNL A   1      40.100  32.263  35.325  1.00  0.00     0.040 A 
ATOM     95  C   UNL A   1      41.853  30.882  36.207  1.00  0.00     0.040 A 
ATOM     96  F   UNL A   1      42.981  29.370  34.812  1.00  0.00    -0.206 F 
ATOM     97  C   UNL A   1      40.884  31.863  36.401  1.00  0.00     0.006 A 
ENDBRANCH  73  90
ENDBRANCH  47  48
ENDBRANCH  39  42
ENDBRANCH  37  38
ENDBRANCH  36  37
ENDBRANCH  35  36
ENDBRANCH   1  35
TORSDOF 17
ENDMDL
