MODEL 1
REMARK VINA RESULT:     -12.2      0.000      0.000
REMARK SMILES C=C[C@@H]1[C@@H](O)C[C@@H]2[C@@]3(CC[C@@]4(C)[C@@H]([C@H](C)CCC=C(C)C)CC[C@@]24C)C[C@@]13CCC(=O)NCCCCCCNC(=O)c1ccc(-c2c3nc(c(-c4c(F)cccc4F)c4ccc([nH]4)c(-c4c(F)cccc4F)c4nc(c(-c5c(F)cccc5F)c5ccc2[nH]5)C=C4)C=C3)cc1
REMARK SMILES IDX 33 1 32 2 30 3 31 4 29 6 28 7 27 8 3 9 4 10 6 11 8 12 26 13
REMARK SMILES IDX 7 14 9 15 24 16 10 17 11 18 23 19 25 20 12 21 13 22 22 23
REMARK SMILES IDX 2 24 1 25 5 26 14 28 15 29 16 30 17 31 18 32 19 33 20 34
REMARK SMILES IDX 21 35 34 36 35 37 36 38 37 39 38 40 39 41 40 42 41 44 42 45
REMARK SMILES IDX 43 46 95 47 44 48 94 49 45 50 46 51 47 52 88 53 48 54 93 55
REMARK SMILES IDX 87 56 89 57 49 58 92 59 86 60 85 61 50 63 76 64 59 65 75 66
REMARK SMILES IDX 60 67 63 68 74 69 90 70 61 71 62 72 73 74 91 75 64 76 51 77
REMARK SMILES IDX 52 78 57 79 53 80 54 81 56 82 58 83 55 84 77 85 78 86 83 87
REMARK SMILES IDX 79 88 80 89 82 90 84 91 81 92 65 93 66 94 71 95 67 96 68 97
REMARK SMILES IDX 70 98 72 99 69 100
REMARK H PARENT 32 5 5 27 39 43 89 62 63 73
REMARK Flexibility Score: inf
ROOT
ATOM      1  C   UNL A   1      38.423  20.868  25.489  1.00  0.00     0.116 C 
ENDROOT
BRANCH   1   2
ATOM      2  N   UNL A   1      37.806  21.425  24.160  1.00  0.00    -0.356 N 
ATOM      3  C   UNL A   1      36.921  22.347  23.738  1.00  0.00     0.220 C 
ATOM      4  O   UNL A   1      36.904  22.601  22.529  1.00  0.00    -0.275 OA
ATOM      5  H   UNL A   1      38.190  20.950  23.386  1.00  0.00     0.163 HD
BRANCH   3   6
ATOM      6  C   UNL A   1      36.055  23.093  24.683  1.00  0.00     0.100 C 
BRANCH   6   7
ATOM      7  C   UNL A   1      34.599  22.687  24.700  1.00  0.00     0.018 C 
BRANCH   7   8
ATOM      8  C   UNL A   1      33.697  23.393  25.726  1.00  0.00    -0.014 C 
ATOM      9  C   UNL A   1      32.104  22.383  26.008  1.00  0.00     0.047 C 
ATOM     10  C   UNL A   1      30.455  23.326  26.249  1.00  0.00     0.122 C 
ATOM     11  C   UNL A   1      30.340  25.256  26.251  1.00  0.00     0.037 C 
ATOM     12  C   UNL A   1      33.738  25.312  26.009  1.00  0.00    -0.019 C 
ATOM     13  C   UNL A   1      34.475  24.082  26.800  1.00  0.00     0.016 C 
ATOM     14  C   UNL A   1      32.018  26.317  26.048  1.00  0.00     0.005 C 
ATOM     15  C   UNL A   1      34.793  26.237  25.461  1.00  0.00     0.008 C 
ATOM     16  C   UNL A   1      31.984  27.818  26.577  1.00  0.00    -0.023 C 
ATOM     17  C   UNL A   1      34.751  27.505  26.258  1.00  0.00     0.008 C 
ATOM     18  C   UNL A   1      33.457  28.390  26.275  1.00  0.00    -0.024 C 
ATOM     19  C   UNL A   1      31.242  29.162  26.021  1.00  0.00     0.008 C 
ATOM     20  C   UNL A   1      30.778  27.603  27.534  1.00  0.00     0.012 C 
ATOM     21  C   UNL A   1      33.955  29.546  27.238  1.00  0.00     0.012 C 
ATOM     22  C   UNL A   1      33.205  29.043  24.780  1.00  0.00    -0.002 C 
ATOM     23  C   UNL A   1      32.107  30.006  25.113  1.00  0.00     0.005 C 
BRANCH   9  24
ATOM     24  C   UNL A   1      31.799  21.290  24.923  1.00  0.00    -0.028 C 
ATOM     25  C   UNL A   1      32.257  20.027  24.819  1.00  0.00     0.004 C 
ENDBRANCH   9  24
BRANCH  10  26
ATOM     26  O   UNL A   1      29.843  22.802  27.444  1.00  0.00    -0.392 OA
ATOM     27  H   UNL A   1      28.889  22.973  27.419  1.00  0.00     0.210 HD
ENDBRANCH  10  26
BRANCH  22  28
ATOM     28  C   UNL A   1      32.715  28.206  23.467  1.00  0.00    -0.010 C 
ATOM     29  C   UNL A   1      33.968  27.721  22.711  1.00  0.00     0.008 C 
BRANCH  28  30
ATOM     30  C   UNL A   1      31.687  28.920  22.418  1.00  0.00     0.008 C 
BRANCH  30  31
ATOM     31  C   UNL A   1      30.112  28.800  22.410  1.00  0.00     0.027 C 
BRANCH  31  32
ATOM     32  C   UNL A   1      29.188  29.950  22.858  1.00  0.00    -0.028 C 
ATOM     33  C   UNL A   1      27.890  29.996  23.260  1.00  0.00    -0.080 C 
ATOM     34  C   UNL A   1      27.236  31.289  23.727  1.00  0.00     0.039 C 
ATOM     35  C   UNL A   1      26.931  28.840  23.313  1.00  0.00     0.039 C 
ENDBRANCH  31  32
ENDBRANCH  30  31
ENDBRANCH  28  30
ENDBRANCH  22  28
ENDBRANCH   7   8
ENDBRANCH   6   7
ENDBRANCH   3   6
ENDBRANCH   1   2
BRANCH   1  36
ATOM     36  C   UNL A   1      40.270  20.925  26.481  1.00  0.00     0.021 C 
BRANCH  36  37
ATOM     37  C   UNL A   1      42.093  21.215  26.187  1.00  0.00     0.002 C 
BRANCH  37  38
ATOM     38  C   UNL A   1      43.334  22.298  26.107  1.00  0.00     0.002 C 
BRANCH  38  39
ATOM     39  C   UNL A   1      43.712  23.803  25.800  1.00  0.00     0.021 C 
BRANCH  39  40
ATOM     40  C   UNL A   1      42.761  24.939  26.104  1.00  0.00     0.116 C 
BRANCH  40  41
ATOM     41  N   UNL A   1      41.395  24.572  25.674  1.00  0.00    -0.352 N 
ATOM     42  C   UNL A   1      40.213  24.901  26.275  1.00  0.00     0.251 C 
ATOM     43  H   UNL A   1      41.329  24.027  24.857  1.00  0.00     0.163 HD
ATOM     44  O   UNL A   1      39.149  24.330  25.986  1.00  0.00    -0.269 OA
BRANCH  42  45
ATOM     45  C   UNL A   1      40.241  25.963  27.278  1.00  0.00     0.039 A 
ATOM     46  C   UNL A   1      40.786  27.213  26.989  1.00  0.00     0.014 A 
ATOM     47  C   UNL A   1      39.624  25.703  28.505  1.00  0.00     0.014 A 
ATOM     48  C   UNL A   1      40.694  28.215  27.948  1.00  0.00     0.010 A 
ATOM     49  C   UNL A   1      39.406  26.733  29.390  1.00  0.00     0.010 A 
ATOM     50  C   UNL A   1      40.003  27.974  29.148  1.00  0.00    -0.014 A 
BRANCH  50  51
ATOM     51  C   UNL A   1      40.024  28.952  30.251  1.00  0.00     0.031 A 
ATOM     52  C   UNL A   1      38.995  30.049  30.247  1.00  0.00     0.074 A 
ATOM     53  C   UNL A   1      40.965  28.863  31.205  1.00  0.00     0.049 A 
ATOM     54  N   UNL A   1      38.840  31.040  31.084  1.00  0.00    -0.248 NA
ATOM     55  C   UNL A   1      38.034  30.064  29.126  1.00  0.00     0.031 C 
ATOM     56  C   UNL A   1      42.036  27.865  31.252  1.00  0.00     0.029 A 
ATOM     57  N   UNL A   1      41.166  29.624  32.323  1.00  0.00    -0.354 N 
ATOM     58  C   UNL A   1      37.788  31.793  30.578  1.00  0.00     0.074 A 
ATOM     59  C   UNL A   1      37.401  31.208  29.318  1.00  0.00     0.031 C 
ATOM     60  C   UNL A   1      42.755  28.049  32.372  1.00  0.00     0.029 A 
ATOM     61  C   UNL A   1      42.217  29.195  33.095  1.00  0.00     0.049 A 
ATOM     62  H   UNL A   1      40.610  30.404  32.552  1.00  0.00     0.167 HD
ATOM     63  C   UNL A   1      37.166  32.851  31.140  1.00  0.00     0.037 A 
ATOM     64  C   UNL A   1      42.676  29.682  34.261  1.00  0.00     0.037 A 
ATOM     65  C   UNL A   1      37.534  33.384  32.420  1.00  0.00     0.049 A 
ATOM     66  C   UNL A   1      41.960  30.857  34.873  1.00  0.00     0.074 A 
ATOM     67  C   UNL A   1      36.944  34.411  33.130  1.00  0.00     0.029 A 
ATOM     68  N   UNL A   1      38.594  32.916  33.184  1.00  0.00    -0.354 N 
ATOM     69  N   UNL A   1      40.916  31.516  34.425  1.00  0.00    -0.248 NA
ATOM     70  C   UNL A   1      42.479  31.352  36.154  1.00  0.00     0.031 C 
ATOM     71  C   UNL A   1      37.682  34.600  34.303  1.00  0.00     0.029 A 
ATOM     72  C   UNL A   1      38.694  33.653  34.349  1.00  0.00     0.049 A 
ATOM     73  H   UNL A   1      39.187  32.170  32.934  1.00  0.00     0.167 HD
ATOM     74  C   UNL A   1      40.639  32.487  35.379  1.00  0.00     0.074 A 
ATOM     75  C   UNL A   1      41.612  32.311  36.439  1.00  0.00     0.031 C 
ATOM     76  C   UNL A   1      39.676  33.441  35.382  1.00  0.00     0.037 A 
BRANCH  63  77
ATOM     77  C   UNL A   1      36.033  33.476  30.381  1.00  0.00     0.057 A 
ATOM     78  C   UNL A   1      34.692  33.262  30.732  1.00  0.00     0.134 A 
ATOM     79  C   UNL A   1      36.283  34.309  29.283  1.00  0.00     0.134 A 
ATOM     80  F   UNL A   1      34.378  32.456  31.760  1.00  0.00    -0.206 F 
ATOM     81  C   UNL A   1      33.643  33.827  30.005  1.00  0.00     0.040 A 
ATOM     82  C   UNL A   1      35.244  34.907  28.567  1.00  0.00     0.040 A 
ATOM     83  F   UNL A   1      37.541  34.555  28.888  1.00  0.00    -0.206 F 
ATOM     84  C   UNL A   1      33.920  34.660  28.924  1.00  0.00     0.006 A 
ENDBRANCH  63  77
BRANCH  64  85
ATOM     85  C   UNL A   1      43.841  29.051  34.932  1.00  0.00     0.057 A 
ATOM     86  C   UNL A   1      45.153  29.389  34.580  1.00  0.00     0.134 A 
ATOM     87  C   UNL A   1      43.673  28.088  35.934  1.00  0.00     0.134 A 
ATOM     88  F   UNL A   1      45.382  30.298  33.621  1.00  0.00    -0.206 F 
ATOM     89  C   UNL A   1      46.254  28.772  35.178  1.00  0.00     0.040 A 
ATOM     90  C   UNL A   1      44.764  27.483  36.561  1.00  0.00     0.040 A 
ATOM     91  F   UNL A   1      42.442  27.729  36.331  1.00  0.00    -0.206 F 
ATOM     92  C   UNL A   1      46.061  27.818  36.174  1.00  0.00     0.006 A 
ENDBRANCH  64  85
BRANCH  76  93
ATOM     93  C   UNL A   1      39.619  34.345  36.576  1.00  0.00     0.057 A 
ATOM     94  C   UNL A   1      40.212  35.613  36.569  1.00  0.00     0.134 A 
ATOM     95  C   UNL A   1      38.916  33.962  37.725  1.00  0.00     0.134 A 
ATOM     96  F   UNL A   1      40.907  36.034  35.500  1.00  0.00    -0.206 F 
ATOM     97  C   UNL A   1      40.132  36.459  37.675  1.00  0.00     0.040 A 
ATOM     98  C   UNL A   1      38.800  34.811  38.824  1.00  0.00     0.040 A 
ATOM     99  F   UNL A   1      38.313  32.765  37.788  1.00  0.00    -0.206 F 
ATOM    100  C   UNL A   1      39.416  36.061  38.803  1.00  0.00     0.006 A 
ENDBRANCH  76  93
ENDBRANCH  50  51
ENDBRANCH  42  45
ENDBRANCH  40  41
ENDBRANCH  39  40
ENDBRANCH  38  39
ENDBRANCH  37  38
ENDBRANCH  36  37
ENDBRANCH   1  36
TORSDOF 21
ENDMDL
MODEL 2
REMARK VINA RESULT:     -11.6      1.148      2.037
REMARK SMILES C=C[C@@H]1[C@@H](O)C[C@@H]2[C@@]3(CC[C@@]4(C)[C@@H]([C@H](C)CCC=C(C)C)CC[C@@]24C)C[C@@]13CCC(=O)NCCCCCCNC(=O)c1ccc(-c2c3nc(c(-c4c(F)cccc4F)c4ccc([nH]4)c(-c4c(F)cccc4F)c4nc(c(-c5c(F)cccc5F)c5ccc2[nH]5)C=C4)C=C3)cc1
REMARK SMILES IDX 33 1 32 2 30 3 31 4 29 6 28 7 27 8 3 9 4 10 6 11 8 12 26 13
REMARK SMILES IDX 7 14 9 15 24 16 10 17 11 18 23 19 25 20 12 21 13 22 22 23
REMARK SMILES IDX 2 24 1 25 5 26 14 28 15 29 16 30 17 31 18 32 19 33 20 34
REMARK SMILES IDX 21 35 34 36 35 37 36 38 37 39 38 40 39 41 40 42 41 44 42 45
REMARK SMILES IDX 43 46 95 47 44 48 94 49 45 50 46 51 47 52 88 53 48 54 93 55
REMARK SMILES IDX 87 56 89 57 49 58 92 59 86 60 85 61 50 63 76 64 59 65 75 66
REMARK SMILES IDX 60 67 63 68 74 69 90 70 61 71 62 72 73 74 91 75 64 76 51 77
REMARK SMILES IDX 52 78 57 79 53 80 54 81 56 82 58 83 55 84 77 85 78 86 83 87
REMARK SMILES IDX 79 88 80 89 82 90 84 91 81 92 65 93 66 94 71 95 67 96 68 97
REMARK SMILES IDX 70 98 72 99 69 100
REMARK H PARENT 32 5 5 27 39 43 89 62 63 73
REMARK Flexibility Score: inf
ROOT
ATOM      1  C   UNL A   1      38.227  22.935  25.813  1.00  0.00     0.116 C 
ENDROOT
BRANCH   1   2
ATOM      2  N   UNL A   1      37.741  22.608  24.359  1.00  0.00    -0.356 N 
ATOM      3  C   UNL A   1      36.721  22.882  23.525  1.00  0.00     0.220 C 
ATOM      4  O   UNL A   1      36.862  22.565  22.339  1.00  0.00    -0.275 OA
ATOM      5  H   UNL A   1      38.388  22.013  23.914  1.00  0.00     0.163 HD
BRANCH   3   6
ATOM      6  C   UNL A   1      35.509  23.608  23.978  1.00  0.00     0.100 C 
BRANCH   6   7
ATOM      7  C   UNL A   1      34.472  22.772  24.689  1.00  0.00     0.018 C 
BRANCH   7   8
ATOM      8  C   UNL A   1      33.650  23.475  25.783  1.00  0.00    -0.014 C 
ATOM      9  C   UNL A   1      32.032  22.519  26.109  1.00  0.00     0.047 C 
ATOM     10  C   UNL A   1      30.437  23.518  26.465  1.00  0.00     0.122 C 
ATOM     11  C   UNL A   1      30.403  25.449  26.541  1.00  0.00     0.037 C 
ATOM     12  C   UNL A   1      33.785  25.379  26.132  1.00  0.00    -0.019 C 
ATOM     13  C   UNL A   1      34.507  24.092  26.841  1.00  0.00     0.016 C 
ATOM     14  C   UNL A   1      32.112  26.449  26.292  1.00  0.00     0.005 C 
ATOM     15  C   UNL A   1      34.850  26.281  25.564  1.00  0.00     0.008 C 
ATOM     16  C   UNL A   1      32.166  27.930  26.874  1.00  0.00    -0.023 C 
ATOM     17  C   UNL A   1      34.899  27.519  26.406  1.00  0.00     0.008 C 
ATOM     18  C   UNL A   1      33.646  28.454  26.519  1.00  0.00    -0.024 C 
ATOM     19  C   UNL A   1      31.455  29.322  26.404  1.00  0.00     0.008 C 
ATOM     20  C   UNL A   1      31.000  27.727  27.882  1.00  0.00     0.012 C 
ATOM     21  C   UNL A   1      34.237  29.552  27.496  1.00  0.00     0.012 C 
ATOM     22  C   UNL A   1      33.349  29.171  25.063  1.00  0.00    -0.002 C 
ATOM     23  C   UNL A   1      32.310  30.164  25.484  1.00  0.00     0.005 C 
BRANCH   9  24
ATOM     24  C   UNL A   1      31.630  21.480  25.003  1.00  0.00    -0.028 C 
ATOM     25  C   UNL A   1      32.188  20.294  24.690  1.00  0.00     0.004 C 
ENDBRANCH   9  24
BRANCH  10  26
ATOM     26  O   UNL A   1      29.862  22.974  27.669  1.00  0.00    -0.392 OA
ATOM     27  H   UNL A   1      29.001  22.580  27.466  1.00  0.00     0.210 HD
ENDBRANCH  10  26
BRANCH  22  28
ATOM     28  C   UNL A   1      32.761  28.404  23.747  1.00  0.00    -0.010 C 
ATOM     29  C   UNL A   1      33.837  28.449  22.644  1.00  0.00     0.008 C 
BRANCH  28  30
ATOM     30  C   UNL A   1      31.328  28.885  23.131  1.00  0.00     0.008 C 
BRANCH  30  31
ATOM     31  C   UNL A   1      30.108  27.959  22.743  1.00  0.00     0.027 C 
BRANCH  31  32
ATOM     32  C   UNL A   1      30.092  26.444  23.025  1.00  0.00    -0.028 C 
ATOM     33  C   UNL A   1      30.907  25.421  22.651  1.00  0.00    -0.080 C 
ATOM     34  C   UNL A   1      30.692  23.997  23.145  1.00  0.00     0.039 C 
ATOM     35  C   UNL A   1      32.098  25.517  21.739  1.00  0.00     0.039 C 
ENDBRANCH  31  32
ENDBRANCH  30  31
ENDBRANCH  28  30
ENDBRANCH  22  28
ENDBRANCH   7   8
ENDBRANCH   6   7
ENDBRANCH   3   6
ENDBRANCH   1   2
BRANCH   1  36
ATOM     36  C   UNL A   1      39.726  22.281  27.127  1.00  0.00     0.021 C 
BRANCH  36  37
ATOM     37  C   UNL A   1      41.583  22.211  27.328  1.00  0.00     0.002 C 
BRANCH  37  38
ATOM     38  C   UNL A   1      42.972  23.013  27.711  1.00  0.00     0.002 C 
BRANCH  38  39
ATOM     39  C   UNL A   1      44.231  23.764  27.117  1.00  0.00     0.021 C 
BRANCH  39  40
ATOM     40  C   UNL A   1      44.139  25.181  26.598  1.00  0.00     0.116 C 
BRANCH  40  41
ATOM     41  N   UNL A   1      43.043  25.280  25.612  1.00  0.00    -0.352 N 
ATOM     42  C   UNL A   1      41.791  25.791  25.801  1.00  0.00     0.251 C 
ATOM     43  H   UNL A   1      43.240  24.937  24.709  1.00  0.00     0.163 HD
ATOM     44  O   UNL A   1      40.871  25.588  24.993  1.00  0.00    -0.269 OA
BRANCH  42  45
ATOM     45  C   UNL A   1      41.568  26.597  26.999  1.00  0.00     0.039 A 
ATOM     46  C   UNL A   1      40.873  26.084  28.093  1.00  0.00     0.014 A 
ATOM     47  C   UNL A   1      42.150  27.867  27.035  1.00  0.00     0.014 A 
ATOM     48  C   UNL A   1      40.779  26.860  29.243  1.00  0.00     0.010 A 
ATOM     49  C   UNL A   1      42.181  28.569  28.218  1.00  0.00     0.010 A 
ATOM     50  C   UNL A   1      41.433  28.103  29.304  1.00  0.00    -0.014 A 
BRANCH  50  51
ATOM     51  C   UNL A   1      41.223  29.022  30.437  1.00  0.00     0.031 A 
ATOM     52  C   UNL A   1      40.053  29.966  30.378  1.00  0.00     0.074 A 
ATOM     53  C   UNL A   1      42.084  29.020  31.468  1.00  0.00     0.049 A 
ATOM     54  N   UNL A   1      39.690  30.886  31.230  1.00  0.00    -0.248 NA
ATOM     55  C   UNL A   1      39.198  29.900  29.176  1.00  0.00     0.031 C 
ATOM     56  C   UNL A   1      43.277  28.178  31.577  1.00  0.00     0.029 A 
ATOM     57  N   UNL A   1      42.080  29.749  32.624  1.00  0.00    -0.354 N 
ATOM     58  C   UNL A   1      38.588  31.510  30.657  1.00  0.00     0.074 A 
ATOM     59  C   UNL A   1      38.395  30.936  29.349  1.00  0.00     0.031 C 
ATOM     60  C   UNL A   1      43.866  28.408  32.762  1.00  0.00     0.029 A 
ATOM     61  C   UNL A   1      43.112  29.434  33.473  1.00  0.00     0.049 A 
ATOM     62  H   UNL A   1      41.402  30.434  32.829  1.00  0.00     0.167 HD
ATOM     63  C   UNL A   1      37.777  32.445  31.197  1.00  0.00     0.037 A 
ATOM     64  C   UNL A   1      43.398  29.926  34.691  1.00  0.00     0.037 A 
ATOM     65  C   UNL A   1      37.957  32.964  32.523  1.00  0.00     0.049 A 
ATOM     66  C   UNL A   1      42.475  30.961  35.275  1.00  0.00     0.074 A 
ATOM     67  C   UNL A   1      37.170  33.865  33.211  1.00  0.00     0.029 A 
ATOM     68  N   UNL A   1      39.005  32.612  33.362  1.00  0.00    -0.354 N 
ATOM     69  N   UNL A   1      41.389  31.489  34.759  1.00  0.00    -0.248 NA
ATOM     70  C   UNL A   1      42.809  31.463  36.614  1.00  0.00     0.031 C 
ATOM     71  C   UNL A   1      37.773  34.101  34.451  1.00  0.00     0.029 A 
ATOM     72  C   UNL A   1      38.902  33.301  34.556  1.00  0.00     0.049 A 
ATOM     73  H   UNL A   1      39.716  31.967  33.141  1.00  0.00     0.167 HD
ATOM     74  C   UNL A   1      40.898  32.368  35.716  1.00  0.00     0.074 A 
ATOM     75  C   UNL A   1      41.793  32.280  36.853  1.00  0.00     0.031 C 
ATOM     76  C   UNL A   1      39.813  33.179  35.665  1.00  0.00     0.037 A 
BRANCH  63  77
ATOM     77  C   UNL A   1      36.635  32.942  30.361  1.00  0.00     0.057 A 
ATOM     78  C   UNL A   1      36.816  33.884  29.337  1.00  0.00     0.134 A 
ATOM     79  C   UNL A   1      35.334  32.472  30.578  1.00  0.00     0.134 A 
ATOM     80  F   UNL A   1      38.033  34.395  29.090  1.00  0.00    -0.206 F 
ATOM     81  C   UNL A   1      35.744  34.360  28.581  1.00  0.00     0.040 A 
ATOM     82  C   UNL A   1      34.258  32.916  29.807  1.00  0.00     0.040 A 
ATOM     83  F   UNL A   1      35.087  31.574  31.543  1.00  0.00    -0.206 F 
ATOM     84  C   UNL A   1      34.461  33.868  28.810  1.00  0.00     0.006 A 
ENDBRANCH  63  77
BRANCH  64  85
ATOM     85  C   UNL A   1      44.580  29.431  35.442  1.00  0.00     0.057 A 
ATOM     86  C   UNL A   1      45.806  30.104  35.392  1.00  0.00     0.134 A 
ATOM     87  C   UNL A   1      44.517  28.268  36.220  1.00  0.00     0.134 A 
ATOM     88  F   UNL A   1      45.935  31.218  34.658  1.00  0.00    -0.206 F 
ATOM     89  C   UNL A   1      46.933  29.625  36.064  1.00  0.00     0.040 A 
ATOM     90  C   UNL A   1      45.627  27.792  36.919  1.00  0.00     0.040 A 
ATOM     91  F   UNL A   1      43.368  27.583  36.324  1.00  0.00    -0.206 F 
ATOM     92  C   UNL A   1      46.844  28.466  36.833  1.00  0.00     0.006 A 
ENDBRANCH  64  85
BRANCH  76  93
ATOM     93  C   UNL A   1      39.529  34.011  36.879  1.00  0.00     0.057 A 
ATOM     94  C   UNL A   1      38.753  33.526  37.938  1.00  0.00     0.134 A 
ATOM     95  C   UNL A   1      40.085  35.289  37.011  1.00  0.00     0.134 A 
ATOM     96  F   UNL A   1      38.185  32.312  37.867  1.00  0.00    -0.206 F 
ATOM     97  C   UNL A   1      38.515  34.297  39.077  1.00  0.00     0.040 A 
ATOM     98  C   UNL A   1      39.883  36.056  38.157  1.00  0.00     0.040 A 
ATOM     99  F   UNL A   1      40.851  35.804  36.037  1.00  0.00    -0.206 F 
ATOM    100  C   UNL A   1      39.090  35.561  39.191  1.00  0.00     0.006 A 
ENDBRANCH  76  93
ENDBRANCH  50  51
ENDBRANCH  42  45
ENDBRANCH  40  41
ENDBRANCH  39  40
ENDBRANCH  38  39
ENDBRANCH  37  38
ENDBRANCH  36  37
ENDBRANCH   1  36
TORSDOF 21
ENDMDL
MODEL 3
REMARK VINA RESULT:     -11.6      1.167      6.026
REMARK SMILES C=C[C@@H]1[C@@H](O)C[C@@H]2[C@@]3(CC[C@@]4(C)[C@@H]([C@H](C)CCC=C(C)C)CC[C@@]24C)C[C@@]13CCC(=O)NCCCCCCNC(=O)c1ccc(-c2c3nc(c(-c4c(F)cccc4F)c4ccc([nH]4)c(-c4c(F)cccc4F)c4nc(c(-c5c(F)cccc5F)c5ccc2[nH]5)C=C4)C=C3)cc1
REMARK SMILES IDX 33 1 32 2 30 3 31 4 29 6 28 7 27 8 3 9 4 10 6 11 8 12 26 13
REMARK SMILES IDX 7 14 9 15 24 16 10 17 11 18 23 19 25 20 12 21 13 22 22 23
REMARK SMILES IDX 2 24 1 25 5 26 14 28 15 29 16 30 17 31 18 32 19 33 20 34
REMARK SMILES IDX 21 35 34 36 35 37 36 38 37 39 38 40 39 41 40 42 41 44 42 45
REMARK SMILES IDX 43 46 95 47 44 48 94 49 45 50 46 51 47 52 88 53 48 54 93 55
REMARK SMILES IDX 87 56 89 57 49 58 92 59 86 60 85 61 50 63 76 64 59 65 75 66
REMARK SMILES IDX 60 67 63 68 74 69 90 70 61 71 62 72 73 74 91 75 64 76 51 77
REMARK SMILES IDX 52 78 57 79 53 80 54 81 56 82 58 83 55 84 77 85 78 86 83 87
REMARK SMILES IDX 79 88 80 89 82 90 84 91 81 92 65 93 66 94 71 95 67 96 68 97
REMARK SMILES IDX 70 98 72 99 69 100
REMARK H PARENT 32 5 5 27 39 43 89 62 63 73
REMARK Flexibility Score: inf
ROOT
ATOM      1  C   UNL A   1      38.264  23.031  25.661  1.00  0.00     0.116 C 
ENDROOT
BRANCH   1   2
ATOM      2  N   UNL A   1      37.754  22.697  24.217  1.00  0.00    -0.356 N 
ATOM      3  C   UNL A   1      36.698  22.927  23.416  1.00  0.00     0.220 C 
ATOM      4  O   UNL A   1      36.821  22.632  22.222  1.00  0.00    -0.275 OA
ATOM      5  H   UNL A   1      38.419  22.143  23.746  1.00  0.00     0.163 HD
BRANCH   3   6
ATOM      6  C   UNL A   1      35.463  23.582  23.913  1.00  0.00     0.100 C 
BRANCH   6   7
ATOM      7  C   UNL A   1      34.556  22.717  24.757  1.00  0.00     0.018 C 
BRANCH   7   8
ATOM      8  C   UNL A   1      33.730  23.433  25.839  1.00  0.00    -0.014 C 
ATOM      9  C   UNL A   1      32.118  22.471  26.182  1.00  0.00     0.047 C 
ATOM     10  C   UNL A   1      30.517  23.465  26.521  1.00  0.00     0.122 C 
ATOM     11  C   UNL A   1      30.469  25.397  26.563  1.00  0.00     0.037 C 
ATOM     12  C   UNL A   1      33.851  25.344  26.154  1.00  0.00    -0.019 C 
ATOM     13  C   UNL A   1      34.583  24.074  26.886  1.00  0.00     0.016 C 
ATOM     14  C   UNL A   1      32.171  26.404  26.296  1.00  0.00     0.005 C 
ATOM     15  C   UNL A   1      34.910  26.243  25.571  1.00  0.00     0.008 C 
ATOM     16  C   UNL A   1      32.214  27.895  26.852  1.00  0.00    -0.023 C 
ATOM     17  C   UNL A   1      34.950  27.496  26.391  1.00  0.00     0.008 C 
ATOM     18  C   UNL A   1      33.690  28.423  26.488  1.00  0.00    -0.024 C 
ATOM     19  C   UNL A   1      31.493  29.274  26.358  1.00  0.00     0.008 C 
ATOM     20  C   UNL A   1      31.050  27.702  27.864  1.00  0.00     0.012 C 
ATOM     21  C   UNL A   1      34.274  29.543  27.445  1.00  0.00     0.012 C 
ATOM     22  C   UNL A   1      33.388  29.113  25.019  1.00  0.00    -0.002 C 
ATOM     23  C   UNL A   1      32.342  30.106  25.423  1.00  0.00     0.005 C 
BRANCH   9  24
ATOM     24  C   UNL A   1      31.724  21.410  25.094  1.00  0.00    -0.028 C 
ATOM     25  C   UNL A   1      32.274  20.211  24.819  1.00  0.00     0.004 C 
ENDBRANCH   9  24
BRANCH  10  26
ATOM     26  O   UNL A   1      29.946  22.938  27.735  1.00  0.00    -0.392 OA
ATOM     27  H   UNL A   1      29.070  22.570  27.546  1.00  0.00     0.210 HD
ENDBRANCH  10  26
BRANCH  22  28
ATOM     28  C   UNL A   1      32.806  28.319  23.717  1.00  0.00    -0.010 C 
ATOM     29  C   UNL A   1      33.840  28.436  22.581  1.00  0.00     0.008 C 
BRANCH  28  30
ATOM     30  C   UNL A   1      31.326  28.715  23.151  1.00  0.00     0.008 C 
BRANCH  30  31
ATOM     31  C   UNL A   1      30.003  27.864  23.291  1.00  0.00     0.027 C 
BRANCH  31  32
ATOM     32  C   UNL A   1      30.010  26.325  23.383  1.00  0.00    -0.028 C 
ATOM     33  C   UNL A   1      30.766  25.362  22.789  1.00  0.00    -0.080 C 
ATOM     34  C   UNL A   1      30.602  23.887  23.125  1.00  0.00     0.039 C 
ATOM     35  C   UNL A   1      31.840  25.580  21.760  1.00  0.00     0.039 C 
ENDBRANCH  31  32
ENDBRANCH  30  31
ENDBRANCH  28  30
ENDBRANCH  22  28
ENDBRANCH   7   8
ENDBRANCH   6   7
ENDBRANCH   3   6
ENDBRANCH   1   2
BRANCH   1  36
ATOM     36  C   UNL A   1      39.542  22.175  27.087  1.00  0.00     0.021 C 
BRANCH  36  37
ATOM     37  C   UNL A   1      41.349  22.006  27.536  1.00  0.00     0.002 C 
BRANCH  37  38
ATOM     38  C   UNL A   1      42.738  22.751  28.021  1.00  0.00     0.002 C 
BRANCH  38  39
ATOM     39  C   UNL A   1      44.123  23.336  27.533  1.00  0.00     0.021 C 
BRANCH  39  40
ATOM     40  C   UNL A   1      44.278  24.786  27.130  1.00  0.00     0.116 C 
BRANCH  40  41
ATOM     41  N   UNL A   1      43.441  25.063  25.944  1.00  0.00    -0.352 N 
ATOM     42  C   UNL A   1      42.247  25.725  25.899  1.00  0.00     0.251 C 
ATOM     43  H   UNL A   1      43.786  24.733  25.082  1.00  0.00     0.163 HD
ATOM     44  O   UNL A   1      41.506  25.676  24.904  1.00  0.00    -0.269 OA
BRANCH  42  45
ATOM     45  C   UNL A   1      41.867  26.506  27.074  1.00  0.00     0.039 A 
ATOM     46  C   UNL A   1      40.911  26.037  27.972  1.00  0.00     0.014 A 
ATOM     47  C   UNL A   1      42.559  27.699  27.302  1.00  0.00     0.014 A 
ATOM     48  C   UNL A   1      40.663  26.776  29.124  1.00  0.00     0.010 A 
ATOM     49  C   UNL A   1      42.418  28.348  28.507  1.00  0.00     0.010 A 
ATOM     50  C   UNL A   1      41.417  27.932  29.390  1.00  0.00    -0.014 A 
BRANCH  50  51
ATOM     51  C   UNL A   1      41.075  28.826  30.510  1.00  0.00     0.031 A 
ATOM     52  C   UNL A   1      41.890  28.729  31.772  1.00  0.00     0.074 A 
ATOM     53  C   UNL A   1      40.040  29.674  30.396  1.00  0.00     0.049 A 
ATOM     54  N   UNL A   1      41.753  29.379  32.896  1.00  0.00    -0.248 NA
ATOM     55  C   UNL A   1      42.979  27.732  31.791  1.00  0.00     0.031 C 
ATOM     56  C   UNL A   1      39.162  29.791  29.230  1.00  0.00     0.029 A 
ATOM     57  N   UNL A   1      39.558  30.605  31.274  1.00  0.00    -0.354 N 
ATOM     58  C   UNL A   1      42.719  28.857  33.747  1.00  0.00     0.074 A 
ATOM     59  C   UNL A   1      43.372  27.776  33.052  1.00  0.00     0.031 C 
ATOM     60  C   UNL A   1      38.273  30.775  29.450  1.00  0.00     0.029 A 
ATOM     61  C   UNL A   1      38.500  31.327  30.781  1.00  0.00     0.049 A 
ATOM     62  H   UNL A   1      39.933  30.743  32.174  1.00  0.00     0.167 HD
ATOM     63  C   UNL A   1      43.065  29.277  34.983  1.00  0.00     0.037 A 
ATOM     64  C   UNL A   1      37.807  32.327  31.351  1.00  0.00     0.037 A 
ATOM     65  C   UNL A   1      42.436  30.390  35.634  1.00  0.00     0.049 A 
ATOM     66  C   UNL A   1      38.216  32.783  32.726  1.00  0.00     0.074 A 
ATOM     67  C   UNL A   1      42.736  30.956  36.857  1.00  0.00     0.029 A 
ATOM     68  N   UNL A   1      41.377  31.110  35.099  1.00  0.00    -0.354 N 
ATOM     69  N   UNL A   1      39.183  32.335  33.494  1.00  0.00    -0.248 NA
ATOM     70  C   UNL A   1      37.447  33.888  33.311  1.00  0.00     0.031 C 
ATOM     71  C   UNL A   1      41.821  31.988  37.087  1.00  0.00     0.029 A 
ATOM     72  C   UNL A   1      40.990  32.101  35.981  1.00  0.00     0.049 A 
ATOM     73  H   UNL A   1      40.963  30.940  34.222  1.00  0.00     0.167 HD
ATOM     74  C   UNL A   1      39.153  33.116  34.641  1.00  0.00     0.074 A 
ATOM     75  C   UNL A   1      38.087  34.081  34.455  1.00  0.00     0.031 C 
ATOM     76  C   UNL A   1      39.927  33.045  35.753  1.00  0.00     0.037 A 
BRANCH  63  77
ATOM     77  C   UNL A   1      44.167  28.540  35.685  1.00  0.00     0.057 A 
ATOM     78  C   UNL A   1      43.913  27.455  36.537  1.00  0.00     0.134 A 
ATOM     79  C   UNL A   1      45.504  28.916  35.505  1.00  0.00     0.134 A 
ATOM     80  F   UNL A   1      42.653  27.055  36.773  1.00  0.00    -0.206 F 
ATOM     81  C   UNL A   1      44.943  26.791  37.206  1.00  0.00     0.040 A 
ATOM     82  C   UNL A   1      46.546  28.239  36.144  1.00  0.00     0.040 A 
ATOM     83  F   UNL A   1      45.821  29.947  34.709  1.00  0.00    -0.206 F 
ATOM     84  C   UNL A   1      46.265  27.178  37.002  1.00  0.00     0.006 A 
ENDBRANCH  63  77
BRANCH  64  85
ATOM     85  C   UNL A   1      36.686  32.975  30.623  1.00  0.00     0.057 A 
ATOM     86  C   UNL A   1      35.353  32.649  30.900  1.00  0.00     0.134 A 
ATOM     87  C   UNL A   1      36.919  33.929  29.625  1.00  0.00     0.134 A 
ATOM     88  F   UNL A   1      35.063  31.736  31.838  1.00  0.00    -0.206 F 
ATOM     89  C   UNL A   1      34.295  33.225  30.193  1.00  0.00     0.040 A 
ATOM     90  C   UNL A   1      35.871  34.534  28.929  1.00  0.00     0.040 A 
ATOM     91  F   UNL A   1      38.172  34.300  29.319  1.00  0.00    -0.206 F 
ATOM     92  C   UNL A   1      34.554  34.173  29.206  1.00  0.00     0.006 A 
ENDBRANCH  64  85
BRANCH  76  93
ATOM     93  C   UNL A   1      39.660  34.050  36.832  1.00  0.00     0.057 A 
ATOM     94  C   UNL A   1      38.709  33.822  37.833  1.00  0.00     0.134 A 
ATOM     95  C   UNL A   1      40.403  35.235  36.899  1.00  0.00     0.134 A 
ATOM     96  F   UNL A   1      37.958  32.709  37.818  1.00  0.00    -0.206 F 
ATOM     97  C   UNL A   1      38.485  34.751  38.849  1.00  0.00     0.040 A 
ATOM     98  C   UNL A   1      40.213  36.156  37.927  1.00  0.00     0.040 A 
ATOM     99  F   UNL A   1      41.341  35.506  35.978  1.00  0.00    -0.206 F 
ATOM    100  C   UNL A   1      39.246  35.917  38.902  1.00  0.00     0.006 A 
ENDBRANCH  76  93
ENDBRANCH  50  51
ENDBRANCH  42  45
ENDBRANCH  40  41
ENDBRANCH  39  40
ENDBRANCH  38  39
ENDBRANCH  37  38
ENDBRANCH  36  37
ENDBRANCH   1  36
TORSDOF 21
ENDMDL
