MODEL 1
REMARK VINA RESULT:     -12.3      0.000      0.000
REMARK SMILES C[C@H](C(=O)NCCCCCCNC(=O)c1ccc(-c2c3nc(c(-c4c(F)cccc4F)c4ccc([nH]4)c(-c4c(F)cccc4F)c4nc(c(-c5c(F)cccc5F)c5ccc2[nH]5)C=C4)C=C3)cc1)N1C(=O)C[C@@H](N2C(=O)/C(=C/c3ccccc3)SC2=S)C1=O
REMARK SMILES IDX 8 1 7 2 6 3 5 4 3 5 4 6 2 8 1 9 69 10 70 11 88 12 71 13
REMARK SMILES IDX 72 14 73 15 89 16 74 17 75 18 86 19 76 20 77 21 85 22 87 23
REMARK SMILES IDX 78 24 79 25 80 26 84 27 81 28 83 29 82 30 9 31 10 32 11 33
REMARK SMILES IDX 12 34 13 35 14 37 15 38 16 39 68 40 17 41 67 42 18 43 19 44
REMARK SMILES IDX 20 45 61 46 21 47 66 48 60 49 62 50 22 51 65 52 59 53 58 54
REMARK SMILES IDX 23 56 49 57 32 58 48 59 33 60 36 61 47 62 63 63 34 64 35 65
REMARK SMILES IDX 46 67 64 68 37 69 24 70 25 71 30 72 26 73 27 74 29 75 31 76
REMARK SMILES IDX 28 77 50 78 51 79 56 80 52 81 53 82 55 83 57 84 54 85 38 86
REMARK SMILES IDX 39 87 44 88 40 89 41 90 43 91 45 92 42 93
REMARK H PARENT 5 7 12 36 62 55 36 66
REMARK Flexibility Score: inf
ROOT
ATOM      1  C   UNL A   1      34.364  32.253  28.932  1.00  0.00     0.002 C 
ENDROOT
BRANCH   1   2
ATOM      2  C   UNL A   1      35.270  31.500  27.957  1.00  0.00     0.021 C 
BRANCH   2   3
ATOM      3  C   UNL A   1      34.918  30.022  27.826  1.00  0.00     0.116 C 
BRANCH   3   4
ATOM      4  N   UNL A   1      34.785  29.597  26.452  1.00  0.00    -0.354 N 
ATOM      5  C   UNL A   1      33.801  28.965  25.766  1.00  0.00     0.243 C 
ATOM      6  O   UNL A   1      34.024  28.825  24.554  1.00  0.00    -0.273 OA
ATOM      7  H   UNL A   1      35.572  29.810  25.900  1.00  0.00     0.163 HD
BRANCH   5   8
ATOM      8  C   UNL A   1      32.533  28.301  26.372  1.00  0.00     0.179 C 
ATOM      9  C   UNL A   1      31.622  29.398  26.926  1.00  0.00     0.042 C 
BRANCH   8  10
ATOM     10  N   UNL A   1      31.803  27.272  25.630  1.00  0.00    -0.268 N 
ATOM     11  C   UNL A   1      30.966  27.485  24.571  1.00  0.00     0.232 C 
ATOM     12  C   UNL A   1      31.883  25.945  25.957  1.00  0.00     0.253 C 
ATOM     13  O   UNL A   1      30.576  28.555  24.140  1.00  0.00    -0.274 OA
ATOM     14  C   UNL A   1      30.656  26.167  23.910  1.00  0.00     0.136 C 
ATOM     15  C   UNL A   1      31.049  25.151  24.966  1.00  0.00     0.191 C 
ATOM     16  O   UNL A   1      32.485  25.448  26.899  1.00  0.00    -0.272 OA
BRANCH  15  17
ATOM     17  N   UNL A   1      31.779  23.967  24.487  1.00  0.00    -0.280 N 
ATOM     18  C   UNL A   1      31.556  22.743  25.090  1.00  0.00     0.266 C 
ATOM     19  C   UNL A   1      32.737  23.979  23.496  1.00  0.00     0.149 C 
ATOM     20  O   UNL A   1      30.860  22.552  26.077  1.00  0.00    -0.268 OA
ATOM     21  C   UNL A   1      32.313  21.666  24.410  1.00  0.00     0.081 C 
ATOM     22  S   UNL A   1      33.314  22.343  23.196  1.00  0.00    -0.054 SA
ATOM     23  S   UNL A   1      33.356  25.298  22.687  1.00  0.00    -0.052 S 
ATOM     24  C   UNL A   1      32.154  20.382  24.758  1.00  0.00     0.029 C 
BRANCH  24  25
ATOM     25  C   UNL A   1      32.867  19.232  24.195  1.00  0.00    -0.024 A 
ATOM     26  C   UNL A   1      32.276  18.479  23.174  1.00  0.00     0.008 A 
ATOM     27  C   UNL A   1      34.108  18.835  24.708  1.00  0.00     0.008 A 
ATOM     28  C   UNL A   1      32.935  17.363  22.651  1.00  0.00     0.001 A 
ATOM     29  C   UNL A   1      34.766  17.723  24.184  1.00  0.00     0.001 A 
ATOM     30  C   UNL A   1      34.181  16.990  23.154  1.00  0.00     0.000 A 
ENDBRANCH  24  25
ENDBRANCH  15  17
ENDBRANCH   8  10
ENDBRANCH   5   8
ENDBRANCH   3   4
ENDBRANCH   2   3
ENDBRANCH   1   2
BRANCH   1  31
ATOM     31  C   UNL A   1      34.572  33.775  28.962  1.00  0.00     0.002 C 
BRANCH  31  32
ATOM     32  C   UNL A   1      33.288  34.610  28.927  1.00  0.00     0.021 C 
BRANCH  32  33
ATOM     33  C   UNL A   1      33.452  36.033  29.453  1.00  0.00     0.116 C 
BRANCH  33  34
ATOM     34  N   UNL A   1      32.552  36.299  30.567  1.00  0.00    -0.352 N 
ATOM     35  C   UNL A   1      32.560  35.786  31.839  1.00  0.00     0.251 C 
ATOM     36  H   UNL A   1      31.831  36.942  30.379  1.00  0.00     0.163 HD
ATOM     37  O   UNL A   1      31.582  35.919  32.567  1.00  0.00    -0.269 OA
BRANCH  35  38
ATOM     38  C   UNL A   1      33.751  35.063  32.328  1.00  0.00     0.039 A 
ATOM     39  C   UNL A   1      33.601  33.774  32.842  1.00  0.00     0.014 A 
ATOM     40  C   UNL A   1      35.010  35.667  32.290  1.00  0.00     0.014 A 
ATOM     41  C   UNL A   1      34.728  33.062  33.258  1.00  0.00     0.010 A 
ATOM     42  C   UNL A   1      36.139  34.931  32.634  1.00  0.00     0.010 A 
ATOM     43  C   UNL A   1      36.009  33.622  33.121  1.00  0.00    -0.014 A 
BRANCH  43  44
ATOM     44  C   UNL A   1      37.228  32.851  33.470  1.00  0.00     0.031 A 
ATOM     45  C   UNL A   1      37.974  33.149  34.741  1.00  0.00     0.074 A 
ATOM     46  C   UNL A   1      37.706  31.939  32.601  1.00  0.00     0.049 A 
ATOM     47  N   UNL A   1      39.102  32.646  35.173  1.00  0.00    -0.248 NA
ATOM     48  C   UNL A   1      37.387  34.163  35.631  1.00  0.00     0.031 C 
ATOM     49  C   UNL A   1      37.095  31.594  31.315  1.00  0.00     0.029 A 
ATOM     50  N   UNL A   1      38.824  31.144  32.660  1.00  0.00    -0.354 N 
ATOM     51  C   UNL A   1      39.368  33.293  36.373  1.00  0.00     0.074 A 
ATOM     52  C   UNL A   1      38.311  34.259  36.577  1.00  0.00     0.031 C 
ATOM     53  C   UNL A   1      37.835  30.648  30.716  1.00  0.00     0.029 A 
ATOM     54  C   UNL A   1      38.995  30.352  31.551  1.00  0.00     0.049 A 
ATOM     55  H   UNL A   1      39.444  31.142  33.424  1.00  0.00     0.167 HD
ATOM     56  C   UNL A   1      40.390  33.084  37.237  1.00  0.00     0.037 A 
ATOM     57  C   UNL A   1      39.986  29.497  31.234  1.00  0.00     0.037 A 
ATOM     58  C   UNL A   1      41.427  32.107  37.038  1.00  0.00     0.049 A 
ATOM     59  C   UNL A   1      41.121  29.301  32.199  1.00  0.00     0.074 A 
ATOM     60  C   UNL A   1      42.468  31.772  37.886  1.00  0.00     0.029 A 
ATOM     61  N   UNL A   1      41.561  31.315  35.907  1.00  0.00    -0.354 N 
ATOM     62  N   UNL A   1      41.318  29.862  33.369  1.00  0.00    -0.248 NA
ATOM     63  C   UNL A   1      42.174  28.354  31.804  1.00  0.00     0.031 C 
ATOM     64  C   UNL A   1      43.266  30.821  37.242  1.00  0.00     0.029 A 
ATOM     65  C   UNL A   1      42.688  30.518  36.020  1.00  0.00     0.049 A 
ATOM     66  H   UNL A   1      40.946  31.320  35.138  1.00  0.00     0.167 HD
ATOM     67  C   UNL A   1      42.497  29.315  33.860  1.00  0.00     0.074 A 
ATOM     68  C   UNL A   1      42.962  28.367  32.869  1.00  0.00     0.031 C 
ATOM     69  C   UNL A   1      43.136  29.575  35.027  1.00  0.00     0.037 A 
BRANCH  56  70
ATOM     70  C   UNL A   1      40.441  33.933  38.475  1.00  0.00     0.057 A 
ATOM     71  C   UNL A   1      41.162  35.134  38.522  1.00  0.00     0.134 A 
ATOM     72  C   UNL A   1      39.722  33.568  39.621  1.00  0.00     0.134 A 
ATOM     73  F   UNL A   1      41.880  35.539  37.464  1.00  0.00    -0.206 F 
ATOM     74  C   UNL A   1      41.186  35.927  39.672  1.00  0.00     0.040 A 
ATOM     75  C   UNL A   1      39.715  34.367  40.765  1.00  0.00     0.040 A 
ATOM     76  F   UNL A   1      39.004  32.435  39.643  1.00  0.00    -0.206 F 
ATOM     77  C   UNL A   1      40.454  35.547  40.795  1.00  0.00     0.006 A 
ENDBRANCH  56  70
BRANCH  57  78
ATOM     78  C   UNL A   1      39.950  28.758  29.945  1.00  0.00     0.057 A 
ATOM     79  C   UNL A   1      39.272  27.538  29.828  1.00  0.00     0.134 A 
ATOM     80  C   UNL A   1      40.602  29.242  28.805  1.00  0.00     0.134 A 
ATOM     81  F   UNL A   1      38.641  27.013  30.889  1.00  0.00    -0.206 F 
ATOM     82  C   UNL A   1      39.267  26.815  28.635  1.00  0.00     0.040 A 
ATOM     83  C   UNL A   1      40.581  28.543  27.596  1.00  0.00     0.040 A 
ATOM     84  F   UNL A   1      41.259  30.410  28.845  1.00  0.00    -0.206 F 
ATOM     85  C   UNL A   1      39.920  27.320  27.513  1.00  0.00     0.006 A 
ENDBRANCH  57  78
BRANCH  69  86
ATOM     86  C   UNL A   1      44.391  28.802  35.313  1.00  0.00     0.057 A 
ATOM     87  C   UNL A   1      44.365  27.560  35.960  1.00  0.00     0.134 A 
ATOM     88  C   UNL A   1      45.636  29.282  34.886  1.00  0.00     0.134 A 
ATOM     89  F   UNL A   1      43.207  27.050  36.406  1.00  0.00    -0.206 F 
ATOM     90  C   UNL A   1      45.535  26.833  36.191  1.00  0.00     0.040 A 
ATOM     91  C   UNL A   1      46.808  28.551  35.082  1.00  0.00     0.040 A 
ATOM     92  F   UNL A   1      45.730  30.461  34.250  1.00  0.00    -0.206 F 
ATOM     93  C   UNL A   1      46.760  27.325  35.743  1.00  0.00     0.006 A 
ENDBRANCH  69  86
ENDBRANCH  43  44
ENDBRANCH  35  38
ENDBRANCH  33  34
ENDBRANCH  32  33
ENDBRANCH  31  32
ENDBRANCH   1  31
TORSDOF 16
ENDMDL
MODEL 2
REMARK VINA RESULT:     -12.1      0.450      5.901
REMARK SMILES C[C@H](C(=O)NCCCCCCNC(=O)c1ccc(-c2c3nc(c(-c4c(F)cccc4F)c4ccc([nH]4)c(-c4c(F)cccc4F)c4nc(c(-c5c(F)cccc5F)c5ccc2[nH]5)C=C4)C=C3)cc1)N1C(=O)C[C@@H](N2C(=O)/C(=C/c3ccccc3)SC2=S)C1=O
REMARK SMILES IDX 8 1 7 2 6 3 5 4 3 5 4 6 2 8 1 9 69 10 70 11 88 12 71 13
REMARK SMILES IDX 72 14 73 15 89 16 74 17 75 18 86 19 76 20 77 21 85 22 87 23
REMARK SMILES IDX 78 24 79 25 80 26 84 27 81 28 83 29 82 30 9 31 10 32 11 33
REMARK SMILES IDX 12 34 13 35 14 37 15 38 16 39 68 40 17 41 67 42 18 43 19 44
REMARK SMILES IDX 20 45 61 46 21 47 66 48 60 49 62 50 22 51 65 52 59 53 58 54
REMARK SMILES IDX 23 56 49 57 32 58 48 59 33 60 36 61 47 62 63 63 34 64 35 65
REMARK SMILES IDX 46 67 64 68 37 69 24 70 25 71 30 72 26 73 27 74 29 75 31 76
REMARK SMILES IDX 28 77 50 78 51 79 56 80 52 81 53 82 55 83 57 84 54 85 38 86
REMARK SMILES IDX 39 87 44 88 40 89 41 90 43 91 45 92 42 93
REMARK H PARENT 5 7 12 36 62 55 36 66
REMARK Flexibility Score: inf
ROOT
ATOM      1  C   UNL A   1      34.565  31.983  28.988  1.00  0.00     0.002 C 
ENDROOT
BRANCH   1   2
ATOM      2  C   UNL A   1      34.295  31.349  27.622  1.00  0.00     0.021 C 
BRANCH   2   3
ATOM      3  C   UNL A   1      34.609  29.857  27.577  1.00  0.00     0.116 C 
BRANCH   3   4
ATOM      4  N   UNL A   1      34.652  29.333  26.233  1.00  0.00    -0.354 N 
ATOM      5  C   UNL A   1      33.695  28.923  25.365  1.00  0.00     0.243 C 
ATOM      6  O   UNL A   1      34.118  28.591  24.247  1.00  0.00    -0.273 OA
ATOM      7  H   UNL A   1      35.565  29.260  25.872  1.00  0.00     0.163 HD
BRANCH   5   8
ATOM      8  C   UNL A   1      32.190  28.704  25.686  1.00  0.00     0.179 C 
ATOM      9  C   UNL A   1      31.456  30.038  25.531  1.00  0.00     0.042 C 
BRANCH   8  10
ATOM     10  N   UNL A   1      31.459  27.578  25.103  1.00  0.00    -0.268 N 
ATOM     11  C   UNL A   1      30.527  27.654  24.105  1.00  0.00     0.232 C 
ATOM     12  C   UNL A   1      31.636  26.292  25.536  1.00  0.00     0.253 C 
ATOM     13  O   UNL A   1      30.046  28.661  23.617  1.00  0.00    -0.274 OA
ATOM     14  C   UNL A   1      30.236  26.268  23.592  1.00  0.00     0.136 C 
ATOM     15  C   UNL A   1      30.768  25.372  24.694  1.00  0.00     0.191 C 
ATOM     16  O   UNL A   1      32.339  25.912  26.463  1.00  0.00    -0.272 OA
BRANCH  15  17
ATOM     17  N   UNL A   1      31.519  24.185  24.260  1.00  0.00    -0.280 N 
ATOM     18  C   UNL A   1      31.391  23.004  24.968  1.00  0.00     0.266 C 
ATOM     19  C   UNL A   1      32.411  24.157  23.210  1.00  0.00     0.149 C 
ATOM     20  O   UNL A   1      30.768  22.864  26.011  1.00  0.00    -0.268 OA
ATOM     21  C   UNL A   1      32.151  21.908  24.323  1.00  0.00     0.081 C 
ATOM     22  S   UNL A   1      33.042  22.527  22.997  1.00  0.00    -0.054 SA
ATOM     23  S   UNL A   1      32.917  25.432  22.262  1.00  0.00    -0.052 S 
ATOM     24  C   UNL A   1      32.073  20.651  24.779  1.00  0.00     0.029 C 
BRANCH  24  25
ATOM     25  C   UNL A   1      32.800  19.490  24.259  1.00  0.00    -0.024 A 
ATOM     26  C   UNL A   1      32.235  18.713  23.241  1.00  0.00     0.008 A 
ATOM     27  C   UNL A   1      34.029  19.106  24.810  1.00  0.00     0.008 A 
ATOM     28  C   UNL A   1      32.907  17.586  22.760  1.00  0.00     0.001 A 
ATOM     29  C   UNL A   1      34.700  17.983  24.327  1.00  0.00     0.001 A 
ATOM     30  C   UNL A   1      34.141  17.226  23.300  1.00  0.00     0.000 A 
ENDBRANCH  24  25
ENDBRANCH  15  17
ENDBRANCH   8  10
ENDBRANCH   5   8
ENDBRANCH   3   4
ENDBRANCH   2   3
ENDBRANCH   1   2
BRANCH   1  31
ATOM     31  C   UNL A   1      34.736  33.510  28.968  1.00  0.00     0.002 C 
BRANCH  31  32
ATOM     32  C   UNL A   1      33.435  34.311  28.871  1.00  0.00     0.021 C 
BRANCH  32  33
ATOM     33  C   UNL A   1      33.527  35.727  29.433  1.00  0.00     0.116 C 
BRANCH  33  34
ATOM     34  N   UNL A   1      32.608  35.924  30.544  1.00  0.00    -0.352 N 
ATOM     35  C   UNL A   1      32.662  35.429  31.822  1.00  0.00     0.251 C 
ATOM     36  H   UNL A   1      31.832  36.498  30.350  1.00  0.00     0.163 HD
ATOM     37  O   UNL A   1      31.677  35.483  32.550  1.00  0.00    -0.269 OA
BRANCH  35  38
ATOM     38  C   UNL A   1      33.913  34.822  32.318  1.00  0.00     0.039 A 
ATOM     39  C   UNL A   1      33.887  33.515  32.809  1.00  0.00     0.014 A 
ATOM     40  C   UNL A   1      35.106  35.549  32.308  1.00  0.00     0.014 A 
ATOM     41  C   UNL A   1      35.074  32.914  33.231  1.00  0.00     0.010 A 
ATOM     42  C   UNL A   1      36.298  34.925  32.658  1.00  0.00     0.010 A 
ATOM     43  C   UNL A   1      36.294  33.602  33.123  1.00  0.00    -0.014 A 
BRANCH  43  44
ATOM     44  C   UNL A   1      37.580  32.951  33.478  1.00  0.00     0.031 A 
ATOM     45  C   UNL A   1      38.179  31.913  32.571  1.00  0.00     0.074 A 
ATOM     46  C   UNL A   1      38.164  33.241  34.656  1.00  0.00     0.049 A 
ATOM     47  N   UNL A   1      39.243  31.173  32.752  1.00  0.00    -0.248 NA
ATOM     48  C   UNL A   1      37.474  31.653  31.306  1.00  0.00     0.031 C 
ATOM     49  C   UNL A   1      37.655  34.199  35.641  1.00  0.00     0.029 A 
ATOM     50  N   UNL A   1      39.307  32.747  35.236  1.00  0.00    -0.354 N 
ATOM     51  C   UNL A   1      39.326  30.352  31.635  1.00  0.00     0.074 A 
ATOM     52  C   UNL A   1      38.178  30.647  30.806  1.00  0.00     0.031 C 
ATOM     53  C   UNL A   1      38.490  34.235  36.692  1.00  0.00     0.029 A 
ATOM     54  C   UNL A   1      39.566  33.272  36.478  1.00  0.00     0.049 A 
ATOM     55  H   UNL A   1      39.887  32.081  34.801  1.00  0.00     0.167 HD
ATOM     56  C   UNL A   1      40.285  29.449  31.320  1.00  0.00     0.037 A 
ATOM     57  C   UNL A   1      40.549  32.995  37.355  1.00  0.00     0.037 A 
ATOM     58  C   UNL A   1      41.436  29.175  32.140  1.00  0.00     0.049 A 
ATOM     59  C   UNL A   1      41.588  31.971  36.991  1.00  0.00     0.074 A 
ATOM     60  C   UNL A   1      42.497  28.328  31.877  1.00  0.00     0.029 A 
ATOM     61  N   UNL A   1      41.668  29.734  33.388  1.00  0.00    -0.354 N 
ATOM     62  N   UNL A   1      41.698  31.259  35.895  1.00  0.00    -0.248 NA
ATOM     63  C   UNL A   1      42.640  31.709  37.984  1.00  0.00     0.031 C 
ATOM     64  C   UNL A   1      43.342  28.329  32.991  1.00  0.00     0.029 A 
ATOM     65  C   UNL A   1      42.840  29.224  33.923  1.00  0.00     0.049 A 
ATOM     66  H   UNL A   1      41.087  30.396  33.828  1.00  0.00     0.167 HD
ATOM     67  C   UNL A   1      42.844  30.490  36.054  1.00  0.00     0.074 A 
ATOM     68  C   UNL A   1      43.403  30.834  37.345  1.00  0.00     0.031 C 
ATOM     69  C   UNL A   1      43.386  29.580  35.207  1.00  0.00     0.037 A 
BRANCH  56  70
ATOM     70  C   UNL A   1      40.129  28.684  30.036  1.00  0.00     0.057 A 
ATOM     71  C   UNL A   1      39.354  27.519  29.956  1.00  0.00     0.134 A 
ATOM     72  C   UNL A   1      40.723  29.146  28.854  1.00  0.00     0.134 A 
ATOM     73  F   UNL A   1      38.765  27.017  31.051  1.00  0.00    -0.206 F 
ATOM     74  C   UNL A   1      39.198  26.827  28.753  1.00  0.00     0.040 A 
ATOM     75  C   UNL A   1      40.549  28.479  27.640  1.00  0.00     0.040 A 
ATOM     76  F   UNL A   1      41.472  30.259  28.857  1.00  0.00    -0.206 F 
ATOM     77  C   UNL A   1      39.791  27.312  27.589  1.00  0.00     0.006 A 
ENDBRANCH  56  70
BRANCH  57  78
ATOM     78  C   UNL A   1      40.603  33.699  38.664  1.00  0.00     0.057 A 
ATOM     79  C   UNL A   1      39.787  33.306  39.730  1.00  0.00     0.134 A 
ATOM     80  C   UNL A   1      41.457  34.787  38.875  1.00  0.00     0.134 A 
ATOM     81  F   UNL A   1      38.934  32.280  39.586  1.00  0.00    -0.206 F 
ATOM     82  C   UNL A   1      39.798  33.985  40.950  1.00  0.00     0.040 A 
ATOM     83  C   UNL A   1      41.500  35.458  40.099  1.00  0.00     0.040 A 
ATOM     84  F   UNL A   1      42.274  35.208  37.898  1.00  0.00    -0.206 F 
ATOM     85  C   UNL A   1      40.660  35.062  41.137  1.00  0.00     0.006 A 
ENDBRANCH  57  78
BRANCH  69  86
ATOM     86  C   UNL A   1      44.663  28.916  35.633  1.00  0.00     0.057 A 
ATOM     87  C   UNL A   1      44.669  27.721  36.364  1.00  0.00     0.134 A 
ATOM     88  C   UNL A   1      45.902  29.451  35.260  1.00  0.00     0.134 A 
ATOM     89  F   UNL A   1      43.517  27.163  36.764  1.00  0.00    -0.206 F 
ATOM     90  C   UNL A   1      45.863  27.094  36.726  1.00  0.00     0.040 A 
ATOM     91  C   UNL A   1      47.102  28.819  35.589  1.00  0.00     0.040 A 
ATOM     92  F   UNL A   1      45.967  30.589  34.550  1.00  0.00    -0.206 F 
ATOM     93  C   UNL A   1      47.083  27.639  36.330  1.00  0.00     0.006 A 
ENDBRANCH  69  86
ENDBRANCH  43  44
ENDBRANCH  35  38
ENDBRANCH  33  34
ENDBRANCH  32  33
ENDBRANCH  31  32
ENDBRANCH   1  31
TORSDOF 16
ENDMDL
MODEL 3
REMARK VINA RESULT:     -11.8      6.487     11.986
REMARK SMILES C[C@H](C(=O)NCCCCCCNC(=O)c1ccc(-c2c3nc(c(-c4c(F)cccc4F)c4ccc([nH]4)c(-c4c(F)cccc4F)c4nc(c(-c5c(F)cccc5F)c5ccc2[nH]5)C=C4)C=C3)cc1)N1C(=O)C[C@@H](N2C(=O)/C(=C/c3ccccc3)SC2=S)C1=O
REMARK SMILES IDX 8 1 7 2 6 3 5 4 3 5 4 6 2 8 1 9 69 10 70 11 88 12 71 13
REMARK SMILES IDX 72 14 73 15 89 16 74 17 75 18 86 19 76 20 77 21 85 22 87 23
REMARK SMILES IDX 78 24 79 25 80 26 84 27 81 28 83 29 82 30 9 31 10 32 11 33
REMARK SMILES IDX 12 34 13 35 14 37 15 38 16 39 68 40 17 41 67 42 18 43 19 44
REMARK SMILES IDX 20 45 61 46 21 47 66 48 60 49 62 50 22 51 65 52 59 53 58 54
REMARK SMILES IDX 23 56 49 57 32 58 48 59 33 60 36 61 47 62 63 63 34 64 35 65
REMARK SMILES IDX 46 67 64 68 37 69 24 70 25 71 30 72 26 73 27 74 29 75 31 76
REMARK SMILES IDX 28 77 50 78 51 79 56 80 52 81 53 82 55 83 57 84 54 85 38 86
REMARK SMILES IDX 39 87 44 88 40 89 41 90 43 91 45 92 42 93
REMARK H PARENT 5 7 12 36 62 55 36 66
REMARK Flexibility Score: inf
ROOT
ATOM      1  C   UNL A   1      40.721  22.132  26.419  1.00  0.00     0.002 C 
ENDROOT
BRANCH   1   2
ATOM      2  C   UNL A   1      39.484  22.920  26.855  1.00  0.00     0.021 C 
BRANCH   2   3
ATOM      3  C   UNL A   1      38.350  22.875  25.836  1.00  0.00     0.116 C 
BRANCH   3   4
ATOM      4  N   UNL A   1      37.056  23.118  26.427  1.00  0.00    -0.354 N 
ATOM      5  C   UNL A   1      35.801  22.708  26.116  1.00  0.00     0.243 C 
ATOM      6  O   UNL A   1      34.925  23.075  26.913  1.00  0.00    -0.273 OA
ATOM      7  H   UNL A   1      37.091  23.700  27.219  1.00  0.00     0.163 HD
BRANCH   5   8
ATOM      8  C   UNL A   1      35.366  21.969  24.820  1.00  0.00     0.179 C 
ATOM      9  C   UNL A   1      35.620  20.471  25.000  1.00  0.00     0.042 C 
BRANCH   8  10
ATOM     10  N   UNL A   1      34.075  22.259  24.193  1.00  0.00    -0.268 N 
ATOM     11  C   UNL A   1      33.037  21.382  24.046  1.00  0.00     0.232 C 
ATOM     12  C   UNL A   1      33.785  23.485  23.657  1.00  0.00     0.253 C 
ATOM     13  O   UNL A   1      33.039  20.187  24.284  1.00  0.00    -0.274 OA
ATOM     14  C   UNL A   1      31.802  22.139  23.632  1.00  0.00     0.136 C 
ATOM     15  C   UNL A   1      32.357  23.461  23.137  1.00  0.00     0.191 C 
ATOM     16  O   UNL A   1      34.532  24.449  23.565  1.00  0.00    -0.272 OA
BRANCH  15  17
ATOM     17  N   UNL A   1      31.623  24.667  23.547  1.00  0.00    -0.280 N 
ATOM     18  C   UNL A   1      31.447  25.696  22.639  1.00  0.00     0.266 C 
ATOM     19  C   UNL A   1      31.127  24.896  24.812  1.00  0.00     0.149 C 
ATOM     20  O   UNL A   1      31.936  25.748  21.520  1.00  0.00    -0.268 OA
ATOM     21  C   UNL A   1      30.609  26.776  23.211  1.00  0.00     0.081 C 
ATOM     22  S   UNL A   1      30.269  26.433  24.854  1.00  0.00    -0.054 SA
ATOM     23  S   UNL A   1      31.307  23.946  26.170  1.00  0.00    -0.052 S 
ATOM     24  C   UNL A   1      30.217  27.816  22.463  1.00  0.00     0.029 C 
BRANCH  24  25
ATOM     25  C   UNL A   1      29.425  28.964  22.914  1.00  0.00    -0.024 A 
ATOM     26  C   UNL A   1      28.038  28.969  22.728  1.00  0.00     0.008 A 
ATOM     27  C   UNL A   1      30.045  30.088  23.475  1.00  0.00     0.008 A 
ATOM     28  C   UNL A   1      27.278  30.071  23.128  1.00  0.00     0.001 A 
ATOM     29  C   UNL A   1      29.284  31.186  23.877  1.00  0.00     0.001 A 
ATOM     30  C   UNL A   1      27.902  31.176  23.706  1.00  0.00     0.000 A 
ENDBRANCH  24  25
ENDBRANCH  15  17
ENDBRANCH   8  10
ENDBRANCH   5   8
ENDBRANCH   3   4
ENDBRANCH   2   3
ENDBRANCH   1   2
BRANCH   1  31
ATOM     31  C   UNL A   1      40.853  20.737  27.048  1.00  0.00     0.002 C 
BRANCH  31  32
ATOM     32  C   UNL A   1      41.409  19.652  26.120  1.00  0.00     0.021 C 
BRANCH  32  33
ATOM     33  C   UNL A   1      42.764  19.097  26.548  1.00  0.00     0.116 C 
BRANCH  33  34
ATOM     34  N   UNL A   1      43.565  18.693  25.401  1.00  0.00    -0.352 N 
ATOM     35  C   UNL A   1      44.295  19.461  24.530  1.00  0.00     0.251 C 
ATOM     36  H   UNL A   1      43.585  17.725  25.223  1.00  0.00     0.163 HD
ATOM     37  O   UNL A   1      44.696  18.989  23.473  1.00  0.00    -0.269 OA
BRANCH  35  38
ATOM     38  C   UNL A   1      44.591  20.868  24.869  1.00  0.00     0.039 A 
ATOM     39  C   UNL A   1      44.341  21.863  23.922  1.00  0.00     0.014 A 
ATOM     40  C   UNL A   1      45.127  21.198  26.116  1.00  0.00     0.014 A 
ATOM     41  C   UNL A   1      44.568  23.200  24.251  1.00  0.00     0.010 A 
ATOM     42  C   UNL A   1      45.281  22.535  26.469  1.00  0.00     0.010 A 
ATOM     43  C   UNL A   1      45.003  23.548  25.540  1.00  0.00    -0.014 A 
BRANCH  43  44
ATOM     44  C   UNL A   1      45.163  24.968  25.943  1.00  0.00     0.031 A 
ATOM     45  C   UNL A   1      46.515  25.622  25.886  1.00  0.00     0.074 A 
ATOM     46  C   UNL A   1      44.104  25.639  26.435  1.00  0.00     0.049 A 
ATOM     47  N   UNL A   1      46.869  26.820  26.278  1.00  0.00    -0.248 NA
ATOM     48  C   UNL A   1      47.619  24.817  25.341  1.00  0.00     0.031 C 
ATOM     49  C   UNL A   1      42.751  25.097  26.580  1.00  0.00     0.029 A 
ATOM     50  N   UNL A   1      44.001  26.920  26.918  1.00  0.00    -0.354 N 
ATOM     51  C   UNL A   1      48.236  26.905  26.043  1.00  0.00     0.074 A 
ATOM     52  C   UNL A   1      48.656  25.622  25.522  1.00  0.00     0.031 C 
ATOM     53  C   UNL A   1      41.952  26.042  27.100  1.00  0.00     0.029 A 
ATOM     54  C   UNL A   1      42.742  27.239  27.366  1.00  0.00     0.049 A 
ATOM     55  H   UNL A   1      44.757  27.550  26.940  1.00  0.00     0.167 HD
ATOM     56  C   UNL A   1      49.060  27.963  26.225  1.00  0.00     0.037 A 
ATOM     57  C   UNL A   1      42.281  28.365  27.945  1.00  0.00     0.037 A 
ATOM     58  C   UNL A   1      48.631  29.243  26.725  1.00  0.00     0.049 A 
ATOM     59  C   UNL A   1      43.223  29.517  28.158  1.00  0.00     0.074 A 
ATOM     60  C   UNL A   1      49.375  30.399  26.882  1.00  0.00     0.029 A 
ATOM     61  N   UNL A   1      47.346  29.532  27.159  1.00  0.00    -0.354 N 
ATOM     62  N   UNL A   1      44.497  29.611  27.856  1.00  0.00    -0.248 NA
ATOM     63  C   UNL A   1      42.667  30.722  28.791  1.00  0.00     0.031 C 
ATOM     64  C   UNL A   1      48.556  31.369  27.467  1.00  0.00     0.029 A 
ATOM     65  C   UNL A   1      47.285  30.838  27.617  1.00  0.00     0.049 A 
ATOM     66  H   UNL A   1      46.589  28.902  27.143  1.00  0.00     0.167 HD
ATOM     67  C   UNL A   1      44.884  30.890  28.235  1.00  0.00     0.074 A 
ATOM     68  C   UNL A   1      43.708  31.542  28.773  1.00  0.00     0.031 C 
ATOM     69  C   UNL A   1      46.105  31.474  28.145  1.00  0.00     0.037 A 
BRANCH  56  70
ATOM     70  C   UNL A   1      50.513  27.782  25.888  1.00  0.00     0.057 A 
ATOM     71  C   UNL A   1      51.469  27.474  26.866  1.00  0.00     0.134 A 
ATOM     72  C   UNL A   1      50.955  27.872  24.562  1.00  0.00     0.134 A 
ATOM     73  F   UNL A   1      51.116  27.382  28.157  1.00  0.00    -0.206 F 
ATOM     74  C   UNL A   1      52.814  27.287  26.540  1.00  0.00     0.040 A 
ATOM     75  C   UNL A   1      52.291  27.658  24.220  1.00  0.00     0.040 A 
ATOM     76  F   UNL A   1      50.093  28.157  23.574  1.00  0.00    -0.206 F 
ATOM     77  C   UNL A   1      53.226  27.371  25.212  1.00  0.00     0.006 A 
ENDBRANCH  56  70
BRANCH  57  78
ATOM     78  C   UNL A   1      40.858  28.460  28.363  1.00  0.00     0.057 A 
ATOM     79  C   UNL A   1      39.877  28.939  27.487  1.00  0.00     0.134 A 
ATOM     80  C   UNL A   1      40.447  28.091  29.649  1.00  0.00     0.134 A 
ATOM     81  F   UNL A   1      40.210  29.325  26.246  1.00  0.00    -0.206 F 
ATOM     82  C   UNL A   1      38.545  29.073  27.883  1.00  0.00     0.040 A 
ATOM     83  C   UNL A   1      39.113  28.192  30.049  1.00  0.00     0.040 A 
ATOM     84  F   UNL A   1      41.335  27.613  30.534  1.00  0.00    -0.206 F 
ATOM     85  C   UNL A   1      38.160  28.694  29.167  1.00  0.00     0.006 A 
ENDBRANCH  57  78
BRANCH  69  86
ATOM     86  C   UNL A   1      46.225  32.896  28.608  1.00  0.00     0.057 A 
ATOM     87  C   UNL A   1      46.605  33.220  29.917  1.00  0.00     0.134 A 
ATOM     88  C   UNL A   1      46.010  33.956  27.717  1.00  0.00     0.134 A 
ATOM     89  F   UNL A   1      46.814  32.254  30.823  1.00  0.00    -0.206 F 
ATOM     90  C   UNL A   1      46.746  34.547  30.328  1.00  0.00     0.040 A 
ATOM     91  C   UNL A   1      46.177  35.285  28.107  1.00  0.00     0.040 A 
ATOM     92  F   UNL A   1      45.653  33.715  26.445  1.00  0.00    -0.206 F 
ATOM     93  C   UNL A   1      46.541  35.583  29.418  1.00  0.00     0.006 A 
ENDBRANCH  69  86
ENDBRANCH  43  44
ENDBRANCH  35  38
ENDBRANCH  33  34
ENDBRANCH  32  33
ENDBRANCH  31  32
ENDBRANCH   1  31
TORSDOF 16
ENDMDL
