MODEL 1
REMARK VINA RESULT:     -11.1      0.000      0.000
REMARK SMILES CC(C)c1nc(N(C)CCc2ccccn2)sc1C(=O)NCCCCCCNC(=O)c1ccc(-c2c3nc(c(-c4c(F)cccc4F)c4ccc([nH]4)c(-c4c(F)cccc4F)c4nc(c(-c5c(F)cccc5F)c5ccc2[nH]5)C=C4)C=C3)cc1
REMARK SMILES IDX 23 1 22 2 21 3 19 4 20 5 18 7 4 8 5 9 6 10 17 11 2 12 1 13
REMARK SMILES IDX 3 14 7 15 8 16 9 17 10 18 11 19 12 20 16 21 13 22 15 23
REMARK SMILES IDX 14 24 24 25 25 26 26 27 27 28 28 29 29 30 30 32 31 33 32 34
REMARK SMILES IDX 84 35 33 36 83 37 34 38 35 39 36 40 77 41 37 42 82 43 76 44
REMARK SMILES IDX 78 45 38 46 81 47 75 48 74 49 39 51 65 52 48 53 64 54 49 55
REMARK SMILES IDX 52 56 63 57 79 58 50 59 51 60 62 62 80 63 53 64 40 65 41 66
REMARK SMILES IDX 46 67 42 68 43 69 45 70 47 71 44 72 66 73 67 74 72 75 68 76
REMARK SMILES IDX 69 77 71 78 73 79 70 80 54 81 55 82 60 83 56 84 57 85 59 86
REMARK SMILES IDX 61 87 58 88
REMARK H PARENT 21 6 28 31 78 50 52 61
REMARK Flexibility Score: inf
ROOT
ATOM      1  C   UNL A   1      30.095  29.207  23.735  1.00  0.00     0.021 C 
ENDROOT
BRANCH   1   2
ATOM      2  C   UNL A   1      31.030  28.111  24.250  1.00  0.00     0.116 C 
BRANCH   2   3
ATOM      3  N   UNL A   1      30.318  27.060  24.931  1.00  0.00    -0.351 N 
ATOM      4  C   UNL A   1      30.597  25.846  25.495  1.00  0.00     0.263 C 
ATOM      5  O   UNL A   1      29.732  25.574  26.345  1.00  0.00    -0.268 OA
ATOM      6  H   UNL A   1      29.362  27.277  25.014  1.00  0.00     0.163 HD
BRANCH   4   7
ATOM      7  C   UNL A   1      31.670  24.908  25.168  1.00  0.00     0.117 A 
ATOM      8  C   UNL A   1      32.512  24.533  24.121  1.00  0.00     0.069 A 
ATOM      9  N   UNL A   1      33.334  23.435  24.403  1.00  0.00    -0.224 NA
ATOM     10  C   UNL A   1      33.137  22.915  25.587  1.00  0.00     0.186 A 
ATOM     11  S   UNL A   1      32.030  23.830  26.507  1.00  0.00    -0.091 S 
BRANCH   8  12
ATOM     12  C   UNL A   1      32.726  25.042  22.719  1.00  0.00     0.034 C 
ATOM     13  C   UNL A   1      33.652  26.252  22.651  1.00  0.00     0.014 C 
ATOM     14  C   UNL A   1      33.016  23.919  21.721  1.00  0.00     0.014 C 
ENDBRANCH   8  12
BRANCH  10  15
ATOM     15  N   UNL A   1      33.744  21.769  26.020  1.00  0.00    -0.351 N 
ATOM     16  C   UNL A   1      34.029  21.483  27.416  1.00  0.00     0.146 C 
BRANCH  15  17
ATOM     17  C   UNL A   1      34.108  20.732  25.042  1.00  0.00     0.125 C 
BRANCH  17  18
ATOM     18  C   UNL A   1      32.908  19.878  24.611  1.00  0.00     0.077 C 
BRANCH  18  19
ATOM     19  C   UNL A   1      33.183  18.404  24.734  1.00  0.00     0.042 A 
ATOM     20  C   UNL A   1      34.371  17.862  24.253  1.00  0.00     0.024 A 
ATOM     21  N   UNL A   1      32.246  17.662  25.376  1.00  0.00    -0.261 NA
ATOM     22  C   UNL A   1      34.625  16.512  24.466  1.00  0.00     0.003 A 
ATOM     23  C   UNL A   1      32.523  16.356  25.574  1.00  0.00     0.111 A 
ATOM     24  C   UNL A   1      33.686  15.743  25.142  1.00  0.00     0.020 A 
ENDBRANCH  18  19
ENDBRANCH  17  18
ENDBRANCH  15  17
ENDBRANCH  10  15
ENDBRANCH   4   7
ENDBRANCH   2   3
ENDBRANCH   1   2
BRANCH   1  25
ATOM     25  C   UNL A   1      30.339  30.572  24.382  1.00  0.00     0.002 C 
BRANCH  25  26
ATOM     26  C   UNL A   1      31.322  30.600  25.556  1.00  0.00     0.002 C 
BRANCH  26  27
ATOM     27  C   UNL A   1      31.228  31.804  26.494  1.00  0.00     0.021 C 
BRANCH  27  28
ATOM     28  C   UNL A   1      32.558  32.427  26.910  1.00  0.00     0.116 C 
BRANCH  28  29
ATOM     29  N   UNL A   1      32.405  33.797  27.377  1.00  0.00    -0.352 N 
ATOM     30  C   UNL A   1      33.037  34.474  28.382  1.00  0.00     0.251 C 
ATOM     31  H   UNL A   1      31.734  34.324  26.886  1.00  0.00     0.163 HD
ATOM     32  O   UNL A   1      32.606  35.574  28.736  1.00  0.00    -0.269 OA
BRANCH  30  33
ATOM     33  C   UNL A   1      34.221  33.906  29.057  1.00  0.00     0.039 A 
ATOM     34  C   UNL A   1      34.028  32.941  30.052  1.00  0.00     0.014 A 
ATOM     35  C   UNL A   1      35.512  34.352  28.759  1.00  0.00     0.014 A 
ATOM     36  C   UNL A   1      35.128  32.389  30.708  1.00  0.00     0.010 A 
ATOM     37  C   UNL A   1      36.612  33.750  29.363  1.00  0.00     0.010 A 
ATOM     38  C   UNL A   1      36.432  32.767  30.348  1.00  0.00    -0.014 A 
BRANCH  38  39
ATOM     39  C   UNL A   1      37.615  32.144  30.994  1.00  0.00     0.031 A 
ATOM     40  C   UNL A   1      38.353  31.027  30.307  1.00  0.00     0.074 A 
ATOM     41  C   UNL A   1      37.989  32.545  32.223  1.00  0.00     0.049 A 
ATOM     42  N   UNL A   1      39.363  30.315  30.741  1.00  0.00    -0.248 NA
ATOM     43  C   UNL A   1      37.879  30.643  28.968  1.00  0.00     0.031 C 
ATOM     44  C   UNL A   1      37.330  33.591  33.008  1.00  0.00     0.029 A 
ATOM     45  N   UNL A   1      39.009  32.116  33.034  1.00  0.00    -0.354 N 
ATOM     46  C   UNL A   1      39.635  29.394  29.736  1.00  0.00     0.074 A 
ATOM     47  C   UNL A   1      38.652  29.602  28.694  1.00  0.00     0.031 C 
ATOM     48  C   UNL A   1      37.973  33.735  34.178  1.00  0.00     0.029 A 
ATOM     49  C   UNL A   1      39.063  32.766  34.243  1.00  0.00     0.049 A 
ATOM     50  H   UNL A   1      39.642  31.407  32.775  1.00  0.00     0.167 HD
ATOM     51  C   UNL A   1      40.627  28.474  29.678  1.00  0.00     0.037 A 
ATOM     52  C   UNL A   1      39.890  32.595  35.291  1.00  0.00     0.037 A 
ATOM     53  C   UNL A   1      41.615  28.284  30.708  1.00  0.00     0.049 A 
ATOM     54  C   UNL A   1      40.974  31.556  35.207  1.00  0.00     0.074 A 
ATOM     55  C   UNL A   1      42.693  27.415  30.719  1.00  0.00     0.029 A 
ATOM     56  N   UNL A   1      41.645  28.973  31.911  1.00  0.00    -0.354 N 
ATOM     57  N   UNL A   1      41.259  30.736  34.223  1.00  0.00    -0.248 NA
ATOM     58  C   UNL A   1      41.856  31.422  36.375  1.00  0.00     0.031 C 
ATOM     59  C   UNL A   1      43.346  27.544  31.949  1.00  0.00     0.029 A 
ATOM     60  C   UNL A   1      42.708  28.532  32.682  1.00  0.00     0.049 A 
ATOM     61  H   UNL A   1      41.004  29.672  32.179  1.00  0.00     0.167 HD
ATOM     62  C   UNL A   1      42.370  30.013  34.641  1.00  0.00     0.074 A 
ATOM     63  C   UNL A   1      42.714  30.501  35.961  1.00  0.00     0.031 C 
ATOM     64  C   UNL A   1      43.045  29.035  33.990  1.00  0.00     0.037 A 
BRANCH  51  65
ATOM     65  C   UNL A   1      40.694  27.600  28.459  1.00  0.00     0.057 A 
ATOM     66  C   UNL A   1      39.996  26.387  28.379  1.00  0.00     0.134 A 
ATOM     67  C   UNL A   1      41.431  27.994  27.334  1.00  0.00     0.134 A 
ATOM     68  F   UNL A   1      39.280  25.944  29.423  1.00  0.00    -0.206 F 
ATOM     69  C   UNL A   1      40.049  25.588  27.235  1.00  0.00     0.040 A 
ATOM     70  C   UNL A   1      41.467  27.217  26.175  1.00  0.00     0.040 A 
ATOM     71  F   UNL A   1      42.117  29.147  27.339  1.00  0.00    -0.206 F 
ATOM     72  C   UNL A   1      40.781  26.006  26.125  1.00  0.00     0.006 A 
ENDBRANCH  51  65
BRANCH  52  73
ATOM     73  C   UNL A   1      39.741  33.438  36.505  1.00  0.00     0.057 A 
ATOM     74  C   UNL A   1      40.462  34.627  36.653  1.00  0.00     0.134 A 
ATOM     75  C   UNL A   1      38.884  33.069  37.550  1.00  0.00     0.134 A 
ATOM     76  F   UNL A   1      41.312  35.024  35.693  1.00  0.00    -0.206 F 
ATOM     77  C   UNL A   1      40.359  35.408  37.804  1.00  0.00     0.040 A 
ATOM     78  C   UNL A   1      38.750  33.855  38.696  1.00  0.00     0.040 A 
ATOM     79  F   UNL A   1      38.157  31.945  37.467  1.00  0.00    -0.206 F 
ATOM     80  C   UNL A   1      39.495  35.025  38.829  1.00  0.00     0.006 A 
ENDBRANCH  52  73
BRANCH  64  81
ATOM     81  C   UNL A   1      44.250  28.457  34.674  1.00  0.00     0.057 A 
ATOM     82  C   UNL A   1      44.170  27.310  35.473  1.00  0.00     0.134 A 
ATOM     83  C   UNL A   1      45.513  29.036  34.496  1.00  0.00     0.134 A 
ATOM     84  F   UNL A   1      42.989  26.715  35.693  1.00  0.00    -0.206 F 
ATOM     85  C   UNL A   1      45.302  26.772  36.090  1.00  0.00     0.040 A 
ATOM     86  C   UNL A   1      46.655  28.491  35.084  1.00  0.00     0.040 A 
ATOM     87  F   UNL A   1      45.660  30.132  33.735  1.00  0.00    -0.206 F 
ATOM     88  C   UNL A   1      46.550  27.360  35.890  1.00  0.00     0.006 A 
ENDBRANCH  64  81
ENDBRANCH  38  39
ENDBRANCH  30  33
ENDBRANCH  28  29
ENDBRANCH  27  28
ENDBRANCH  26  27
ENDBRANCH  25  26
ENDBRANCH   1  25
TORSDOF 18
ENDMDL
MODEL 2
REMARK VINA RESULT:     -10.9      2.887      8.762
REMARK SMILES CC(C)c1nc(N(C)CCc2ccccn2)sc1C(=O)NCCCCCCNC(=O)c1ccc(-c2c3nc(c(-c4c(F)cccc4F)c4ccc([nH]4)c(-c4c(F)cccc4F)c4nc(c(-c5c(F)cccc5F)c5ccc2[nH]5)C=C4)C=C3)cc1
REMARK SMILES IDX 23 1 22 2 21 3 19 4 20 5 18 7 4 8 5 9 6 10 17 11 2 12 1 13
REMARK SMILES IDX 3 14 7 15 8 16 9 17 10 18 11 19 12 20 16 21 13 22 15 23
REMARK SMILES IDX 14 24 24 25 25 26 26 27 27 28 28 29 29 30 30 32 31 33 32 34
REMARK SMILES IDX 84 35 33 36 83 37 34 38 35 39 36 40 77 41 37 42 82 43 76 44
REMARK SMILES IDX 78 45 38 46 81 47 75 48 74 49 39 51 65 52 48 53 64 54 49 55
REMARK SMILES IDX 52 56 63 57 79 58 50 59 51 60 62 62 80 63 53 64 40 65 41 66
REMARK SMILES IDX 46 67 42 68 43 69 45 70 47 71 44 72 66 73 67 74 72 75 68 76
REMARK SMILES IDX 69 77 71 78 73 79 70 80 54 81 55 82 60 83 56 84 57 85 59 86
REMARK SMILES IDX 61 87 58 88
REMARK H PARENT 21 6 28 31 78 50 52 61
REMARK Flexibility Score: inf
ROOT
ATOM      1  C   UNL A   1      38.771  22.981  26.426  1.00  0.00     0.021 C 
ENDROOT
BRANCH   1   2
ATOM      2  C   UNL A   1      37.443  23.109  25.676  1.00  0.00     0.116 C 
BRANCH   2   3
ATOM      3  N   UNL A   1      36.319  22.703  26.480  1.00  0.00    -0.351 N 
ATOM      4  C   UNL A   1      34.994  22.419  26.301  1.00  0.00     0.263 C 
ATOM      5  O   UNL A   1      34.600  21.679  27.218  1.00  0.00    -0.268 OA
ATOM      6  H   UNL A   1      36.577  22.603  27.424  1.00  0.00     0.163 HD
BRANCH   4   7
ATOM      7  C   UNL A   1      34.080  22.916  25.273  1.00  0.00     0.117 A 
ATOM      8  C   UNL A   1      33.272  22.476  24.225  1.00  0.00     0.069 A 
ATOM      9  N   UNL A   1      32.657  23.503  23.498  1.00  0.00    -0.224 NA
ATOM     10  C   UNL A   1      32.984  24.706  23.896  1.00  0.00     0.186 A 
ATOM     11  S   UNL A   1      33.959  24.668  25.295  1.00  0.00    -0.091 S 
BRANCH   8  12
ATOM     12  C   UNL A   1      32.919  21.119  23.675  1.00  0.00     0.034 C 
ATOM     13  C   UNL A   1      32.556  20.105  24.755  1.00  0.00     0.014 C 
ATOM     14  C   UNL A   1      31.968  21.195  22.479  1.00  0.00     0.014 C 
ENDBRANCH   8  12
BRANCH  10  15
ATOM     15  N   UNL A   1      32.595  25.847  23.252  1.00  0.00    -0.351 N 
ATOM     16  C   UNL A   1      33.507  26.717  22.529  1.00  0.00     0.146 C 
BRANCH  15  17
ATOM     17  C   UNL A   1      31.173  26.222  23.243  1.00  0.00     0.125 C 
BRANCH  17  18
ATOM     18  C   UNL A   1      30.557  26.242  24.649  1.00  0.00     0.077 C 
BRANCH  18  19
ATOM     19  C   UNL A   1      31.096  27.364  25.493  1.00  0.00     0.042 A 
ATOM     20  C   UNL A   1      31.339  28.617  24.936  1.00  0.00     0.024 A 
ATOM     21  N   UNL A   1      31.277  27.101  26.812  1.00  0.00    -0.261 NA
ATOM     22  C   UNL A   1      31.752  29.650  25.769  1.00  0.00     0.003 A 
ATOM     23  C   UNL A   1      31.674  28.125  27.596  1.00  0.00     0.111 A 
ATOM     24  C   UNL A   1      31.921  29.403  27.126  1.00  0.00     0.020 A 
ENDBRANCH  18  19
ENDBRANCH  17  18
ENDBRANCH  15  17
ENDBRANCH  10  15
ENDBRANCH   4   7
ENDBRANCH   2   3
ENDBRANCH   1   2
BRANCH   1  25
ATOM     25  C   UNL A   1      39.516  21.677  26.131  1.00  0.00     0.002 C 
BRANCH  25  26
ATOM     26  C   UNL A   1      40.820  21.453  26.901  1.00  0.00     0.002 C 
BRANCH  26  27
ATOM     27  C   UNL A   1      42.118  21.651  26.115  1.00  0.00     0.021 C 
BRANCH  27  28
ATOM     28  C   UNL A   1      42.158  22.869  25.197  1.00  0.00     0.116 C 
BRANCH  28  29
ATOM     29  N   UNL A   1      43.518  23.306  24.918  1.00  0.00    -0.352 N 
ATOM     30  C   UNL A   1      44.207  24.408  25.340  1.00  0.00     0.251 C 
ATOM     31  H   UNL A   1      44.027  22.707  24.326  1.00  0.00     0.163 HD
ATOM     32  O   UNL A   1      45.289  24.685  24.815  1.00  0.00    -0.269 OA
BRANCH  30  33
ATOM     33  C   UNL A   1      43.673  25.279  26.406  1.00  0.00     0.039 A 
ATOM     34  C   UNL A   1      42.835  24.717  27.375  1.00  0.00     0.014 A 
ATOM     35  C   UNL A   1      43.945  26.650  26.429  1.00  0.00     0.014 A 
ATOM     36  C   UNL A   1      42.314  25.517  28.393  1.00  0.00     0.010 A 
ATOM     37  C   UNL A   1      43.483  27.432  27.485  1.00  0.00     0.010 A 
ATOM     38  C   UNL A   1      42.659  26.876  28.474  1.00  0.00    -0.014 A 
BRANCH  38  39
ATOM     39  C   UNL A   1      42.163  27.726  29.586  1.00  0.00     0.031 A 
ATOM     40  C   UNL A   1      42.837  27.685  30.930  1.00  0.00     0.074 A 
ATOM     41  C   UNL A   1      41.071  28.491  29.400  1.00  0.00     0.049 A 
ATOM     42  N   UNL A   1      42.508  28.301  32.038  1.00  0.00    -0.248 NA
ATOM     43  C   UNL A   1      44.021  26.820  31.053  1.00  0.00     0.031 C 
ATOM     44  C   UNL A   1      40.306  28.586  28.155  1.00  0.00     0.029 A 
ATOM     45  N   UNL A   1      40.406  29.327  30.261  1.00  0.00    -0.354 N 
ATOM     46  C   UNL A   1      43.435  27.889  32.989  1.00  0.00     0.074 A 
ATOM     47  C   UNL A   1      44.306  26.931  32.342  1.00  0.00     0.031 C 
ATOM     48  C   UNL A   1      39.290  29.446  28.327  1.00  0.00     0.029 A 
ATOM     49  C   UNL A   1      39.307  29.933  29.703  1.00  0.00     0.049 A 
ATOM     50  H   UNL A   1      40.691  29.479  31.192  1.00  0.00     0.167 HD
ATOM     51  C   UNL A   1      43.560  28.289  34.277  1.00  0.00     0.037 A 
ATOM     52  C   UNL A   1      38.407  30.777  30.242  1.00  0.00     0.037 A 
ATOM     53  C   UNL A   1      42.703  29.257  34.909  1.00  0.00     0.049 A 
ATOM     54  C   UNL A   1      38.560  31.193  31.678  1.00  0.00     0.074 A 
ATOM     55  C   UNL A   1      42.782  29.769  36.193  1.00  0.00     0.029 A 
ATOM     56  N   UNL A   1      41.610  29.859  34.306  1.00  0.00    -0.354 N 
ATOM     57  N   UNL A   1      39.479  30.845  32.546  1.00  0.00    -0.248 NA
ATOM     58  C   UNL A   1      37.556  32.126  32.208  1.00  0.00     0.031 C 
ATOM     59  C   UNL A   1      41.707  30.644  36.382  1.00  0.00     0.029 A 
ATOM     60  C   UNL A   1      40.991  30.719  35.199  1.00  0.00     0.049 A 
ATOM     61  H   UNL A   1      41.315  29.698  33.380  1.00  0.00     0.167 HD
ATOM     62  C   UNL A   1      39.182  31.539  33.713  1.00  0.00     0.074 A 
ATOM     63  C   UNL A   1      38.007  32.337  33.436  1.00  0.00     0.031 C 
ATOM     64  C   UNL A   1      39.827  31.517  34.905  1.00  0.00     0.037 A 
BRANCH  51  65
ATOM     65  C   UNL A   1      44.665  27.679  35.089  1.00  0.00     0.057 A 
ATOM     66  C   UNL A   1      44.478  26.503  35.829  1.00  0.00     0.134 A 
ATOM     67  C   UNL A   1      45.945  28.249  35.100  1.00  0.00     0.134 A 
ATOM     68  F   UNL A   1      43.275  25.911  35.872  1.00  0.00    -0.206 F 
ATOM     69  C   UNL A   1      45.515  25.932  36.568  1.00  0.00     0.040 A 
ATOM     70  C   UNL A   1      46.998  27.670  35.812  1.00  0.00     0.040 A 
ATOM     71  F   UNL A   1      46.197  29.370  34.408  1.00  0.00    -0.206 F 
ATOM     72  C   UNL A   1      46.783  26.512  36.555  1.00  0.00     0.006 A 
ENDBRANCH  51  65
BRANCH  52  73
ATOM     73  C   UNL A   1      37.288  31.300  29.416  1.00  0.00     0.057 A 
ATOM     74  C   UNL A   1      37.337  32.585  28.863  1.00  0.00     0.134 A 
ATOM     75  C   UNL A   1      36.141  30.536  29.170  1.00  0.00     0.134 A 
ATOM     76  F   UNL A   1      38.403  33.371  29.078  1.00  0.00    -0.206 F 
ATOM     77  C   UNL A   1      36.277  33.101  28.117  1.00  0.00     0.040 A 
ATOM     78  C   UNL A   1      35.084  31.030  28.402  1.00  0.00     0.040 A 
ATOM     79  F   UNL A   1      36.035  29.293  29.663  1.00  0.00    -0.206 F 
ATOM     80  C   UNL A   1      35.147  32.320  27.881  1.00  0.00     0.006 A 
ENDBRANCH  52  73
BRANCH  64  81
ATOM     81  C   UNL A   1      39.302  32.415  35.988  1.00  0.00     0.057 A 
ATOM     82  C   UNL A   1      39.756  33.730  36.146  1.00  0.00     0.134 A 
ATOM     83  C   UNL A   1      38.300  31.967  36.859  1.00  0.00     0.134 A 
ATOM     84  F   UNL A   1      40.723  34.215  35.353  1.00  0.00    -0.206 F 
ATOM     85  C   UNL A   1      39.248  34.561  37.147  1.00  0.00     0.040 A 
ATOM     86  C   UNL A   1      37.765  32.797  37.844  1.00  0.00     0.040 A 
ATOM     87  F   UNL A   1      37.815  30.720  36.755  1.00  0.00    -0.206 F 
ATOM     88  C   UNL A   1      38.244  34.096  37.995  1.00  0.00     0.006 A 
ENDBRANCH  64  81
ENDBRANCH  38  39
ENDBRANCH  30  33
ENDBRANCH  28  29
ENDBRANCH  27  28
ENDBRANCH  26  27
ENDBRANCH  25  26
ENDBRANCH   1  25
TORSDOF 18
ENDMDL
MODEL 3
REMARK VINA RESULT:     -10.8      5.798     10.609
REMARK SMILES CC(C)c1nc(N(C)CCc2ccccn2)sc1C(=O)NCCCCCCNC(=O)c1ccc(-c2c3nc(c(-c4c(F)cccc4F)c4ccc([nH]4)c(-c4c(F)cccc4F)c4nc(c(-c5c(F)cccc5F)c5ccc2[nH]5)C=C4)C=C3)cc1
REMARK SMILES IDX 23 1 22 2 21 3 19 4 20 5 18 7 4 8 5 9 6 10 17 11 2 12 1 13
REMARK SMILES IDX 3 14 7 15 8 16 9 17 10 18 11 19 12 20 16 21 13 22 15 23
REMARK SMILES IDX 14 24 24 25 25 26 26 27 27 28 28 29 29 30 30 32 31 33 32 34
REMARK SMILES IDX 84 35 33 36 83 37 34 38 35 39 36 40 77 41 37 42 82 43 76 44
REMARK SMILES IDX 78 45 38 46 81 47 75 48 74 49 39 51 65 52 48 53 64 54 49 55
REMARK SMILES IDX 52 56 63 57 79 58 50 59 51 60 62 62 80 63 53 64 40 65 41 66
REMARK SMILES IDX 46 67 42 68 43 69 45 70 47 71 44 72 66 73 67 74 72 75 68 76
REMARK SMILES IDX 69 77 71 78 73 79 70 80 54 81 55 82 60 83 56 84 57 85 59 86
REMARK SMILES IDX 61 87 58 88
REMARK H PARENT 21 6 28 31 78 50 52 61
REMARK Flexibility Score: inf
ROOT
ATOM      1  C   UNL A   1      39.481  23.100  26.459  1.00  0.00     0.021 C 
ENDROOT
BRANCH   1   2
ATOM      2  C   UNL A   1      38.093  23.652  26.127  1.00  0.00     0.116 C 
BRANCH   2   3
ATOM      3  N   UNL A   1      37.631  23.228  24.829  1.00  0.00    -0.351 N 
ATOM      4  C   UNL A   1      36.469  23.248  24.109  1.00  0.00     0.263 C 
ATOM      5  O   UNL A   1      36.730  23.184  22.897  1.00  0.00    -0.268 OA
ATOM      6  H   UNL A   1      38.357  22.805  24.317  1.00  0.00     0.163 HD
BRANCH   4   7
ATOM      7  C   UNL A   1      35.090  23.264  24.596  1.00  0.00     0.117 A 
ATOM      8  C   UNL A   1      34.073  22.411  25.025  1.00  0.00     0.069 A 
ATOM      9  N   UNL A   1      32.860  23.051  25.305  1.00  0.00    -0.224 NA
ATOM     10  C   UNL A   1      32.872  24.338  25.070  1.00  0.00     0.186 A 
ATOM     11  S   UNL A   1      34.424  24.889  24.627  1.00  0.00    -0.091 S 
BRANCH   8  12
ATOM     12  C   UNL A   1      33.979  20.923  25.241  1.00  0.00     0.034 C 
ATOM     13  C   UNL A   1      32.730  20.301  24.625  1.00  0.00     0.014 C 
ATOM     14  C   UNL A   1      35.297  20.200  24.959  1.00  0.00     0.014 C 
ENDBRANCH   8  12
BRANCH  10  15
ATOM     15  N   UNL A   1      31.763  25.133  25.159  1.00  0.00    -0.351 N 
ATOM     16  C   UNL A   1      30.580  24.967  24.331  1.00  0.00     0.146 C 
BRANCH  15  17
ATOM     17  C   UNL A   1      31.722  26.203  26.168  1.00  0.00     0.125 C 
BRANCH  17  18
ATOM     18  C   UNL A   1      31.730  27.606  25.544  1.00  0.00     0.077 C 
BRANCH  18  19
ATOM     19  C   UNL A   1      32.643  28.551  26.275  1.00  0.00     0.042 A 
ATOM     20  C   UNL A   1      33.980  28.226  26.483  1.00  0.00     0.024 A 
ATOM     21  N   UNL A   1      32.108  29.736  26.663  1.00  0.00    -0.261 NA
ATOM     22  C   UNL A   1      34.811  29.165  27.084  1.00  0.00     0.003 A 
ATOM     23  C   UNL A   1      32.940  30.629  27.239  1.00  0.00     0.111 A 
ATOM     24  C   UNL A   1      34.283  30.392  27.468  1.00  0.00     0.020 A 
ENDBRANCH  18  19
ENDBRANCH  17  18
ENDBRANCH  15  17
ENDBRANCH  10  15
ENDBRANCH   4   7
ENDBRANCH   2   3
ENDBRANCH   1   2
BRANCH   1  25
ATOM     25  C   UNL A   1      39.635  21.609  26.153  1.00  0.00     0.002 C 
BRANCH  25  26
ATOM     26  C   UNL A   1      40.962  20.966  26.564  1.00  0.00     0.002 C 
BRANCH  26  27
ATOM     27  C   UNL A   1      41.252  19.577  25.992  1.00  0.00     0.021 C 
BRANCH  27  28
ATOM     28  C   UNL A   1      42.578  18.950  26.413  1.00  0.00     0.116 C 
BRANCH  28  29
ATOM     29  N   UNL A   1      43.477  18.749  25.286  1.00  0.00    -0.352 N 
ATOM     30  C   UNL A   1      44.206  19.642  24.554  1.00  0.00     0.251 C 
ATOM     31  H   UNL A   1      43.576  17.811  25.005  1.00  0.00     0.163 HD
ATOM     32  O   UNL A   1      44.748  19.272  23.509  1.00  0.00    -0.269 OA
BRANCH  30  33
ATOM     33  C   UNL A   1      44.348  21.047  24.987  1.00  0.00     0.039 A 
ATOM     34  C   UNL A   1      45.084  21.321  26.145  1.00  0.00     0.014 A 
ATOM     35  C   UNL A   1      43.722  22.088  24.295  1.00  0.00     0.014 A 
ATOM     36  C   UNL A   1      45.233  22.639  26.579  1.00  0.00     0.010 A 
ATOM     37  C   UNL A   1      43.931  23.407  24.688  1.00  0.00     0.010 A 
ATOM     38  C   UNL A   1      44.683  23.696  25.837  1.00  0.00    -0.014 A 
BRANCH  38  39
ATOM     39  C   UNL A   1      44.885  25.108  26.251  1.00  0.00     0.031 A 
ATOM     40  C   UNL A   1      46.251  25.733  26.175  1.00  0.00     0.074 A 
ATOM     41  C   UNL A   1      43.848  25.809  26.748  1.00  0.00     0.049 A 
ATOM     42  N   UNL A   1      46.637  26.925  26.554  1.00  0.00    -0.248 NA
ATOM     43  C   UNL A   1      47.332  24.899  25.625  1.00  0.00     0.031 C 
ATOM     44  C   UNL A   1      42.484  25.302  26.908  1.00  0.00     0.029 A 
ATOM     45  N   UNL A   1      43.781  27.095  27.221  1.00  0.00    -0.354 N 
ATOM     46  C   UNL A   1      48.002  26.979  26.300  1.00  0.00     0.074 A 
ATOM     47  C   UNL A   1      48.388  25.683  25.785  1.00  0.00     0.031 C 
ATOM     48  C   UNL A   1      41.711  26.271  27.423  1.00  0.00     0.029 A 
ATOM     49  C   UNL A   1      42.533  27.454  27.667  1.00  0.00     0.049 A 
ATOM     50  H   UNL A   1      44.556  27.703  27.240  1.00  0.00     0.167 HD
ATOM     51  C   UNL A   1      48.852  28.021  26.463  1.00  0.00     0.037 A 
ATOM     52  C   UNL A   1      42.099  28.602  28.221  1.00  0.00     0.037 A 
ATOM     53  C   UNL A   1      48.459  29.315  26.957  1.00  0.00     0.049 A 
ATOM     54  C   UNL A   1      43.067  29.738  28.403  1.00  0.00     0.074 A 
ATOM     55  C   UNL A   1      49.235  30.452  27.106  1.00  0.00     0.029 A 
ATOM     56  N   UNL A   1      47.182  29.643  27.385  1.00  0.00    -0.354 N 
ATOM     57  N   UNL A   1      44.341  29.796  28.099  1.00  0.00    -0.248 NA
ATOM     58  C   UNL A   1      42.535  30.971  29.000  1.00  0.00     0.031 C 
ATOM     59  C   UNL A   1      48.438  31.454  27.670  1.00  0.00     0.029 A 
ATOM     60  C   UNL A   1      47.153  30.958  27.820  1.00  0.00     0.049 A 
ATOM     61  H   UNL A   1      46.409  29.032  27.380  1.00  0.00     0.167 HD
ATOM     62  C   UNL A   1      44.754  31.079  28.437  1.00  0.00     0.074 A 
ATOM     63  C   UNL A   1      43.592  31.769  28.957  1.00  0.00     0.031 C 
ATOM     64  C   UNL A   1      45.985  31.635  28.325  1.00  0.00     0.037 A 
BRANCH  51  65
ATOM     65  C   UNL A   1      50.293  27.805  26.101  1.00  0.00     0.057 A 
ATOM     66  C   UNL A   1      50.746  27.896  24.778  1.00  0.00     0.134 A 
ATOM     67  C   UNL A   1      51.249  27.544  27.093  1.00  0.00     0.134 A 
ATOM     68  F   UNL A   1      49.883  28.133  23.779  1.00  0.00    -0.206 F 
ATOM     69  C   UNL A   1      52.091  27.712  24.452  1.00  0.00     0.040 A 
ATOM     70  C   UNL A   1      52.601  27.387  26.781  1.00  0.00     0.040 A 
ATOM     71  F   UNL A   1      50.887  27.452  28.381  1.00  0.00    -0.206 F 
ATOM     72  C   UNL A   1      53.024  27.464  25.457  1.00  0.00     0.006 A 
ENDBRANCH  51  65
BRANCH  52  73
ATOM     73  C   UNL A   1      40.678  28.744  28.627  1.00  0.00     0.057 A 
ATOM     74  C   UNL A   1      40.276  28.511  29.947  1.00  0.00     0.134 A 
ATOM     75  C   UNL A   1      39.686  29.102  27.705  1.00  0.00     0.134 A 
ATOM     76  F   UNL A   1      41.177  28.148  30.872  1.00  0.00    -0.206 F 
ATOM     77  C   UNL A   1      38.938  28.605  30.333  1.00  0.00     0.040 A 
ATOM     78  C   UNL A   1      38.347  29.225  28.083  1.00  0.00     0.040 A 
ATOM     79  F   UNL A   1      40.006  29.346  26.426  1.00  0.00    -0.206 F 
ATOM     80  C   UNL A   1      37.969  28.968  29.398  1.00  0.00     0.006 A 
ENDBRANCH  52  73
BRANCH  64  81
ATOM     81  C   UNL A   1      46.131  33.074  28.732  1.00  0.00     0.057 A 
ATOM     82  C   UNL A   1      45.916  34.124  27.831  1.00  0.00     0.134 A 
ATOM     83  C   UNL A   1      46.451  33.409  30.054  1.00  0.00     0.134 A 
ATOM     84  F   UNL A   1      45.619  33.871  26.549  1.00  0.00    -0.206 F 
ATOM     85  C   UNL A   1      46.038  35.458  28.227  1.00  0.00     0.040 A 
ATOM     86  C   UNL A   1      46.548  34.737  30.467  1.00  0.00     0.040 A 
ATOM     87  F   UNL A   1      46.661  32.450  30.969  1.00  0.00    -0.206 F 
ATOM     88  C   UNL A   1      46.348  35.767  29.550  1.00  0.00     0.006 A 
ENDBRANCH  64  81
ENDBRANCH  38  39
ENDBRANCH  30  33
ENDBRANCH  28  29
ENDBRANCH  27  28
ENDBRANCH  26  27
ENDBRANCH  25  26
ENDBRANCH   1  25
TORSDOF 18
ENDMDL
