MODEL 1
REMARK VINA RESULT:     -12.3      0.000      0.000
REMARK SMILES CC(C)[C@@H]1C(=O)Nc2ccccc2N1C(=O)N[C@H](Cc1ccccc1)C(=O)NCCCCCCNC(=O)c1ccc(-c2c3nc(c(-c4c(F)cccc4F)c4ccc([nH]4)c(-c4c(F)cccc4F)c4nc(c(-c5c(F)cccc5F)c5ccc2[nH]5)C=C4)C=C3)cc1
REMARK SMILES IDX 31 1 30 2 29 3 28 4 26 5 27 6 18 8 17 9 15 10 16 11 14 13
REMARK SMILES IDX 4 14 5 15 6 16 7 17 13 18 8 19 12 21 9 22 11 23 10 24 2 25
REMARK SMILES IDX 1 26 3 27 19 28 20 29 21 30 25 31 22 32 24 33 23 34 32 35
REMARK SMILES IDX 33 36 34 37 35 38 36 39 37 41 38 42 39 43 91 44 40 45 90 46
REMARK SMILES IDX 41 47 42 48 43 49 84 50 44 51 89 52 83 53 85 54 45 55 88 56
REMARK SMILES IDX 82 57 81 58 46 60 72 61 55 62 71 63 56 64 59 65 70 66 86 67
REMARK SMILES IDX 57 68 58 69 69 71 87 72 60 73 47 74 48 75 53 76 49 77 50 78
REMARK SMILES IDX 52 79 54 80 51 81 73 82 74 83 79 84 75 85 76 86 78 87 80 88
REMARK SMILES IDX 77 89 61 90 62 91 67 92 63 93 64 94 66 95 68 96 65 97
REMARK H PARENT 28 7 17 12 7 20 35 40 85 59 59 70
REMARK Flexibility Score: inf
ROOT
ATOM      1  C   UNL A   1      35.975  21.864  24.192  1.00  0.00     0.002 C 
ENDROOT
BRANCH   1   2
ATOM      2  C   UNL A   1      35.711  23.110  25.059  1.00  0.00     0.021 C 
BRANCH   2   3
ATOM      3  C   UNL A   1      35.548  22.959  26.595  1.00  0.00     0.116 C 
BRANCH   3   4
ATOM      4  N   UNL A   1      34.269  23.374  27.162  1.00  0.00    -0.354 N 
ATOM      5  C   UNL A   1      32.995  22.946  26.888  1.00  0.00     0.242 C 
ATOM      6  O   UNL A   1      32.293  22.733  27.888  1.00  0.00    -0.273 OA
ATOM      7  H   UNL A   1      34.329  24.072  27.854  1.00  0.00     0.163 HD
BRANCH   5   8
ATOM      8  C   UNL A   1      32.330  22.845  25.468  1.00  0.00     0.177 C 
BRANCH   8   9
ATOM      9  N   UNL A   1      31.243  23.797  25.134  1.00  0.00    -0.326 N 
ATOM     10  C   UNL A   1      30.930  25.072  24.870  1.00  0.00     0.323 C 
ATOM     11  O   UNL A   1      29.706  25.243  25.008  1.00  0.00    -0.248 OA
ATOM     12  H   UNL A   1      30.408  23.278  25.088  1.00  0.00     0.166 HD
BRANCH  10  13
ATOM     13  N   UNL A   1      31.730  26.086  24.397  1.00  0.00    -0.280 N 
ATOM     14  C   UNL A   1      32.176  26.478  22.993  1.00  0.00     0.184 C 
ATOM     15  C   UNL A   1      33.460  27.323  22.882  1.00  0.00     0.247 C 
ATOM     16  O   UNL A   1      34.003  27.614  21.811  1.00  0.00    -0.272 OA
ATOM     17  N   UNL A   1      33.950  27.897  24.001  1.00  0.00    -0.322 N 
ATOM     18  C   UNL A   1      32.147  27.076  25.406  1.00  0.00     0.070 A 
ATOM     19  C   UNL A   1      33.251  27.911  25.197  1.00  0.00     0.065 A 
ATOM     20  H   UNL A   1      34.836  28.322  23.966  1.00  0.00     0.170 HD
ATOM     21  C   UNL A   1      31.375  27.335  26.559  1.00  0.00     0.028 A 
ATOM     22  C   UNL A   1      33.623  28.902  26.115  1.00  0.00     0.028 A 
ATOM     23  C   UNL A   1      31.695  28.377  27.439  1.00  0.00     0.002 A 
ATOM     24  C   UNL A   1      32.826  29.153  27.223  1.00  0.00     0.002 A 
BRANCH  14  25
ATOM     25  C   UNL A   1      32.338  25.344  21.989  1.00  0.00     0.015 C 
ATOM     26  C   UNL A   1      32.275  25.725  20.504  1.00  0.00     0.010 C 
ATOM     27  C   UNL A   1      33.464  24.364  22.302  1.00  0.00     0.010 C 
ENDBRANCH  14  25
ENDBRANCH  10  13
ENDBRANCH   8   9
BRANCH   8  28
ATOM     28  C   UNL A   1      31.911  21.367  25.163  1.00  0.00     0.070 C 
BRANCH  28  29
ATOM     29  C   UNL A   1      32.401  20.116  24.474  1.00  0.00    -0.045 A 
ATOM     30  C   UNL A   1      32.805  19.103  25.392  1.00  0.00     0.004 A 
ATOM     31  C   UNL A   1      32.263  19.759  23.140  1.00  0.00     0.004 A 
ATOM     32  C   UNL A   1      33.032  17.787  25.013  1.00  0.00     0.000 A 
ATOM     33  C   UNL A   1      32.514  18.427  22.751  1.00  0.00     0.000 A 
ATOM     34  C   UNL A   1      32.883  17.445  23.681  1.00  0.00     0.000 A 
ENDBRANCH  28  29
ENDBRANCH   8  28
ENDBRANCH   5   8
ENDBRANCH   3   4
ENDBRANCH   2   3
ENDBRANCH   1   2
BRANCH   1  35
ATOM     35  C   UNL A   1      36.070  20.540  25.008  1.00  0.00     0.002 C 
BRANCH  35  36
ATOM     36  C   UNL A   1      37.388  19.752  24.879  1.00  0.00     0.021 C 
BRANCH  36  37
ATOM     37  C   UNL A   1      38.639  20.420  25.467  1.00  0.00     0.116 C 
BRANCH  37  38
ATOM     38  N   UNL A   1      39.712  19.466  25.708  1.00  0.00    -0.352 N 
ATOM     39  C   UNL A   1      41.034  19.624  26.048  1.00  0.00     0.251 C 
ATOM     40  H   UNL A   1      39.438  18.526  25.607  1.00  0.00     0.163 HD
ATOM     41  O   UNL A   1      41.778  18.649  25.942  1.00  0.00    -0.269 OA
BRANCH  39  42
ATOM     42  C   UNL A   1      41.617  20.903  26.543  1.00  0.00     0.039 A 
ATOM     43  C   UNL A   1      41.527  21.172  27.918  1.00  0.00     0.014 A 
ATOM     44  C   UNL A   1      42.093  21.907  25.697  1.00  0.00     0.014 A 
ATOM     45  C   UNL A   1      41.912  22.417  28.437  1.00  0.00     0.010 A 
ATOM     46  C   UNL A   1      42.531  23.135  26.223  1.00  0.00     0.010 A 
ATOM     47  C   UNL A   1      42.428  23.415  27.598  1.00  0.00    -0.014 A 
BRANCH  47  48
ATOM     48  C   UNL A   1      42.815  24.754  28.142  1.00  0.00     0.031 A 
ATOM     49  C   UNL A   1      41.772  25.821  28.383  1.00  0.00     0.074 A 
ATOM     50  C   UNL A   1      44.107  25.033  28.412  1.00  0.00     0.049 A 
ATOM     51  N   UNL A   1      41.928  27.056  28.794  1.00  0.00    -0.248 NA
ATOM     52  C   UNL A   1      40.375  25.455  28.109  1.00  0.00     0.031 C 
ATOM     53  C   UNL A   1      45.227  24.111  28.223  1.00  0.00     0.029 A 
ATOM     54  N   UNL A   1      44.697  26.177  28.896  1.00  0.00    -0.354 N 
ATOM     55  C   UNL A   1      40.656  27.619  28.807  1.00  0.00     0.074 A 
ATOM     56  C   UNL A   1      39.746  26.602  28.325  1.00  0.00     0.031 C 
ATOM     57  C   UNL A   1      46.364  24.719  28.597  1.00  0.00     0.029 A 
ATOM     58  C   UNL A   1      46.063  26.086  29.017  1.00  0.00     0.049 A 
ATOM     59  H   UNL A   1      44.188  26.986  29.133  1.00  0.00     0.167 HD
ATOM     60  C   UNL A   1      40.274  28.861  29.197  1.00  0.00     0.037 A 
ATOM     61  C   UNL A   1      46.977  26.997  29.407  1.00  0.00     0.037 A 
ATOM     62  C   UNL A   1      41.166  29.870  29.710  1.00  0.00     0.049 A 
ATOM     63  C   UNL A   1      46.532  28.374  29.819  1.00  0.00     0.074 A 
ATOM     64  C   UNL A   1      40.856  31.134  30.184  1.00  0.00     0.029 A 
ATOM     65  N   UNL A   1      42.541  29.733  29.815  1.00  0.00    -0.354 N 
ATOM     66  N   UNL A   1      45.320  28.871  29.870  1.00  0.00    -0.248 NA
ATOM     67  C   UNL A   1      47.583  29.317  30.234  1.00  0.00     0.031 C 
ATOM     68  C   UNL A   1      42.048  31.778  30.534  1.00  0.00     0.029 A 
ATOM     69  C   UNL A   1      43.095  30.897  30.324  1.00  0.00     0.049 A 
ATOM     70  H   UNL A   1      43.049  28.927  29.566  1.00  0.00     0.167 HD
ATOM     71  C   UNL A   1      45.460  30.169  30.345  1.00  0.00     0.074 A 
ATOM     72  C   UNL A   1      46.872  30.381  30.581  1.00  0.00     0.031 C 
ATOM     73  C   UNL A   1      44.500  31.101  30.565  1.00  0.00     0.037 A 
BRANCH  60  74
ATOM     74  C   UNL A   1      38.816  29.211  29.081  1.00  0.00     0.057 A 
ATOM     75  C   UNL A   1      38.240  29.589  27.861  1.00  0.00     0.134 A 
ATOM     76  C   UNL A   1      37.969  29.119  30.193  1.00  0.00     0.134 A 
ATOM     77  F   UNL A   1      38.995  29.701  26.758  1.00  0.00    -0.206 F 
ATOM     78  C   UNL A   1      36.879  29.888  27.758  1.00  0.00     0.040 A 
ATOM     79  C   UNL A   1      36.603  29.390  30.096  1.00  0.00     0.040 A 
ATOM     80  F   UNL A   1      38.451  28.750  31.389  1.00  0.00    -0.206 F 
ATOM     81  C   UNL A   1      36.056  29.783  28.877  1.00  0.00     0.006 A 
ENDBRANCH  60  74
BRANCH  61  82
ATOM     82  C   UNL A   1      48.419  26.637  29.434  1.00  0.00     0.057 A 
ATOM     83  C   UNL A   1      49.005  26.078  30.574  1.00  0.00     0.134 A 
ATOM     84  C   UNL A   1      49.245  26.855  28.325  1.00  0.00     0.134 A 
ATOM     85  F   UNL A   1      48.270  25.867  31.676  1.00  0.00    -0.206 F 
ATOM     86  C   UNL A   1      50.364  25.761  30.618  1.00  0.00     0.040 A 
ATOM     87  C   UNL A   1      50.600  26.520  28.345  1.00  0.00     0.040 A 
ATOM     88  F   UNL A   1      48.743  27.387  27.200  1.00  0.00    -0.206 F 
ATOM     89  C   UNL A   1      51.165  25.977  29.498  1.00  0.00     0.006 A 
ENDBRANCH  61  82
BRANCH  73  90
ATOM     90  C   UNL A   1      44.936  32.426  31.121  1.00  0.00     0.057 A 
ATOM     91  C   UNL A   1      45.048  32.651  32.499  1.00  0.00     0.134 A 
ATOM     92  C   UNL A   1      45.288  33.478  30.265  1.00  0.00     0.134 A 
ATOM     93  F   UNL A   1      44.714  31.690  33.374  1.00  0.00    -0.206 F 
ATOM     94  C   UNL A   1      45.478  33.880  33.006  1.00  0.00     0.040 A 
ATOM     95  C   UNL A   1      45.743  34.702  30.759  1.00  0.00     0.040 A 
ATOM     96  F   UNL A   1      45.211  33.329  28.935  1.00  0.00    -0.206 F 
ATOM     97  C   UNL A   1      45.833  34.907  32.134  1.00  0.00     0.006 A 
ENDBRANCH  73  90
ENDBRANCH  47  48
ENDBRANCH  39  42
ENDBRANCH  37  38
ENDBRANCH  36  37
ENDBRANCH  35  36
ENDBRANCH   1  35
TORSDOF 18
ENDMDL
MODEL 2
REMARK VINA RESULT:     -12.3      0.361      5.809
REMARK SMILES CC(C)[C@@H]1C(=O)Nc2ccccc2N1C(=O)N[C@H](Cc1ccccc1)C(=O)NCCCCCCNC(=O)c1ccc(-c2c3nc(c(-c4c(F)cccc4F)c4ccc([nH]4)c(-c4c(F)cccc4F)c4nc(c(-c5c(F)cccc5F)c5ccc2[nH]5)C=C4)C=C3)cc1
REMARK SMILES IDX 31 1 30 2 29 3 28 4 26 5 27 6 18 8 17 9 15 10 16 11 14 13
REMARK SMILES IDX 4 14 5 15 6 16 7 17 13 18 8 19 12 21 9 22 11 23 10 24 2 25
REMARK SMILES IDX 1 26 3 27 19 28 20 29 21 30 25 31 22 32 24 33 23 34 32 35
REMARK SMILES IDX 33 36 34 37 35 38 36 39 37 41 38 42 39 43 91 44 40 45 90 46
REMARK SMILES IDX 41 47 42 48 43 49 84 50 44 51 89 52 83 53 85 54 45 55 88 56
REMARK SMILES IDX 82 57 81 58 46 60 72 61 55 62 71 63 56 64 59 65 70 66 86 67
REMARK SMILES IDX 57 68 58 69 69 71 87 72 60 73 47 74 48 75 53 76 49 77 50 78
REMARK SMILES IDX 52 79 54 80 51 81 73 82 74 83 79 84 75 85 76 86 78 87 80 88
REMARK SMILES IDX 77 89 61 90 62 91 67 92 63 93 64 94 66 95 68 96 65 97
REMARK H PARENT 28 7 17 12 7 20 35 40 85 59 59 70
REMARK Flexibility Score: inf
ROOT
ATOM      1  C   UNL A   1      36.235  21.699  24.261  1.00  0.00     0.002 C 
ENDROOT
BRANCH   1   2
ATOM      2  C   UNL A   1      35.924  22.753  25.341  1.00  0.00     0.021 C 
BRANCH   2   3
ATOM      3  C   UNL A   1      35.372  22.302  26.720  1.00  0.00     0.116 C 
BRANCH   3   4
ATOM      4  N   UNL A   1      34.209  23.022  27.228  1.00  0.00    -0.354 N 
ATOM      5  C   UNL A   1      32.882  22.903  26.907  1.00  0.00     0.242 C 
ATOM      6  O   UNL A   1      32.112  22.886  27.879  1.00  0.00    -0.273 OA
ATOM      7  H   UNL A   1      34.409  23.701  27.912  1.00  0.00     0.163 HD
BRANCH   5   8
ATOM      8  C   UNL A   1      32.265  22.931  25.462  1.00  0.00     0.177 C 
BRANCH   8   9
ATOM      9  N   UNL A   1      31.200  23.921  25.173  1.00  0.00    -0.326 N 
ATOM     10  C   UNL A   1      30.921  25.207  24.926  1.00  0.00     0.323 C 
ATOM     11  O   UNL A   1      29.709  25.419  25.111  1.00  0.00    -0.248 OA
ATOM     12  H   UNL A   1      30.346  23.431  25.156  1.00  0.00     0.166 HD
BRANCH  10  13
ATOM     13  N   UNL A   1      31.736  26.196  24.428  1.00  0.00    -0.280 N 
ATOM     14  C   UNL A   1      32.188  26.546  23.014  1.00  0.00     0.184 C 
ATOM     15  C   UNL A   1      33.486  27.366  22.882  1.00  0.00     0.247 C 
ATOM     16  O   UNL A   1      34.033  27.622  21.804  1.00  0.00    -0.272 OA
ATOM     17  N   UNL A   1      33.985  27.961  23.987  1.00  0.00    -0.322 N 
ATOM     18  C   UNL A   1      32.170  27.204  25.412  1.00  0.00     0.070 A 
ATOM     19  C   UNL A   1      33.287  28.016  25.182  1.00  0.00     0.065 A 
ATOM     20  H   UNL A   1      34.878  28.371  23.941  1.00  0.00     0.170 HD
ATOM     21  C   UNL A   1      31.403  27.505  26.557  1.00  0.00     0.028 A 
ATOM     22  C   UNL A   1      33.675  29.024  26.075  1.00  0.00     0.028 A 
ATOM     23  C   UNL A   1      31.739  28.563  27.412  1.00  0.00     0.002 A 
ATOM     24  C   UNL A   1      32.882  29.316  27.176  1.00  0.00     0.002 A 
BRANCH  14  25
ATOM     25  C   UNL A   1      32.332  25.383  22.039  1.00  0.00     0.015 C 
ATOM     26  C   UNL A   1      32.235  25.722  20.547  1.00  0.00     0.010 C 
ATOM     27  C   UNL A   1      33.469  24.417  22.355  1.00  0.00     0.010 C 
ENDBRANCH  14  25
ENDBRANCH  10  13
ENDBRANCH   8   9
BRANCH   8  28
ATOM     28  C   UNL A   1      31.843  21.489  25.018  1.00  0.00     0.070 C 
BRANCH  28  29
ATOM     29  C   UNL A   1      32.393  20.240  24.372  1.00  0.00    -0.045 A 
ATOM     30  C   UNL A   1      32.918  19.314  25.320  1.00  0.00     0.004 A 
ATOM     31  C   UNL A   1      32.218  19.799  23.068  1.00  0.00     0.004 A 
ATOM     32  C   UNL A   1      33.227  17.998  25.000  1.00  0.00     0.000 A 
ATOM     33  C   UNL A   1      32.551  18.469  22.738  1.00  0.00     0.000 A 
ATOM     34  C   UNL A   1      33.039  17.572  23.698  1.00  0.00     0.000 A 
ENDBRANCH  28  29
ENDBRANCH   8  28
ENDBRANCH   5   8
ENDBRANCH   3   4
ENDBRANCH   2   3
ENDBRANCH   1   2
BRANCH   1  35
ATOM     35  C   UNL A   1      36.466  20.266  24.829  1.00  0.00     0.002 C 
BRANCH  35  36
ATOM     36  C   UNL A   1      37.901  19.714  24.724  1.00  0.00     0.021 C 
BRANCH  36  37
ATOM     37  C   UNL A   1      38.834  20.019  25.904  1.00  0.00     0.116 C 
BRANCH  37  38
ATOM     38  N   UNL A   1      40.050  19.220  25.867  1.00  0.00    -0.352 N 
ATOM     39  C   UNL A   1      41.379  19.548  25.983  1.00  0.00     0.251 C 
ATOM     40  H   UNL A   1      39.889  18.258  25.732  1.00  0.00     0.163 HD
ATOM     41  O   UNL A   1      42.213  18.701  25.662  1.00  0.00    -0.269 OA
BRANCH  39  42
ATOM     42  C   UNL A   1      41.869  20.864  26.481  1.00  0.00     0.039 A 
ATOM     43  C   UNL A   1      41.738  21.133  27.853  1.00  0.00     0.014 A 
ATOM     44  C   UNL A   1      42.292  21.894  25.638  1.00  0.00     0.014 A 
ATOM     45  C   UNL A   1      42.032  22.403  28.372  1.00  0.00     0.010 A 
ATOM     46  C   UNL A   1      42.640  23.150  26.164  1.00  0.00     0.010 A 
ATOM     47  C   UNL A   1      42.497  23.429  27.535  1.00  0.00    -0.014 A 
BRANCH  47  48
ATOM     48  C   UNL A   1      42.785  24.792  28.079  1.00  0.00     0.031 A 
ATOM     49  C   UNL A   1      44.187  25.182  28.486  1.00  0.00     0.074 A 
ATOM     50  C   UNL A   1      41.790  25.691  28.228  1.00  0.00     0.049 A 
ATOM     51  N   UNL A   1      44.615  26.296  29.029  1.00  0.00    -0.248 NA
ATOM     52  C   UNL A   1      45.242  24.181  28.269  1.00  0.00     0.031 C 
ATOM     53  C   UNL A   1      40.385  25.459  27.891  1.00  0.00     0.029 A 
ATOM     54  N   UNL A   1      41.807  26.978  28.712  1.00  0.00    -0.354 N 
ATOM     55  C   UNL A   1      45.979  26.122  29.238  1.00  0.00     0.074 A 
ATOM     56  C   UNL A   1      46.299  24.780  28.798  1.00  0.00     0.031 C 
ATOM     57  C   UNL A   1      39.679  26.568  28.165  1.00  0.00     0.029 A 
ATOM     58  C   UNL A   1      40.570  27.578  28.732  1.00  0.00     0.049 A 
ATOM     59  H   UNL A   1      42.628  27.429  29.015  1.00  0.00     0.167 HD
ATOM     60  C   UNL A   1      46.887  26.999  29.735  1.00  0.00     0.037 A 
ATOM     61  C   UNL A   1      40.186  28.794  29.169  1.00  0.00     0.037 A 
ATOM     62  C   UNL A   1      46.586  28.347  30.144  1.00  0.00     0.049 A 
ATOM     63  C   UNL A   1      41.209  29.744  29.732  1.00  0.00     0.074 A 
ATOM     64  C   UNL A   1      47.456  29.324  30.602  1.00  0.00     0.029 A 
ATOM     65  N   UNL A   1      45.321  28.911  30.146  1.00  0.00    -0.354 N 
ATOM     66  N   UNL A   1      42.501  29.578  29.875  1.00  0.00    -0.248 NA
ATOM     67  C   UNL A   1      40.719  31.054  30.189  1.00  0.00     0.031 C 
ATOM     68  C   UNL A   1      46.710  30.462  30.924  1.00  0.00     0.029 A 
ATOM     69  C   UNL A   1      45.383  30.212  30.620  1.00  0.00     0.049 A 
ATOM     70  H   UNL A   1      44.498  28.455  29.853  1.00  0.00     0.167 HD
ATOM     71  C   UNL A   1      42.981  30.766  30.412  1.00  0.00     0.074 A 
ATOM     72  C   UNL A   1      41.844  31.652  30.557  1.00  0.00     0.031 C 
ATOM     73  C   UNL A   1      44.251  31.093  30.754  1.00  0.00     0.037 A 
BRANCH  60  74
ATOM     74  C   UNL A   1      48.309  26.527  29.872  1.00  0.00     0.057 A 
ATOM     75  C   UNL A   1      49.271  26.778  28.885  1.00  0.00     0.134 A 
ATOM     76  C   UNL A   1      48.731  25.859  31.029  1.00  0.00     0.134 A 
ATOM     77  F   UNL A   1      48.933  27.408  27.751  1.00  0.00    -0.206 F 
ATOM     78  C   UNL A   1      50.594  26.356  29.032  1.00  0.00     0.040 A 
ATOM     79  C   UNL A   1      50.057  25.458  31.199  1.00  0.00     0.040 A 
ATOM     80  F   UNL A   1      47.866  25.599  32.020  1.00  0.00    -0.206 F 
ATOM     81  C   UNL A   1      50.992  25.701  30.195  1.00  0.00     0.006 A 
ENDBRANCH  60  74
BRANCH  61  82
ATOM     82  C   UNL A   1      38.757  29.194  29.088  1.00  0.00     0.057 A 
ATOM     83  C   UNL A   1      37.919  29.118  30.206  1.00  0.00     0.134 A 
ATOM     84  C   UNL A   1      38.194  29.649  27.890  1.00  0.00     0.134 A 
ATOM     85  F   UNL A   1      38.395  28.667  31.376  1.00  0.00    -0.206 F 
ATOM     86  C   UNL A   1      36.569  29.466  30.134  1.00  0.00     0.040 A 
ATOM     87  C   UNL A   1      36.851  30.024  27.809  1.00  0.00     0.040 A 
ATOM     88  F   UNL A   1      38.944  29.747  26.783  1.00  0.00    -0.206 F 
ATOM     89  C   UNL A   1      36.033  29.926  28.932  1.00  0.00     0.006 A 
ENDBRANCH  61  82
BRANCH  73  90
ATOM     90  C   UNL A   1      44.492  32.476  31.286  1.00  0.00     0.057 A 
ATOM     91  C   UNL A   1      44.742  33.563  30.439  1.00  0.00     0.134 A 
ATOM     92  C   UNL A   1      44.432  32.731  32.662  1.00  0.00     0.134 A 
ATOM     93  F   UNL A   1      44.826  33.385  29.111  1.00  0.00    -0.206 F 
ATOM     94  C   UNL A   1      44.941  34.850  30.942  1.00  0.00     0.040 A 
ATOM     95  C   UNL A   1      44.604  34.018  33.176  1.00  0.00     0.040 A 
ATOM     96  F   UNL A   1      44.189  31.738  33.530  1.00  0.00    -0.206 F 
ATOM     97  C   UNL A   1      44.865  35.081  32.314  1.00  0.00     0.006 A 
ENDBRANCH  73  90
ENDBRANCH  47  48
ENDBRANCH  39  42
ENDBRANCH  37  38
ENDBRANCH  36  37
ENDBRANCH  35  36
ENDBRANCH   1  35
TORSDOF 18
ENDMDL
MODEL 3
REMARK VINA RESULT:     -12.0      2.546      7.351
REMARK SMILES CC(C)[C@@H]1C(=O)Nc2ccccc2N1C(=O)N[C@H](Cc1ccccc1)C(=O)NCCCCCCNC(=O)c1ccc(-c2c3nc(c(-c4c(F)cccc4F)c4ccc([nH]4)c(-c4c(F)cccc4F)c4nc(c(-c5c(F)cccc5F)c5ccc2[nH]5)C=C4)C=C3)cc1
REMARK SMILES IDX 31 1 30 2 29 3 28 4 26 5 27 6 18 8 17 9 15 10 16 11 14 13
REMARK SMILES IDX 4 14 5 15 6 16 7 17 13 18 8 19 12 21 9 22 11 23 10 24 2 25
REMARK SMILES IDX 1 26 3 27 19 28 20 29 21 30 25 31 22 32 24 33 23 34 32 35
REMARK SMILES IDX 33 36 34 37 35 38 36 39 37 41 38 42 39 43 91 44 40 45 90 46
REMARK SMILES IDX 41 47 42 48 43 49 84 50 44 51 89 52 83 53 85 54 45 55 88 56
REMARK SMILES IDX 82 57 81 58 46 60 72 61 55 62 71 63 56 64 59 65 70 66 86 67
REMARK SMILES IDX 57 68 58 69 69 71 87 72 60 73 47 74 48 75 53 76 49 77 50 78
REMARK SMILES IDX 52 79 54 80 51 81 73 82 74 83 79 84 75 85 76 86 78 87 80 88
REMARK SMILES IDX 77 89 61 90 62 91 67 92 63 93 64 94 66 95 68 96 65 97
REMARK H PARENT 28 7 17 12 7 20 35 40 85 59 59 70
REMARK Flexibility Score: inf
ROOT
ATOM      1  C   UNL A   1      41.100  22.094  26.461  1.00  0.00     0.002 C 
ENDROOT
BRANCH   1   2
ATOM      2  C   UNL A   1      40.137  22.891  27.361  1.00  0.00     0.021 C 
BRANCH   2   3
ATOM      3  C   UNL A   1      39.008  23.740  26.719  1.00  0.00     0.116 C 
BRANCH   3   4
ATOM      4  N   UNL A   1      38.167  23.073  25.731  1.00  0.00    -0.354 N 
ATOM      5  C   UNL A   1      36.993  23.475  25.146  1.00  0.00     0.242 C 
ATOM      6  O   UNL A   1      36.937  23.298  23.920  1.00  0.00    -0.273 OA
ATOM      7  H   UNL A   1      38.494  22.192  25.435  1.00  0.00     0.163 HD
BRANCH   5   8
ATOM      8  C   UNL A   1      35.709  23.989  25.890  1.00  0.00     0.177 C 
BRANCH   8   9
ATOM      9  N   UNL A   1      34.821  22.988  26.530  1.00  0.00    -0.326 N 
ATOM     10  C   UNL A   1      33.654  22.336  26.458  1.00  0.00     0.323 C 
ATOM     11  O   UNL A   1      33.374  21.848  27.567  1.00  0.00    -0.248 OA
ATOM     12  H   UNL A   1      35.278  22.674  27.344  1.00  0.00     0.166 HD
BRANCH  10  13
ATOM     13  N   UNL A   1      32.866  22.079  25.361  1.00  0.00    -0.280 N 
ATOM     14  C   UNL A   1      32.609  20.815  24.548  1.00  0.00     0.184 C 
ATOM     15  C   UNL A   1      32.096  21.007  23.107  1.00  0.00     0.247 C 
ATOM     16  O   UNL A   1      31.956  20.085  22.296  1.00  0.00    -0.272 OA
ATOM     17  N   UNL A   1      31.640  22.225  22.745  1.00  0.00    -0.322 N 
ATOM     18  C   UNL A   1      31.990  23.190  24.946  1.00  0.00     0.070 A 
ATOM     19  C   UNL A   1      31.444  23.248  23.658  1.00  0.00     0.065 A 
ATOM     20  H   UNL A   1      31.438  22.392  21.797  1.00  0.00     0.170 HD
ATOM     21  C   UNL A   1      31.539  24.164  25.861  1.00  0.00     0.028 A 
ATOM     22  C   UNL A   1      30.557  24.260  23.267  1.00  0.00     0.028 A 
ATOM     23  C   UNL A   1      30.591  25.131  25.500  1.00  0.00     0.002 A 
ATOM     24  C   UNL A   1      30.109  25.186  24.199  1.00  0.00     0.002 A 
BRANCH  14  25
ATOM     25  C   UNL A   1      33.764  19.825  24.448  1.00  0.00     0.015 C 
ATOM     26  C   UNL A   1      35.156  20.352  24.818  1.00  0.00     0.010 C 
ATOM     27  C   UNL A   1      33.479  18.445  25.031  1.00  0.00     0.010 C 
ENDBRANCH  14  25
ENDBRANCH  10  13
ENDBRANCH   8   9
BRANCH   8  28
ATOM     28  C   UNL A   1      34.899  24.969  24.973  1.00  0.00     0.070 C 
BRANCH  28  29
ATOM     29  C   UNL A   1      34.177  26.295  25.004  1.00  0.00    -0.045 A 
ATOM     30  C   UNL A   1      33.631  26.655  23.738  1.00  0.00     0.004 A 
ATOM     31  C   UNL A   1      33.779  27.029  26.112  1.00  0.00     0.004 A 
ATOM     32  C   UNL A   1      32.706  27.678  23.578  1.00  0.00     0.000 A 
ATOM     33  C   UNL A   1      32.855  28.082  25.947  1.00  0.00     0.000 A 
ATOM     34  C   UNL A   1      32.312  28.396  24.693  1.00  0.00     0.000 A 
ENDBRANCH  28  29
ENDBRANCH   8  28
ENDBRANCH   5   8
ENDBRANCH   3   4
ENDBRANCH   2   3
ENDBRANCH   1   2
BRANCH   1  35
ATOM     35  C   UNL A   1      41.398  20.655  26.979  1.00  0.00     0.002 C 
BRANCH  35  36
ATOM     36  C   UNL A   1      41.847  19.628  25.921  1.00  0.00     0.021 C 
BRANCH  36  37
ATOM     37  C   UNL A   1      43.128  18.843  26.237  1.00  0.00     0.116 C 
BRANCH  37  38
ATOM     38  N   UNL A   1      43.946  18.621  25.054  1.00  0.00    -0.352 N 
ATOM     39  C   UNL A   1      44.637  19.477  24.231  1.00  0.00     0.251 C 
ATOM     40  H   UNL A   1      44.018  17.674  24.793  1.00  0.00     0.163 HD
ATOM     41  O   UNL A   1      45.041  19.040  23.153  1.00  0.00    -0.269 OA
BRANCH  39  42
ATOM     42  C   UNL A   1      44.933  20.897  24.570  1.00  0.00     0.039 A 
ATOM     43  C   UNL A   1      45.479  21.167  25.834  1.00  0.00     0.014 A 
ATOM     44  C   UNL A   1      44.544  21.973  23.769  1.00  0.00     0.014 A 
ATOM     45  C   UNL A   1      45.642  22.485  26.285  1.00  0.00     0.010 A 
ATOM     46  C   UNL A   1      44.758  23.295  24.197  1.00  0.00     0.010 A 
ATOM     47  C   UNL A   1      45.291  23.570  25.469  1.00  0.00    -0.014 A 
BRANCH  47  48
ATOM     48  C   UNL A   1      45.436  24.977  25.956  1.00  0.00     0.031 A 
ATOM     49  C   UNL A   1      46.777  25.672  25.924  1.00  0.00     0.074 A 
ATOM     50  C   UNL A   1      44.370  25.642  26.447  1.00  0.00     0.049 A 
ATOM     51  N   UNL A   1      47.104  26.866  26.356  1.00  0.00    -0.248 NA
ATOM     52  C   UNL A   1      47.899  24.920  25.345  1.00  0.00     0.031 C 
ATOM     53  C   UNL A   1      43.014  25.102  26.552  1.00  0.00     0.029 A 
ATOM     54  N   UNL A   1      44.260  26.914  26.958  1.00  0.00    -0.354 N 
ATOM     55  C   UNL A   1      48.469  26.998  26.123  1.00  0.00     0.074 A 
ATOM     56  C   UNL A   1      48.915  25.748  25.546  1.00  0.00     0.031 C 
ATOM     57  C   UNL A   1      42.208  26.038  27.081  1.00  0.00     0.029 A 
ATOM     58  C   UNL A   1      42.994  27.231  27.388  1.00  0.00     0.049 A 
ATOM     59  H   UNL A   1      45.019  27.540  27.011  1.00  0.00     0.167 HD
ATOM     60  C   UNL A   1      49.277  28.064  26.351  1.00  0.00     0.037 A 
ATOM     61  C   UNL A   1      42.515  28.346  27.976  1.00  0.00     0.037 A 
ATOM     62  C   UNL A   1      48.838  29.325  26.893  1.00  0.00     0.049 A 
ATOM     63  C   UNL A   1      43.434  29.509  28.235  1.00  0.00     0.074 A 
ATOM     64  C   UNL A   1      49.577  30.478  27.101  1.00  0.00     0.029 A 
ATOM     65  N   UNL A   1      47.547  29.600  27.313  1.00  0.00    -0.354 N 
ATOM     66  N   UNL A   1      44.710  29.631  27.962  1.00  0.00    -0.248 NA
ATOM     67  C   UNL A   1      42.843  30.693  28.879  1.00  0.00     0.031 C 
ATOM     68  C   UNL A   1      48.744  31.435  27.689  1.00  0.00     0.029 A 
ATOM     69  C   UNL A   1      47.474  30.895  27.802  1.00  0.00     0.049 A 
ATOM     70  H   UNL A   1      46.792  28.969  27.271  1.00  0.00     0.167 HD
ATOM     71  C   UNL A   1      45.067  30.909  28.376  1.00  0.00     0.074 A 
ATOM     72  C   UNL A   1      43.871  31.530  28.905  1.00  0.00     0.031 C 
ATOM     73  C   UNL A   1      46.280  31.512  28.320  1.00  0.00     0.037 A 
BRANCH  60  74
ATOM     74  C   UNL A   1      50.737  27.916  26.018  1.00  0.00     0.057 A 
ATOM     75  C   UNL A   1      51.691  27.601  26.995  1.00  0.00     0.134 A 
ATOM     76  C   UNL A   1      51.184  28.041  24.696  1.00  0.00     0.134 A 
ATOM     77  F   UNL A   1      51.330  27.472  28.280  1.00  0.00    -0.206 F 
ATOM     78  C   UNL A   1      53.040  27.442  26.672  1.00  0.00     0.040 A 
ATOM     79  C   UNL A   1      52.526  27.857  24.358  1.00  0.00     0.040 A 
ATOM     80  F   UNL A   1      50.323  28.328  23.709  1.00  0.00    -0.206 F 
ATOM     81  C   UNL A   1      53.460  27.564  25.350  1.00  0.00     0.006 A 
ENDBRANCH  60  74
BRANCH  61  82
ATOM     82  C   UNL A   1      41.082  28.423  28.361  1.00  0.00     0.057 A 
ATOM     83  C   UNL A   1      40.112  28.871  27.458  1.00  0.00     0.134 A 
ATOM     84  C   UNL A   1      40.651  28.063  29.644  1.00  0.00     0.134 A 
ATOM     85  F   UNL A   1      40.466  29.253  26.222  1.00  0.00    -0.206 F 
ATOM     86  C   UNL A   1      38.767  28.973  27.819  1.00  0.00     0.040 A 
ATOM     87  C   UNL A   1      39.306  28.136  30.011  1.00  0.00     0.040 A 
ATOM     88  F   UNL A   1      41.532  27.623  30.556  1.00  0.00    -0.206 F 
ATOM     89  C   UNL A   1      38.360  28.599  29.099  1.00  0.00     0.006 A 
ENDBRANCH  61  82
BRANCH  73  90
ATOM     90  C   UNL A   1      46.373  32.928  28.811  1.00  0.00     0.057 A 
ATOM     91  C   UNL A   1      46.708  33.232  30.136  1.00  0.00     0.134 A 
ATOM     92  C   UNL A   1      46.168  34.001  27.934  1.00  0.00     0.134 A 
ATOM     93  F   UNL A   1      46.906  32.251  31.030  1.00  0.00    -0.206 F 
ATOM     94  C   UNL A   1      46.817  34.553  30.577  1.00  0.00     0.040 A 
ATOM     95  C   UNL A   1      46.298  35.326  28.357  1.00  0.00     0.040 A 
ATOM     96  F   UNL A   1      45.851  33.782  26.650  1.00  0.00    -0.206 F 
ATOM     97  C   UNL A   1      46.618  35.604  29.684  1.00  0.00     0.006 A 
ENDBRANCH  73  90
ENDBRANCH  47  48
ENDBRANCH  39  42
ENDBRANCH  37  38
ENDBRANCH  36  37
ENDBRANCH  35  36
ENDBRANCH   1  35
TORSDOF 18
ENDMDL
