MODEL 1
REMARK VINA RESULT:     -12.1      0.000      0.000
REMARK SMILES Cc1c(Br)c(C)c2c(c1Br)O[C@H](C(F)(F)F)C(C(=O)NCCCCCCNC(=O)c1ccc(-c3c4nc(c(-c5c(F)cccc5F)c5ccc([nH]5)c(-c5c(F)cccc5F)c5nc(c(-c6c(F)cccc6F)c6ccc3[nH]6)C=C5)C=C4)cc1)=C2
REMARK SMILES IDX 24 1 23 2 22 3 21 4 20 5 18 6 19 7 17 9 1 10 2 11 3 12 9 13
REMARK SMILES IDX 4 14 5 15 8 16 10 17 6 18 7 19 11 20 84 21 12 22 13 23 14 24
REMARK SMILES IDX 15 25 16 26 25 27 26 28 27 29 28 30 29 32 30 33 31 34 83 35
REMARK SMILES IDX 32 36 82 37 33 38 34 39 35 40 76 41 36 42 81 43 75 44 77 45
REMARK SMILES IDX 37 46 80 47 74 48 73 49 38 51 64 52 47 53 63 54 48 55 51 56
REMARK SMILES IDX 62 57 78 58 49 59 50 60 61 62 79 63 52 64 39 65 40 66 45 67
REMARK SMILES IDX 41 68 42 69 44 70 46 71 43 72 65 73 66 74 71 75 67 76 68 77
REMARK SMILES IDX 70 78 72 79 69 80 53 81 54 82 59 83 55 84 56 85 58 86 60 87
REMARK SMILES IDX 57 88
REMARK H PARENT 20 8 27 31 77 50 51 61
REMARK Flexibility Score: inf
ROOT
ATOM      1  C   UNL A   1      31.317  30.431  25.384  1.00  0.00     0.002 C 
ENDROOT
BRANCH   1   2
ATOM      2  C   UNL A   1      32.595  29.637  25.684  1.00  0.00     0.002 C 
BRANCH   2   3
ATOM      3  C   UNL A   1      33.235  28.966  24.466  1.00  0.00     0.021 C 
BRANCH   3   4
ATOM      4  C   UNL A   1      33.319  27.449  24.586  1.00  0.00     0.116 C 
BRANCH   4   5
ATOM      5  N   UNL A   1      32.361  26.932  25.546  1.00  0.00    -0.352 N 
ATOM      6  C   UNL A   1      32.031  25.727  26.065  1.00  0.00     0.251 C 
ATOM      7  O   UNL A   1      31.131  25.746  26.911  1.00  0.00    -0.270 OA
ATOM      8  H   UNL A   1      31.801  27.651  25.919  1.00  0.00     0.163 HD
BRANCH   6   9
ATOM      9  C   UNL A   1      32.664  24.428  25.689  1.00  0.00     0.067 C 
ATOM     10  C   UNL A   1      36.599  19.233  24.834  1.00  0.00     0.047 C 
ATOM     11  C   UNL A   1      35.929  20.566  25.075  1.00  0.00    -0.019 A 
ATOM     12  C   UNL A   1      36.700  21.698  25.448  1.00  0.00     0.025 A 
ATOM     13  C   UNL A   1      34.538  20.724  24.960  1.00  0.00     0.064 A 
ATOM     14  Br  UNL A   1      38.603  21.487  25.624  1.00  0.00    -0.050 Br
ATOM     15  C   UNL A   1      36.103  22.960  25.707  1.00  0.00    -0.026 A 
ATOM     16  C   UNL A   1      33.937  21.967  25.220  1.00  0.00     0.142 A 
ATOM     17  Br  UNL A   1      33.395  19.271  24.451  1.00  0.00    -0.046 Br
ATOM     18  C   UNL A   1      36.911  24.176  26.104  1.00  0.00     0.046 C 
ATOM     19  C   UNL A   1      34.697  23.077  25.607  1.00  0.00     0.022 A 
ATOM     20  O   UNL A   1      32.573  22.013  25.135  1.00  0.00    -0.474 OA
ATOM     21  C   UNL A   1      33.980  24.314  25.947  1.00  0.00     0.026 C 
ATOM     22  C   UNL A   1      31.931  23.300  25.042  1.00  0.00     0.314 C 
BRANCH  22  23
ATOM     23  C   UNL A   1      31.560  23.586  23.575  1.00  0.00     0.429 C 
ATOM     24  F   UNL A   1      30.297  24.074  23.492  1.00  0.00    -0.167 F 
ATOM     25  F   UNL A   1      32.364  24.515  23.006  1.00  0.00    -0.167 F 
ATOM     26  F   UNL A   1      31.625  22.480  22.801  1.00  0.00    -0.167 F 
ENDBRANCH  22  23
ENDBRANCH   6   9
ENDBRANCH   4   5
ENDBRANCH   3   4
ENDBRANCH   2   3
ENDBRANCH   1   2
BRANCH   1  27
ATOM     27  C   UNL A   1      31.138  31.708  26.209  1.00  0.00     0.021 C 
BRANCH  27  28
ATOM     28  C   UNL A   1      32.412  32.194  26.890  1.00  0.00     0.116 C 
BRANCH  28  29
ATOM     29  N   UNL A   1      32.322  33.597  27.257  1.00  0.00    -0.352 N 
ATOM     30  C   UNL A   1      33.027  34.288  28.205  1.00  0.00     0.251 C 
ATOM     31  H   UNL A   1      31.660  34.124  26.754  1.00  0.00     0.163 HD
ATOM     32  O   UNL A   1      32.667  35.410  28.555  1.00  0.00    -0.269 OA
BRANCH  30  33
ATOM     33  C   UNL A   1      34.221  33.671  28.813  1.00  0.00     0.039 A 
ATOM     34  C   UNL A   1      34.055  32.761  29.858  1.00  0.00     0.014 A 
ATOM     35  C   UNL A   1      35.500  34.002  28.354  1.00  0.00     0.014 A 
ATOM     36  C   UNL A   1      35.176  32.146  30.415  1.00  0.00     0.010 A 
ATOM     37  C   UNL A   1      36.608  33.330  28.856  1.00  0.00     0.010 A 
ATOM     38  C   UNL A   1      36.458  32.409  29.903  1.00  0.00    -0.014 A 
BRANCH  38  39
ATOM     39  C   UNL A   1      37.655  31.752  30.477  1.00  0.00     0.031 A 
ATOM     40  C   UNL A   1      38.170  32.182  31.822  1.00  0.00     0.074 A 
ATOM     41  C   UNL A   1      38.292  30.794  29.777  1.00  0.00     0.049 A 
ATOM     42  N   UNL A   1      39.217  31.753  32.480  1.00  0.00    -0.248 NA
ATOM     43  C   UNL A   1      37.425  33.249  32.510  1.00  0.00     0.031 C 
ATOM     44  C   UNL A   1      37.900  30.316  28.450  1.00  0.00     0.029 A 
ATOM     45  N   UNL A   1      39.401  30.048  30.086  1.00  0.00    -0.354 N 
ATOM     46  C   UNL A   1      39.252  32.493  33.655  1.00  0.00     0.074 A 
ATOM     47  C   UNL A   1      38.165  33.445  33.591  1.00  0.00     0.031 C 
ATOM     48  C   UNL A   1      38.733  29.332  28.075  1.00  0.00     0.029 A 
ATOM     49  C   UNL A   1      39.739  29.137  29.115  1.00  0.00     0.049 A 
ATOM     50  H   UNL A   1      39.904  30.153  30.925  1.00  0.00     0.167 HD
ATOM     51  C   UNL A   1      40.093  32.367  34.706  1.00  0.00     0.037 A 
ATOM     52  C   UNL A   1      40.748  28.246  29.070  1.00  0.00     0.037 A 
ATOM     53  C   UNL A   1      41.159  31.404  34.772  1.00  0.00     0.049 A 
ATOM     54  C   UNL A   1      41.697  28.156  30.234  1.00  0.00     0.074 A 
ATOM     55  C   UNL A   1      42.043  31.170  35.811  1.00  0.00     0.029 A 
ATOM     56  N   UNL A   1      41.486  30.515  33.759  1.00  0.00    -0.354 N 
ATOM     57  N   UNL A   1      41.686  28.825  31.363  1.00  0.00    -0.248 NA
ATOM     58  C   UNL A   1      42.799  27.190  30.120  1.00  0.00     0.031 C 
ATOM     59  C   UNL A   1      42.936  30.175  35.406  1.00  0.00     0.029 A 
ATOM     60  C   UNL A   1      42.577  29.751  34.136  1.00  0.00     0.049 A 
ATOM     61  H   UNL A   1      41.012  30.439  32.898  1.00  0.00     0.167 HD
ATOM     62  C   UNL A   1      42.761  28.346  32.100  1.00  0.00     0.074 A 
ATOM     63  C   UNL A   1      43.391  27.317  31.299  1.00  0.00     0.031 C 
ATOM     64  C   UNL A   1      43.190  28.728  33.328  1.00  0.00     0.037 A 
BRANCH  51  65
ATOM     65  C   UNL A   1      39.884  33.277  35.881  1.00  0.00     0.057 A 
ATOM     66  C   UNL A   1      40.535  34.514  35.977  1.00  0.00     0.134 A 
ATOM     67  C   UNL A   1      38.978  32.944  36.894  1.00  0.00     0.134 A 
ATOM     68  F   UNL A   1      41.426  34.888  35.045  1.00  0.00    -0.206 F 
ATOM     69  C   UNL A   1      40.303  35.380  37.045  1.00  0.00     0.040 A 
ATOM     70  C   UNL A   1      38.716  33.814  37.955  1.00  0.00     0.040 A 
ATOM     71  F   UNL A   1      38.318  31.776  36.863  1.00  0.00    -0.206 F 
ATOM     72  C   UNL A   1      39.382  35.035  38.033  1.00  0.00     0.006 A 
ENDBRANCH  51  65
BRANCH  52  73
ATOM     73  C   UNL A   1      40.892  27.349  27.895  1.00  0.00     0.057 A 
ATOM     74  C   UNL A   1      41.693  27.713  26.807  1.00  0.00     0.134 A 
ATOM     75  C   UNL A   1      40.248  26.108  27.835  1.00  0.00     0.134 A 
ATOM     76  F   UNL A   1      42.321  28.897  26.797  1.00  0.00    -0.206 F 
ATOM     77  C   UNL A   1      41.840  26.881  25.695  1.00  0.00     0.040 A 
ATOM     78  C   UNL A   1      40.407  25.253  26.742  1.00  0.00     0.040 A 
ATOM     79  F   UNL A   1      39.472  25.696  28.848  1.00  0.00    -0.206 F 
ATOM     80  C   UNL A   1      41.201  25.642  25.665  1.00  0.00     0.006 A 
ENDBRANCH  52  73
BRANCH  64  81
ATOM     81  C   UNL A   1      44.391  28.028  33.893  1.00  0.00     0.057 A 
ATOM     82  C   UNL A   1      45.686  28.527  33.710  1.00  0.00     0.134 A 
ATOM     83  C   UNL A   1      44.243  26.892  34.701  1.00  0.00     0.134 A 
ATOM     84  F   UNL A   1      45.897  29.606  32.940  1.00  0.00    -0.206 F 
ATOM     85  C   UNL A   1      46.793  27.915  34.300  1.00  0.00     0.040 A 
ATOM     86  C   UNL A   1      45.338  26.289  35.319  1.00  0.00     0.040 A 
ATOM     87  F   UNL A   1      43.027  26.370  34.928  1.00  0.00    -0.206 F 
ATOM     88  C   UNL A   1      46.618  26.799  35.116  1.00  0.00     0.006 A 
ENDBRANCH  64  81
ENDBRANCH  38  39
ENDBRANCH  30  33
ENDBRANCH  28  29
ENDBRANCH  27  28
ENDBRANCH   1  27
TORSDOF 14
ENDMDL
MODEL 2
REMARK VINA RESULT:     -12.0      0.973      6.024
REMARK SMILES Cc1c(Br)c(C)c2c(c1Br)O[C@H](C(F)(F)F)C(C(=O)NCCCCCCNC(=O)c1ccc(-c3c4nc(c(-c5c(F)cccc5F)c5ccc([nH]5)c(-c5c(F)cccc5F)c5nc(c(-c6c(F)cccc6F)c6ccc3[nH]6)C=C5)C=C4)cc1)=C2
REMARK SMILES IDX 24 1 23 2 22 3 21 4 20 5 18 6 19 7 17 9 1 10 2 11 3 12 9 13
REMARK SMILES IDX 4 14 5 15 8 16 10 17 6 18 7 19 11 20 84 21 12 22 13 23 14 24
REMARK SMILES IDX 15 25 16 26 25 27 26 28 27 29 28 30 29 32 30 33 31 34 83 35
REMARK SMILES IDX 32 36 82 37 33 38 34 39 35 40 76 41 36 42 81 43 75 44 77 45
REMARK SMILES IDX 37 46 80 47 74 48 73 49 38 51 64 52 47 53 63 54 48 55 51 56
REMARK SMILES IDX 62 57 78 58 49 59 50 60 61 62 79 63 52 64 39 65 40 66 45 67
REMARK SMILES IDX 41 68 42 69 44 70 46 71 43 72 65 73 66 74 71 75 67 76 68 77
REMARK SMILES IDX 70 78 72 79 69 80 53 81 54 82 59 83 55 84 56 85 58 86 60 87
REMARK SMILES IDX 57 88
REMARK H PARENT 20 8 27 31 77 50 51 61
REMARK Flexibility Score: inf
ROOT
ATOM      1  C   UNL A   1      31.279  30.375  25.295  1.00  0.00     0.002 C 
ENDROOT
BRANCH   1   2
ATOM      2  C   UNL A   1      32.558  29.588  25.610  1.00  0.00     0.002 C 
BRANCH   2   3
ATOM      3  C   UNL A   1      33.222  28.928  24.399  1.00  0.00     0.021 C 
BRANCH   3   4
ATOM      4  C   UNL A   1      32.833  27.466  24.219  1.00  0.00     0.116 C 
BRANCH   4   5
ATOM      5  N   UNL A   1      31.969  27.004  25.291  1.00  0.00    -0.352 N 
ATOM      6  C   UNL A   1      31.693  25.829  25.902  1.00  0.00     0.251 C 
ATOM      7  O   UNL A   1      30.876  25.895  26.826  1.00  0.00    -0.270 OA
ATOM      8  H   UNL A   1      31.446  27.742  25.675  1.00  0.00     0.163 HD
BRANCH   6   9
ATOM      9  C   UNL A   1      32.291  24.509  25.538  1.00  0.00     0.067 C 
ATOM     10  C   UNL A   1      36.083  19.202  24.733  1.00  0.00     0.047 C 
ATOM     11  C   UNL A   1      35.450  20.555  24.962  1.00  0.00    -0.019 A 
ATOM     12  C   UNL A   1      36.251  21.670  25.326  1.00  0.00     0.025 A 
ATOM     13  C   UNL A   1      34.064  20.750  24.843  1.00  0.00     0.064 A 
ATOM     14  Br  UNL A   1      38.147  21.408  25.506  1.00  0.00    -0.050 Br
ATOM     15  C   UNL A   1      35.689  22.949  25.573  1.00  0.00    -0.026 A 
ATOM     16  C   UNL A   1      33.497  22.011  25.092  1.00  0.00     0.142 A 
ATOM     17  Br  UNL A   1      32.882  19.325  24.345  1.00  0.00    -0.046 Br
ATOM     18  C   UNL A   1      36.528  24.146  25.960  1.00  0.00     0.046 C 
ATOM     19  C   UNL A   1      34.286  23.104  25.470  1.00  0.00     0.022 A 
ATOM     20  O   UNL A   1      32.135  22.094  25.004  1.00  0.00    -0.474 OA
ATOM     21  C   UNL A   1      33.602  24.362  25.798  1.00  0.00     0.026 C 
ATOM     22  C   UNL A   1      31.528  23.397  24.899  1.00  0.00     0.314 C 
BRANCH  22  23
ATOM     23  C   UNL A   1      31.166  23.679  23.430  1.00  0.00     0.429 C 
ATOM     24  F   UNL A   1      32.101  24.478  22.857  1.00  0.00    -0.167 F 
ATOM     25  F   UNL A   1      31.119  22.554  22.679  1.00  0.00    -0.167 F 
ATOM     26  F   UNL A   1      29.968  24.291  23.301  1.00  0.00    -0.167 F 
ENDBRANCH  22  23
ENDBRANCH   6   9
ENDBRANCH   4   5
ENDBRANCH   3   4
ENDBRANCH   2   3
ENDBRANCH   1   2
BRANCH   1  27
ATOM     27  C   UNL A   1      31.070  31.637  26.135  1.00  0.00     0.021 C 
BRANCH  27  28
ATOM     28  C   UNL A   1      32.315  32.103  26.880  1.00  0.00     0.116 C 
BRANCH  28  29
ATOM     29  N   UNL A   1      32.218  33.502  27.262  1.00  0.00    -0.352 N 
ATOM     30  C   UNL A   1      32.976  34.207  28.158  1.00  0.00     0.251 C 
ATOM     31  H   UNL A   1      31.507  34.015  26.813  1.00  0.00     0.163 HD
ATOM     32  O   UNL A   1      32.616  35.318  28.541  1.00  0.00    -0.269 OA
BRANCH  30  33
ATOM     33  C   UNL A   1      34.228  33.618  28.670  1.00  0.00     0.039 A 
ATOM     34  C   UNL A   1      35.425  33.888  28.006  1.00  0.00     0.014 A 
ATOM     35  C   UNL A   1      34.211  32.793  29.800  1.00  0.00     0.014 A 
ATOM     36  C   UNL A   1      36.617  33.364  28.504  1.00  0.00     0.010 A 
ATOM     37  C   UNL A   1      35.408  32.338  30.338  1.00  0.00     0.010 A 
ATOM     38  C   UNL A   1      36.621  32.605  29.686  1.00  0.00    -0.014 A 
BRANCH  38  39
ATOM     39  C   UNL A   1      37.882  32.054  30.233  1.00  0.00     0.031 A 
ATOM     40  C   UNL A   1      38.444  30.777  29.672  1.00  0.00     0.074 A 
ATOM     41  C   UNL A   1      38.502  32.684  31.248  1.00  0.00     0.049 A 
ATOM     42  N   UNL A   1      39.517  30.120  30.033  1.00  0.00    -0.248 NA
ATOM     43  C   UNL A   1      37.693  30.143  28.576  1.00  0.00     0.031 C 
ATOM     44  C   UNL A   1      38.034  33.912  31.891  1.00  0.00     0.029 A 
ATOM     45  N   UNL A   1      39.662  32.380  31.915  1.00  0.00    -0.354 N 
ATOM     46  C   UNL A   1      39.568  29.003  29.209  1.00  0.00     0.074 A 
ATOM     47  C   UNL A   1      38.386  29.033  28.377  1.00  0.00     0.031 C 
ATOM     48  C   UNL A   1      38.917  34.278  32.835  1.00  0.00     0.029 A 
ATOM     49  C   UNL A   1      39.991  33.290  32.890  1.00  0.00     0.049 A 
ATOM     50  H   UNL A   1      40.208  31.586  31.712  1.00  0.00     0.167 HD
ATOM     51  C   UNL A   1      40.532  28.057  29.130  1.00  0.00     0.037 A 
ATOM     52  C   UNL A   1      41.040  33.322  33.733  1.00  0.00     0.037 A 
ATOM     53  C   UNL A   1      41.715  28.044  29.946  1.00  0.00     0.049 A 
ATOM     54  C   UNL A   1      42.076  32.233  33.655  1.00  0.00     0.074 A 
ATOM     55  C   UNL A   1      42.771  27.150  29.916  1.00  0.00     0.029 A 
ATOM     56  N   UNL A   1      42.001  28.969  30.940  1.00  0.00    -0.354 N 
ATOM     57  N   UNL A   1      42.140  31.212  32.834  1.00  0.00    -0.248 NA
ATOM     58  C   UNL A   1      43.183  32.299  34.619  1.00  0.00     0.031 C 
ATOM     59  C   UNL A   1      43.670  27.504  30.925  1.00  0.00     0.029 A 
ATOM     60  C   UNL A   1      43.202  28.650  31.549  1.00  0.00     0.049 A 
ATOM     61  H   UNL A   1      41.433  29.738  31.176  1.00  0.00     0.167 HD
ATOM     62  C   UNL A   1      43.302  30.529  33.167  1.00  0.00     0.074 A 
ATOM     63  C   UNL A   1      43.922  31.261  34.251  1.00  0.00     0.031 C 
ATOM     64  C   UNL A   1      43.808  29.393  32.625  1.00  0.00     0.037 A 
BRANCH  51  65
ATOM     65  C   UNL A   1      40.358  26.967  28.114  1.00  0.00     0.057 A 
ATOM     66  C   UNL A   1      40.983  27.024  26.861  1.00  0.00     0.134 A 
ATOM     67  C   UNL A   1      39.611  25.820  28.410  1.00  0.00     0.134 A 
ATOM     68  F   UNL A   1      41.703  28.101  26.509  1.00  0.00    -0.206 F 
ATOM     69  C   UNL A   1      40.860  25.988  25.935  1.00  0.00     0.040 A 
ATOM     70  C   UNL A   1      39.503  24.764  27.504  1.00  0.00     0.040 A 
ATOM     71  F   UNL A   1      38.989  25.699  29.593  1.00  0.00    -0.206 F 
ATOM     72  C   UNL A   1      40.127  24.848  26.260  1.00  0.00     0.006 A 
ENDBRANCH  51  65
BRANCH  52  73
ATOM     73  C   UNL A   1      41.179  34.440  34.701  1.00  0.00     0.057 A 
ATOM     74  C   UNL A   1      41.892  35.597  34.366  1.00  0.00     0.134 A 
ATOM     75  C   UNL A   1      40.596  34.388  35.972  1.00  0.00     0.134 A 
ATOM     76  F   UNL A   1      42.489  35.699  33.170  1.00  0.00    -0.206 F 
ATOM     77  C   UNL A   1      42.031  36.658  35.263  1.00  0.00     0.040 A 
ATOM     78  C   UNL A   1      40.703  35.452  36.870  1.00  0.00     0.040 A 
ATOM     79  F   UNL A   1      39.894  33.312  36.353  1.00  0.00    -0.206 F 
ATOM     80  C   UNL A   1      41.427  36.589  36.518  1.00  0.00     0.006 A 
ENDBRANCH  52  73
BRANCH  64  81
ATOM     81  C   UNL A   1      45.099  28.872  33.183  1.00  0.00     0.057 A 
ATOM     82  C   UNL A   1      46.338  29.313  32.704  1.00  0.00     0.134 A 
ATOM     83  C   UNL A   1      45.103  27.983  34.267  1.00  0.00     0.134 A 
ATOM     84  F   UNL A   1      46.403  30.157  31.663  1.00  0.00    -0.206 F 
ATOM     85  C   UNL A   1      47.536  28.883  33.277  1.00  0.00     0.040 A 
ATOM     86  C   UNL A   1      46.293  27.568  34.866  1.00  0.00     0.040 A 
ATOM     87  F   UNL A   1      43.949  27.531  34.783  1.00  0.00    -0.206 F 
ATOM     88  C   UNL A   1      47.514  28.016  34.368  1.00  0.00     0.006 A 
ENDBRANCH  64  81
ENDBRANCH  38  39
ENDBRANCH  30  33
ENDBRANCH  28  29
ENDBRANCH  27  28
ENDBRANCH   1  27
TORSDOF 14
ENDMDL
MODEL 3
REMARK VINA RESULT:     -11.9      4.340      8.666
REMARK SMILES Cc1c(Br)c(C)c2c(c1Br)O[C@H](C(F)(F)F)C(C(=O)NCCCCCCNC(=O)c1ccc(-c3c4nc(c(-c5c(F)cccc5F)c5ccc([nH]5)c(-c5c(F)cccc5F)c5nc(c(-c6c(F)cccc6F)c6ccc3[nH]6)C=C5)C=C4)cc1)=C2
REMARK SMILES IDX 24 1 23 2 22 3 21 4 20 5 18 6 19 7 17 9 1 10 2 11 3 12 9 13
REMARK SMILES IDX 4 14 5 15 8 16 10 17 6 18 7 19 11 20 84 21 12 22 13 23 14 24
REMARK SMILES IDX 15 25 16 26 25 27 26 28 27 29 28 30 29 32 30 33 31 34 83 35
REMARK SMILES IDX 32 36 82 37 33 38 34 39 35 40 76 41 36 42 81 43 75 44 77 45
REMARK SMILES IDX 37 46 80 47 74 48 73 49 38 51 64 52 47 53 63 54 48 55 51 56
REMARK SMILES IDX 62 57 78 58 49 59 50 60 61 62 79 63 52 64 39 65 40 66 45 67
REMARK SMILES IDX 41 68 42 69 44 70 46 71 43 72 65 73 66 74 71 75 67 76 68 77
REMARK SMILES IDX 70 78 72 79 69 80 53 81 54 82 59 83 55 84 56 85 58 86 60 87
REMARK SMILES IDX 57 88
REMARK H PARENT 20 8 27 31 77 50 51 61
REMARK Flexibility Score: inf
ROOT
ATOM      1  C   UNL A   1      36.734  20.621  24.788  1.00  0.00     0.002 C 
ENDROOT
BRANCH   1   2
ATOM      2  C   UNL A   1      37.066  21.913  24.028  1.00  0.00     0.002 C 
BRANCH   2   3
ATOM      3  C   UNL A   1      36.526  23.193  24.671  1.00  0.00     0.021 C 
BRANCH   3   4
ATOM      4  C   UNL A   1      36.751  23.255  26.177  1.00  0.00     0.116 C 
BRANCH   4   5
ATOM      5  N   UNL A   1      35.571  22.840  26.914  1.00  0.00    -0.352 N 
ATOM      6  C   UNL A   1      34.240  23.077  26.866  1.00  0.00     0.251 C 
ATOM      7  O   UNL A   1      33.566  22.470  27.704  1.00  0.00    -0.270 OA
ATOM      8  H   UNL A   1      35.801  22.220  27.642  1.00  0.00     0.163 HD
BRANCH   6   9
ATOM      9  C   UNL A   1      33.565  23.996  25.900  1.00  0.00     0.067 C 
ATOM     10  C   UNL A   1      31.089  29.097  22.578  1.00  0.00     0.047 C 
ATOM     11  C   UNL A   1      31.649  28.094  23.559  1.00  0.00    -0.019 A 
ATOM     12  C   UNL A   1      31.906  28.473  24.904  1.00  0.00     0.025 A 
ATOM     13  C   UNL A   1      31.949  26.776  23.177  1.00  0.00     0.064 A 
ATOM     14  Br  UNL A   1      31.512  30.279  25.432  1.00  0.00    -0.050 Br
ATOM     15  C   UNL A   1      32.454  27.565  25.847  1.00  0.00    -0.026 A 
ATOM     16  C   UNL A   1      32.498  25.872  24.101  1.00  0.00     0.142 A 
ATOM     17  Br  UNL A   1      31.635  26.145  21.394  1.00  0.00    -0.046 Br
ATOM     18  C   UNL A   1      32.732  27.953  27.283  1.00  0.00     0.046 C 
ATOM     19  C   UNL A   1      32.770  26.253  25.421  1.00  0.00     0.022 A 
ATOM     20  O   UNL A   1      32.808  24.628  23.626  1.00  0.00    -0.474 OA
ATOM     21  C   UNL A   1      33.427  25.273  26.296  1.00  0.00     0.026 C 
ATOM     22  C   UNL A   1      33.037  23.565  24.572  1.00  0.00     0.314 C 
BRANCH  22  23
ATOM     23  C   UNL A   1      31.774  22.692  24.680  1.00  0.00     0.429 C 
ATOM     24  F   UNL A   1      31.045  22.769  23.539  1.00  0.00    -0.167 F 
ATOM     25  F   UNL A   1      32.061  21.381  24.857  1.00  0.00    -0.167 F 
ATOM     26  F   UNL A   1      30.975  23.063  25.704  1.00  0.00    -0.167 F 
ENDBRANCH  22  23
ENDBRANCH   6   9
ENDBRANCH   4   5
ENDBRANCH   3   4
ENDBRANCH   2   3
ENDBRANCH   1   2
BRANCH   1  27
ATOM     27  C   UNL A   1      37.905  19.650  24.958  1.00  0.00     0.021 C 
BRANCH  27  28
ATOM     28  C   UNL A   1      39.087  20.227  25.727  1.00  0.00     0.116 C 
BRANCH  28  29
ATOM     29  N   UNL A   1      40.173  19.267  25.840  1.00  0.00    -0.352 N 
ATOM     30  C   UNL A   1      41.497  19.490  26.108  1.00  0.00     0.251 C 
ATOM     31  H   UNL A   1      39.920  18.325  25.705  1.00  0.00     0.163 HD
ATOM     32  O   UNL A   1      42.325  18.599  25.935  1.00  0.00    -0.269 OA
BRANCH  30  33
ATOM     33  C   UNL A   1      41.925  20.814  26.596  1.00  0.00     0.039 A 
ATOM     34  C   UNL A   1      42.347  21.773  25.674  1.00  0.00     0.014 A 
ATOM     35  C   UNL A   1      41.916  21.100  27.965  1.00  0.00     0.014 A 
ATOM     36  C   UNL A   1      42.720  23.038  26.124  1.00  0.00     0.010 A 
ATOM     37  C   UNL A   1      42.213  22.384  28.404  1.00  0.00     0.010 A 
ATOM     38  C   UNL A   1      42.633  23.361  27.488  1.00  0.00    -0.014 A 
BRANCH  38  39
ATOM     39  C   UNL A   1      43.013  24.706  27.978  1.00  0.00     0.031 A 
ATOM     40  C   UNL A   1      41.951  25.745  28.209  1.00  0.00     0.074 A 
ATOM     41  C   UNL A   1      44.311  25.000  28.186  1.00  0.00     0.049 A 
ATOM     42  N   UNL A   1      42.082  26.985  28.607  1.00  0.00    -0.248 NA
ATOM     43  C   UNL A   1      40.560  25.345  27.939  1.00  0.00     0.031 C 
ATOM     44  C   UNL A   1      45.430  24.083  27.968  1.00  0.00     0.029 A 
ATOM     45  N   UNL A   1      44.907  26.153  28.631  1.00  0.00    -0.354 N 
ATOM     46  C   UNL A   1      40.796  27.508  28.635  1.00  0.00     0.074 A 
ATOM     47  C   UNL A   1      39.905  26.476  28.152  1.00  0.00     0.031 C 
ATOM     48  C   UNL A   1      46.573  24.695  28.315  1.00  0.00     0.029 A 
ATOM     49  C   UNL A   1      46.273  26.059  28.741  1.00  0.00     0.049 A 
ATOM     50  H   UNL A   1      44.403  26.969  28.853  1.00  0.00     0.167 HD
ATOM     51  C   UNL A   1      40.391  28.727  29.060  1.00  0.00     0.037 A 
ATOM     52  C   UNL A   1      47.180  26.971  29.140  1.00  0.00     0.037 A 
ATOM     53  C   UNL A   1      41.280  29.741  29.559  1.00  0.00     0.049 A 
ATOM     54  C   UNL A   1      46.707  28.335  29.565  1.00  0.00     0.074 A 
ATOM     55  C   UNL A   1      40.964  30.995  30.050  1.00  0.00     0.029 A 
ATOM     56  N   UNL A   1      42.660  29.617  29.632  1.00  0.00    -0.354 N 
ATOM     57  N   UNL A   1      45.482  28.799  29.639  1.00  0.00    -0.248 NA
ATOM     58  C   UNL A   1      47.741  29.302  29.961  1.00  0.00     0.031 C 
ATOM     59  C   UNL A   1      42.155  31.649  30.372  1.00  0.00     0.029 A 
ATOM     60  C   UNL A   1      43.211  30.784  30.132  1.00  0.00     0.049 A 
ATOM     61  H   UNL A   1      43.170  28.818  29.366  1.00  0.00     0.167 HD
ATOM     62  C   UNL A   1      45.596  30.100  30.110  1.00  0.00     0.074 A 
ATOM     63  C   UNL A   1      47.007  30.346  30.322  1.00  0.00     0.031 C 
ATOM     64  C   UNL A   1      44.619  31.011  30.341  1.00  0.00     0.037 A 
BRANCH  51  65
ATOM     65  C   UNL A   1      38.921  29.026  29.023  1.00  0.00     0.057 A 
ATOM     66  C   UNL A   1      38.115  28.892  30.161  1.00  0.00     0.134 A 
ATOM     67  C   UNL A   1      38.317  29.512  27.857  1.00  0.00     0.134 A 
ATOM     68  F   UNL A   1      38.630  28.420  31.307  1.00  0.00    -0.206 F 
ATOM     69  C   UNL A   1      36.759  29.216  30.137  1.00  0.00     0.040 A 
ATOM     70  C   UNL A   1      36.967  29.866  27.828  1.00  0.00     0.040 A 
ATOM     71  F   UNL A   1      39.031  29.668  26.732  1.00  0.00    -0.206 F 
ATOM     72  C   UNL A   1      36.183  29.716  28.971  1.00  0.00     0.006 A 
ENDBRANCH  51  65
BRANCH  52  73
ATOM     73  C   UNL A   1      48.620  26.613  29.185  1.00  0.00     0.057 A 
ATOM     74  C   UNL A   1      49.452  26.840  28.083  1.00  0.00     0.134 A 
ATOM     75  C   UNL A   1      49.202  26.050  30.326  1.00  0.00     0.134 A 
ATOM     76  F   UNL A   1      48.950  27.360  26.954  1.00  0.00    -0.206 F 
ATOM     77  C   UNL A   1      50.809  26.510  28.109  1.00  0.00     0.040 A 
ATOM     78  C   UNL A   1      50.563  25.740  30.377  1.00  0.00     0.040 A 
ATOM     79  F   UNL A   1      48.462  25.812  31.418  1.00  0.00    -0.206 F 
ATOM     80  C   UNL A   1      51.369  25.965  29.264  1.00  0.00     0.006 A 
ENDBRANCH  52  73
BRANCH  64  81
ATOM     81  C   UNL A   1      45.031  32.357  30.860  1.00  0.00     0.057 A 
ATOM     82  C   UNL A   1      45.282  33.432  29.998  1.00  0.00     0.134 A 
ATOM     83  C   UNL A   1      45.096  32.603  32.238  1.00  0.00     0.134 A 
ATOM     84  F   UNL A   1      45.245  33.259  28.668  1.00  0.00    -0.206 F 
ATOM     85  C   UNL A   1      45.593  34.701  30.488  1.00  0.00     0.040 A 
ATOM     86  C   UNL A   1      45.378  33.874  32.740  1.00  0.00     0.040 A 
ATOM     87  F   UNL A   1      44.855  31.620  33.119  1.00  0.00    -0.206 F 
ATOM     88  C   UNL A   1      45.631  34.927  31.863  1.00  0.00     0.006 A 
ENDBRANCH  64  81
ENDBRANCH  38  39
ENDBRANCH  30  33
ENDBRANCH  28  29
ENDBRANCH  27  28
ENDBRANCH   1  27
TORSDOF 14
ENDMDL
