MODEL 1
REMARK VINA RESULT:     -10.8      0.000      0.000
REMARK SMILES N#CCC[NH+]1CCN(c2cc(C(=O)NCCCCCCNC(=O)c3ccc(-c4c5nc(c(-c6c(F)cccc6F)c6ccc([nH]6)c(-c6c(F)cccc6F)c6nc(c(-c7c(F)cccc7F)c7ccc4[nH]7)C=C6)C=C5)cc3)c3cc(NS(=O)(=O)c4ccccc4Cl)ccc3n2)CC1
REMARK SMILES IDX 16 1 15 2 14 3 12 4 13 5 11 7 9 8 10 9 95 10 94 11 78 12
REMARK SMILES IDX 93 13 79 14 92 15 80 16 8 17 5 18 6 19 97 20 7 22 96 23 4 24
REMARK SMILES IDX 3 25 2 26 1 27 81 28 82 30 83 31 84 32 85 33 86 34 90 35
REMARK SMILES IDX 87 36 89 37 91 38 88 39 17 40 18 41 19 42 20 43 21 44 22 45
REMARK SMILES IDX 23 47 24 48 25 49 77 50 26 51 76 52 27 53 28 54 29 55 70 56
REMARK SMILES IDX 30 57 75 58 69 59 71 60 31 61 74 62 68 63 67 64 32 66 58 67
REMARK SMILES IDX 41 68 57 69 42 70 45 71 56 72 72 73 43 74 44 75 55 77 73 78
REMARK SMILES IDX 46 79 33 80 34 81 39 82 35 83 36 84 38 85 40 86 37 87 59 88
REMARK SMILES IDX 60 89 65 90 61 91 62 92 64 93 66 94 63 95 47 96 48 97 53 98
REMARK SMILES IDX 49 99 50 100 52 101 54 102 51 103
REMARK H PARENT 14 6 5 21 81 29 21 46 71 65 45 76
REMARK Flexibility Score: inf
ROOT
ATOM      1  C   UNL A   1      40.364  29.295  28.375  1.00  0.00     0.021 C 
ENDROOT
BRANCH   1   2
ATOM      2  C   UNL A   1      39.176  29.902  29.278  1.00  0.00     0.116 C 
BRANCH   2   3
ATOM      3  N   UNL A   1      37.757  29.427  29.063  1.00  0.00    -0.352 N 
ATOM      4  C   UNL A   1      36.550  29.798  29.673  1.00  0.00     0.252 C 
ATOM      5  O   UNL A   1      36.282  29.365  30.791  1.00  0.00    -0.269 OA
ATOM      6  H   UNL A   1      37.663  28.734  28.369  1.00  0.00     0.163 HD
BRANCH   4   7
ATOM      7  C   UNL A   1      35.438  30.407  28.842  1.00  0.00     0.052 A 
ATOM      8  C   UNL A   1      33.934  30.357  26.958  1.00  0.00     0.130 A 
ATOM      9  C   UNL A   1      35.022  29.804  27.666  1.00  0.00     0.061 A 
ATOM     10  N   UNL A   1      33.504  31.621  27.166  1.00  0.00    -0.231 NA
ATOM     11  C   UNL A   1      34.083  32.299  28.180  1.00  0.00     0.074 A 
ATOM     12  C   UNL A   1      34.867  31.634  29.126  1.00  0.00     0.015 A 
ATOM     13  C   UNL A   1      34.084  33.689  28.316  1.00  0.00     0.031 A 
ATOM     14  C   UNL A   1      35.263  32.306  30.234  1.00  0.00     0.038 A 
ATOM     15  C   UNL A   1      35.138  34.271  29.060  1.00  0.00     0.029 A 
ATOM     16  C   UNL A   1      35.901  33.432  29.855  1.00  0.00     0.050 A 
BRANCH   8  17
ATOM     17  N   UNL A   1      33.083  29.432  26.359  1.00  0.00    -0.345 N 
ATOM     18  N   UNL A   1      32.260  26.680  25.824  1.00  0.00    -0.331 N 
ATOM     19  C   UNL A   1      33.658  27.066  26.037  1.00  0.00     0.284 C 
ATOM     20  C   UNL A   1      31.506  27.458  26.841  1.00  0.00     0.284 C 
ATOM     21  H   UNL A   1      32.178  25.668  25.929  1.00  0.00     0.348 HD
ATOM     22  C   UNL A   1      33.902  28.496  25.588  1.00  0.00     0.179 C 
ATOM     23  C   UNL A   1      31.781  29.002  26.901  1.00  0.00     0.179 C 
BRANCH  18  24
ATOM     24  C   UNL A   1      31.702  26.826  24.451  1.00  0.00     0.277 C 
BRANCH  24  25
ATOM     25  C   UNL A   1      30.191  27.072  24.107  1.00  0.00     0.181 C 
BRANCH  25  26
ATOM     26  C   UNL A   1      30.043  28.038  22.943  1.00  0.00     0.068 C 
ATOM     27  N   UNL A   1      29.919  28.839  21.977  1.00  0.00    -0.198 NA
ENDBRANCH  25  26
ENDBRANCH  24  25
ENDBRANCH  18  24
ENDBRANCH   8  17
BRANCH  16  28
ATOM     28  N   UNL A   1      37.315  33.490  30.163  1.00  0.00    -0.280 N 
ATOM     29  H   UNL A   1      37.977  33.328  29.452  1.00  0.00     0.180 HD
BRANCH  28  30
ATOM     30  S   UNL A   1      37.853  33.840  31.763  1.00  0.00     0.263 S 
ATOM     31  O   UNL A   1      39.157  34.456  31.598  1.00  0.00    -0.201 OA
ATOM     32  O   UNL A   1      36.754  34.685  32.207  1.00  0.00    -0.201 OA
BRANCH  30  33
ATOM     33  C   UNL A   1      38.088  32.728  33.253  1.00  0.00     0.106 A 
ATOM     34  C   UNL A   1      38.981  31.703  32.825  1.00  0.00     0.024 A 
ATOM     35  C   UNL A   1      37.747  32.598  34.624  1.00  0.00     0.061 A 
ATOM     36  C   UNL A   1      39.416  30.627  33.616  1.00  0.00     0.002 A 
ATOM     37  C   UNL A   1      38.150  31.470  35.401  1.00  0.00     0.022 A 
ATOM     38  Cl  UNL A   1      36.996  33.609  35.794  1.00  0.00    -0.083 Cl
ATOM     39  C   UNL A   1      38.971  30.488  34.908  1.00  0.00     0.002 A 
ENDBRANCH  30  33
ENDBRANCH  28  30
ENDBRANCH  16  28
ENDBRANCH   4   7
ENDBRANCH   2   3
ENDBRANCH   1   2
BRANCH   1  40
ATOM     40  C   UNL A   1      40.179  28.670  26.953  1.00  0.00     0.002 C 
BRANCH  40  41
ATOM     41  C   UNL A   1      40.802  27.286  26.587  1.00  0.00     0.002 C 
BRANCH  41  42
ATOM     42  C   UNL A   1      40.031  25.989  26.849  1.00  0.00     0.021 C 
BRANCH  42  43
ATOM     43  C   UNL A   1      40.646  25.047  27.850  1.00  0.00     0.116 C 
BRANCH  43  44
ATOM     44  N   UNL A   1      41.041  23.784  27.253  1.00  0.00    -0.352 N 
ATOM     45  C   UNL A   1      42.163  23.588  26.477  1.00  0.00     0.251 C 
ATOM     46  H   UNL A   1      40.460  23.005  27.416  1.00  0.00     0.163 HD
ATOM     47  O   UNL A   1      42.305  22.602  25.777  1.00  0.00    -0.269 OA
BRANCH  45  48
ATOM     48  C   UNL A   1      43.200  24.641  26.531  1.00  0.00     0.039 A 
ATOM     49  C   UNL A   1      43.886  24.891  27.719  1.00  0.00     0.014 A 
ATOM     50  C   UNL A   1      43.523  25.327  25.356  1.00  0.00     0.014 A 
ATOM     51  C   UNL A   1      44.895  25.855  27.727  1.00  0.00     0.010 A 
ATOM     52  C   UNL A   1      44.596  26.200  25.340  1.00  0.00     0.010 A 
ATOM     53  C   UNL A   1      45.245  26.522  26.540  1.00  0.00    -0.014 A 
BRANCH  53  54
ATOM     54  C   UNL A   1      46.166  27.680  26.552  1.00  0.00     0.031 A 
ATOM     55  C   UNL A   1      47.647  27.420  26.441  1.00  0.00     0.074 A 
ATOM     56  C   UNL A   1      45.690  28.930  26.685  1.00  0.00     0.049 A 
ATOM     57  N   UNL A   1      48.643  28.264  26.477  1.00  0.00    -0.248 NA
ATOM     58  C   UNL A   1      48.066  26.011  26.313  1.00  0.00     0.031 C 
ATOM     59  C   UNL A   1      44.281  29.291  26.846  1.00  0.00     0.029 A 
ATOM     60  N   UNL A   1      46.347  30.132  26.699  1.00  0.00    -0.354 N 
ATOM     61  C   UNL A   1      49.794  27.488  26.396  1.00  0.00     0.074 A 
ATOM     62  C   UNL A   1      49.381  26.105  26.401  1.00  0.00     0.031 C 
ATOM     63  C   UNL A   1      44.176  30.630  26.904  1.00  0.00     0.029 A 
ATOM     64  C   UNL A   1      45.511  31.216  26.812  1.00  0.00     0.049 A 
ATOM     65  H   UNL A   1      47.327  30.212  26.636  1.00  0.00     0.167 HD
ATOM     66  C   UNL A   1      51.080  27.890  26.277  1.00  0.00     0.037 A 
ATOM     67  C   UNL A   1      45.800  32.530  26.825  1.00  0.00     0.037 A 
ATOM     68  C   UNL A   1      51.475  29.269  26.221  1.00  0.00     0.049 A 
ATOM     69  C   UNL A   1      47.237  32.954  26.682  1.00  0.00     0.074 A 
ATOM     70  C   UNL A   1      52.740  29.801  26.061  1.00  0.00     0.029 A 
ATOM     71  N   UNL A   1      50.594  30.338  26.311  1.00  0.00    -0.354 N 
ATOM     72  N   UNL A   1      48.312  32.213  26.550  1.00  0.00    -0.248 NA
ATOM     73  C   UNL A   1      47.501  34.399  26.674  1.00  0.00     0.031 C 
ATOM     74  C   UNL A   1      52.629  31.194  26.089  1.00  0.00     0.029 A 
ATOM     75  C   UNL A   1      51.290  31.529  26.217  1.00  0.00     0.049 A 
ATOM     76  H   UNL A   1      49.620  30.260  26.427  1.00  0.00     0.167 HD
ATOM     77  C   UNL A   1      49.371  33.099  26.405  1.00  0.00     0.074 A 
ATOM     78  C   UNL A   1      48.807  34.432  26.452  1.00  0.00     0.031 C 
ATOM     79  C   UNL A   1      50.693  32.839  26.244  1.00  0.00     0.037 A 
BRANCH  66  80
ATOM     80  C   UNL A   1      52.133  26.825  26.176  1.00  0.00     0.057 A 
ATOM     81  C   UNL A   1      52.924  26.461  27.275  1.00  0.00     0.134 A 
ATOM     82  C   UNL A   1      52.357  26.150  24.971  1.00  0.00     0.134 A 
ATOM     83  F   UNL A   1      52.775  27.082  28.456  1.00  0.00    -0.206 F 
ATOM     84  C   UNL A   1      53.918  25.487  27.172  1.00  0.00     0.040 A 
ATOM     85  C   UNL A   1      53.327  25.151  24.862  1.00  0.00     0.040 A 
ATOM     86  F   UNL A   1      51.638  26.448  23.877  1.00  0.00    -0.206 F 
ATOM     87  C   UNL A   1      54.117  24.824  25.963  1.00  0.00     0.006 A 
ENDBRANCH  66  80
BRANCH  67  88
ATOM     88  C   UNL A   1      44.713  33.538  26.929  1.00  0.00     0.057 A 
ATOM     89  C   UNL A   1      44.043  33.996  25.789  1.00  0.00     0.134 A 
ATOM     90  C   UNL A   1      44.333  34.082  28.161  1.00  0.00     0.134 A 
ATOM     91  F   UNL A   1      44.370  33.523  24.577  1.00  0.00    -0.206 F 
ATOM     92  C   UNL A   1      43.056  34.981  25.864  1.00  0.00     0.040 A 
ATOM     93  C   UNL A   1      43.329  35.048  28.255  1.00  0.00     0.040 A 
ATOM     94  F   UNL A   1      44.928  33.678  29.293  1.00  0.00    -0.206 F 
ATOM     95  C   UNL A   1      42.695  35.508  27.103  1.00  0.00     0.006 A 
ENDBRANCH  67  88
BRANCH  79  96
ATOM     96  C   UNL A   1      51.604  34.016  26.053  1.00  0.00     0.057 A 
ATOM     97  C   UNL A   1      52.015  34.437  24.783  1.00  0.00     0.134 A 
ATOM     98  C   UNL A   1      52.034  34.762  27.159  1.00  0.00     0.134 A 
ATOM     99  F   UNL A   1      51.643  33.759  23.687  1.00  0.00    -0.206 F 
ATOM    100  C   UNL A   1      52.847  35.545  24.621  1.00  0.00     0.040 A 
ATOM    101  C   UNL A   1      52.841  35.889  27.005  1.00  0.00     0.040 A 
ATOM    102  F   UNL A   1      51.664  34.417  28.401  1.00  0.00    -0.206 F 
ATOM    103  C   UNL A   1      53.256  36.278  25.734  1.00  0.00     0.006 A 
ENDBRANCH  79  96
ENDBRANCH  53  54
ENDBRANCH  45  48
ENDBRANCH  43  44
ENDBRANCH  42  43
ENDBRANCH  41  42
ENDBRANCH  40  41
ENDBRANCH   1  40
TORSDOF 20
ENDMDL
MODEL 2
REMARK VINA RESULT:     -10.6      3.486      8.601
REMARK SMILES N#CCC[NH+]1CCN(c2cc(C(=O)NCCCCCCNC(=O)c3ccc(-c4c5nc(c(-c6c(F)cccc6F)c6ccc([nH]6)c(-c6c(F)cccc6F)c6nc(c(-c7c(F)cccc7F)c7ccc4[nH]7)C=C6)C=C5)cc3)c3cc(NS(=O)(=O)c4ccccc4Cl)ccc3n2)CC1
REMARK SMILES IDX 16 1 15 2 14 3 12 4 13 5 11 7 9 8 10 9 95 10 94 11 78 12
REMARK SMILES IDX 93 13 79 14 92 15 80 16 8 17 5 18 6 19 97 20 7 22 96 23 4 24
REMARK SMILES IDX 3 25 2 26 1 27 81 28 82 30 83 31 84 32 85 33 86 34 90 35
REMARK SMILES IDX 87 36 89 37 91 38 88 39 17 40 18 41 19 42 20 43 21 44 22 45
REMARK SMILES IDX 23 47 24 48 25 49 77 50 26 51 76 52 27 53 28 54 29 55 70 56
REMARK SMILES IDX 30 57 75 58 69 59 71 60 31 61 74 62 68 63 67 64 32 66 58 67
REMARK SMILES IDX 41 68 57 69 42 70 45 71 56 72 72 73 43 74 44 75 55 77 73 78
REMARK SMILES IDX 46 79 33 80 34 81 39 82 35 83 36 84 38 85 40 86 37 87 59 88
REMARK SMILES IDX 60 89 65 90 61 91 62 92 64 93 66 94 63 95 47 96 48 97 53 98
REMARK SMILES IDX 49 99 50 100 52 101 54 102 51 103
REMARK H PARENT 14 6 5 21 81 29 21 46 71 65 45 76
REMARK Flexibility Score: inf
ROOT
ATOM      1  C   UNL A   1      36.752  33.115  28.964  1.00  0.00     0.021 C 
ENDROOT
BRANCH   1   2
ATOM      2  C   UNL A   1      37.114  34.380  29.893  1.00  0.00     0.116 C 
BRANCH   2   3
ATOM      3  N   UNL A   1      38.196  34.251  30.941  1.00  0.00    -0.352 N 
ATOM      4  C   UNL A   1      39.310  33.404  31.028  1.00  0.00     0.252 C 
ATOM      5  O   UNL A   1      39.155  32.235  31.374  1.00  0.00    -0.269 OA
ATOM      6  H   UNL A   1      38.102  34.873  31.699  1.00  0.00     0.163 HD
BRANCH   4   7
ATOM      7  C   UNL A   1      40.707  33.993  31.060  1.00  0.00     0.052 A 
ATOM      8  C   UNL A   1      42.606  34.998  29.965  1.00  0.00     0.130 A 
ATOM      9  C   UNL A   1      41.337  34.385  29.890  1.00  0.00     0.061 A 
ATOM     10  N   UNL A   1      43.388  34.908  31.063  1.00  0.00    -0.231 NA
ATOM     11  C   UNL A   1      42.847  34.309  32.145  1.00  0.00     0.074 A 
ATOM     12  C   UNL A   1      41.474  34.058  32.208  1.00  0.00     0.015 A 
ATOM     13  C   UNL A   1      43.574  33.768  33.208  1.00  0.00     0.031 A 
ATOM     14  C   UNL A   1      40.941  33.642  33.384  1.00  0.00     0.038 A 
ATOM     15  C   UNL A   1      42.965  32.731  33.955  1.00  0.00     0.029 A 
ATOM     16  C   UNL A   1      41.602  32.543  33.796  1.00  0.00     0.050 A 
BRANCH   8  17
ATOM     17  N   UNL A   1      42.827  36.021  29.046  1.00  0.00    -0.345 N 
ATOM     18  N   UNL A   1      44.120  37.075  26.647  1.00  0.00    -0.331 N 
ATOM     19  C   UNL A   1      44.757  36.091  27.529  1.00  0.00     0.284 C 
ATOM     20  C   UNL A   1      42.710  36.618  26.547  1.00  0.00     0.284 C 
ATOM     21  H   UNL A   1      44.618  37.089  25.756  1.00  0.00     0.348 HD
ATOM     22  C   UNL A   1      44.270  36.246  28.959  1.00  0.00     0.179 C 
ATOM     23  C   UNL A   1      41.960  36.330  27.895  1.00  0.00     0.179 C 
BRANCH  18  24
ATOM     24  C   UNL A   1      44.240  38.513  27.014  1.00  0.00     0.277 C 
BRANCH  24  25
ATOM     25  C   UNL A   1      43.171  39.620  26.706  1.00  0.00     0.181 C 
BRANCH  25  26
ATOM     26  C   UNL A   1      43.734  40.686  25.781  1.00  0.00     0.068 C 
ATOM     27  N   UNL A   1      44.201  41.571  25.013  1.00  0.00    -0.198 NA
ENDBRANCH  25  26
ENDBRANCH  24  25
ENDBRANCH  18  24
ENDBRANCH   8  17
BRANCH  16  28
ATOM     28  N   UNL A   1      40.835  31.313  33.813  1.00  0.00    -0.280 N 
ATOM     29  H   UNL A   1      41.111  30.558  33.245  1.00  0.00     0.180 HD
BRANCH  28  30
ATOM     30  S   UNL A   1      39.444  31.160  34.819  1.00  0.00     0.263 S 
ATOM     31  O   UNL A   1      38.815  29.918  34.408  1.00  0.00    -0.201 OA
ATOM     32  O   UNL A   1      40.086  31.196  36.125  1.00  0.00    -0.201 OA
BRANCH  30  33
ATOM     33  C   UNL A   1      37.990  32.310  35.091  1.00  0.00     0.106 A 
ATOM     34  C   UNL A   1      37.215  32.232  33.897  1.00  0.00     0.024 A 
ATOM     35  C   UNL A   1      37.384  33.148  36.063  1.00  0.00     0.061 A 
ATOM     36  C   UNL A   1      36.039  32.957  33.647  1.00  0.00     0.002 A 
ATOM     37  C   UNL A   1      36.220  33.923  35.777  1.00  0.00     0.022 A 
ATOM     38  Cl  UNL A   1      37.618  33.429  37.743  1.00  0.00    -0.083 Cl
ATOM     39  C   UNL A   1      35.552  33.838  34.581  1.00  0.00     0.002 A 
ENDBRANCH  30  33
ENDBRANCH  28  30
ENDBRANCH  16  28
ENDBRANCH   4   7
ENDBRANCH   2   3
ENDBRANCH   1   2
BRANCH   1  40
ATOM     40  C   UNL A   1      35.523  33.034  27.998  1.00  0.00     0.002 C 
BRANCH  40  41
ATOM     41  C   UNL A   1      34.649  31.745  27.903  1.00  0.00     0.002 C 
BRANCH  41  42
ATOM     42  C   UNL A   1      35.210  30.466  27.273  1.00  0.00     0.021 C 
BRANCH  42  43
ATOM     43  C   UNL A   1      35.837  29.482  28.225  1.00  0.00     0.116 C 
BRANCH  43  44
ATOM     44  N   UNL A   1      35.595  29.825  29.615  1.00  0.00    -0.352 N 
ATOM     45  C   UNL A   1      36.497  29.655  30.643  1.00  0.00     0.251 C 
ATOM     46  H   UNL A   1      34.717  30.211  29.841  1.00  0.00     0.163 HD
ATOM     47  O   UNL A   1      36.162  29.691  31.814  1.00  0.00    -0.269 OA
BRANCH  45  48
ATOM     48  C   UNL A   1      37.907  29.422  30.260  1.00  0.00     0.039 A 
ATOM     49  C   UNL A   1      38.391  29.898  29.041  1.00  0.00     0.014 A 
ATOM     50  C   UNL A   1      38.753  28.781  31.169  1.00  0.00     0.014 A 
ATOM     51  C   UNL A   1      39.737  29.708  28.730  1.00  0.00     0.010 A 
ATOM     52  C   UNL A   1      40.109  28.694  30.907  1.00  0.00     0.010 A 
ATOM     53  C   UNL A   1      40.598  29.094  29.656  1.00  0.00    -0.014 A 
BRANCH  53  54
ATOM     54  C   UNL A   1      41.976  28.702  29.282  1.00  0.00     0.031 A 
ATOM     55  C   UNL A   1      42.202  27.318  28.730  1.00  0.00     0.074 A 
ATOM     56  C   UNL A   1      43.000  29.555  29.456  1.00  0.00     0.049 A 
ATOM     57  N   UNL A   1      43.319  26.736  28.381  1.00  0.00    -0.248 NA
ATOM     58  C   UNL A   1      41.014  26.454  28.592  1.00  0.00     0.031 C 
ATOM     59  C   UNL A   1      42.899  30.900  30.024  1.00  0.00     0.029 A 
ATOM     60  N   UNL A   1      44.331  29.414  29.164  1.00  0.00    -0.354 N 
ATOM     61  C   UNL A   1      42.966  25.445  28.004  1.00  0.00     0.074 A 
ATOM     62  C   UNL A   1      41.552  25.296  28.252  1.00  0.00     0.031 C 
ATOM     63  C   UNL A   1      44.113  31.476  30.002  1.00  0.00     0.029 A 
ATOM     64  C   UNL A   1      45.078  30.531  29.446  1.00  0.00     0.049 A 
ATOM     65  H   UNL A   1      44.716  28.589  28.788  1.00  0.00     0.167 HD
ATOM     66  C   UNL A   1      43.739  24.483  27.452  1.00  0.00     0.037 A 
ATOM     67  C   UNL A   1      46.391  30.760  29.260  1.00  0.00     0.037 A 
ATOM     68  C   UNL A   1      45.134  24.659  27.162  1.00  0.00     0.049 A 
ATOM     69  C   UNL A   1      47.230  29.677  28.636  1.00  0.00     0.074 A 
ATOM     70  C   UNL A   1      46.012  23.774  26.568  1.00  0.00     0.029 A 
ATOM     71  N   UNL A   1      45.849  25.816  27.438  1.00  0.00    -0.354 N 
ATOM     72  N   UNL A   1      46.875  28.480  28.232  1.00  0.00    -0.248 NA
ATOM     73  C   UNL A   1      48.652  29.981  28.428  1.00  0.00     0.031 C 
ATOM     74  C   UNL A   1      47.270  24.383  26.516  1.00  0.00     0.029 A 
ATOM     75  C   UNL A   1      47.162  25.665  27.032  1.00  0.00     0.049 A 
ATOM     76  H   UNL A   1      45.477  26.623  27.861  1.00  0.00     0.167 HD
ATOM     77  C   UNL A   1      48.016  27.906  27.688  1.00  0.00     0.074 A 
ATOM     78  C   UNL A   1      49.071  28.891  27.803  1.00  0.00     0.031 C 
ATOM     79  C   UNL A   1      48.181  26.676  27.140  1.00  0.00     0.037 A 
BRANCH  66  80
ATOM     80  C   UNL A   1      43.082  23.176  27.111  1.00  0.00     0.057 A 
ATOM     81  C   UNL A   1      42.776  22.224  28.094  1.00  0.00     0.134 A 
ATOM     82  C   UNL A   1      42.746  22.866  25.788  1.00  0.00     0.134 A 
ATOM     83  F   UNL A   1      43.089  22.448  29.379  1.00  0.00    -0.206 F 
ATOM     84  C   UNL A   1      42.187  21.000  27.770  1.00  0.00     0.040 A 
ATOM     85  C   UNL A   1      42.128  21.659  25.455  1.00  0.00     0.040 A 
ATOM     86  F   UNL A   1      43.012  23.730  24.796  1.00  0.00    -0.206 F 
ATOM     87  C   UNL A   1      41.855  20.719  26.447  1.00  0.00     0.006 A 
ENDBRANCH  66  80
BRANCH  67  88
ATOM     88  C   UNL A   1      46.984  32.073  29.620  1.00  0.00     0.057 A 
ATOM     89  C   UNL A   1      47.458  32.321  30.913  1.00  0.00     0.134 A 
ATOM     90  C   UNL A   1      47.073  33.117  28.691  1.00  0.00     0.134 A 
ATOM     91  F   UNL A   1      47.389  31.365  31.852  1.00  0.00    -0.206 F 
ATOM     92  C   UNL A   1      47.971  33.567  31.281  1.00  0.00     0.040 A 
ATOM     93  C   UNL A   1      47.608  34.359  29.037  1.00  0.00     0.040 A 
ATOM     94  F   UNL A   1      46.648  32.941  27.432  1.00  0.00    -0.206 F 
ATOM     95  C   UNL A   1      48.048  34.590  30.339  1.00  0.00     0.006 A 
ENDBRANCH  67  88
BRANCH  79  96
ATOM     96  C   UNL A   1      49.533  26.354  26.576  1.00  0.00     0.057 A 
ATOM     97  C   UNL A   1      49.921  26.770  25.296  1.00  0.00     0.134 A 
ATOM     98  C   UNL A   1      50.473  25.658  27.348  1.00  0.00     0.134 A 
ATOM     99  F   UNL A   1      49.064  27.432  24.506  1.00  0.00    -0.206 F 
ATOM    100  C   UNL A   1      51.189  26.479  24.793  1.00  0.00     0.040 A 
ATOM    101  C   UNL A   1      51.754  25.389  26.866  1.00  0.00     0.040 A 
ATOM    102  F   UNL A   1      50.167  25.245  28.586  1.00  0.00    -0.206 F 
ATOM    103  C   UNL A   1      52.112  25.793  25.582  1.00  0.00     0.006 A 
ENDBRANCH  79  96
ENDBRANCH  53  54
ENDBRANCH  45  48
ENDBRANCH  43  44
ENDBRANCH  42  43
ENDBRANCH  41  42
ENDBRANCH  40  41
ENDBRANCH   1  40
TORSDOF 20
ENDMDL
MODEL 3
REMARK VINA RESULT:     -10.6      4.415      9.827
REMARK SMILES N#CCC[NH+]1CCN(c2cc(C(=O)NCCCCCCNC(=O)c3ccc(-c4c5nc(c(-c6c(F)cccc6F)c6ccc([nH]6)c(-c6c(F)cccc6F)c6nc(c(-c7c(F)cccc7F)c7ccc4[nH]7)C=C6)C=C5)cc3)c3cc(NS(=O)(=O)c4ccccc4Cl)ccc3n2)CC1
REMARK SMILES IDX 16 1 15 2 14 3 12 4 13 5 11 7 9 8 10 9 95 10 94 11 78 12
REMARK SMILES IDX 93 13 79 14 92 15 80 16 8 17 5 18 6 19 97 20 7 22 96 23 4 24
REMARK SMILES IDX 3 25 2 26 1 27 81 28 82 30 83 31 84 32 85 33 86 34 90 35
REMARK SMILES IDX 87 36 89 37 91 38 88 39 17 40 18 41 19 42 20 43 21 44 22 45
REMARK SMILES IDX 23 47 24 48 25 49 77 50 26 51 76 52 27 53 28 54 29 55 70 56
REMARK SMILES IDX 30 57 75 58 69 59 71 60 31 61 74 62 68 63 67 64 32 66 58 67
REMARK SMILES IDX 41 68 57 69 42 70 45 71 56 72 72 73 43 74 44 75 55 77 73 78
REMARK SMILES IDX 46 79 33 80 34 81 39 82 35 83 36 84 38 85 40 86 37 87 59 88
REMARK SMILES IDX 60 89 65 90 61 91 62 92 64 93 66 94 63 95 47 96 48 97 53 98
REMARK SMILES IDX 49 99 50 100 52 101 54 102 51 103
REMARK H PARENT 14 6 5 21 81 29 21 46 71 65 45 76
REMARK Flexibility Score: inf
ROOT
ATOM      1  C   UNL A   1      38.867  32.936  33.396  1.00  0.00     0.021 C 
ENDROOT
BRANCH   1   2
ATOM      2  C   UNL A   1      38.114  31.547  33.705  1.00  0.00     0.116 C 
BRANCH   2   3
ATOM      3  N   UNL A   1      38.647  30.261  33.115  1.00  0.00    -0.352 N 
ATOM      4  C   UNL A   1      37.998  29.186  32.491  1.00  0.00     0.252 C 
ATOM      5  O   UNL A   1      37.407  28.356  33.178  1.00  0.00    -0.269 OA
ATOM      6  H   UNL A   1      39.625  30.160  33.180  1.00  0.00     0.163 HD
BRANCH   4   7
ATOM      7  C   UNL A   1      38.323  28.839  31.052  1.00  0.00     0.052 A 
ATOM      8  C   UNL A   1      39.799  27.929  29.375  1.00  0.00     0.130 A 
ATOM      9  C   UNL A   1      39.558  28.310  30.712  1.00  0.00     0.061 A 
ATOM     10  N   UNL A   1      39.035  28.367  28.350  1.00  0.00    -0.231 NA
ATOM     11  C   UNL A   1      37.943  29.091  28.675  1.00  0.00     0.074 A 
ATOM     12  C   UNL A   1      37.484  29.136  29.994  1.00  0.00     0.015 A 
ATOM     13  C   UNL A   1      37.264  29.948  27.806  1.00  0.00     0.031 A 
ATOM     14  C   UNL A   1      36.279  29.703  30.246  1.00  0.00     0.038 A 
ATOM     15  C   UNL A   1      36.530  31.014  28.382  1.00  0.00     0.029 A 
ATOM     16  C   UNL A   1      36.273  30.953  29.742  1.00  0.00     0.050 A 
BRANCH   8  17
ATOM     17  N   UNL A   1      40.571  26.781  29.214  1.00  0.00    -0.345 N 
ATOM     18  N   UNL A   1      41.916  24.814  27.523  1.00  0.00    -0.331 N 
ATOM     19  C   UNL A   1      40.686  25.503  27.120  1.00  0.00     0.284 C 
ATOM     20  C   UNL A   1      42.737  25.875  28.163  1.00  0.00     0.284 C 
ATOM     21  H   UNL A   1      42.346  24.398  26.696  1.00  0.00     0.348 HD
ATOM     22  C   UNL A   1      39.845  25.868  28.331  1.00  0.00     0.179 C 
ATOM     23  C   UNL A   1      42.043  26.732  29.280  1.00  0.00     0.179 C 
BRANCH  18  24
ATOM     24  C   UNL A   1      41.783  23.595  28.366  1.00  0.00     0.277 C 
BRANCH  24  25
ATOM     25  C   UNL A   1      42.500  22.225  28.101  1.00  0.00     0.181 C 
BRANCH  25  26
ATOM     26  C   UNL A   1      42.606  21.939  26.612  1.00  0.00     0.068 C 
ATOM     27  N   UNL A   1      42.693  21.701  25.376  1.00  0.00    -0.198 NA
ENDBRANCH  25  26
ENDBRANCH  24  25
ENDBRANCH  18  24
ENDBRANCH   8  17
BRANCH  16  28
ATOM     28  N   UNL A   1      36.201  32.026  30.713  1.00  0.00    -0.280 N 
ATOM     29  H   UNL A   1      36.691  31.948  31.564  1.00  0.00     0.180 HD
BRANCH  28  30
ATOM     30  S   UNL A   1      35.269  33.440  30.394  1.00  0.00     0.263 S 
ATOM     31  O   UNL A   1      36.034  34.184  29.411  1.00  0.00    -0.201 OA
ATOM     32  O   UNL A   1      34.028  32.816  29.959  1.00  0.00    -0.201 OA
BRANCH  30  33
ATOM     33  C   UNL A   1      34.627  34.775  31.541  1.00  0.00     0.106 A 
ATOM     34  C   UNL A   1      33.766  35.582  30.741  1.00  0.00     0.024 A 
ATOM     35  C   UNL A   1      34.653  35.205  32.894  1.00  0.00     0.061 A 
ATOM     36  C   UNL A   1      33.083  36.725  31.189  1.00  0.00     0.002 A 
ATOM     37  C   UNL A   1      34.001  36.400  33.322  1.00  0.00     0.022 A 
ATOM     38  Cl  UNL A   1      35.216  34.535  34.373  1.00  0.00    -0.083 Cl
ATOM     39  C   UNL A   1      33.227  37.161  32.482  1.00  0.00     0.002 A 
ENDBRANCH  30  33
ENDBRANCH  28  30
ENDBRANCH  16  28
ENDBRANCH   4   7
ENDBRANCH   2   3
ENDBRANCH   1   2
BRANCH   1  40
ATOM     40  C   UNL A   1      38.600  34.286  34.141  1.00  0.00     0.002 C 
BRANCH  40  41
ATOM     41  C   UNL A   1      39.699  34.959  35.023  1.00  0.00     0.002 C 
BRANCH  41  42
ATOM     42  C   UNL A   1      39.420  35.304  36.489  1.00  0.00     0.021 C 
BRANCH  42  43
ATOM     43  C   UNL A   1      40.632  35.501  37.361  1.00  0.00     0.116 C 
BRANCH  43  44
ATOM     44  N   UNL A   1      40.570  34.717  38.581  1.00  0.00    -0.352 N 
ATOM     45  C   UNL A   1      40.763  33.354  38.660  1.00  0.00     0.251 C 
ATOM     46  H   UNL A   1      40.375  35.197  39.419  1.00  0.00     0.163 HD
ATOM     47  O   UNL A   1      40.432  32.707  39.637  1.00  0.00    -0.269 OA
BRANCH  45  48
ATOM     48  C   UNL A   1      41.399  32.704  37.493  1.00  0.00     0.039 A 
ATOM     49  C   UNL A   1      42.771  32.830  37.280  1.00  0.00     0.014 A 
ATOM     50  C   UNL A   1      40.610  31.911  36.654  1.00  0.00     0.014 A 
ATOM     51  C   UNL A   1      43.350  32.163  36.200  1.00  0.00     0.010 A 
ATOM     52  C   UNL A   1      41.204  31.164  35.653  1.00  0.00     0.010 A 
ATOM     53  C   UNL A   1      42.566  31.338  35.375  1.00  0.00    -0.014 A 
BRANCH  53  54
ATOM     54  C   UNL A   1      43.103  30.779  34.114  1.00  0.00     0.031 A 
ATOM     55  C   UNL A   1      43.126  31.660  32.891  1.00  0.00     0.074 A 
ATOM     56  C   UNL A   1      43.536  29.507  34.061  1.00  0.00     0.049 A 
ATOM     57  N   UNL A   1      43.502  31.378  31.672  1.00  0.00    -0.248 NA
ATOM     58  C   UNL A   1      42.615  33.035  33.053  1.00  0.00     0.031 C 
ATOM     59  C   UNL A   1      43.517  28.555  35.171  1.00  0.00     0.029 A 
ATOM     60  N   UNL A   1      44.084  28.800  33.023  1.00  0.00    -0.354 N 
ATOM     61  C   UNL A   1      43.256  32.528  30.930  1.00  0.00     0.074 A 
ATOM     62  C   UNL A   1      42.616  33.477  31.808  1.00  0.00     0.031 C 
ATOM     63  C   UNL A   1      44.067  27.398  34.765  1.00  0.00     0.029 A 
ATOM     64  C   UNL A   1      44.450  27.521  33.362  1.00  0.00     0.049 A 
ATOM     65  H   UNL A   1      44.204  29.174  32.120  1.00  0.00     0.167 HD
ATOM     66  C   UNL A   1      43.579  32.790  29.643  1.00  0.00     0.037 A 
ATOM     67  C   UNL A   1      45.040  26.567  32.617  1.00  0.00     0.037 A 
ATOM     68  C   UNL A   1      44.263  31.856  28.793  1.00  0.00     0.049 A 
ATOM     69  C   UNL A   1      45.399  26.885  31.190  1.00  0.00     0.074 A 
ATOM     70  C   UNL A   1      44.680  32.021  27.487  1.00  0.00     0.029 A 
ATOM     71  N   UNL A   1      44.641  30.579  29.182  1.00  0.00    -0.354 N 
ATOM     72  N   UNL A   1      45.211  27.995  30.514  1.00  0.00    -0.248 NA
ATOM     73  C   UNL A   1      46.065  25.824  30.424  1.00  0.00     0.031 C 
ATOM     74  C   UNL A   1      45.281  30.829  27.072  1.00  0.00     0.029 A 
ATOM     75  C   UNL A   1      45.282  29.941  28.136  1.00  0.00     0.049 A 
ATOM     76  H   UNL A   1      44.476  30.186  30.069  1.00  0.00     0.167 HD
ATOM     77  C   UNL A   1      45.770  27.778  29.262  1.00  0.00     0.074 A 
ATOM     78  C   UNL A   1      46.314  26.436  29.276  1.00  0.00     0.031 C 
ATOM     79  C   UNL A   1      45.832  28.612  28.193  1.00  0.00     0.037 A 
BRANCH  66  80
ATOM     80  C   UNL A   1      43.217  34.142  29.099  1.00  0.00     0.057 A 
ATOM     81  C   UNL A   1      44.193  35.102  28.795  1.00  0.00     0.134 A 
ATOM     82  C   UNL A   1      41.880  34.489  28.872  1.00  0.00     0.134 A 
ATOM     83  F   UNL A   1      45.493  34.842  29.008  1.00  0.00    -0.206 F 
ATOM     84  C   UNL A   1      43.852  36.367  28.312  1.00  0.00     0.040 A 
ATOM     85  C   UNL A   1      41.528  35.740  28.360  1.00  0.00     0.040 A 
ATOM     86  F   UNL A   1      40.894  33.621  29.142  1.00  0.00    -0.206 F 
ATOM     87  C   UNL A   1      42.515  36.685  28.086  1.00  0.00     0.006 A 
ENDBRANCH  66  80
BRANCH  67  88
ATOM     88  C   UNL A   1      45.372  25.247  33.211  1.00  0.00     0.057 A 
ATOM     89  C   UNL A   1      46.544  25.065  33.956  1.00  0.00     0.134 A 
ATOM     90  C   UNL A   1      44.543  24.133  33.034  1.00  0.00     0.134 A 
ATOM     91  F   UNL A   1      47.386  26.091  34.150  1.00  0.00    -0.206 F 
ATOM     92  C   UNL A   1      46.896  23.818  34.477  1.00  0.00     0.040 A 
ATOM     93  C   UNL A   1      44.869  22.887  33.572  1.00  0.00     0.040 A 
ATOM     94  F   UNL A   1      43.401  24.242  32.341  1.00  0.00    -0.206 F 
ATOM     95  C   UNL A   1      46.054  22.725  34.286  1.00  0.00     0.006 A 
ENDBRANCH  67  88
BRANCH  79  96
ATOM     96  C   UNL A   1      46.559  28.114  26.979  1.00  0.00     0.057 A 
ATOM     97  C   UNL A   1      45.883  27.559  25.886  1.00  0.00     0.134 A 
ATOM     98  C   UNL A   1      47.951  28.238  26.889  1.00  0.00     0.134 A 
ATOM     99  F   UNL A   1      44.551  27.405  25.915  1.00  0.00    -0.206 F 
ATOM    100  C   UNL A   1      46.571  27.117  24.756  1.00  0.00     0.040 A 
ATOM    101  C   UNL A   1      48.646  27.828  25.752  1.00  0.00     0.040 A 
ATOM    102  F   UNL A   1      48.655  28.775  27.897  1.00  0.00    -0.206 F 
ATOM    103  C   UNL A   1      47.957  27.259  24.684  1.00  0.00     0.006 A 
ENDBRANCH  79  96
ENDBRANCH  53  54
ENDBRANCH  45  48
ENDBRANCH  43  44
ENDBRANCH  42  43
ENDBRANCH  41  42
ENDBRANCH  40  41
ENDBRANCH   1  40
TORSDOF 20
ENDMDL
