MODEL 1
REMARK VINA RESULT:     -10.8      0.000      0.000
REMARK SMILES COc1ccc(/C=C2/SC(=S)N(c3ccc(C(=O)NCCCCCCNC(=O)c4ccc(-c5c6nc(c(-c7c(F)cccc7F)c7ccc([nH]7)c(-c7c(F)cccc7F)c7nc(c(-c8c(F)cccc8F)c8ccc5[nH]8)C=C7)C=C6)cc4)c(O)c3)C2=O)cc1OC
REMARK SMILES IDX 22 1 21 2 20 3 19 4 17 5 18 6 16 8 13 9 14 10 85 11 15 12
REMARK SMILES IDX 83 13 12 14 7 15 8 16 9 17 86 18 10 19 87 20 11 21 6 22 3 23
REMARK SMILES IDX 4 24 89 25 5 26 88 27 2 28 1 29 90 30 91 31 84 32 23 34
REMARK SMILES IDX 24 35 25 36 26 37 27 38 28 40 29 41 30 42 82 43 31 44 81 45
REMARK SMILES IDX 32 46 33 47 34 48 75 49 35 50 80 51 74 52 76 53 36 54 79 55
REMARK SMILES IDX 73 56 72 57 37 59 63 60 46 61 62 62 47 63 50 64 61 65 77 66
REMARK SMILES IDX 48 67 49 68 60 70 78 71 51 72 38 73 39 74 44 75 40 76 41 77
REMARK SMILES IDX 43 78 45 79 42 80 64 81 65 82 70 83 66 84 67 85 69 86 71 87
REMARK SMILES IDX 68 88 52 89 53 90 58 91 54 92 55 93 57 94 59 95 56 96
REMARK H PARENT 19 7 84 33 26 39 76 58 50 69
REMARK Flexibility Score: inf
ROOT
ATOM      1  C   UNL A   1      35.210  33.153  28.283  1.00  0.00     0.002 C 
ENDROOT
BRANCH   1   2
ATOM      2  C   UNL A   1      35.764  31.759  27.975  1.00  0.00     0.021 C 
BRANCH   2   3
ATOM      3  C   UNL A   1      34.683  30.748  27.575  1.00  0.00     0.116 C 
BRANCH   3   4
ATOM      4  N   UNL A   1      33.399  31.412  27.498  1.00  0.00    -0.352 N 
ATOM      5  C   UNL A   1      32.226  31.065  26.882  1.00  0.00     0.255 C 
ATOM      6  O   UNL A   1      31.308  31.887  26.924  1.00  0.00    -0.269 OA
ATOM      7  H   UNL A   1      33.362  32.271  27.978  1.00  0.00     0.163 HD
BRANCH   5   8
ATOM      8  C   UNL A   1      31.960  29.731  26.272  1.00  0.00     0.081 A 
ATOM      9  C   UNL A   1      31.442  27.360  24.824  1.00  0.00     0.054 A 
ATOM     10  C   UNL A   1      31.499  28.584  24.158  1.00  0.00     0.028 A 
ATOM     11  C   UNL A   1      31.689  27.311  26.199  1.00  0.00     0.073 A 
ATOM     12  C   UNL A   1      31.728  29.757  24.883  1.00  0.00     0.020 A 
ATOM     13  C   UNL A   1      31.995  28.484  26.906  1.00  0.00     0.130 A 
BRANCH   9  14
ATOM     14  N   UNL A   1      31.268  26.154  24.098  1.00  0.00    -0.261 N 
ATOM     15  C   UNL A   1      32.684  22.936  23.252  1.00  0.00     0.029 C 
ATOM     16  C   UNL A   1      31.953  24.060  23.276  1.00  0.00     0.081 C 
ATOM     17  S   UNL A   1      30.277  24.108  22.879  1.00  0.00    -0.054 SA
ATOM     18  C   UNL A   1      32.389  25.395  23.787  1.00  0.00     0.270 C 
ATOM     19  C   UNL A   1      30.040  25.652  23.703  1.00  0.00     0.152 C 
ATOM     20  O   UNL A   1      33.555  25.732  23.908  1.00  0.00    -0.268 OA
ATOM     21  S   UNL A   1      28.522  26.332  23.875  1.00  0.00    -0.051 S 
BRANCH  15  22
ATOM     22  C   UNL A   1      34.014  22.831  23.859  1.00  0.00    -0.020 A 
ATOM     23  C   UNL A   1      36.510  22.778  25.135  1.00  0.00     0.160 A 
ATOM     24  C   UNL A   1      36.415  23.042  23.759  1.00  0.00     0.051 A 
ATOM     25  C   UNL A   1      35.354  22.531  25.883  1.00  0.00     0.161 A 
ATOM     26  C   UNL A   1      35.171  23.062  23.119  1.00  0.00     0.012 A 
ATOM     27  C   UNL A   1      34.117  22.547  25.228  1.00  0.00     0.058 A 
BRANCH  23  28
ATOM     28  O   UNL A   1      37.736  22.874  25.738  1.00  0.00    -0.493 OA
ATOM     29  C   UNL A   1      37.886  24.097  26.457  1.00  0.00     0.278 C 
ENDBRANCH  23  28
BRANCH  25  30
ATOM     30  O   UNL A   1      35.234  22.279  27.223  1.00  0.00    -0.493 OA
ATOM     31  C   UNL A   1      33.962  22.434  27.831  1.00  0.00     0.278 C 
ENDBRANCH  25  30
ENDBRANCH  15  22
ENDBRANCH   9  14
BRANCH  13  32
ATOM     32  O   UNL A   1      32.400  28.347  28.203  1.00  0.00    -0.507 OA
ATOM     33  H   UNL A   1      33.033  27.694  28.430  1.00  0.00     0.293 HD
ENDBRANCH  13  32
ENDBRANCH   5   8
ENDBRANCH   3   4
ENDBRANCH   2   3
ENDBRANCH   1   2
BRANCH   1  34
ATOM     34  C   UNL A   1      35.512  33.659  29.697  1.00  0.00     0.002 C 
BRANCH  34  35
ATOM     35  C   UNL A   1      37.000  33.750  30.055  1.00  0.00     0.021 C 
BRANCH  35  36
ATOM     36  C   UNL A   1      37.389  33.067  31.363  1.00  0.00     0.116 C 
BRANCH  36  37
ATOM     37  N   UNL A   1      36.592  31.876  31.608  1.00  0.00    -0.352 N 
ATOM     38  C   UNL A   1      36.813  30.578  31.228  1.00  0.00     0.251 C 
ATOM     39  H   UNL A   1      35.769  32.025  32.126  1.00  0.00     0.163 HD
ATOM     40  O   UNL A   1      35.913  29.749  31.338  1.00  0.00    -0.269 OA
BRANCH  38  41
ATOM     41  C   UNL A   1      38.123  30.165  30.679  1.00  0.00     0.039 A 
ATOM     42  C   UNL A   1      38.306  30.198  29.294  1.00  0.00     0.014 A 
ATOM     43  C   UNL A   1      39.145  29.689  31.507  1.00  0.00     0.014 A 
ATOM     44  C   UNL A   1      39.519  29.785  28.743  1.00  0.00     0.010 A 
ATOM     45  C   UNL A   1      40.379  29.334  30.961  1.00  0.00     0.010 A 
ATOM     46  C   UNL A   1      40.572  29.365  29.572  1.00  0.00    -0.014 A 
BRANCH  46  47
ATOM     47  C   UNL A   1      41.869  28.952  28.982  1.00  0.00     0.031 A 
ATOM     48  C   UNL A   1      43.008  29.927  28.877  1.00  0.00     0.074 A 
ATOM     49  C   UNL A   1      42.015  27.693  28.527  1.00  0.00     0.049 A 
ATOM     50  N   UNL A   1      44.226  29.730  28.437  1.00  0.00    -0.248 NA
ATOM     51  C   UNL A   1      42.741  31.310  29.298  1.00  0.00     0.031 C 
ATOM     52  C   UNL A   1      40.966  26.672  28.515  1.00  0.00     0.029 A 
ATOM     53  N   UNL A   1      43.106  27.056  27.993  1.00  0.00    -0.354 N 
ATOM     54  C   UNL A   1      44.866  30.960  28.524  1.00  0.00     0.074 A 
ATOM     55  C   UNL A   1      43.886  31.910  29.007  1.00  0.00     0.031 C 
ATOM     56  C   UNL A   1      41.475  25.526  28.035  1.00  0.00     0.029 A 
ATOM     57  C   UNL A   1      42.877  25.737  27.689  1.00  0.00     0.049 A 
ATOM     58  H   UNL A   1      43.971  27.503  27.842  1.00  0.00     0.167 HD
ATOM     59  C   UNL A   1      46.156  31.266  28.250  1.00  0.00     0.037 A 
ATOM     60  C   UNL A   1      43.711  24.798  27.204  1.00  0.00     0.037 A 
ATOM     61  C   UNL A   1      47.136  30.316  27.792  1.00  0.00     0.049 A 
ATOM     62  C   UNL A   1      45.147  25.152  26.946  1.00  0.00     0.074 A 
ATOM     63  C   UNL A   1      48.482  30.515  27.539  1.00  0.00     0.029 A 
ATOM     64  N   UNL A   1      46.871  28.983  27.517  1.00  0.00    -0.354 N 
ATOM     65  N   UNL A   1      45.756  26.301  27.105  1.00  0.00    -0.248 NA
ATOM     66  C   UNL A   1      46.015  24.073  26.455  1.00  0.00     0.031 C 
ATOM     67  C   UNL A   1      49.025  29.309  27.082  1.00  0.00     0.029 A 
ATOM     68  C   UNL A   1      48.025  28.350  27.085  1.00  0.00     0.049 A 
ATOM     69  H   UNL A   1      45.992  28.549  27.613  1.00  0.00     0.167 HD
ATOM     70  C   UNL A   1      47.080  26.081  26.753  1.00  0.00     0.074 A 
ATOM     71  C   UNL A   1      47.191  24.682  26.395  1.00  0.00     0.031 C 
ATOM     72  C   UNL A   1      48.114  26.958  26.726  1.00  0.00     0.037 A 
BRANCH  59  73
ATOM     73  C   UNL A   1      46.584  32.691  28.453  1.00  0.00     0.057 A 
ATOM     74  C   UNL A   1      47.140  33.127  29.663  1.00  0.00     0.134 A 
ATOM     75  C   UNL A   1      46.466  33.630  27.420  1.00  0.00     0.134 A 
ATOM     76  F   UNL A   1      47.270  32.281  30.695  1.00  0.00    -0.206 F 
ATOM     77  C   UNL A   1      47.539  34.452  29.847  1.00  0.00     0.040 A 
ATOM     78  C   UNL A   1      46.884  34.952  27.586  1.00  0.00     0.040 A 
ATOM     79  F   UNL A   1      45.947  33.278  26.235  1.00  0.00    -0.206 F 
ATOM     80  C   UNL A   1      47.416  35.367  28.804  1.00  0.00     0.006 A 
ENDBRANCH  59  73
BRANCH  60  81
ATOM     81  C   UNL A   1      43.219  23.416  26.982  1.00  0.00     0.057 A 
ATOM     82  C   UNL A   1      43.039  22.535  28.054  1.00  0.00     0.134 A 
ATOM     83  C   UNL A   1      42.915  22.946  25.699  1.00  0.00     0.134 A 
ATOM     84  F   UNL A   1      43.329  22.925  29.304  1.00  0.00    -0.206 F 
ATOM     85  C   UNL A   1      42.593  21.227  27.857  1.00  0.00     0.040 A 
ATOM     86  C   UNL A   1      42.448  21.647  25.490  1.00  0.00     0.040 A 
ATOM     87  F   UNL A   1      43.057  23.747  24.632  1.00  0.00    -0.206 F 
ATOM     88  C   UNL A   1      42.292  20.782  26.571  1.00  0.00     0.006 A 
ENDBRANCH  60  81
BRANCH  72  89
ATOM     89  C   UNL A   1      49.449  26.417  26.308  1.00  0.00     0.057 A 
ATOM     90  C   UNL A   1      50.264  25.701  27.195  1.00  0.00     0.134 A 
ATOM     91  C   UNL A   1      49.922  26.608  25.004  1.00  0.00     0.134 A 
ATOM     92  F   UNL A   1      49.873  25.495  28.462  1.00  0.00    -0.206 F 
ATOM     93  C   UNL A   1      51.516  25.221  26.809  1.00  0.00     0.040 A 
ATOM     94  C   UNL A   1      51.162  26.112  24.599  1.00  0.00     0.040 A 
ATOM     95  F   UNL A   1      49.187  27.278  24.105  1.00  0.00    -0.206 F 
ATOM     96  C   UNL A   1      51.967  25.425  25.506  1.00  0.00     0.006 A 
ENDBRANCH  72  89
ENDBRANCH  46  47
ENDBRANCH  38  41
ENDBRANCH  36  37
ENDBRANCH  35  36
ENDBRANCH  34  35
ENDBRANCH   1  34
TORSDOF 18
ENDMDL
MODEL 2
REMARK VINA RESULT:     -10.7      3.185      8.491
REMARK SMILES COc1ccc(/C=C2/SC(=S)N(c3ccc(C(=O)NCCCCCCNC(=O)c4ccc(-c5c6nc(c(-c7c(F)cccc7F)c7ccc([nH]7)c(-c7c(F)cccc7F)c7nc(c(-c8c(F)cccc8F)c8ccc5[nH]8)C=C7)C=C6)cc4)c(O)c3)C2=O)cc1OC
REMARK SMILES IDX 22 1 21 2 20 3 19 4 17 5 18 6 16 8 13 9 14 10 85 11 15 12
REMARK SMILES IDX 83 13 12 14 7 15 8 16 9 17 86 18 10 19 87 20 11 21 6 22 3 23
REMARK SMILES IDX 4 24 89 25 5 26 88 27 2 28 1 29 90 30 91 31 84 32 23 34
REMARK SMILES IDX 24 35 25 36 26 37 27 38 28 40 29 41 30 42 82 43 31 44 81 45
REMARK SMILES IDX 32 46 33 47 34 48 75 49 35 50 80 51 74 52 76 53 36 54 79 55
REMARK SMILES IDX 73 56 72 57 37 59 63 60 46 61 62 62 47 63 50 64 61 65 77 66
REMARK SMILES IDX 48 67 49 68 60 70 78 71 51 72 38 73 39 74 44 75 40 76 41 77
REMARK SMILES IDX 43 78 45 79 42 80 64 81 65 82 70 83 66 84 67 85 69 86 71 87
REMARK SMILES IDX 68 88 52 89 53 90 58 91 54 92 55 93 57 94 59 95 56 96
REMARK H PARENT 19 7 84 33 26 39 76 58 50 69
REMARK Flexibility Score: inf
ROOT
ATOM      1  C   UNL A   1      40.717  27.465  27.994  1.00  0.00     0.002 C 
ENDROOT
BRANCH   1   2
ATOM      2  C   UNL A   1      41.158  28.143  29.295  1.00  0.00     0.021 C 
BRANCH   2   3
ATOM      3  C   UNL A   1      40.104  28.077  30.406  1.00  0.00     0.116 C 
BRANCH   3   4
ATOM      4  N   UNL A   1      40.359  29.116  31.382  1.00  0.00    -0.352 N 
ATOM      5  C   UNL A   1      39.737  30.310  31.629  1.00  0.00     0.255 C 
ATOM      6  O   UNL A   1      40.239  31.035  32.491  1.00  0.00    -0.269 OA
ATOM      7  H   UNL A   1      41.119  28.928  31.979  1.00  0.00     0.163 HD
BRANCH   5   8
ATOM      8  C   UNL A   1      38.446  30.729  31.010  1.00  0.00     0.081 A 
ATOM      9  C   UNL A   1      36.183  31.713  29.632  1.00  0.00     0.054 A 
ATOM     10  C   UNL A   1      37.458  32.158  29.285  1.00  0.00     0.028 A 
ATOM     11  C   UNL A   1      36.040  30.744  30.630  1.00  0.00     0.073 A 
ATOM     12  C   UNL A   1      38.571  31.690  29.988  1.00  0.00     0.020 A 
ATOM     13  C   UNL A   1      37.170  30.222  31.277  1.00  0.00     0.130 A 
BRANCH   9  14
ATOM     14  N   UNL A   1      35.048  32.133  28.893  1.00  0.00    -0.261 N 
ATOM     15  C   UNL A   1      32.330  31.110  26.739  1.00  0.00     0.029 C 
ATOM     16  C   UNL A   1      33.253  31.816  27.407  1.00  0.00     0.081 C 
ATOM     17  S   UNL A   1      32.966  33.393  28.038  1.00  0.00    -0.054 SA
ATOM     18  C   UNL A   1      34.593  31.330  27.854  1.00  0.00     0.270 C 
ATOM     19  C   UNL A   1      34.327  33.284  29.158  1.00  0.00     0.152 C 
ATOM     20  O   UNL A   1      35.168  30.370  27.369  1.00  0.00    -0.268 OA
ATOM     21  S   UNL A   1      34.630  34.475  30.291  1.00  0.00    -0.051 S 
BRANCH  15  22
ATOM     22  C   UNL A   1      32.464  29.677  26.457  1.00  0.00    -0.020 A 
ATOM     23  C   UNL A   1      32.581  26.958  25.784  1.00  0.00     0.160 A 
ATOM     24  C   UNL A   1      32.221  27.360  27.081  1.00  0.00     0.051 A 
ATOM     25  C   UNL A   1      32.892  27.917  24.814  1.00  0.00     0.161 A 
ATOM     26  C   UNL A   1      32.169  28.716  27.420  1.00  0.00     0.012 A 
ATOM     27  C   UNL A   1      32.842  29.270  25.170  1.00  0.00     0.058 A 
BRANCH  23  28
ATOM     28  O   UNL A   1      32.515  25.627  25.467  1.00  0.00    -0.493 OA
ATOM     29  C   UNL A   1      33.725  24.940  25.780  1.00  0.00     0.278 C 
ENDBRANCH  23  28
BRANCH  25  30
ATOM     30  O   UNL A   1      33.239  27.733  23.503  1.00  0.00    -0.493 OA
ATOM     31  C   UNL A   1      34.216  28.589  22.933  1.00  0.00     0.278 C 
ENDBRANCH  25  30
ENDBRANCH  15  22
ENDBRANCH   9  14
BRANCH  13  32
ATOM     32  O   UNL A   1      36.980  29.157  32.111  1.00  0.00    -0.507 OA
ATOM     33  H   UNL A   1      37.487  29.079  32.895  1.00  0.00     0.293 HD
ENDBRANCH  13  32
ENDBRANCH   5   8
ENDBRANCH   3   4
ENDBRANCH   2   3
ENDBRANCH   1   2
BRANCH   1  34
ATOM     34  C   UNL A   1      39.331  26.815  28.055  1.00  0.00     0.002 C 
BRANCH  34  35
ATOM     35  C   UNL A   1      39.281  25.340  27.638  1.00  0.00     0.021 C 
BRANCH  35  36
ATOM     36  C   UNL A   1      39.954  25.027  26.304  1.00  0.00     0.116 C 
BRANCH  36  37
ATOM     37  N   UNL A   1      40.675  23.766  26.345  1.00  0.00    -0.352 N 
ATOM     38  C   UNL A   1      42.020  23.520  26.260  1.00  0.00     0.251 C 
ATOM     39  H   UNL A   1      40.110  22.967  26.449  1.00  0.00     0.163 HD
ATOM     40  O   UNL A   1      42.421  22.372  26.091  1.00  0.00    -0.269 OA
BRANCH  38  41
ATOM     41  C   UNL A   1      42.998  24.626  26.366  1.00  0.00     0.039 A 
ATOM     42  C   UNL A   1      43.440  25.238  25.190  1.00  0.00     0.014 A 
ATOM     43  C   UNL A   1      43.525  25.021  27.599  1.00  0.00     0.014 A 
ATOM     44  C   UNL A   1      44.385  26.262  25.252  1.00  0.00     0.010 A 
ATOM     45  C   UNL A   1      44.423  26.086  27.667  1.00  0.00     0.010 A 
ATOM     46  C   UNL A   1      44.873  26.706  26.492  1.00  0.00    -0.014 A 
BRANCH  46  47
ATOM     47  C   UNL A   1      45.857  27.815  26.554  1.00  0.00     0.031 A 
ATOM     48  C   UNL A   1      47.332  27.536  26.466  1.00  0.00     0.074 A 
ATOM     49  C   UNL A   1      45.419  29.079  26.704  1.00  0.00     0.049 A 
ATOM     50  N   UNL A   1      48.333  28.381  26.453  1.00  0.00    -0.248 NA
ATOM     51  C   UNL A   1      47.740  26.124  26.409  1.00  0.00     0.031 C 
ATOM     52  C   UNL A   1      44.018  29.473  26.864  1.00  0.00     0.029 A 
ATOM     53  N   UNL A   1      46.105  30.266  26.739  1.00  0.00    -0.354 N 
ATOM     54  C   UNL A   1      49.484  27.606  26.391  1.00  0.00     0.074 A 
ATOM     55  C   UNL A   1      49.062  26.222  26.425  1.00  0.00     0.031 C 
ATOM     56  C   UNL A   1      43.945  30.811  26.942  1.00  0.00     0.029 A 
ATOM     57  C   UNL A   1      45.292  31.367  26.856  1.00  0.00     0.049 A 
ATOM     58  H   UNL A   1      47.087  30.323  26.685  1.00  0.00     0.167 HD
ATOM     59  C   UNL A   1      50.773  28.009  26.291  1.00  0.00     0.037 A 
ATOM     60  C   UNL A   1      45.599  32.677  26.873  1.00  0.00     0.037 A 
ATOM     61  C   UNL A   1      51.191  29.385  26.234  1.00  0.00     0.049 A 
ATOM     62  C   UNL A   1      47.032  33.099  26.721  1.00  0.00     0.074 A 
ATOM     63  C   UNL A   1      52.468  29.896  26.077  1.00  0.00     0.029 A 
ATOM     64  N   UNL A   1      50.336  30.472  26.334  1.00  0.00    -0.354 N 
ATOM     65  N   UNL A   1      48.102  32.356  26.587  1.00  0.00    -0.248 NA
ATOM     66  C   UNL A   1      47.296  34.545  26.706  1.00  0.00     0.031 C 
ATOM     67  C   UNL A   1      52.389  31.292  26.113  1.00  0.00     0.029 A 
ATOM     68  C   UNL A   1      51.058  31.652  26.254  1.00  0.00     0.049 A 
ATOM     69  H   UNL A   1      49.359  30.415  26.446  1.00  0.00     0.167 HD
ATOM     70  C   UNL A   1      49.164  33.239  26.454  1.00  0.00     0.074 A 
ATOM     71  C   UNL A   1      48.605  34.575  26.499  1.00  0.00     0.031 C 
ATOM     72  C   UNL A   1      50.485  32.971  26.308  1.00  0.00     0.037 A 
BRANCH  59  73
ATOM     73  C   UNL A   1      51.825  26.940  26.224  1.00  0.00     0.057 A 
ATOM     74  C   UNL A   1      52.539  26.538  27.361  1.00  0.00     0.134 A 
ATOM     75  C   UNL A   1      52.109  26.286  25.018  1.00  0.00     0.134 A 
ATOM     76  F   UNL A   1      52.323  27.132  28.544  1.00  0.00    -0.206 F 
ATOM     77  C   UNL A   1      53.516  25.542  27.296  1.00  0.00     0.040 A 
ATOM     78  C   UNL A   1      53.067  25.271  24.947  1.00  0.00     0.040 A 
ATOM     79  F   UNL A   1      51.459  26.618  23.893  1.00  0.00    -0.206 F 
ATOM     80  C   UNL A   1      53.777  24.902  26.086  1.00  0.00     0.006 A 
ENDBRANCH  59  73
BRANCH  60  81
ATOM     81  C   UNL A   1      44.518  33.687  26.987  1.00  0.00     0.057 A 
ATOM     82  C   UNL A   1      44.097  34.152  28.238  1.00  0.00     0.134 A 
ATOM     83  C   UNL A   1      43.885  34.210  25.854  1.00  0.00     0.134 A 
ATOM     84  F   UNL A   1      44.657  33.674  29.359  1.00  0.00    -0.206 F 
ATOM     85  C   UNL A   1      43.070  35.090  28.360  1.00  0.00     0.040 A 
ATOM     86  C   UNL A   1      42.871  35.164  25.960  1.00  0.00     0.040 A 
ATOM     87  F   UNL A   1      44.252  33.811  24.627  1.00  0.00    -0.206 F 
ATOM     88  C   UNL A   1      42.457  35.601  27.217  1.00  0.00     0.006 A 
ENDBRANCH  60  81
BRANCH  72  89
ATOM     89  C   UNL A   1      51.403  34.150  26.175  1.00  0.00     0.057 A 
ATOM     90  C   UNL A   1      51.857  34.592  24.926  1.00  0.00     0.134 A 
ATOM     91  C   UNL A   1      51.833  34.854  27.307  1.00  0.00     0.134 A 
ATOM     92  F   UNL A   1      51.492  33.953  23.804  1.00  0.00    -0.206 F 
ATOM     93  C   UNL A   1      52.732  35.674  24.809  1.00  0.00     0.040 A 
ATOM     94  C   UNL A   1      52.688  35.951  27.201  1.00  0.00     0.040 A 
ATOM     95  F   UNL A   1      51.429  34.486  28.532  1.00  0.00    -0.206 F 
ATOM     96  C   UNL A   1      53.147  36.358  25.950  1.00  0.00     0.006 A 
ENDBRANCH  72  89
ENDBRANCH  46  47
ENDBRANCH  38  41
ENDBRANCH  36  37
ENDBRANCH  35  36
ENDBRANCH  34  35
ENDBRANCH   1  34
TORSDOF 18
ENDMDL
MODEL 3
REMARK VINA RESULT:     -10.5      3.217      7.675
REMARK SMILES COc1ccc(/C=C2/SC(=S)N(c3ccc(C(=O)NCCCCCCNC(=O)c4ccc(-c5c6nc(c(-c7c(F)cccc7F)c7ccc([nH]7)c(-c7c(F)cccc7F)c7nc(c(-c8c(F)cccc8F)c8ccc5[nH]8)C=C7)C=C6)cc4)c(O)c3)C2=O)cc1OC
REMARK SMILES IDX 22 1 21 2 20 3 19 4 17 5 18 6 16 8 13 9 14 10 85 11 15 12
REMARK SMILES IDX 83 13 12 14 7 15 8 16 9 17 86 18 10 19 87 20 11 21 6 22 3 23
REMARK SMILES IDX 4 24 89 25 5 26 88 27 2 28 1 29 90 30 91 31 84 32 23 34
REMARK SMILES IDX 24 35 25 36 26 37 27 38 28 40 29 41 30 42 82 43 31 44 81 45
REMARK SMILES IDX 32 46 33 47 34 48 75 49 35 50 80 51 74 52 76 53 36 54 79 55
REMARK SMILES IDX 73 56 72 57 37 59 63 60 46 61 62 62 47 63 50 64 61 65 77 66
REMARK SMILES IDX 48 67 49 68 60 70 78 71 51 72 38 73 39 74 44 75 40 76 41 77
REMARK SMILES IDX 43 78 45 79 42 80 64 81 65 82 70 83 66 84 67 85 69 86 71 87
REMARK SMILES IDX 68 88 52 89 53 90 58 91 54 92 55 93 57 94 59 95 56 96
REMARK H PARENT 19 7 84 33 26 39 76 58 50 69
REMARK Flexibility Score: inf
ROOT
ATOM      1  C   UNL A   1      40.286  28.738  28.162  1.00  0.00     0.002 C 
ENDROOT
BRANCH   1   2
ATOM      2  C   UNL A   1      41.014  28.625  29.505  1.00  0.00     0.021 C 
BRANCH   2   3
ATOM      3  C   UNL A   1      40.175  27.953  30.599  1.00  0.00     0.116 C 
BRANCH   3   4
ATOM      4  N   UNL A   1      40.118  28.811  31.764  1.00  0.00    -0.352 N 
ATOM      5  C   UNL A   1      39.437  29.972  32.012  1.00  0.00     0.255 C 
ATOM      6  O   UNL A   1      39.654  30.530  33.090  1.00  0.00    -0.269 OA
ATOM      7  H   UNL A   1      40.670  28.501  32.519  1.00  0.00     0.163 HD
BRANCH   5   8
ATOM      8  C   UNL A   1      38.383  30.534  31.119  1.00  0.00     0.081 A 
ATOM      9  C   UNL A   1      36.166  31.431  29.612  1.00  0.00     0.054 A 
ATOM     10  C   UNL A   1      35.975  30.546  30.673  1.00  0.00     0.028 A 
ATOM     11  C   UNL A   1      37.452  31.905  29.333  1.00  0.00     0.073 A 
ATOM     12  C   UNL A   1      37.077  30.084  31.397  1.00  0.00     0.020 A 
ATOM     13  C   UNL A   1      38.542  31.496  30.115  1.00  0.00     0.130 A 
BRANCH   9  14
ATOM     14  N   UNL A   1      35.055  31.954  28.903  1.00  0.00    -0.261 N 
ATOM     15  C   UNL A   1      32.248  31.197  26.753  1.00  0.00     0.029 C 
ATOM     16  C   UNL A   1      33.226  31.814  27.432  1.00  0.00     0.081 C 
ATOM     17  S   UNL A   1      33.056  33.384  28.120  1.00  0.00    -0.054 SA
ATOM     18  C   UNL A   1      34.534  31.221  27.844  1.00  0.00     0.270 C 
ATOM     19  C   UNL A   1      34.419  33.142  29.217  1.00  0.00     0.152 C 
ATOM     20  O   UNL A   1      35.035  30.240  27.319  1.00  0.00    -0.268 OA
ATOM     21  S   UNL A   1      34.817  34.270  30.386  1.00  0.00    -0.051 S 
BRANCH  15  22
ATOM     22  C   UNL A   1      32.278  29.769  26.420  1.00  0.00    -0.020 A 
ATOM     23  C   UNL A   1      32.204  27.075  25.649  1.00  0.00     0.160 A 
ATOM     24  C   UNL A   1      31.834  27.458  26.948  1.00  0.00     0.051 A 
ATOM     25  C   UNL A   1      32.622  28.040  24.726  1.00  0.00     0.161 A 
ATOM     26  C   UNL A   1      31.877  28.801  27.337  1.00  0.00     0.012 A 
ATOM     27  C   UNL A   1      32.667  29.379  25.131  1.00  0.00     0.058 A 
BRANCH  23  28
ATOM     28  O   UNL A   1      32.044  25.766  25.280  1.00  0.00    -0.493 OA
ATOM     29  C   UNL A   1      32.756  24.876  26.138  1.00  0.00     0.278 C 
ENDBRANCH  23  28
BRANCH  25  30
ATOM     30  O   UNL A   1      32.997  27.875  23.420  1.00  0.00    -0.493 OA
ATOM     31  C   UNL A   1      34.020  28.709  22.898  1.00  0.00     0.278 C 
ENDBRANCH  25  30
ENDBRANCH  15  22
ENDBRANCH   9  14
BRANCH  13  32
ATOM     32  O   UNL A   1      39.735  32.128  29.908  1.00  0.00    -0.507 OA
ATOM     33  H   UNL A   1      39.874  32.622  29.123  1.00  0.00     0.293 HD
ENDBRANCH  13  32
ENDBRANCH   5   8
ENDBRANCH   3   4
ENDBRANCH   2   3
ENDBRANCH   1   2
BRANCH   1  34
ATOM     34  C   UNL A   1      40.530  27.565  27.206  1.00  0.00     0.002 C 
BRANCH  34  35
ATOM     35  C   UNL A   1      39.845  26.250  27.597  1.00  0.00     0.021 C 
BRANCH  35  36
ATOM     36  C   UNL A   1      39.787  25.203  26.489  1.00  0.00     0.116 C 
BRANCH  36  37
ATOM     37  N   UNL A   1      40.442  23.965  26.880  1.00  0.00    -0.352 N 
ATOM     38  C   UNL A   1      41.774  23.649  26.914  1.00  0.00     0.251 C 
ATOM     39  H   UNL A   1      39.834  23.244  27.162  1.00  0.00     0.163 HD
ATOM     40  O   UNL A   1      42.120  22.480  27.060  1.00  0.00    -0.269 OA
BRANCH  38  41
ATOM     41  C   UNL A   1      42.804  24.703  26.772  1.00  0.00     0.039 A 
ATOM     42  C   UNL A   1      43.400  25.212  27.928  1.00  0.00     0.014 A 
ATOM     43  C   UNL A   1      43.139  25.233  25.521  1.00  0.00     0.014 A 
ATOM     44  C   UNL A   1      44.351  26.228  27.830  1.00  0.00     0.010 A 
ATOM     45  C   UNL A   1      44.134  26.205  25.419  1.00  0.00     0.010 A 
ATOM     46  C   UNL A   1      44.738  26.722  26.574  1.00  0.00    -0.014 A 
BRANCH  46  47
ATOM     47  C   UNL A   1      45.769  27.784  26.474  1.00  0.00     0.031 A 
ATOM     48  C   UNL A   1      45.396  29.232  26.627  1.00  0.00     0.074 A 
ATOM     49  C   UNL A   1      47.048  27.440  26.231  1.00  0.00     0.049 A 
ATOM     50  N   UNL A   1      46.170  30.289  26.620  1.00  0.00    -0.248 NA
ATOM     51  C   UNL A   1      43.967  29.538  26.786  1.00  0.00     0.031 C 
ATOM     52  C   UNL A   1      47.527  26.076  26.001  1.00  0.00     0.029 A 
ATOM     53  N   UNL A   1      48.181  28.209  26.144  1.00  0.00    -0.354 N 
ATOM     54  C   UNL A   1      45.323  31.381  26.767  1.00  0.00     0.074 A 
ATOM     55  C   UNL A   1      43.972  30.863  26.807  1.00  0.00     0.031 C 
ATOM     56  C   UNL A   1      48.859  26.100  25.838  1.00  0.00     0.029 A 
ATOM     57  C   UNL A   1      49.325  27.479  25.932  1.00  0.00     0.049 A 
ATOM     58  H   UNL A   1      48.174  29.191  26.226  1.00  0.00     0.167 HD
ATOM     59  C   UNL A   1      45.642  32.692  26.884  1.00  0.00     0.037 A 
ATOM     60  C   UNL A   1      50.607  27.878  25.843  1.00  0.00     0.037 A 
ATOM     61  C   UNL A   1      46.987  33.205  26.867  1.00  0.00     0.049 A 
ATOM     62  C   UNL A   1      50.939  29.332  26.014  1.00  0.00     0.074 A 
ATOM     63  C   UNL A   1      47.419  34.509  27.033  1.00  0.00     0.029 A 
ATOM     64  N   UNL A   1      48.122  32.431  26.672  1.00  0.00    -0.354 N 
ATOM     65  N   UNL A   1      50.134  30.344  26.229  1.00  0.00    -0.248 NA
ATOM     66  C   UNL A   1      52.361  29.697  25.947  1.00  0.00     0.031 C 
ATOM     67  C   UNL A   1      48.812  34.530  26.908  1.00  0.00     0.029 A 
ATOM     68  C   UNL A   1      49.252  33.232  26.701  1.00  0.00     0.049 A 
ATOM     69  H   UNL A   1      48.125  31.456  26.533  1.00  0.00     0.167 HD
ATOM     70  C   UNL A   1      50.950  31.461  26.341  1.00  0.00     0.074 A 
ATOM     71  C   UNL A   1      52.315  30.999  26.194  1.00  0.00     0.031 C 
ATOM     72  C   UNL A   1      50.602  32.755  26.545  1.00  0.00     0.037 A 
BRANCH  59  73
ATOM     73  C   UNL A   1      44.510  33.664  27.051  1.00  0.00     0.057 A 
ATOM     74  C   UNL A   1      43.923  34.306  25.953  1.00  0.00     0.134 A 
ATOM     75  C   UNL A   1      43.983  33.940  28.319  1.00  0.00     0.134 A 
ATOM     76  F   UNL A   1      44.389  34.094  24.713  1.00  0.00    -0.206 F 
ATOM     77  C   UNL A   1      42.869  35.208  26.112  1.00  0.00     0.040 A 
ATOM     78  C   UNL A   1      42.913  34.822  28.488  1.00  0.00     0.040 A 
ATOM     79  F   UNL A   1      44.495  33.356  29.413  1.00  0.00    -0.206 F 
ATOM     80  C   UNL A   1      42.358  35.463  27.383  1.00  0.00     0.006 A 
ENDBRANCH  59  73
BRANCH  60  81
ATOM     81  C   UNL A   1      51.680  26.875  25.631  1.00  0.00     0.057 A 
ATOM     82  C   UNL A   1      52.163  26.598  24.347  1.00  0.00     0.134 A 
ATOM     83  C   UNL A   1      52.246  26.174  26.702  1.00  0.00     0.134 A 
ATOM     84  F   UNL A   1      51.646  27.228  23.282  1.00  0.00    -0.206 F 
ATOM     85  C   UNL A   1      53.159  25.645  24.132  1.00  0.00     0.040 A 
ATOM     86  C   UNL A   1      53.258  25.233  26.503  1.00  0.00     0.040 A 
ATOM     87  F   UNL A   1      51.832  26.403  27.957  1.00  0.00    -0.206 F 
ATOM     88  C   UNL A   1      53.713  24.962  25.214  1.00  0.00     0.006 A 
ENDBRANCH  60  81
BRANCH  72  89
ATOM     89  C   UNL A   1      51.721  33.751  26.634  1.00  0.00     0.057 A 
ATOM     90  C   UNL A   1      52.333  34.062  27.854  1.00  0.00     0.134 A 
ATOM     91  C   UNL A   1      52.194  34.399  25.487  1.00  0.00     0.134 A 
ATOM     92  F   UNL A   1      51.916  33.486  28.992  1.00  0.00    -0.206 F 
ATOM     93  C   UNL A   1      53.357  35.008  27.936  1.00  0.00     0.040 A 
ATOM     94  C   UNL A   1      53.233  35.327  25.551  1.00  0.00     0.040 A 
ATOM     95  F   UNL A   1      51.655  34.138  24.286  1.00  0.00    -0.206 F 
ATOM     96  C   UNL A   1      53.811  35.641  26.780  1.00  0.00     0.006 A 
ENDBRANCH  72  89
ENDBRANCH  46  47
ENDBRANCH  38  41
ENDBRANCH  36  37
ENDBRANCH  35  36
ENDBRANCH  34  35
ENDBRANCH   1  34
TORSDOF 18
ENDMDL
