MODEL 1
REMARK VINA RESULT:     -11.3      0.000      0.000
REMARK SMILES CCOc1ccccc1[C@H](C(=O)NCCCCCCNC(=O)c1ccc(-c2c3nc(c(-c4c(F)cccc4F)c4ccc([nH]4)c(-c4c(F)cccc4F)c4nc(c(-c5c(F)cccc5F)c5ccc2[nH]5)C=C4)C=C3)cc1)[NH+]1CCC([NH+]2CCSCC2)CC1
REMARK SMILES IDX 16 1 15 2 14 3 13 4 11 5 12 6 10 8 9 9 4 10 5 11 6 12 8 13
REMARK SMILES IDX 7 14 3 15 2 16 1 17 77 18 78 19 88 20 79 22 87 23 80 24
REMARK SMILES IDX 81 25 82 26 86 27 83 29 85 30 84 31 17 32 18 33 19 34 20 35
REMARK SMILES IDX 21 36 22 38 23 39 24 40 76 41 25 42 75 43 26 44 27 45 28 46
REMARK SMILES IDX 69 47 29 48 74 49 68 50 70 51 30 52 73 53 67 54 66 55 31 57
REMARK SMILES IDX 57 58 40 59 56 60 41 61 44 62 55 63 71 64 42 65 43 66 54 68
REMARK SMILES IDX 72 69 45 70 32 71 33 72 38 73 34 74 35 75 37 76 39 77 36 78
REMARK SMILES IDX 58 79 59 80 64 81 60 82 61 83 63 84 65 85 62 86 46 87 47 88
REMARK SMILES IDX 52 89 48 90 49 91 51 92 53 93 50 94
REMARK H PARENT 13 7 77 21 81 28 20 37 70 56 44 67
REMARK Flexibility Score: inf
ROOT
ATOM      1  C   UNL A   1      36.940  21.972  24.268  1.00  0.00     0.002 C 
ENDROOT
BRANCH   1   2
ATOM      2  C   UNL A   1      37.196  23.098  25.263  1.00  0.00     0.021 C 
BRANCH   2   3
ATOM      3  C   UNL A   1      36.116  24.158  25.366  1.00  0.00     0.116 C 
BRANCH   3   4
ATOM      4  N   UNL A   1      35.429  24.459  24.119  1.00  0.00    -0.351 N 
ATOM      5  C   UNL A   1      34.063  24.661  23.957  1.00  0.00     0.283 C 
ATOM      6  O   UNL A   1      33.667  25.211  22.923  1.00  0.00    -0.268 OA
ATOM      7  H   UNL A   1      35.986  24.527  23.310  1.00  0.00     0.163 HD
BRANCH   5   8
ATOM      8  C   UNL A   1      33.068  24.353  25.153  1.00  0.00     0.309 C 
BRANCH   8   9
ATOM      9  C   UNL A   1      31.831  25.274  24.969  1.00  0.00     0.061 A 
ATOM     10  C   UNL A   1      31.951  26.668  25.266  1.00  0.00     0.128 A 
ATOM     11  C   UNL A   1      31.019  27.590  24.776  1.00  0.00     0.047 A 
ATOM     12  C   UNL A   1      29.936  27.146  24.022  1.00  0.00     0.004 A 
ATOM     13  C   UNL A   1      30.671  24.844  24.301  1.00  0.00     0.014 A 
ATOM     14  C   UNL A   1      29.742  25.779  23.821  1.00  0.00     0.001 A 
BRANCH  10  15
ATOM     15  O   UNL A   1      33.033  27.076  26.014  1.00  0.00    -0.493 OA
BRANCH  15  16
ATOM     16  C   UNL A   1      32.762  28.043  27.042  1.00  0.00     0.226 C 
ATOM     17  C   UNL A   1      33.980  28.944  27.221  1.00  0.00     0.049 C 
ENDBRANCH  15  16
ENDBRANCH  10  15
ENDBRANCH   8   9
BRANCH   8  18
ATOM     18  N   UNL A   1      32.833  22.839  25.182  1.00  0.00    -0.320 N 
ATOM     19  C   UNL A   1      33.262  22.228  23.912  1.00  0.00     0.269 C 
ATOM     20  C   UNL A   1      33.601  22.121  26.232  1.00  0.00     0.269 C 
ATOM     21  H   UNL A   1      31.833  22.745  25.362  1.00  0.00     0.349 HD
ATOM     22  C   UNL A   1      32.714  20.836  23.815  1.00  0.00     0.126 C 
ATOM     23  C   UNL A   1      33.429  20.553  26.174  1.00  0.00     0.126 C 
ATOM     24  C   UNL A   1      33.507  19.930  24.739  1.00  0.00     0.195 C 
BRANCH  24  25
ATOM     25  N   UNL A   1      33.165  18.483  24.534  1.00  0.00    -0.331 N 
ATOM     26  C   UNL A   1      32.646  17.871  25.796  1.00  0.00     0.273 C 
ATOM     27  C   UNL A   1      34.276  17.680  23.995  1.00  0.00     0.273 C 
ATOM     28  H   UNL A   1      32.432  18.471  23.825  1.00  0.00     0.348 HD
ATOM     29  C   UNL A   1      32.128  16.433  25.736  1.00  0.00     0.131 C 
ATOM     30  C   UNL A   1      33.921  16.207  23.721  1.00  0.00     0.131 C 
ATOM     31  S   UNL A   1      33.441  15.296  25.216  1.00  0.00    -0.150 SA
ENDBRANCH  24  25
ENDBRANCH   8  18
ENDBRANCH   5   8
ENDBRANCH   3   4
ENDBRANCH   2   3
ENDBRANCH   1   2
BRANCH   1  32
ATOM     32  C   UNL A   1      36.933  20.542  24.812  1.00  0.00     0.002 C 
BRANCH  32  33
ATOM     33  C   UNL A   1      38.240  19.750  24.742  1.00  0.00     0.021 C 
BRANCH  33  34
ATOM     34  C   UNL A   1      39.098  19.749  25.997  1.00  0.00     0.116 C 
BRANCH  34  35
ATOM     35  N   UNL A   1      40.262  18.895  25.886  1.00  0.00    -0.352 N 
ATOM     36  C   UNL A   1      41.587  19.214  26.041  1.00  0.00     0.251 C 
ATOM     37  H   UNL A   1      40.077  17.952  25.668  1.00  0.00     0.163 HD
ATOM     38  O   UNL A   1      42.451  18.379  25.802  1.00  0.00    -0.269 OA
BRANCH  36  39
ATOM     39  C   UNL A   1      41.977  20.575  26.472  1.00  0.00     0.039 A 
ATOM     40  C   UNL A   1      42.318  21.507  25.488  1.00  0.00     0.014 A 
ATOM     41  C   UNL A   1      42.035  20.928  27.824  1.00  0.00     0.014 A 
ATOM     42  C   UNL A   1      42.682  22.803  25.857  1.00  0.00     0.010 A 
ATOM     43  C   UNL A   1      42.339  22.239  28.188  1.00  0.00     0.010 A 
ATOM     44  C   UNL A   1      42.679  23.183  27.208  1.00  0.00    -0.014 A 
BRANCH  44  45
ATOM     45  C   UNL A   1      43.059  24.560  27.604  1.00  0.00     0.031 A 
ATOM     46  C   UNL A   1      44.501  24.986  27.566  1.00  0.00     0.074 A 
ATOM     47  C   UNL A   1      42.111  25.416  28.029  1.00  0.00     0.049 A 
ATOM     48  N   UNL A   1      45.030  26.141  27.878  1.00  0.00    -0.248 NA
ATOM     49  C   UNL A   1      45.481  23.971  27.147  1.00  0.00     0.031 C 
ATOM     50  C   UNL A   1      40.687  25.103  28.165  1.00  0.00     0.029 A 
ATOM     51  N   UNL A   1      42.204  26.725  28.428  1.00  0.00    -0.354 N 
ATOM     52  C   UNL A   1      46.400  25.988  27.709  1.00  0.00     0.074 A 
ATOM     53  C   UNL A   1      46.627  24.615  27.311  1.00  0.00     0.031 C 
ATOM     54  C   UNL A   1      40.037  26.197  28.592  1.00  0.00     0.029 A 
ATOM     55  C   UNL A   1      40.998  27.280  28.780  1.00  0.00     0.049 A 
ATOM     56  H   UNL A   1      43.055  27.220  28.459  1.00  0.00     0.167 HD
ATOM     57  C   UNL A   1      47.378  26.914  27.849  1.00  0.00     0.037 A 
ATOM     58  C   UNL A   1      40.702  28.524  29.198  1.00  0.00     0.037 A 
ATOM     59  C   UNL A   1      47.146  28.288  28.205  1.00  0.00     0.049 A 
ATOM     60  C   UNL A   1      41.800  29.544  29.306  1.00  0.00     0.074 A 
ATOM     61  C   UNL A   1      48.062  29.322  28.297  1.00  0.00     0.029 A 
ATOM     62  N   UNL A   1      45.906  28.820  28.524  1.00  0.00    -0.354 N 
ATOM     63  N   UNL A   1      43.082  29.405  29.069  1.00  0.00    -0.248 NA
ATOM     64  C   UNL A   1      41.409  30.896  29.729  1.00  0.00     0.031 C 
ATOM     65  C   UNL A   1      47.379  30.474  28.703  1.00  0.00     0.029 A 
ATOM     66  C   UNL A   1      46.035  30.164  28.829  1.00  0.00     0.049 A 
ATOM     67  H   UNL A   1      45.060  28.317  28.531  1.00  0.00     0.167 HD
ATOM     68  C   UNL A   1      43.648  30.652  29.296  1.00  0.00     0.074 A 
ATOM     69  C   UNL A   1      42.567  31.540  29.674  1.00  0.00     0.031 C 
ATOM     70  C   UNL A   1      44.946  31.029  29.204  1.00  0.00     0.037 A 
BRANCH  57  71
ATOM     71  C   UNL A   1      48.789  26.468  27.608  1.00  0.00     0.057 A 
ATOM     72  C   UNL A   1      49.368  26.510  26.333  1.00  0.00     0.134 A 
ATOM     73  C   UNL A   1      49.589  26.021  28.667  1.00  0.00     0.134 A 
ATOM     74  F   UNL A   1      48.650  26.916  25.275  1.00  0.00    -0.206 F 
ATOM     75  C   UNL A   1      50.684  26.102  26.114  1.00  0.00     0.040 A 
ATOM     76  C   UNL A   1      50.914  25.630  28.465  1.00  0.00     0.040 A 
ATOM     77  F   UNL A   1      49.098  25.959  29.914  1.00  0.00    -0.206 F 
ATOM     78  C   UNL A   1      51.464  25.665  27.185  1.00  0.00     0.006 A 
ENDBRANCH  57  71
BRANCH  58  79
ATOM     79  C   UNL A   1      39.298  28.884  29.509  1.00  0.00     0.057 A 
ATOM     80  C   UNL A   1      38.765  28.669  30.785  1.00  0.00     0.134 A 
ATOM     81  C   UNL A   1      38.460  29.453  28.544  1.00  0.00     0.134 A 
ATOM     82  F   UNL A   1      39.516  28.110  31.745  1.00  0.00    -0.206 F 
ATOM     83  C   UNL A   1      37.442  28.995  31.087  1.00  0.00     0.040 A 
ATOM     84  C   UNL A   1      37.141  29.803  28.838  1.00  0.00     0.040 A 
ATOM     85  F   UNL A   1      38.915  29.689  27.305  1.00  0.00    -0.206 F 
ATOM     86  C   UNL A   1      36.628  29.568  30.113  1.00  0.00     0.006 A 
ENDBRANCH  58  79
BRANCH  70  87
ATOM     87  C   UNL A   1      45.262  32.463  29.502  1.00  0.00     0.057 A 
ATOM     88  C   UNL A   1      45.632  32.881  30.786  1.00  0.00     0.134 A 
ATOM     89  C   UNL A   1      45.227  33.429  28.489  1.00  0.00     0.134 A 
ATOM     90  F   UNL A   1      45.671  32.004  31.801  1.00  0.00    -0.206 F 
ATOM     91  C   UNL A   1      45.940  34.214  31.057  1.00  0.00     0.040 A 
ATOM     92  C   UNL A   1      45.553  34.761  28.743  1.00  0.00     0.040 A 
ATOM     93  F   UNL A   1      44.886  33.091  27.237  1.00  0.00    -0.206 F 
ATOM     94  C   UNL A   1      45.906  35.158  30.031  1.00  0.00     0.006 A 
ENDBRANCH  70  87
ENDBRANCH  44  45
ENDBRANCH  36  39
ENDBRANCH  34  35
ENDBRANCH  33  34
ENDBRANCH  32  33
ENDBRANCH   1  32
TORSDOF 18
ENDMDL
MODEL 2
REMARK VINA RESULT:     -11.1      4.472      7.022
REMARK SMILES CCOc1ccccc1[C@H](C(=O)NCCCCCCNC(=O)c1ccc(-c2c3nc(c(-c4c(F)cccc4F)c4ccc([nH]4)c(-c4c(F)cccc4F)c4nc(c(-c5c(F)cccc5F)c5ccc2[nH]5)C=C4)C=C3)cc1)[NH+]1CCC([NH+]2CCSCC2)CC1
REMARK SMILES IDX 16 1 15 2 14 3 13 4 11 5 12 6 10 8 9 9 4 10 5 11 6 12 8 13
REMARK SMILES IDX 7 14 3 15 2 16 1 17 77 18 78 19 88 20 79 22 87 23 80 24
REMARK SMILES IDX 81 25 82 26 86 27 83 29 85 30 84 31 17 32 18 33 19 34 20 35
REMARK SMILES IDX 21 36 22 38 23 39 24 40 76 41 25 42 75 43 26 44 27 45 28 46
REMARK SMILES IDX 69 47 29 48 74 49 68 50 70 51 30 52 73 53 67 54 66 55 31 57
REMARK SMILES IDX 57 58 40 59 56 60 41 61 44 62 55 63 71 64 42 65 43 66 54 68
REMARK SMILES IDX 72 69 45 70 32 71 33 72 38 73 34 74 35 75 37 76 39 77 36 78
REMARK SMILES IDX 58 79 59 80 64 81 60 82 61 83 63 84 65 85 62 86 46 87 47 88
REMARK SMILES IDX 52 89 48 90 49 91 51 92 53 93 50 94
REMARK H PARENT 13 7 77 21 81 28 20 37 70 56 44 67
REMARK Flexibility Score: inf
ROOT
ATOM      1  C   UNL A   1      39.938  21.668  26.784  1.00  0.00     0.002 C 
ENDROOT
BRANCH   1   2
ATOM      2  C   UNL A   1      38.797  21.491  25.789  1.00  0.00     0.021 C 
BRANCH   2   3
ATOM      3  C   UNL A   1      37.959  22.723  25.506  1.00  0.00     0.116 C 
BRANCH   3   4
ATOM      4  N   UNL A   1      36.922  23.001  26.489  1.00  0.00    -0.351 N 
ATOM      5  C   UNL A   1      35.550  22.877  26.299  1.00  0.00     0.283 C 
ATOM      6  O   UNL A   1      34.819  22.841  27.295  1.00  0.00    -0.268 OA
ATOM      7  H   UNL A   1      37.221  23.308  27.375  1.00  0.00     0.163 HD
BRANCH   5   8
ATOM      8  C   UNL A   1      34.972  22.609  24.847  1.00  0.00     0.309 C 
BRANCH   8   9
ATOM      9  C   UNL A   1      34.265  21.226  24.884  1.00  0.00     0.061 A 
ATOM     10  C   UNL A   1      32.852  21.161  24.671  1.00  0.00     0.128 A 
ATOM     11  C   UNL A   1      32.233  19.955  24.325  1.00  0.00     0.047 A 
ATOM     12  C   UNL A   1      32.991  18.790  24.225  1.00  0.00     0.004 A 
ATOM     13  C   UNL A   1      34.984  20.019  24.885  1.00  0.00     0.014 A 
ATOM     14  C   UNL A   1      34.349  18.815  24.542  1.00  0.00     0.001 A 
BRANCH  10  15
ATOM     15  O   UNL A   1      32.130  22.328  24.777  1.00  0.00    -0.493 OA
BRANCH  15  16
ATOM     16  C   UNL A   1      31.051  22.321  25.727  1.00  0.00     0.226 C 
ATOM     17  C   UNL A   1      30.937  23.698  26.371  1.00  0.00     0.049 C 
ENDBRANCH  15  16
ENDBRANCH  10  15
ENDBRANCH   8   9
BRANCH   8  18
ATOM     18  N   UNL A   1      34.135  23.829  24.448  1.00  0.00    -0.320 N 
ATOM     19  C   UNL A   1      34.581  25.022  25.187  1.00  0.00     0.269 C 
ATOM     20  C   UNL A   1      34.245  24.203  23.013  1.00  0.00     0.269 C 
ATOM     21  H   UNL A   1      33.176  23.553  24.659  1.00  0.00     0.349 HD
ATOM     22  C   UNL A   1      33.552  26.105  25.059  1.00  0.00     0.126 C 
ATOM     23  C   UNL A   1      33.463  25.525  22.649  1.00  0.00     0.126 C 
ATOM     24  C   UNL A   1      33.639  26.702  23.667  1.00  0.00     0.195 C 
BRANCH  24  25
ATOM     25  N   UNL A   1      32.795  27.936  23.532  1.00  0.00    -0.331 N 
ATOM     26  C   UNL A   1      32.214  28.335  24.851  1.00  0.00     0.273 C 
ATOM     27  C   UNL A   1      31.733  27.824  22.517  1.00  0.00     0.273 C 
ATOM     28  H   UNL A   1      33.427  28.667  23.206  1.00  0.00     0.348 HD
ATOM     29  C   UNL A   1      31.430  29.647  24.923  1.00  0.00     0.131 C 
ATOM     30  C   UNL A   1      30.900  29.104  22.325  1.00  0.00     0.131 C 
ATOM     31  S   UNL A   1      29.994  29.601  23.817  1.00  0.00    -0.150 SA
ENDBRANCH  24  25
ENDBRANCH   8  18
ENDBRANCH   5   8
ENDBRANCH   3   4
ENDBRANCH   2   3
ENDBRANCH   1   2
BRANCH   1  32
ATOM     32  C   UNL A   1      41.156  20.754  26.627  1.00  0.00     0.002 C 
BRANCH  32  33
ATOM     33  C   UNL A   1      42.382  21.323  25.911  1.00  0.00     0.021 C 
BRANCH  33  34
ATOM     34  C   UNL A   1      42.229  22.710  25.306  1.00  0.00     0.116 C 
BRANCH  34  35
ATOM     35  N   UNL A   1      43.483  23.268  24.845  1.00  0.00    -0.352 N 
ATOM     36  C   UNL A   1      44.132  24.401  25.264  1.00  0.00     0.251 C 
ATOM     37  H   UNL A   1      43.932  22.764  24.127  1.00  0.00     0.163 HD
ATOM     38  O   UNL A   1      45.139  24.782  24.680  1.00  0.00    -0.269 OA
BRANCH  36  39
ATOM     39  C   UNL A   1      43.603  25.179  26.406  1.00  0.00     0.039 A 
ATOM     40  C   UNL A   1      43.978  26.520  26.523  1.00  0.00     0.014 A 
ATOM     41  C   UNL A   1      42.772  24.596  27.368  1.00  0.00     0.014 A 
ATOM     42  C   UNL A   1      43.491  27.286  27.583  1.00  0.00     0.010 A 
ATOM     43  C   UNL A   1      42.237  25.378  28.391  1.00  0.00     0.010 A 
ATOM     44  C   UNL A   1      42.604  26.725  28.515  1.00  0.00    -0.014 A 
BRANCH  44  45
ATOM     45  C   UNL A   1      42.080  27.538  29.639  1.00  0.00     0.031 A 
ATOM     46  C   UNL A   1      42.741  27.476  30.988  1.00  0.00     0.074 A 
ATOM     47  C   UNL A   1      40.989  28.305  29.454  1.00  0.00     0.049 A 
ATOM     48  N   UNL A   1      42.428  28.106  32.092  1.00  0.00    -0.248 NA
ATOM     49  C   UNL A   1      43.891  26.567  31.122  1.00  0.00     0.031 C 
ATOM     50  C   UNL A   1      40.226  28.404  28.208  1.00  0.00     0.029 A 
ATOM     51  N   UNL A   1      40.331  29.145  30.315  1.00  0.00    -0.354 N 
ATOM     52  C   UNL A   1      43.327  27.659  33.050  1.00  0.00     0.074 A 
ATOM     53  C   UNL A   1      44.171  26.671  32.412  1.00  0.00     0.031 C 
ATOM     54  C   UNL A   1      39.219  29.276  28.380  1.00  0.00     0.029 A 
ATOM     55  C   UNL A   1      39.253  29.779  29.749  1.00  0.00     0.049 A 
ATOM     56  H   UNL A   1      40.607  29.281  31.251  1.00  0.00     0.167 HD
ATOM     57  C   UNL A   1      43.454  28.053  34.340  1.00  0.00     0.037 A 
ATOM     58  C   UNL A   1      38.395  30.673  30.275  1.00  0.00     0.037 A 
ATOM     59  C   UNL A   1      42.641  29.064  34.960  1.00  0.00     0.049 A 
ATOM     60  C   UNL A   1      38.583  31.124  31.696  1.00  0.00     0.074 A 
ATOM     61  C   UNL A   1      42.742  29.590  36.237  1.00  0.00     0.029 A 
ATOM     62  N   UNL A   1      41.578  29.707  34.345  1.00  0.00    -0.354 N 
ATOM     63  N   UNL A   1      39.486  30.749  32.568  1.00  0.00    -0.248 NA
ATOM     64  C   UNL A   1      37.639  32.131  32.201  1.00  0.00     0.031 C 
ATOM     65  C   UNL A   1      41.719  30.529  36.404  1.00  0.00     0.029 A 
ATOM     66  C   UNL A   1      41.004  30.612  35.221  1.00  0.00     0.049 A 
ATOM     67  H   UNL A   1      41.277  29.544  33.422  1.00  0.00     0.167 HD
ATOM     68  C   UNL A   1      39.233  31.484  33.718  1.00  0.00     0.074 A 
ATOM     69  C   UNL A   1      38.100  32.341  33.427  1.00  0.00     0.031 C 
ATOM     70  C   UNL A   1      39.877  31.453  34.910  1.00  0.00     0.037 A 
BRANCH  57  71
ATOM     71  C   UNL A   1      44.520  27.391  35.161  1.00  0.00     0.057 A 
ATOM     72  C   UNL A   1      45.805  27.937  35.280  1.00  0.00     0.134 A 
ATOM     73  C   UNL A   1      44.250  26.212  35.867  1.00  0.00     0.134 A 
ATOM     74  F   UNL A   1      46.130  29.058  34.618  1.00  0.00    -0.206 F 
ATOM     75  C   UNL A   1      46.791  27.322  36.052  1.00  0.00     0.040 A 
ATOM     76  C   UNL A   1      45.222  25.600  36.660  1.00  0.00     0.040 A 
ATOM     77  F   UNL A   1      43.039  25.639  35.800  1.00  0.00    -0.206 F 
ATOM     78  C   UNL A   1      46.498  26.152  36.751  1.00  0.00     0.006 A 
ENDBRANCH  57  71
BRANCH  58  79
ATOM     79  C   UNL A   1      37.303  31.228  29.440  1.00  0.00     0.057 A 
ATOM     80  C   UNL A   1      37.417  32.491  28.849  1.00  0.00     0.134 A 
ATOM     81  C   UNL A   1      36.124  30.509  29.210  1.00  0.00     0.134 A 
ATOM     82  F   UNL A   1      38.516  33.233  29.051  1.00  0.00    -0.206 F 
ATOM     83  C   UNL A   1      36.392  33.027  28.070  1.00  0.00     0.040 A 
ATOM     84  C   UNL A   1      35.099  31.024  28.415  1.00  0.00     0.040 A 
ATOM     85  F   UNL A   1      35.958  29.290  29.744  1.00  0.00    -0.206 F 
ATOM     86  C   UNL A   1      35.230  32.290  27.847  1.00  0.00     0.006 A 
ENDBRANCH  58  79
BRANCH  70  87
ATOM     87  C   UNL A   1      39.379  32.379  35.978  1.00  0.00     0.057 A 
ATOM     88  C   UNL A   1      39.865  33.687  36.099  1.00  0.00     0.134 A 
ATOM     89  C   UNL A   1      38.380  31.971  36.870  1.00  0.00     0.134 A 
ATOM     90  F   UNL A   1      40.831  34.131  35.281  1.00  0.00    -0.206 F 
ATOM     91  C   UNL A   1      39.388  34.551  37.085  1.00  0.00     0.040 A 
ATOM     92  C   UNL A   1      37.881  32.833  37.846  1.00  0.00     0.040 A 
ATOM     93  F   UNL A   1      37.869  30.733  36.801  1.00  0.00    -0.206 F 
ATOM     94  C   UNL A   1      38.388  34.126  37.959  1.00  0.00     0.006 A 
ENDBRANCH  70  87
ENDBRANCH  44  45
ENDBRANCH  36  39
ENDBRANCH  34  35
ENDBRANCH  33  34
ENDBRANCH  32  33
ENDBRANCH   1  32
TORSDOF 18
ENDMDL
MODEL 3
REMARK VINA RESULT:     -11.1      1.009      6.038
REMARK SMILES CCOc1ccccc1[C@H](C(=O)NCCCCCCNC(=O)c1ccc(-c2c3nc(c(-c4c(F)cccc4F)c4ccc([nH]4)c(-c4c(F)cccc4F)c4nc(c(-c5c(F)cccc5F)c5ccc2[nH]5)C=C4)C=C3)cc1)[NH+]1CCC([NH+]2CCSCC2)CC1
REMARK SMILES IDX 16 1 15 2 14 3 13 4 11 5 12 6 10 8 9 9 4 10 5 11 6 12 8 13
REMARK SMILES IDX 7 14 3 15 2 16 1 17 77 18 78 19 88 20 79 22 87 23 80 24
REMARK SMILES IDX 81 25 82 26 86 27 83 29 85 30 84 31 17 32 18 33 19 34 20 35
REMARK SMILES IDX 21 36 22 38 23 39 24 40 76 41 25 42 75 43 26 44 27 45 28 46
REMARK SMILES IDX 69 47 29 48 74 49 68 50 70 51 30 52 73 53 67 54 66 55 31 57
REMARK SMILES IDX 57 58 40 59 56 60 41 61 44 62 55 63 71 64 42 65 43 66 54 68
REMARK SMILES IDX 72 69 45 70 32 71 33 72 38 73 34 74 35 75 37 76 39 77 36 78
REMARK SMILES IDX 58 79 59 80 64 81 60 82 61 83 63 84 65 85 62 86 46 87 47 88
REMARK SMILES IDX 52 89 48 90 49 91 51 92 53 93 50 94
REMARK H PARENT 13 7 77 21 81 28 20 37 70 56 44 67
REMARK Flexibility Score: inf
ROOT
ATOM      1  C   UNL A   1      36.829  21.920  24.433  1.00  0.00     0.002 C 
ENDROOT
BRANCH   1   2
ATOM      2  C   UNL A   1      37.079  23.003  25.475  1.00  0.00     0.021 C 
BRANCH   2   3
ATOM      3  C   UNL A   1      35.879  23.842  25.870  1.00  0.00     0.116 C 
BRANCH   3   4
ATOM      4  N   UNL A   1      35.381  24.731  24.831  1.00  0.00    -0.351 N 
ATOM      5  C   UNL A   1      34.049  25.020  24.558  1.00  0.00     0.283 C 
ATOM      6  O   UNL A   1      33.789  26.015  23.873  1.00  0.00    -0.268 OA
ATOM      7  H   UNL A   1      36.055  25.173  24.264  1.00  0.00     0.163 HD
BRANCH   5   8
ATOM      8  C   UNL A   1      32.898  24.188  25.265  1.00  0.00     0.309 C 
BRANCH   8   9
ATOM      9  C   UNL A   1      31.550  24.867  24.895  1.00  0.00     0.061 A 
ATOM     10  C   UNL A   1      31.112  26.001  25.648  1.00  0.00     0.128 A 
ATOM     11  C   UNL A   1      30.131  26.863  25.144  1.00  0.00     0.047 A 
ATOM     12  C   UNL A   1      29.542  26.596  23.910  1.00  0.00     0.004 A 
ATOM     13  C   UNL A   1      30.861  24.563  23.708  1.00  0.00     0.014 A 
ATOM     14  C   UNL A   1      29.876  25.432  23.217  1.00  0.00     0.001 A 
BRANCH  10  15
ATOM     15  O   UNL A   1      31.713  26.239  26.863  1.00  0.00    -0.493 OA
BRANCH  15  16
ATOM     16  C   UNL A   1      31.951  27.617  27.193  1.00  0.00     0.226 C 
ATOM     17  C   UNL A   1      33.346  28.015  26.723  1.00  0.00     0.049 C 
ENDBRANCH  15  16
ENDBRANCH  10  15
ENDBRANCH   8   9
BRANCH   8  18
ATOM     18  N   UNL A   1      33.085  22.717  24.882  1.00  0.00    -0.320 N 
ATOM     19  C   UNL A   1      32.593  21.839  25.958  1.00  0.00     0.269 C 
ATOM     20  C   UNL A   1      32.330  22.300  23.671  1.00  0.00     0.269 C 
ATOM     21  H   UNL A   1      34.087  22.629  24.710  1.00  0.00     0.349 HD
ATOM     22  C   UNL A   1      33.093  20.444  25.734  1.00  0.00     0.126 C 
ATOM     23  C   UNL A   1      32.449  20.757  23.358  1.00  0.00     0.126 C 
ATOM     24  C   UNL A   1      32.302  19.815  24.601  1.00  0.00     0.195 C 
BRANCH  24  25
ATOM     25  N   UNL A   1      32.590  18.348  24.463  1.00  0.00    -0.331 N 
ATOM     26  C   UNL A   1      32.641  17.683  25.800  1.00  0.00     0.273 C 
ATOM     27  C   UNL A   1      33.812  18.051  23.696  1.00  0.00     0.273 C 
ATOM     28  H   UNL A   1      31.813  17.965  23.924  1.00  0.00     0.348 HD
ATOM     29  C   UNL A   1      32.797  16.162  25.841  1.00  0.00     0.131 C 
ATOM     30  C   UNL A   1      34.085  16.550  23.492  1.00  0.00     0.131 C 
ATOM     31  S   UNL A   1      34.346  15.651  25.048  1.00  0.00    -0.150 SA
ENDBRANCH  24  25
ENDBRANCH   8  18
ENDBRANCH   5   8
ENDBRANCH   3   4
ENDBRANCH   2   3
ENDBRANCH   1   2
BRANCH   1  32
ATOM     32  C   UNL A   1      36.757  20.473  24.925  1.00  0.00     0.002 C 
BRANCH  32  33
ATOM     33  C   UNL A   1      38.044  19.646  24.889  1.00  0.00     0.021 C 
BRANCH  33  34
ATOM     34  C   UNL A   1      39.149  20.074  25.842  1.00  0.00     0.116 C 
BRANCH  34  35
ATOM     35  N   UNL A   1      40.302  19.199  25.801  1.00  0.00    -0.352 N 
ATOM     36  C   UNL A   1      41.613  19.481  26.091  1.00  0.00     0.251 C 
ATOM     37  H   UNL A   1      40.120  18.271  25.524  1.00  0.00     0.163 HD
ATOM     38  O   UNL A   1      42.479  18.637  25.896  1.00  0.00    -0.269 OA
BRANCH  36  39
ATOM     39  C   UNL A   1      41.986  20.813  26.616  1.00  0.00     0.039 A 
ATOM     40  C   UNL A   1      42.399  21.790  25.706  1.00  0.00     0.014 A 
ATOM     41  C   UNL A   1      41.959  21.096  27.985  1.00  0.00     0.014 A 
ATOM     42  C   UNL A   1      42.750  23.060  26.164  1.00  0.00     0.010 A 
ATOM     43  C   UNL A   1      42.251  22.382  28.436  1.00  0.00     0.010 A 
ATOM     44  C   UNL A   1      42.663  23.371  27.531  1.00  0.00    -0.014 A 
BRANCH  44  45
ATOM     45  C   UNL A   1      43.029  24.721  28.021  1.00  0.00     0.031 A 
ATOM     46  C   UNL A   1      41.962  25.753  28.261  1.00  0.00     0.074 A 
ATOM     47  C   UNL A   1      44.325  25.029  28.218  1.00  0.00     0.049 A 
ATOM     48  N   UNL A   1      42.084  26.986  28.682  1.00  0.00    -0.248 NA
ATOM     49  C   UNL A   1      40.577  25.355  27.964  1.00  0.00     0.031 C 
ATOM     50  C   UNL A   1      45.455  24.132  27.965  1.00  0.00     0.029 A 
ATOM     51  N   UNL A   1      44.910  26.182  28.673  1.00  0.00    -0.354 N 
ATOM     52  C   UNL A   1      40.800  27.513  28.685  1.00  0.00     0.074 A 
ATOM     53  C   UNL A   1      39.917  26.483  28.181  1.00  0.00     0.031 C 
ATOM     54  C   UNL A   1      46.595  24.762  28.293  1.00  0.00     0.029 A 
ATOM     55  C   UNL A   1      46.278  26.109  28.757  1.00  0.00     0.049 A 
ATOM     56  H   UNL A   1      44.397  26.987  28.917  1.00  0.00     0.167 HD
ATOM     57  C   UNL A   1      40.390  28.737  29.093  1.00  0.00     0.037 A 
ATOM     58  C   UNL A   1      47.174  27.024  29.171  1.00  0.00     0.037 A 
ATOM     59  C   UNL A   1      41.263  29.745  29.632  1.00  0.00     0.049 A 
ATOM     60  C   UNL A   1      46.689  28.360  29.658  1.00  0.00     0.074 A 
ATOM     61  C   UNL A   1      40.933  30.988  30.146  1.00  0.00     0.029 A 
ATOM     62  N   UNL A   1      42.640  29.622  29.731  1.00  0.00    -0.354 N 
ATOM     63  N   UNL A   1      45.463  28.818  29.726  1.00  0.00    -0.248 NA
ATOM     64  C   UNL A   1      47.712  29.302  30.134  1.00  0.00     0.031 C 
ATOM     65  C   UNL A   1      42.116  31.630  30.527  1.00  0.00     0.029 A 
ATOM     66  C   UNL A   1      43.177  30.773  30.281  1.00  0.00     0.049 A 
ATOM     67  H   UNL A   1      43.159  28.834  29.451  1.00  0.00     0.167 HD
ATOM     68  C   UNL A   1      45.563  30.092  30.269  1.00  0.00     0.074 A 
ATOM     69  C   UNL A   1      46.970  30.329  30.527  1.00  0.00     0.031 C 
ATOM     70  C   UNL A   1      44.580  30.988  30.529  1.00  0.00     0.037 A 
BRANCH  57  71
ATOM     71  C   UNL A   1      38.927  29.048  28.979  1.00  0.00     0.057 A 
ATOM     72  C   UNL A   1      38.063  28.948  30.078  1.00  0.00     0.134 A 
ATOM     73  C   UNL A   1      38.381  29.482  27.765  1.00  0.00     0.134 A 
ATOM     74  F   UNL A   1      38.523  28.526  31.266  1.00  0.00    -0.206 F 
ATOM     75  C   UNL A   1      36.705  29.246  29.969  1.00  0.00     0.040 A 
ATOM     76  C   UNL A   1      37.027  29.804  27.649  1.00  0.00     0.040 A 
ATOM     77  F   UNL A   1      39.152  29.603  26.674  1.00  0.00    -0.206 F 
ATOM     78  C   UNL A   1      36.184  29.682  28.751  1.00  0.00     0.006 A 
ENDBRANCH  57  71
BRANCH  58  79
ATOM     79  C   UNL A   1      48.620  26.692  29.178  1.00  0.00     0.057 A 
ATOM     80  C   UNL A   1      49.432  26.988  28.077  1.00  0.00     0.134 A 
ATOM     81  C   UNL A   1      49.221  26.078  30.281  1.00  0.00     0.134 A 
ATOM     82  F   UNL A   1      48.906  27.560  26.984  1.00  0.00    -0.206 F 
ATOM     83  C   UNL A   1      50.791  26.672  28.069  1.00  0.00     0.040 A 
ATOM     84  C   UNL A   1      50.584  25.774  30.294  1.00  0.00     0.040 A 
ATOM     85  F   UNL A   1      48.497  25.775  31.368  1.00  0.00    -0.206 F 
ATOM     86  C   UNL A   1      51.371  26.067  29.182  1.00  0.00     0.006 A 
ENDBRANCH  58  79
BRANCH  70  87
ATOM     87  C   UNL A   1      44.993  32.296  31.132  1.00  0.00     0.057 A 
ATOM     88  C   UNL A   1      45.090  32.465  32.519  1.00  0.00     0.134 A 
ATOM     89  C   UNL A   1      45.329  33.385  30.319  1.00  0.00     0.134 A 
ATOM     90  F   UNL A   1      44.769  31.462  33.350  1.00  0.00    -0.206 F 
ATOM     91  C   UNL A   1      45.489  33.680  33.076  1.00  0.00     0.040 A 
ATOM     92  C   UNL A   1      45.749  34.597  30.865  1.00  0.00     0.040 A 
ATOM     93  F   UNL A   1      45.262  33.283  28.983  1.00  0.00    -0.206 F 
ATOM     94  C   UNL A   1      45.826  34.749  32.247  1.00  0.00     0.006 A 
ENDBRANCH  70  87
ENDBRANCH  44  45
ENDBRANCH  36  39
ENDBRANCH  34  35
ENDBRANCH  33  34
ENDBRANCH  32  33
ENDBRANCH   1  32
TORSDOF 18
ENDMDL
