MODEL 1
REMARK VINA RESULT:     -11.0      0.000      0.000
REMARK SMILES C/C(=N\Nc1nc(-c2ccc(Cl)cc2)cs1)c1nnn(-c2ccc(C(=O)NCCCCCCNC(=O)c3ccc(-c4c5nc(c(-c6c(F)cccc6F)c6ccc([nH]6)c(-c6c(F)cccc6F)c6nc(c(-c7c(F)cccc7F)c7ccc4[nH]7)C=C6)C=C5)cc3)cc2)c1C
REMARK SMILES IDX 29 1 28 2 27 3 25 4 26 5 24 7 21 8 22 9 92 10 23 11 91 12
REMARK SMILES IDX 20 13 17 14 18 15 93 16 19 17 94 18 2 19 1 20 3 21 4 22 5 24
REMARK SMILES IDX 6 25 16 26 7 27 15 28 8 29 9 30 14 31 10 32 13 33 11 34
REMARK SMILES IDX 12 35 30 36 31 37 32 38 33 39 34 40 35 41 36 43 37 44 38 45
REMARK SMILES IDX 90 46 39 47 89 48 40 49 41 50 42 51 83 52 43 53 88 54 82 55
REMARK SMILES IDX 84 56 44 57 87 58 81 59 80 60 45 62 71 63 54 64 70 65 55 66
REMARK SMILES IDX 58 67 69 68 85 69 56 70 57 71 68 73 86 74 59 75 46 76 47 77
REMARK SMILES IDX 52 78 48 79 49 80 51 81 53 82 50 83 72 84 73 85 78 86 74 87
REMARK SMILES IDX 75 88 77 89 79 90 76 91 60 92 61 93 66 94 62 95 63 96 65 97
REMARK SMILES IDX 67 98 64 99
REMARK H PARENT 27 6 4 23 34 42 84 61 58 72
REMARK Flexibility Score: inf
ROOT
ATOM      1  C   UNL A   1      35.518  20.654  24.806  1.00  0.00     0.021 C 
ENDROOT
BRANCH   1   2
ATOM      2  C   UNL A   1      34.210  19.907  25.082  1.00  0.00     0.116 C 
BRANCH   2   3
ATOM      3  N   UNL A   1      33.376  19.890  23.894  1.00  0.00    -0.352 N 
ATOM      4  C   UNL A   1      32.397  20.729  23.425  1.00  0.00     0.251 C 
ATOM      5  O   UNL A   1      31.876  20.450  22.345  1.00  0.00    -0.269 OA
ATOM      6  H   UNL A   1      33.548  19.119  23.306  1.00  0.00     0.163 HD
BRANCH   4   7
ATOM      7  C   UNL A   1      32.000  21.989  24.115  1.00  0.00     0.039 A 
ATOM      8  C   UNL A   1      31.611  24.461  25.351  1.00  0.00     0.067 A 
ATOM      9  C   UNL A   1      31.819  24.421  23.973  1.00  0.00     0.029 A 
ATOM     10  C   UNL A   1      31.472  23.284  26.090  1.00  0.00     0.029 A 
ATOM     11  C   UNL A   1      32.041  23.180  23.366  1.00  0.00     0.016 A 
ATOM     12  C   UNL A   1      31.611  22.052  25.455  1.00  0.00     0.016 A 
BRANCH   8  13
ATOM     13  N   UNL A   1      31.691  25.685  26.038  1.00  0.00    -0.217 N 
ATOM     14  C   UNL A   1      32.360  27.607  26.801  1.00  0.00     0.132 A 
ATOM     15  N   UNL A   1      31.009  27.510  26.988  1.00  0.00    -0.128 NA
ATOM     16  C   UNL A   1      32.829  26.448  26.203  1.00  0.00     0.071 A 
ATOM     17  N   UNL A   1      30.601  26.370  26.440  1.00  0.00    -0.061 NA
ATOM     18  C   UNL A   1      34.160  26.123  25.623  1.00  0.00     0.069 C 
BRANCH  14  19
ATOM     19  C   UNL A   1      33.127  28.832  26.958  1.00  0.00     0.087 C 
ATOM     20  C   UNL A   1      32.958  29.806  25.817  1.00  0.00     0.071 C 
ATOM     21  N   UNL A   1      33.908  28.910  28.000  1.00  0.00    -0.176 NA
BRANCH  21  22
ATOM     22  N   UNL A   1      34.802  29.939  28.201  1.00  0.00    -0.252 N 
ATOM     23  H   UNL A   1      34.426  30.842  28.087  1.00  0.00     0.193 HD
BRANCH  22  24
ATOM     24  C   UNL A   1      36.118  29.907  28.533  1.00  0.00     0.203 A 
ATOM     25  N   UNL A   1      37.101  29.538  27.746  1.00  0.00    -0.219 NA
ATOM     26  S   UNL A   1      36.619  30.243  30.154  1.00  0.00    -0.103 S 
ATOM     27  C   UNL A   1      38.205  29.176  28.490  1.00  0.00     0.084 A 
ATOM     28  C   UNL A   1      38.127  29.479  29.832  1.00  0.00     0.097 A 
BRANCH  27  29
ATOM     29  C   UNL A   1      39.281  28.437  27.855  1.00  0.00     0.001 A 
ATOM     30  C   UNL A   1      40.023  29.050  26.837  1.00  0.00     0.012 A 
ATOM     31  C   UNL A   1      39.502  27.084  28.148  1.00  0.00     0.012 A 
ATOM     32  C   UNL A   1      41.000  28.332  26.144  1.00  0.00     0.021 A 
ATOM     33  C   UNL A   1      40.471  26.361  27.445  1.00  0.00     0.021 A 
ATOM     34  C   UNL A   1      41.220  26.991  26.452  1.00  0.00     0.041 A 
ATOM     35  Cl  UNL A   1      42.415  26.102  25.590  1.00  0.00    -0.084 Cl
ENDBRANCH  27  29
ENDBRANCH  22  24
ENDBRANCH  21  22
ENDBRANCH  14  19
ENDBRANCH   8  13
ENDBRANCH   4   7
ENDBRANCH   2   3
ENDBRANCH   1   2
BRANCH   1  36
ATOM     36  C   UNL A   1      35.398  22.175  24.970  1.00  0.00     0.002 C 
BRANCH  36  37
ATOM     37  C   UNL A   1      36.186  22.776  26.145  1.00  0.00     0.002 C 
BRANCH  37  38
ATOM     38  C   UNL A   1      37.252  23.822  25.782  1.00  0.00     0.021 C 
BRANCH  38  39
ATOM     39  C   UNL A   1      38.641  23.485  26.303  1.00  0.00     0.116 C 
BRANCH  39  40
ATOM     40  N   UNL A   1      38.891  22.048  26.313  1.00  0.00    -0.352 N 
ATOM     41  C   UNL A   1      40.092  21.374  26.412  1.00  0.00     0.251 C 
ATOM     42  H   UNL A   1      38.092  21.478  26.237  1.00  0.00     0.163 HD
ATOM     43  O   UNL A   1      40.190  20.225  26.014  1.00  0.00    -0.269 OA
BRANCH  41  44
ATOM     44  C   UNL A   1      41.258  22.057  27.007  1.00  0.00     0.039 A 
ATOM     45  C   UNL A   1      42.427  22.239  26.264  1.00  0.00     0.014 A 
ATOM     46  C   UNL A   1      41.185  22.499  28.327  1.00  0.00     0.014 A 
ATOM     47  C   UNL A   1      43.486  22.932  26.843  1.00  0.00     0.010 A 
ATOM     48  C   UNL A   1      42.165  23.312  28.841  1.00  0.00     0.010 A 
ATOM     49  C   UNL A   1      43.339  23.491  28.126  1.00  0.00    -0.014 A 
BRANCH  49  50
ATOM     50  C   UNL A   1      44.338  24.423  28.642  1.00  0.00     0.031 A 
ATOM     51  C   UNL A   1      44.330  24.484  30.125  1.00  0.00     0.074 A 
ATOM     52  C   UNL A   1      45.293  25.021  27.895  1.00  0.00     0.049 A 
ATOM     53  N   UNL A   1      43.849  25.433  30.853  1.00  0.00    -0.248 NA
ATOM     54  C   UNL A   1      44.692  23.276  30.887  1.00  0.00     0.031 C 
ATOM     55  C   UNL A   1      45.588  24.804  26.474  1.00  0.00     0.029 A 
ATOM     56  N   UNL A   1      46.276  25.894  28.268  1.00  0.00    -0.354 N 
ATOM     57  C   UNL A   1      44.114  25.063  32.167  1.00  0.00     0.074 A 
ATOM     58  C   UNL A   1      44.393  23.653  32.134  1.00  0.00     0.031 C 
ATOM     59  C   UNL A   1      46.792  25.337  26.169  1.00  0.00     0.029 A 
ATOM     60  C   UNL A   1      47.283  26.074  27.318  1.00  0.00     0.049 A 
ATOM     61  H   UNL A   1      46.274  26.358  29.136  1.00  0.00     0.167 HD
ATOM     62  C   UNL A   1      44.432  26.021  33.080  1.00  0.00     0.037 A 
ATOM     63  C   UNL A   1      48.438  26.773  27.467  1.00  0.00     0.037 A 
ATOM     64  C   UNL A   1      44.051  27.328  32.586  1.00  0.00     0.049 A 
ATOM     65  C   UNL A   1      48.233  27.709  28.594  1.00  0.00     0.074 A 
ATOM     66  C   UNL A   1      42.885  27.943  32.176  1.00  0.00     0.029 A 
ATOM     67  N   UNL A   1      45.080  28.075  32.074  1.00  0.00    -0.354 N 
ATOM     68  N   UNL A   1      47.440  28.740  28.545  1.00  0.00    -0.248 NA
ATOM     69  C   UNL A   1      48.614  27.274  29.927  1.00  0.00     0.031 C 
ATOM     70  C   UNL A   1      43.269  28.827  31.120  1.00  0.00     0.029 A 
ATOM     71  C   UNL A   1      44.657  28.775  30.982  1.00  0.00     0.049 A 
ATOM     72  H   UNL A   1      45.993  28.103  32.441  1.00  0.00     0.167 HD
ATOM     73  C   UNL A   1      46.850  28.774  29.796  1.00  0.00     0.074 A 
ATOM     74  C   UNL A   1      47.722  27.964  30.642  1.00  0.00     0.031 C 
ATOM     75  C   UNL A   1      45.556  29.193  29.928  1.00  0.00     0.037 A 
BRANCH  62  76
ATOM     76  C   UNL A   1      45.548  25.871  34.105  1.00  0.00     0.057 A 
ATOM     77  C   UNL A   1      45.301  26.305  35.424  1.00  0.00     0.134 A 
ATOM     78  C   UNL A   1      46.910  25.669  33.799  1.00  0.00     0.134 A 
ATOM     79  F   UNL A   1      44.049  26.539  35.847  1.00  0.00    -0.206 F 
ATOM     80  C   UNL A   1      46.330  26.626  36.318  1.00  0.00     0.040 A 
ATOM     81  C   UNL A   1      47.942  25.940  34.703  1.00  0.00     0.040 A 
ATOM     82  F   UNL A   1      47.341  25.295  32.590  1.00  0.00    -0.206 F 
ATOM     83  C   UNL A   1      47.658  26.458  35.953  1.00  0.00     0.006 A 
ENDBRANCH  62  76
BRANCH  63  84
ATOM     84  C   UNL A   1      49.785  26.570  26.878  1.00  0.00     0.057 A 
ATOM     85  C   UNL A   1      50.506  25.385  27.109  1.00  0.00     0.134 A 
ATOM     86  C   UNL A   1      50.258  27.381  25.836  1.00  0.00     0.134 A 
ATOM     87  F   UNL A   1      50.120  24.524  28.062  1.00  0.00    -0.206 F 
ATOM     88  C   UNL A   1      51.600  25.006  26.318  1.00  0.00     0.040 A 
ATOM     89  C   UNL A   1      51.354  27.016  25.042  1.00  0.00     0.040 A 
ATOM     90  F   UNL A   1      49.616  28.504  25.488  1.00  0.00    -0.206 F 
ATOM     91  C   UNL A   1      52.017  25.816  25.268  1.00  0.00     0.006 A 
ENDBRANCH  63  84
BRANCH  75  92
ATOM     92  C   UNL A   1      44.973  30.007  28.806  1.00  0.00     0.057 A 
ATOM     93  C   UNL A   1      44.295  29.486  27.693  1.00  0.00     0.134 A 
ATOM     94  C   UNL A   1      45.038  31.401  28.909  1.00  0.00     0.134 A 
ATOM     95  F   UNL A   1      44.100  28.168  27.548  1.00  0.00    -0.206 F 
ATOM     96  C   UNL A   1      43.756  30.318  26.705  1.00  0.00     0.040 A 
ATOM     97  C   UNL A   1      44.471  32.242  27.951  1.00  0.00     0.040 A 
ATOM     98  F   UNL A   1      45.631  31.973  29.969  1.00  0.00    -0.206 F 
ATOM     99  C   UNL A   1      43.841  31.701  26.836  1.00  0.00     0.006 A 
ENDBRANCH  75  92
ENDBRANCH  49  50
ENDBRANCH  41  44
ENDBRANCH  39  40
ENDBRANCH  38  39
ENDBRANCH  37  38
ENDBRANCH  36  37
ENDBRANCH   1  36
TORSDOF 18
ENDMDL
MODEL 2
REMARK VINA RESULT:     -10.7      1.403      2.168
REMARK SMILES C/C(=N\Nc1nc(-c2ccc(Cl)cc2)cs1)c1nnn(-c2ccc(C(=O)NCCCCCCNC(=O)c3ccc(-c4c5nc(c(-c6c(F)cccc6F)c6ccc([nH]6)c(-c6c(F)cccc6F)c6nc(c(-c7c(F)cccc7F)c7ccc4[nH]7)C=C6)C=C5)cc3)cc2)c1C
REMARK SMILES IDX 29 1 28 2 27 3 25 4 26 5 24 7 21 8 22 9 92 10 23 11 91 12
REMARK SMILES IDX 20 13 17 14 18 15 93 16 19 17 94 18 2 19 1 20 3 21 4 22 5 24
REMARK SMILES IDX 6 25 16 26 7 27 15 28 8 29 9 30 14 31 10 32 13 33 11 34
REMARK SMILES IDX 12 35 30 36 31 37 32 38 33 39 34 40 35 41 36 43 37 44 38 45
REMARK SMILES IDX 90 46 39 47 89 48 40 49 41 50 42 51 83 52 43 53 88 54 82 55
REMARK SMILES IDX 84 56 44 57 87 58 81 59 80 60 45 62 71 63 54 64 70 65 55 66
REMARK SMILES IDX 58 67 69 68 85 69 56 70 57 71 68 73 86 74 59 75 46 76 47 77
REMARK SMILES IDX 52 78 48 79 49 80 51 81 53 82 50 83 72 84 73 85 78 86 74 87
REMARK SMILES IDX 75 88 77 89 79 90 76 91 60 92 61 93 66 94 62 95 63 96 65 97
REMARK SMILES IDX 67 98 64 99
REMARK H PARENT 27 6 4 23 34 42 84 61 58 72
REMARK Flexibility Score: inf
ROOT
ATOM      1  C   UNL A   1      34.273  22.039  25.876  1.00  0.00     0.021 C 
ENDROOT
BRANCH   1   2
ATOM      2  C   UNL A   1      32.881  21.405  25.809  1.00  0.00     0.116 C 
BRANCH   2   3
ATOM      3  N   UNL A   1      32.607  20.925  24.466  1.00  0.00    -0.352 N 
ATOM      4  C   UNL A   1      32.243  21.554  23.302  1.00  0.00     0.251 C 
ATOM      5  O   UNL A   1      32.104  20.857  22.297  1.00  0.00    -0.269 OA
ATOM      6  H   UNL A   1      32.702  19.949  24.372  1.00  0.00     0.163 HD
BRANCH   4   7
ATOM      7  C   UNL A   1      32.091  23.032  23.185  1.00  0.00     0.039 A 
ATOM      8  C   UNL A   1      32.060  25.822  23.241  1.00  0.00     0.067 A 
ATOM      9  C   UNL A   1      33.202  25.169  22.777  1.00  0.00     0.029 A 
ATOM     10  C   UNL A   1      30.903  25.107  23.554  1.00  0.00     0.029 A 
ATOM     11  C   UNL A   1      33.220  23.770  22.779  1.00  0.00     0.016 A 
ATOM     12  C   UNL A   1      30.908  23.716  23.469  1.00  0.00     0.016 A 
BRANCH   8  13
ATOM     13  N   UNL A   1      32.110  27.193  23.543  1.00  0.00    -0.217 N 
ATOM     14  C   UNL A   1      32.132  29.098  24.591  1.00  0.00     0.132 A 
ATOM     15  N   UNL A   1      32.651  29.283  23.340  1.00  0.00    -0.128 NA
ATOM     16  C   UNL A   1      31.767  27.770  24.749  1.00  0.00     0.071 A 
ATOM     17  N   UNL A   1      32.712  28.097  22.742  1.00  0.00    -0.061 NA
ATOM     18  C   UNL A   1      31.338  27.017  25.958  1.00  0.00     0.069 C 
BRANCH  14  19
ATOM     19  C   UNL A   1      32.205  30.075  25.665  1.00  0.00     0.087 C 
ATOM     20  C   UNL A   1      31.039  31.035  25.696  1.00  0.00     0.071 C 
ATOM     21  N   UNL A   1      33.278  30.057  26.407  1.00  0.00    -0.176 NA
BRANCH  21  22
ATOM     22  N   UNL A   1      33.555  31.012  27.361  1.00  0.00    -0.252 N 
ATOM     23  H   UNL A   1      32.776  31.536  27.661  1.00  0.00     0.193 HD
BRANCH  22  24
ATOM     24  C   UNL A   1      34.729  31.346  27.955  1.00  0.00     0.203 A 
ATOM     25  N   UNL A   1      35.913  30.879  27.634  1.00  0.00    -0.219 NA
ATOM     26  S   UNL A   1      34.744  32.368  29.350  1.00  0.00    -0.103 S 
ATOM     27  C   UNL A   1      36.795  31.037  28.684  1.00  0.00     0.084 A 
ATOM     28  C   UNL A   1      36.332  31.819  29.720  1.00  0.00     0.097 A 
BRANCH  27  29
ATOM     29  C   UNL A   1      38.052  30.312  28.672  1.00  0.00     0.001 A 
ATOM     30  C   UNL A   1      38.131  29.094  27.986  1.00  0.00     0.012 A 
ATOM     31  C   UNL A   1      39.143  30.741  29.441  1.00  0.00     0.012 A 
ATOM     32  C   UNL A   1      39.299  28.328  28.036  1.00  0.00     0.021 A 
ATOM     33  C   UNL A   1      40.308  29.968  29.501  1.00  0.00     0.021 A 
ATOM     34  C   UNL A   1      40.382  28.770  28.793  1.00  0.00     0.041 A 
ATOM     35  Cl  UNL A   1      41.816  27.822  28.866  1.00  0.00    -0.084 Cl
ENDBRANCH  27  29
ENDBRANCH  22  24
ENDBRANCH  21  22
ENDBRANCH  14  19
ENDBRANCH   8  13
ENDBRANCH   4   7
ENDBRANCH   2   3
ENDBRANCH   1   2
BRANCH   1  36
ATOM     36  C   UNL A   1      34.245  23.536  26.215  1.00  0.00     0.002 C 
BRANCH  36  37
ATOM     37  C   UNL A   1      35.472  24.340  25.754  1.00  0.00     0.002 C 
BRANCH  37  38
ATOM     38  C   UNL A   1      36.573  23.544  25.038  1.00  0.00     0.021 C 
BRANCH  38  39
ATOM     39  C   UNL A   1      37.893  23.510  25.793  1.00  0.00     0.116 C 
BRANCH  39  40
ATOM     40  N   UNL A   1      38.295  22.150  26.136  1.00  0.00    -0.352 N 
ATOM     41  C   UNL A   1      39.563  21.642  26.337  1.00  0.00     0.251 C 
ATOM     42  H   UNL A   1      37.559  21.504  26.238  1.00  0.00     0.163 HD
ATOM     43  O   UNL A   1      39.774  20.445  26.223  1.00  0.00    -0.269 OA
BRANCH  41  44
ATOM     44  C   UNL A   1      40.663  22.559  26.693  1.00  0.00     0.039 A 
ATOM     45  C   UNL A   1      40.467  23.568  27.638  1.00  0.00     0.014 A 
ATOM     46  C   UNL A   1      41.896  22.418  26.057  1.00  0.00     0.014 A 
ATOM     47  C   UNL A   1      41.544  24.380  27.984  1.00  0.00     0.010 A 
ATOM     48  C   UNL A   1      42.992  23.113  26.506  1.00  0.00     0.010 A 
ATOM     49  C   UNL A   1      42.814  24.129  27.432  1.00  0.00    -0.014 A 
BRANCH  49  50
ATOM     50  C   UNL A   1      43.994  24.805  27.965  1.00  0.00     0.031 A 
ATOM     51  C   UNL A   1      44.100  24.664  29.439  1.00  0.00     0.074 A 
ATOM     52  C   UNL A   1      44.985  25.334  27.213  1.00  0.00     0.049 A 
ATOM     53  N   UNL A   1      43.844  25.570  30.319  1.00  0.00    -0.248 NA
ATOM     54  C   UNL A   1      44.298  23.320  30.011  1.00  0.00     0.031 C 
ATOM     55  C   UNL A   1      45.138  25.268  25.755  1.00  0.00     0.029 A 
ATOM     56  N   UNL A   1      46.128  25.974  27.599  1.00  0.00    -0.354 N 
ATOM     57  C   UNL A   1      44.130  24.986  31.548  1.00  0.00     0.074 A 
ATOM     58  C   UNL A   1      44.156  23.567  31.317  1.00  0.00     0.031 C 
ATOM     59  C   UNL A   1      46.393  25.632  25.409  1.00  0.00     0.029 A 
ATOM     60  C   UNL A   1      47.083  26.114  26.590  1.00  0.00     0.049 A 
ATOM     61  H   UNL A   1      46.268  26.310  28.514  1.00  0.00     0.167 HD
ATOM     62  C   UNL A   1      44.673  25.745  32.538  1.00  0.00     0.037 A 
ATOM     63  C   UNL A   1      48.350  26.588  26.717  1.00  0.00     0.037 A 
ATOM     64  C   UNL A   1      44.493  27.152  32.245  1.00  0.00     0.049 A 
ATOM     65  C   UNL A   1      48.390  27.382  27.964  1.00  0.00     0.074 A 
ATOM     66  C   UNL A   1      43.427  28.000  32.022  1.00  0.00     0.029 A 
ATOM     67  N   UNL A   1      45.599  27.782  31.737  1.00  0.00    -0.354 N 
ATOM     68  N   UNL A   1      47.789  28.526  28.114  1.00  0.00    -0.248 NA
ATOM     69  C   UNL A   1      48.782  26.713  29.193  1.00  0.00     0.031 C 
ATOM     70  C   UNL A   1      43.886  28.944  31.052  1.00  0.00     0.029 A 
ATOM     71  C   UNL A   1      45.231  28.685  30.782  1.00  0.00     0.049 A 
ATOM     72  H   UNL A   1      46.526  27.609  32.019  1.00  0.00     0.167 HD
ATOM     73  C   UNL A   1      47.301  28.485  29.409  1.00  0.00     0.074 A 
ATOM     74  C   UNL A   1      48.076  27.435  30.066  1.00  0.00     0.031 C 
ATOM     75  C   UNL A   1      46.113  29.089  29.710  1.00  0.00     0.037 A 
BRANCH  62  76
ATOM     76  C   UNL A   1      45.814  25.276  33.431  1.00  0.00     0.057 A 
ATOM     77  C   UNL A   1      45.617  25.296  34.827  1.00  0.00     0.134 A 
ATOM     78  C   UNL A   1      47.162  25.153  33.030  1.00  0.00     0.134 A 
ATOM     79  F   UNL A   1      44.384  25.411  35.345  1.00  0.00    -0.206 F 
ATOM     80  C   UNL A   1      46.680  25.316  35.739  1.00  0.00     0.040 A 
ATOM     81  C   UNL A   1      48.226  25.123  33.936  1.00  0.00     0.040 A 
ATOM     82  F   UNL A   1      47.547  25.153  31.750  1.00  0.00    -0.206 F 
ATOM     83  C   UNL A   1      47.992  25.244  35.293  1.00  0.00     0.006 A 
ENDBRANCH  62  76
BRANCH  63  84
ATOM     84  C   UNL A   1      49.597  26.249  25.987  1.00  0.00     0.057 A 
ATOM     85  C   UNL A   1      50.046  27.038  24.912  1.00  0.00     0.134 A 
ATOM     86  C   UNL A   1      50.532  25.345  26.514  1.00  0.00     0.134 A 
ATOM     87  F   UNL A   1      49.242  27.956  24.356  1.00  0.00    -0.206 F 
ATOM     88  C   UNL A   1      51.359  26.968  24.426  1.00  0.00     0.040 A 
ATOM     89  C   UNL A   1      51.845  25.260  26.033  1.00  0.00     0.040 A 
ATOM     90  F   UNL A   1      50.234  24.583  27.576  1.00  0.00    -0.206 F 
ATOM     91  C   UNL A   1      52.270  26.087  25.000  1.00  0.00     0.006 A 
ENDBRANCH  63  84
BRANCH  75  92
ATOM     92  C   UNL A   1      45.605  30.133  28.754  1.00  0.00     0.057 A 
ATOM     93  C   UNL A   1      45.962  31.489  28.768  1.00  0.00     0.134 A 
ATOM     94  C   UNL A   1      44.767  29.712  27.714  1.00  0.00     0.134 A 
ATOM     95  F   UNL A   1      46.829  31.974  29.668  1.00  0.00    -0.206 F 
ATOM     96  C   UNL A   1      45.464  32.391  27.821  1.00  0.00     0.040 A 
ATOM     97  C   UNL A   1      44.294  30.593  26.741  1.00  0.00     0.040 A 
ATOM     98  F   UNL A   1      44.418  28.420  27.609  1.00  0.00    -0.206 F 
ATOM     99  C   UNL A   1      44.630  31.942  26.801  1.00  0.00     0.006 A 
ENDBRANCH  75  92
ENDBRANCH  49  50
ENDBRANCH  41  44
ENDBRANCH  39  40
ENDBRANCH  38  39
ENDBRANCH  37  38
ENDBRANCH  36  37
ENDBRANCH   1  36
TORSDOF 18
ENDMDL
MODEL 3
REMARK VINA RESULT:     -10.7      4.826      9.367
REMARK SMILES C/C(=N\Nc1nc(-c2ccc(Cl)cc2)cs1)c1nnn(-c2ccc(C(=O)NCCCCCCNC(=O)c3ccc(-c4c5nc(c(-c6c(F)cccc6F)c6ccc([nH]6)c(-c6c(F)cccc6F)c6nc(c(-c7c(F)cccc7F)c7ccc4[nH]7)C=C6)C=C5)cc3)cc2)c1C
REMARK SMILES IDX 29 1 28 2 27 3 25 4 26 5 24 7 21 8 22 9 92 10 23 11 91 12
REMARK SMILES IDX 20 13 17 14 18 15 93 16 19 17 94 18 2 19 1 20 3 21 4 22 5 24
REMARK SMILES IDX 6 25 16 26 7 27 15 28 8 29 9 30 14 31 10 32 13 33 11 34
REMARK SMILES IDX 12 35 30 36 31 37 32 38 33 39 34 40 35 41 36 43 37 44 38 45
REMARK SMILES IDX 90 46 39 47 89 48 40 49 41 50 42 51 83 52 43 53 88 54 82 55
REMARK SMILES IDX 84 56 44 57 87 58 81 59 80 60 45 62 71 63 54 64 70 65 55 66
REMARK SMILES IDX 58 67 69 68 85 69 56 70 57 71 68 73 86 74 59 75 46 76 47 77
REMARK SMILES IDX 52 78 48 79 49 80 51 81 53 82 50 83 72 84 73 85 78 86 74 87
REMARK SMILES IDX 75 88 77 89 79 90 76 91 60 92 61 93 66 94 62 95 63 96 65 97
REMARK SMILES IDX 67 98 64 99
REMARK H PARENT 27 6 4 23 34 42 84 61 58 72
REMARK Flexibility Score: inf
ROOT
ATOM      1  C   UNL A   1      33.520  34.267  28.303  1.00  0.00     0.021 C 
ENDROOT
BRANCH   1   2
ATOM      2  C   UNL A   1      33.906  35.498  29.128  1.00  0.00     0.116 C 
BRANCH   2   3
ATOM      3  N   UNL A   1      32.922  35.739  30.167  1.00  0.00    -0.352 N 
ATOM      4  C   UNL A   1      32.871  35.425  31.502  1.00  0.00     0.251 C 
ATOM      5  O   UNL A   1      31.885  35.796  32.139  1.00  0.00    -0.269 OA
ATOM      6  H   UNL A   1      32.128  36.228  29.849  1.00  0.00     0.163 HD
BRANCH   4   7
ATOM      7  C   UNL A   1      33.978  34.735  32.222  1.00  0.00     0.039 A 
ATOM      8  C   UNL A   1      36.279  33.584  33.304  1.00  0.00     0.067 A 
ATOM      9  C   UNL A   1      36.127  34.969  33.360  1.00  0.00     0.029 A 
ATOM     10  C   UNL A   1      35.250  32.768  32.832  1.00  0.00     0.029 A 
ATOM     11  C   UNL A   1      34.984  35.540  32.790  1.00  0.00     0.016 A 
ATOM     12  C   UNL A   1      34.080  33.348  32.346  1.00  0.00     0.016 A 
BRANCH   8  13
ATOM     13  N   UNL A   1      37.529  33.004  33.581  1.00  0.00    -0.217 N 
ATOM     14  C   UNL A   1      39.196  32.015  34.566  1.00  0.00     0.132 A 
ATOM     15  N   UNL A   1      39.387  31.949  33.214  1.00  0.00    -0.128 NA
ATOM     16  C   UNL A   1      38.018  32.694  34.834  1.00  0.00     0.071 A 
ATOM     17  N   UNL A   1      38.320  32.480  32.623  1.00  0.00    -0.061 NA
ATOM     18  C   UNL A   1      37.266  32.872  36.106  1.00  0.00     0.069 C 
BRANCH  14  19
ATOM     19  C   UNL A   1      39.964  31.261  35.543  1.00  0.00     0.087 C 
ATOM     20  C   UNL A   1      40.844  32.120  36.420  1.00  0.00     0.071 C 
ATOM     21  N   UNL A   1      39.864  29.961  35.496  1.00  0.00    -0.176 NA
BRANCH  21  22
ATOM     22  N   UNL A   1      40.642  29.114  36.255  1.00  0.00    -0.252 N 
ATOM     23  H   UNL A   1      40.260  28.875  37.130  1.00  0.00     0.193 HD
BRANCH  22  24
ATOM     24  C   UNL A   1      41.850  28.555  35.988  1.00  0.00     0.203 A 
ATOM     25  N   UNL A   1      42.051  27.356  35.495  1.00  0.00    -0.219 NA
ATOM     26  S   UNL A   1      43.309  29.376  36.426  1.00  0.00    -0.103 S 
ATOM     27  C   UNL A   1      43.331  26.926  35.778  1.00  0.00     0.084 A 
ATOM     28  C   UNL A   1      44.168  27.890  36.297  1.00  0.00     0.097 A 
BRANCH  27  29
ATOM     29  C   UNL A   1      43.663  25.522  35.616  1.00  0.00     0.001 A 
ATOM     30  C   UNL A   1      44.916  25.062  36.039  1.00  0.00     0.012 A 
ATOM     31  C   UNL A   1      42.806  24.650  34.928  1.00  0.00     0.012 A 
ATOM     32  C   UNL A   1      45.298  23.739  35.811  1.00  0.00     0.021 A 
ATOM     33  C   UNL A   1      43.194  23.328  34.689  1.00  0.00     0.021 A 
ATOM     34  C   UNL A   1      44.435  22.877  35.137  1.00  0.00     0.041 A 
ATOM     35  Cl  UNL A   1      44.909  21.249  34.844  1.00  0.00    -0.084 Cl
ENDBRANCH  27  29
ENDBRANCH  22  24
ENDBRANCH  21  22
ENDBRANCH  14  19
ENDBRANCH   8  13
ENDBRANCH   4   7
ENDBRANCH   2   3
ENDBRANCH   1   2
BRANCH   1  36
ATOM     36  C   UNL A   1      34.715  33.372  27.948  1.00  0.00     0.002 C 
BRANCH  36  37
ATOM     37  C   UNL A   1      34.625  31.921  28.449  1.00  0.00     0.002 C 
BRANCH  37  38
ATOM     38  C   UNL A   1      35.454  30.884  27.676  1.00  0.00     0.021 C 
BRANCH  38  39
ATOM     39  C   UNL A   1      35.986  29.756  28.546  1.00  0.00     0.116 C 
BRANCH  39  40
ATOM     40  N   UNL A   1      35.849  30.047  29.968  1.00  0.00    -0.352 N 
ATOM     41  C   UNL A   1      36.684  29.700  31.012  1.00  0.00     0.251 C 
ATOM     42  H   UNL A   1      35.049  30.563  30.220  1.00  0.00     0.163 HD
ATOM     43  O   UNL A   1      36.259  29.659  32.155  1.00  0.00    -0.269 OA
BRANCH  41  44
ATOM     44  C   UNL A   1      38.098  29.380  30.733  1.00  0.00     0.039 A 
ATOM     45  C   UNL A   1      38.679  28.222  31.254  1.00  0.00     0.014 A 
ATOM     46  C   UNL A   1      38.853  30.261  29.959  1.00  0.00     0.014 A 
ATOM     47  C   UNL A   1      40.000  27.929  30.926  1.00  0.00     0.010 A 
ATOM     48  C   UNL A   1      40.099  29.899  29.512  1.00  0.00     0.010 A 
ATOM     49  C   UNL A   1      40.698  28.760  30.030  1.00  0.00    -0.014 A 
BRANCH  49  50
ATOM     50  C   UNL A   1      41.986  28.338  29.487  1.00  0.00     0.031 A 
ATOM     51  C   UNL A   1      41.886  27.057  28.745  1.00  0.00     0.074 A 
ATOM     52  C   UNL A   1      43.106  29.097  29.479  1.00  0.00     0.049 A 
ATOM     53  N   UNL A   1      42.283  25.899  29.151  1.00  0.00    -0.248 NA
ATOM     54  C   UNL A   1      41.067  27.007  27.521  1.00  0.00     0.031 C 
ATOM     55  C   UNL A   1      43.248  30.491  29.913  1.00  0.00     0.029 A 
ATOM     56  N   UNL A   1      44.351  28.811  28.996  1.00  0.00    -0.354 N 
ATOM     57  C   UNL A   1      42.018  25.027  28.101  1.00  0.00     0.074 A 
ATOM     58  C   UNL A   1      41.067  25.697  27.258  1.00  0.00     0.031 C 
ATOM     59  C   UNL A   1      44.421  30.992  29.466  1.00  0.00     0.029 A 
ATOM     60  C   UNL A   1      45.189  29.920  28.861  1.00  0.00     0.049 A 
ATOM     61  H   UNL A   1      44.635  27.899  28.761  1.00  0.00     0.167 HD
ATOM     62  C   UNL A   1      42.882  24.007  27.847  1.00  0.00     0.037 A 
ATOM     63  C   UNL A   1      46.421  29.955  28.291  1.00  0.00     0.037 A 
ATOM     64  C   UNL A   1      43.743  23.784  28.990  1.00  0.00     0.049 A 
ATOM     65  C   UNL A   1      46.933  28.568  28.286  1.00  0.00     0.074 A 
ATOM     66  C   UNL A   1      43.575  23.463  30.322  1.00  0.00     0.029 A 
ATOM     67  N   UNL A   1      45.002  24.313  28.877  1.00  0.00    -0.354 N 
ATOM     68  N   UNL A   1      47.285  27.922  29.360  1.00  0.00    -0.248 NA
ATOM     69  C   UNL A   1      46.686  27.747  27.113  1.00  0.00     0.031 C 
ATOM     70  C   UNL A   1      44.611  24.161  31.017  1.00  0.00     0.029 A 
ATOM     71  C   UNL A   1      45.413  24.813  30.079  1.00  0.00     0.049 A 
ATOM     72  H   UNL A   1      45.534  24.330  28.049  1.00  0.00     0.167 HD
ATOM     73  C   UNL A   1      46.837  26.631  29.140  1.00  0.00     0.074 A 
ATOM     74  C   UNL A   1      46.632  26.548  27.696  1.00  0.00     0.031 C 
ATOM     75  C   UNL A   1      46.385  25.879  30.188  1.00  0.00     0.037 A 
BRANCH  62  76
ATOM     76  C   UNL A   1      43.330  23.610  26.447  1.00  0.00     0.057 A 
ATOM     77  C   UNL A   1      43.385  22.237  26.131  1.00  0.00     0.134 A 
ATOM     78  C   UNL A   1      44.024  24.447  25.548  1.00  0.00     0.134 A 
ATOM     79  F   UNL A   1      42.770  21.328  26.904  1.00  0.00    -0.206 F 
ATOM     80  C   UNL A   1      44.166  21.734  25.083  1.00  0.00     0.040 A 
ATOM     81  C   UNL A   1      44.766  23.957  24.469  1.00  0.00     0.040 A 
ATOM     82  F   UNL A   1      44.115  25.772  25.704  1.00  0.00    -0.206 F 
ATOM     83  C   UNL A   1      44.873  22.595  24.256  1.00  0.00     0.006 A 
ENDBRANCH  62  76
BRANCH  63  84
ATOM     84  C   UNL A   1      47.122  31.031  27.546  1.00  0.00     0.057 A 
ATOM     85  C   UNL A   1      46.417  31.905  26.700  1.00  0.00     0.134 A 
ATOM     86  C   UNL A   1      48.426  31.424  27.882  1.00  0.00     0.134 A 
ATOM     87  F   UNL A   1      45.151  31.640  26.344  1.00  0.00    -0.206 F 
ATOM     88  C   UNL A   1      46.957  33.121  26.258  1.00  0.00     0.040 A 
ATOM     89  C   UNL A   1      48.981  32.633  27.441  1.00  0.00     0.040 A 
ATOM     90  F   UNL A   1      49.171  30.698  28.728  1.00  0.00    -0.206 F 
ATOM     91  C   UNL A   1      48.239  33.497  26.643  1.00  0.00     0.006 A 
ENDBRANCH  63  84
BRANCH  75  92
ATOM     92  C   UNL A   1      46.794  26.301  31.572  1.00  0.00     0.057 A 
ATOM     93  C   UNL A   1      45.985  27.003  32.478  1.00  0.00     0.134 A 
ATOM     94  C   UNL A   1      48.053  25.898  32.032  1.00  0.00     0.134 A 
ATOM     95  F   UNL A   1      44.730  27.356  32.166  1.00  0.00    -0.206 F 
ATOM     96  C   UNL A   1      46.434  27.334  33.761  1.00  0.00     0.040 A 
ATOM     97  C   UNL A   1      48.498  26.187  33.322  1.00  0.00     0.040 A 
ATOM     98  F   UNL A   1      48.865  25.184  31.237  1.00  0.00    -0.206 F 
ATOM     99  C   UNL A   1      47.693  26.921  34.188  1.00  0.00     0.006 A 
ENDBRANCH  75  92
ENDBRANCH  49  50
ENDBRANCH  41  44
ENDBRANCH  39  40
ENDBRANCH  38  39
ENDBRANCH  37  38
ENDBRANCH  36  37
ENDBRANCH   1  36
TORSDOF 18
ENDMDL
