MODEL 1
REMARK VINA RESULT:     -11.4      0.000      0.000
REMARK SMILES COc1ccc(NC(=O)[C@H](CC(=O)NCCCCCCNC(=O)c2ccc(-c3c4nc(c(-c5c(F)cccc5F)c5ccc([nH]5)c(-c5c(F)cccc5F)c5nc(c(-c6c(F)cccc6F)c6ccc3[nH]6)C=C5)C=C4)cc2)Cc2ccccc2)cc1
REMARK SMILES IDX 16 1 15 2 14 3 12 4 13 5 11 7 10 8 8 9 7 10 9 12 6 13 3 14
REMARK SMILES IDX 4 15 86 16 5 17 85 18 2 19 1 20 78 21 79 22 80 23 84 24
REMARK SMILES IDX 81 25 83 26 82 27 17 28 18 29 19 30 20 31 21 32 22 33 23 35
REMARK SMILES IDX 24 36 25 37 77 38 26 39 76 40 27 41 28 42 29 43 70 44 30 45
REMARK SMILES IDX 75 46 69 47 71 48 31 49 74 50 68 51 67 52 32 54 58 55 41 56
REMARK SMILES IDX 57 57 42 58 45 59 56 60 72 61 43 62 44 63 55 65 73 66 46 67
REMARK SMILES IDX 33 68 34 69 39 70 35 71 36 72 38 73 40 74 37 75 59 76 60 77
REMARK SMILES IDX 65 78 61 79 62 80 64 81 66 82 63 83 47 84 48 85 53 86 49 87
REMARK SMILES IDX 50 88 52 89 54 90 51 91
REMARK H PARENT 14 6 7 11 21 34 71 53 45 64
REMARK Flexibility Score: inf
ROOT
ATOM      1  C   UNL A   1      32.455  28.507  26.819  1.00  0.00     0.021 C 
ENDROOT
BRANCH   1   2
ATOM      2  C   UNL A   1      33.883  28.239  26.338  1.00  0.00     0.116 C 
BRANCH   2   3
ATOM      3  N   UNL A   1      34.087  28.736  24.994  1.00  0.00    -0.356 N 
ATOM      4  C   UNL A   1      33.452  28.427  23.833  1.00  0.00     0.220 C 
ATOM      5  O   UNL A   1      33.739  29.076  22.825  1.00  0.00    -0.275 OA
ATOM      6  H   UNL A   1      34.802  29.406  24.906  1.00  0.00     0.163 HD
BRANCH   4   7
ATOM      7  C   UNL A   1      32.332  27.404  23.801  1.00  0.00     0.113 C 
BRANCH   7   8
ATOM      8  C   UNL A   1      32.670  25.922  23.567  1.00  0.00     0.092 C 
BRANCH   8   9
ATOM      9  C   UNL A   1      31.657  25.387  22.569  1.00  0.00     0.228 C 
ATOM     10  N   UNL A   1      31.109  24.138  22.669  1.00  0.00    -0.326 N 
ATOM     11  H   UNL A   1      30.365  23.990  22.043  1.00  0.00     0.169 HD
ATOM     12  O   UNL A   1      31.317  26.081  21.604  1.00  0.00    -0.274 OA
BRANCH  10  13
ATOM     13  C   UNL A   1      31.388  23.020  23.479  1.00  0.00     0.041 A 
ATOM     14  C   UNL A   1      32.461  20.890  24.976  1.00  0.00     0.119 A 
ATOM     15  C   UNL A   1      31.739  21.899  25.601  1.00  0.00     0.048 A 
ATOM     16  C   UNL A   1      32.529  20.870  23.586  1.00  0.00     0.048 A 
ATOM     17  C   UNL A   1      31.170  22.929  24.851  1.00  0.00     0.030 A 
ATOM     18  C   UNL A   1      31.995  21.931  22.843  1.00  0.00     0.030 A 
BRANCH  14  19
ATOM     19  O   UNL A   1      33.012  19.962  25.813  1.00  0.00    -0.497 OA
ATOM     20  C   UNL A   1      32.903  18.612  25.374  1.00  0.00     0.278 C 
ENDBRANCH  14  19
ENDBRANCH  10  13
ENDBRANCH   8   9
BRANCH   8  21
ATOM     21  C   UNL A   1      34.086  25.472  23.174  1.00  0.00     0.049 C 
BRANCH  21  22
ATOM     22  C   UNL A   1      34.761  24.397  24.026  1.00  0.00    -0.047 A 
ATOM     23  C   UNL A   1      35.476  23.312  23.498  1.00  0.00     0.004 A 
ATOM     24  C   UNL A   1      34.596  24.440  25.420  1.00  0.00     0.004 A 
ATOM     25  C   UNL A   1      35.899  22.250  24.302  1.00  0.00     0.000 A 
ATOM     26  C   UNL A   1      35.066  23.403  26.235  1.00  0.00     0.000 A 
ATOM     27  C   UNL A   1      35.686  22.291  25.673  1.00  0.00     0.000 A 
ENDBRANCH  21  22
ENDBRANCH   8  21
ENDBRANCH   7   8
ENDBRANCH   4   7
ENDBRANCH   2   3
ENDBRANCH   1   2
BRANCH   1  28
ATOM     28  C   UNL A   1      32.235  29.956  27.244  1.00  0.00     0.002 C 
BRANCH  28  29
ATOM     29  C   UNL A   1      31.415  30.782  26.247  1.00  0.00     0.002 C 
BRANCH  29  30
ATOM     30  C   UNL A   1      31.400  32.293  26.501  1.00  0.00     0.021 C 
BRANCH  30  31
ATOM     31  C   UNL A   1      32.635  32.846  27.205  1.00  0.00     0.116 C 
BRANCH  31  32
ATOM     32  N   UNL A   1      32.449  34.228  27.628  1.00  0.00    -0.352 N 
ATOM     33  C   UNL A   1      33.034  34.925  28.649  1.00  0.00     0.251 C 
ATOM     34  H   UNL A   1      31.799  34.739  27.095  1.00  0.00     0.163 HD
ATOM     35  O   UNL A   1      32.575  36.018  28.988  1.00  0.00    -0.269 OA
BRANCH  33  36
ATOM     36  C   UNL A   1      34.209  34.377  29.351  1.00  0.00     0.039 A 
ATOM     37  C   UNL A   1      34.028  33.755  30.588  1.00  0.00     0.014 A 
ATOM     38  C   UNL A   1      35.491  34.502  28.807  1.00  0.00     0.014 A 
ATOM     39  C   UNL A   1      35.126  33.210  31.257  1.00  0.00     0.010 A 
ATOM     40  C   UNL A   1      36.572  33.893  29.436  1.00  0.00     0.010 A 
ATOM     41  C   UNL A   1      36.402  33.246  30.669  1.00  0.00    -0.014 A 
BRANCH  41  42
ATOM     42  C   UNL A   1      37.569  32.613  31.330  1.00  0.00     0.031 A 
ATOM     43  C   UNL A   1      38.249  31.432  30.695  1.00  0.00     0.074 A 
ATOM     44  C   UNL A   1      37.976  33.063  32.533  1.00  0.00     0.049 A 
ATOM     45  N   UNL A   1      39.231  30.698  31.154  1.00  0.00    -0.248 NA
ATOM     46  C   UNL A   1      37.741  31.001  29.384  1.00  0.00     0.031 C 
ATOM     47  C   UNL A   1      37.370  34.175  33.269  1.00  0.00     0.029 A 
ATOM     48  N   UNL A   1      38.987  32.632  33.355  1.00  0.00    -0.354 N 
ATOM     49  C   UNL A   1      39.448  29.716  30.197  1.00  0.00     0.074 A 
ATOM     50  C   UNL A   1      38.459  29.912  29.158  1.00  0.00     0.031 C 
ATOM     51  C   UNL A   1      38.034  34.351  34.422  1.00  0.00     0.029 A 
ATOM     52  C   UNL A   1      39.081  33.341  34.528  1.00  0.00     0.049 A 
ATOM     53  H   UNL A   1      39.586  31.887  33.126  1.00  0.00     0.167 HD
ATOM     54  C   UNL A   1      40.400  28.753  30.173  1.00  0.00     0.037 A 
ATOM     55  C   UNL A   1      39.910  33.184  35.577  1.00  0.00     0.037 A 
ATOM     56  C   UNL A   1      41.392  28.574  31.201  1.00  0.00     0.049 A 
ATOM     57  C   UNL A   1      40.944  32.094  35.537  1.00  0.00     0.074 A 
ATOM     58  C   UNL A   1      42.431  27.662  31.247  1.00  0.00     0.029 A 
ATOM     59  N   UNL A   1      41.462  29.318  32.370  1.00  0.00    -0.354 N 
ATOM     60  N   UNL A   1      41.181  31.213  34.595  1.00  0.00    -0.248 NA
ATOM     61  C   UNL A   1      41.831  31.978  36.704  1.00  0.00     0.031 C 
ATOM     62  C   UNL A   1      43.099  27.819  32.465  1.00  0.00     0.029 A 
ATOM     63  C   UNL A   1      42.512  28.869  33.154  1.00  0.00     0.049 A 
ATOM     64  H   UNL A   1      40.856  30.057  32.606  1.00  0.00     0.167 HD
ATOM     65  C   UNL A   1      42.260  30.460  35.040  1.00  0.00     0.074 A 
ATOM     66  C   UNL A   1      42.640  30.997  36.331  1.00  0.00     0.031 C 
ATOM     67  C   UNL A   1      42.882  29.419  34.434  1.00  0.00     0.037 A 
BRANCH  54  68
ATOM     68  C   UNL A   1      40.414  27.818  28.997  1.00  0.00     0.057 A 
ATOM     69  C   UNL A   1      41.193  28.070  27.860  1.00  0.00     0.134 A 
ATOM     70  C   UNL A   1      39.666  26.634  29.015  1.00  0.00     0.134 A 
ATOM     71  F   UNL A   1      41.926  29.190  27.772  1.00  0.00    -0.206 F 
ATOM     72  C   UNL A   1      41.206  27.194  26.773  1.00  0.00     0.040 A 
ATOM     73  C   UNL A   1      39.694  25.735  27.948  1.00  0.00     0.040 A 
ATOM     74  F   UNL A   1      38.902  26.325  30.076  1.00  0.00    -0.206 F 
ATOM     75  C   UNL A   1      40.460  26.018  26.819  1.00  0.00     0.006 A 
ENDBRANCH  54  68
BRANCH  55  76
ATOM     76  C   UNL A   1      39.806  34.091  36.749  1.00  0.00     0.057 A 
ATOM     77  C   UNL A   1      39.030  33.750  37.862  1.00  0.00     0.134 A 
ATOM     78  C   UNL A   1      40.475  35.322  36.783  1.00  0.00     0.134 A 
ATOM     79  F   UNL A   1      38.352  32.593  37.883  1.00  0.00    -0.206 F 
ATOM     80  C   UNL A   1      38.901  34.607  38.956  1.00  0.00     0.040 A 
ATOM     81  C   UNL A   1      40.378  36.177  37.881  1.00  0.00     0.040 A 
ATOM     82  F   UNL A   1      41.244  35.704  35.753  1.00  0.00    -0.206 F 
ATOM     83  C   UNL A   1      39.582  35.824  38.969  1.00  0.00     0.006 A 
ENDBRANCH  55  76
BRANCH  67  84
ATOM     84  C   UNL A   1      44.061  28.815  35.140  1.00  0.00     0.057 A 
ATOM     85  C   UNL A   1      45.368  29.271  34.928  1.00  0.00     0.134 A 
ATOM     86  C   UNL A   1      43.878  27.794  36.083  1.00  0.00     0.134 A 
ATOM     87  F   UNL A   1      45.614  30.237  34.030  1.00  0.00    -0.206 F 
ATOM     88  C   UNL A   1      46.453  28.717  35.610  1.00  0.00     0.040 A 
ATOM     89  C   UNL A   1      44.950  27.254  36.793  1.00  0.00     0.040 A 
ATOM     90  F   UNL A   1      42.651  27.318  36.341  1.00  0.00    -0.206 F 
ATOM     91  C   UNL A   1      46.244  27.712  36.552  1.00  0.00     0.006 A 
ENDBRANCH  67  84
ENDBRANCH  41  42
ENDBRANCH  33  36
ENDBRANCH  31  32
ENDBRANCH  30  31
ENDBRANCH  29  30
ENDBRANCH  28  29
ENDBRANCH   1  28
TORSDOF 19
ENDMDL
MODEL 2
REMARK VINA RESULT:     -11.2      2.708      8.392
REMARK SMILES COc1ccc(NC(=O)[C@H](CC(=O)NCCCCCCNC(=O)c2ccc(-c3c4nc(c(-c5c(F)cccc5F)c5ccc([nH]5)c(-c5c(F)cccc5F)c5nc(c(-c6c(F)cccc6F)c6ccc3[nH]6)C=C5)C=C4)cc2)Cc2ccccc2)cc1
REMARK SMILES IDX 16 1 15 2 14 3 12 4 13 5 11 7 10 8 8 9 7 10 9 12 6 13 3 14
REMARK SMILES IDX 4 15 86 16 5 17 85 18 2 19 1 20 78 21 79 22 80 23 84 24
REMARK SMILES IDX 81 25 83 26 82 27 17 28 18 29 19 30 20 31 21 32 22 33 23 35
REMARK SMILES IDX 24 36 25 37 77 38 26 39 76 40 27 41 28 42 29 43 70 44 30 45
REMARK SMILES IDX 75 46 69 47 71 48 31 49 74 50 68 51 67 52 32 54 58 55 41 56
REMARK SMILES IDX 57 57 42 58 45 59 56 60 72 61 43 62 44 63 55 65 73 66 46 67
REMARK SMILES IDX 33 68 34 69 39 70 35 71 36 72 38 73 40 74 37 75 59 76 60 77
REMARK SMILES IDX 65 78 61 79 62 80 64 81 66 82 63 83 47 84 48 85 53 86 49 87
REMARK SMILES IDX 50 88 52 89 54 90 51 91
REMARK H PARENT 14 6 7 11 21 34 71 53 45 64
REMARK Flexibility Score: inf
ROOT
ATOM      1  C   UNL A   1      38.346  23.532  26.127  1.00  0.00     0.021 C 
ENDROOT
BRANCH   1   2
ATOM      2  C   UNL A   1      36.865  23.672  25.766  1.00  0.00     0.116 C 
BRANCH   2   3
ATOM      3  N   UNL A   1      36.041  22.806  26.582  1.00  0.00    -0.356 N 
ATOM      4  C   UNL A   1      34.795  22.311  26.364  1.00  0.00     0.220 C 
ATOM      5  O   UNL A   1      34.346  21.495  27.171  1.00  0.00    -0.275 OA
ATOM      6  H   UNL A   1      36.450  22.532  27.435  1.00  0.00     0.163 HD
BRANCH   4   7
ATOM      7  C   UNL A   1      34.028  22.650  25.099  1.00  0.00     0.113 C 
BRANCH   7   8
ATOM      8  C   UNL A   1      33.044  23.833  25.107  1.00  0.00     0.092 C 
BRANCH   8   9
ATOM      9  C   UNL A   1      31.647  23.249  24.985  1.00  0.00     0.228 C 
ATOM     10  N   UNL A   1      30.677  23.812  24.203  1.00  0.00    -0.326 N 
ATOM     11  H   UNL A   1      29.878  23.244  24.106  1.00  0.00     0.169 HD
ATOM     12  O   UNL A   1      31.343  22.238  25.628  1.00  0.00    -0.274 OA
BRANCH  10  13
ATOM     13  C   UNL A   1      30.580  25.033  23.507  1.00  0.00     0.041 A 
ATOM     14  C   UNL A   1      30.558  27.692  22.582  1.00  0.00     0.119 A 
ATOM     15  C   UNL A   1      31.379  26.744  21.985  1.00  0.00     0.048 A 
ATOM     16  C   UNL A   1      29.645  27.282  23.550  1.00  0.00     0.048 A 
ATOM     17  C   UNL A   1      31.355  25.416  22.416  1.00  0.00     0.030 A 
ATOM     18  C   UNL A   1      29.658  25.958  24.008  1.00  0.00     0.030 A 
BRANCH  14  19
ATOM     19  O   UNL A   1      30.701  28.966  22.112  1.00  0.00    -0.497 OA
ATOM     20  C   UNL A   1      29.569  29.809  22.297  1.00  0.00     0.278 C 
ENDBRANCH  14  19
ENDBRANCH  10  13
ENDBRANCH   8   9
BRANCH   8  21
ATOM     21  C   UNL A   1      33.076  24.898  26.214  1.00  0.00     0.049 C 
BRANCH  21  22
ATOM     22  C   UNL A   1      32.914  26.362  25.807  1.00  0.00    -0.047 A 
ATOM     23  C   UNL A   1      33.688  26.992  24.821  1.00  0.00     0.004 A 
ATOM     24  C   UNL A   1      31.995  27.160  26.508  1.00  0.00     0.004 A 
ATOM     25  C   UNL A   1      33.646  28.376  24.626  1.00  0.00     0.000 A 
ATOM     26  C   UNL A   1      31.912  28.539  26.278  1.00  0.00     0.000 A 
ATOM     27  C   UNL A   1      32.762  29.152  25.363  1.00  0.00     0.000 A 
ENDBRANCH  21  22
ENDBRANCH   8  21
ENDBRANCH   7   8
ENDBRANCH   4   7
ENDBRANCH   2   3
ENDBRANCH   1   2
BRANCH   1  28
ATOM     28  C   UNL A   1      38.881  22.122  25.899  1.00  0.00     0.002 C 
BRANCH  28  29
ATOM     29  C   UNL A   1      40.025  21.727  26.839  1.00  0.00     0.002 C 
BRANCH  29  30
ATOM     30  C   UNL A   1      41.306  21.247  26.151  1.00  0.00     0.021 C 
BRANCH  30  31
ATOM     31  C   UNL A   1      42.604  21.786  26.745  1.00  0.00     0.116 C 
BRANCH  31  32
ATOM     32  N   UNL A   1      43.401  22.501  25.757  1.00  0.00    -0.352 N 
ATOM     33  C   UNL A   1      43.555  23.845  25.552  1.00  0.00     0.251 C 
ATOM     34  H   UNL A   1      43.907  21.927  25.139  1.00  0.00     0.163 HD
ATOM     35  O   UNL A   1      44.092  24.251  24.520  1.00  0.00    -0.269 OA
BRANCH  33  36
ATOM     36  C   UNL A   1      43.078  24.813  26.556  1.00  0.00     0.039 A 
ATOM     37  C   UNL A   1      41.986  24.473  27.358  1.00  0.00     0.014 A 
ATOM     38  C   UNL A   1      43.684  26.066  26.688  1.00  0.00     0.014 A 
ATOM     39  C   UNL A   1      41.535  25.369  28.330  1.00  0.00     0.010 A 
ATOM     40  C   UNL A   1      43.284  26.925  27.705  1.00  0.00     0.010 A 
ATOM     41  C   UNL A   1      42.203  26.588  28.533  1.00  0.00    -0.014 A 
BRANCH  41  42
ATOM     42  C   UNL A   1      41.783  27.524  29.605  1.00  0.00     0.031 A 
ATOM     43  C   UNL A   1      42.483  27.513  30.935  1.00  0.00     0.074 A 
ATOM     44  C   UNL A   1      40.730  28.339  29.400  1.00  0.00     0.049 A 
ATOM     45  N   UNL A   1      42.213  28.197  32.018  1.00  0.00    -0.248 NA
ATOM     46  C   UNL A   1      43.620  26.591  31.078  1.00  0.00     0.031 C 
ATOM     47  C   UNL A   1      39.944  28.411  28.166  1.00  0.00     0.029 A 
ATOM     48  N   UNL A   1      40.130  29.252  30.230  1.00  0.00    -0.354 N 
ATOM     49  C   UNL A   1      43.135  27.781  32.968  1.00  0.00     0.074 A 
ATOM     50  C   UNL A   1      43.936  26.744  32.354  1.00  0.00     0.031 C 
ATOM     51  C   UNL A   1      38.980  29.334  28.314  1.00  0.00     0.029 A 
ATOM     52  C   UNL A   1      39.051  29.886  29.662  1.00  0.00     0.049 A 
ATOM     53  H   UNL A   1      40.443  29.436  31.144  1.00  0.00     0.167 HD
ATOM     54  C   UNL A   1      43.314  28.237  34.230  1.00  0.00     0.037 A 
ATOM     55  C   UNL A   1      38.206  30.799  30.177  1.00  0.00     0.037 A 
ATOM     56  C   UNL A   1      42.524  29.281  34.830  1.00  0.00     0.049 A 
ATOM     57  C   UNL A   1      38.412  31.274  31.589  1.00  0.00     0.074 A 
ATOM     58  C   UNL A   1      42.658  29.852  36.084  1.00  0.00     0.029 A 
ATOM     59  N   UNL A   1      41.446  29.907  34.220  1.00  0.00    -0.354 N 
ATOM     60  N   UNL A   1      39.330  30.919  32.455  1.00  0.00    -0.248 NA
ATOM     61  C   UNL A   1      37.468  32.281  32.093  1.00  0.00     0.031 C 
ATOM     62  C   UNL A   1      41.631  30.785  36.252  1.00  0.00     0.029 A 
ATOM     63  C   UNL A   1      40.891  30.839  35.081  1.00  0.00     0.049 A 
ATOM     64  H   UNL A   1      41.124  29.716  33.309  1.00  0.00     0.167 HD
ATOM     65  C   UNL A   1      39.094  31.679  33.594  1.00  0.00     0.074 A 
ATOM     66  C   UNL A   1      37.954  32.524  33.302  1.00  0.00     0.031 C 
ATOM     67  C   UNL A   1      39.761  31.678  34.774  1.00  0.00     0.037 A 
BRANCH  54  68
ATOM     68  C   UNL A   1      44.406  27.609  35.048  1.00  0.00     0.057 A 
ATOM     69  C   UNL A   1      45.708  28.127  35.068  1.00  0.00     0.134 A 
ATOM     70  C   UNL A   1      44.145  26.493  35.854  1.00  0.00     0.134 A 
ATOM     71  F   UNL A   1      46.029  29.188  34.312  1.00  0.00    -0.206 F 
ATOM     72  C   UNL A   1      46.717  27.542  35.834  1.00  0.00     0.040 A 
ATOM     73  C   UNL A   1      45.138  25.917  36.649  1.00  0.00     0.040 A 
ATOM     74  F   UNL A   1      42.919  25.949  35.891  1.00  0.00    -0.206 F 
ATOM     75  C   UNL A   1      46.431  26.438  36.635  1.00  0.00     0.006 A 
ENDBRANCH  54  68
BRANCH  55  76
ATOM     76  C   UNL A   1      37.096  31.335  29.348  1.00  0.00     0.057 A 
ATOM     77  C   UNL A   1      37.161  32.619  28.794  1.00  0.00     0.134 A 
ATOM     78  C   UNL A   1      35.942  30.582  29.095  1.00  0.00     0.134 A 
ATOM     79  F   UNL A   1      38.233  33.395  29.015  1.00  0.00    -0.206 F 
ATOM     80  C   UNL A   1      36.112  33.145  28.040  1.00  0.00     0.040 A 
ATOM     81  C   UNL A   1      34.897  31.085  28.319  1.00  0.00     0.040 A 
ATOM     82  F   UNL A   1      35.821  29.341  29.587  1.00  0.00    -0.206 F 
ATOM     83  C   UNL A   1      34.977  32.373  27.795  1.00  0.00     0.006 A 
ENDBRANCH  55  76
BRANCH  67  84
ATOM     84  C   UNL A   1      39.301  32.646  35.825  1.00  0.00     0.057 A 
ATOM     85  C   UNL A   1      38.354  32.294  36.796  1.00  0.00     0.134 A 
ATOM     86  C   UNL A   1      39.851  33.933  35.895  1.00  0.00     0.134 A 
ATOM     87  F   UNL A   1      37.780  31.082  36.778  1.00  0.00    -0.206 F 
ATOM     88  C   UNL A   1      37.953  33.196  37.783  1.00  0.00     0.040 A 
ATOM     89  C   UNL A   1      39.481  34.832  36.896  1.00  0.00     0.040 A 
ATOM     90  F   UNL A   1      40.770  34.330  35.003  1.00  0.00    -0.206 F 
ATOM     91  C   UNL A   1      38.524  34.465  37.840  1.00  0.00     0.006 A 
ENDBRANCH  67  84
ENDBRANCH  41  42
ENDBRANCH  33  36
ENDBRANCH  31  32
ENDBRANCH  30  31
ENDBRANCH  29  30
ENDBRANCH  28  29
ENDBRANCH   1  28
TORSDOF 19
ENDMDL
MODEL 3
REMARK VINA RESULT:     -11.0      5.807     10.367
REMARK SMILES COc1ccc(NC(=O)[C@H](CC(=O)NCCCCCCNC(=O)c2ccc(-c3c4nc(c(-c5c(F)cccc5F)c5ccc([nH]5)c(-c5c(F)cccc5F)c5nc(c(-c6c(F)cccc6F)c6ccc3[nH]6)C=C5)C=C4)cc2)Cc2ccccc2)cc1
REMARK SMILES IDX 16 1 15 2 14 3 12 4 13 5 11 7 10 8 8 9 7 10 9 12 6 13 3 14
REMARK SMILES IDX 4 15 86 16 5 17 85 18 2 19 1 20 78 21 79 22 80 23 84 24
REMARK SMILES IDX 81 25 83 26 82 27 17 28 18 29 19 30 20 31 21 32 22 33 23 35
REMARK SMILES IDX 24 36 25 37 77 38 26 39 76 40 27 41 28 42 29 43 70 44 30 45
REMARK SMILES IDX 75 46 69 47 71 48 31 49 74 50 68 51 67 52 32 54 58 55 41 56
REMARK SMILES IDX 57 57 42 58 45 59 56 60 72 61 43 62 44 63 55 65 73 66 46 67
REMARK SMILES IDX 33 68 34 69 39 70 35 71 36 72 38 73 40 74 37 75 59 76 60 77
REMARK SMILES IDX 65 78 61 79 62 80 64 81 66 82 63 83 47 84 48 85 53 86 49 87
REMARK SMILES IDX 50 88 52 89 54 90 51 91
REMARK H PARENT 14 6 7 11 21 34 71 53 45 64
REMARK Flexibility Score: inf
ROOT
ATOM      1  C   UNL A   1      39.246  23.082  26.530  1.00  0.00     0.021 C 
ENDROOT
BRANCH   1   2
ATOM      2  C   UNL A   1      37.878  23.607  26.086  1.00  0.00     0.116 C 
BRANCH   2   3
ATOM      3  N   UNL A   1      37.683  23.428  24.664  1.00  0.00    -0.356 N 
ATOM      4  C   UNL A   1      36.631  22.913  23.975  1.00  0.00     0.220 C 
ATOM      5  O   UNL A   1      36.660  22.972  22.744  1.00  0.00    -0.275 OA
ATOM      6  H   UNL A   1      38.434  23.729  24.103  1.00  0.00     0.163 HD
BRANCH   4   7
ATOM      7  C   UNL A   1      35.400  22.398  24.697  1.00  0.00     0.113 C 
BRANCH   7   8
ATOM      8  C   UNL A   1      34.114  23.242  24.693  1.00  0.00     0.092 C 
BRANCH   8   9
ATOM      9  C   UNL A   1      33.105  22.512  23.821  1.00  0.00     0.228 C 
ATOM     10  N   UNL A   1      32.159  23.166  23.081  1.00  0.00    -0.326 N 
ATOM     11  H   UNL A   1      31.679  22.575  22.457  1.00  0.00     0.169 HD
ATOM     12  O   UNL A   1      33.104  21.277  23.782  1.00  0.00    -0.274 OA
BRANCH  10  13
ATOM     13  C   UNL A   1      31.727  24.505  23.026  1.00  0.00     0.041 A 
ATOM     14  C   UNL A   1      30.860  27.104  22.379  1.00  0.00     0.119 A 
ATOM     15  C   UNL A   1      30.063  26.266  23.148  1.00  0.00     0.048 A 
ATOM     16  C   UNL A   1      32.149  26.697  22.049  1.00  0.00     0.048 A 
ATOM     17  C   UNL A   1      30.515  24.994  23.505  1.00  0.00     0.030 A 
ATOM     18  C   UNL A   1      32.578  25.403  22.372  1.00  0.00     0.030 A 
BRANCH  14  19
ATOM     19  O   UNL A   1      30.296  28.304  22.051  1.00  0.00    -0.497 OA
ATOM     20  C   UNL A   1      30.021  29.164  23.151  1.00  0.00     0.278 C 
ENDBRANCH  14  19
ENDBRANCH  10  13
ENDBRANCH   8   9
BRANCH   8  21
ATOM     21  C   UNL A   1      33.447  23.699  26.000  1.00  0.00     0.049 C 
BRANCH  21  22
ATOM     22  C   UNL A   1      33.064  25.173  26.134  1.00  0.00    -0.047 A 
ATOM     23  C   UNL A   1      31.810  25.621  26.575  1.00  0.00     0.004 A 
ATOM     24  C   UNL A   1      33.984  26.149  25.716  1.00  0.00     0.004 A 
ATOM     25  C   UNL A   1      31.438  26.965  26.488  1.00  0.00     0.000 A 
ATOM     26  C   UNL A   1      33.632  27.504  25.677  1.00  0.00     0.000 A 
ATOM     27  C   UNL A   1      32.347  27.907  26.029  1.00  0.00     0.000 A 
ENDBRANCH  21  22
ENDBRANCH   8  21
ENDBRANCH   7   8
ENDBRANCH   4   7
ENDBRANCH   2   3
ENDBRANCH   1   2
BRANCH   1  28
ATOM     28  C   UNL A   1      39.506  21.649  26.076  1.00  0.00     0.002 C 
BRANCH  28  29
ATOM     29  C   UNL A   1      40.852  21.081  26.538  1.00  0.00     0.002 C 
BRANCH  29  30
ATOM     30  C   UNL A   1      41.149  19.647  26.092  1.00  0.00     0.021 C 
BRANCH  30  31
ATOM     31  C   UNL A   1      42.487  19.083  26.561  1.00  0.00     0.116 C 
BRANCH  31  32
ATOM     32  N   UNL A   1      43.352  18.728  25.445  1.00  0.00    -0.352 N 
ATOM     33  C   UNL A   1      44.124  19.518  24.639  1.00  0.00     0.251 C 
ATOM     34  H   UNL A   1      43.384  17.767  25.236  1.00  0.00     0.163 HD
ATOM     35  O   UNL A   1      44.606  19.055  23.603  1.00  0.00    -0.269 OA
BRANCH  33  36
ATOM     36  C   UNL A   1      44.382  20.925  24.999  1.00  0.00     0.039 A 
ATOM     37  C   UNL A   1      43.850  21.936  24.195  1.00  0.00     0.014 A 
ATOM     38  C   UNL A   1      45.172  21.248  26.106  1.00  0.00     0.014 A 
ATOM     39  C   UNL A   1      44.065  23.274  24.534  1.00  0.00     0.010 A 
ATOM     40  C   UNL A   1      45.322  22.577  26.485  1.00  0.00     0.010 A 
ATOM     41  C   UNL A   1      44.775  23.604  25.700  1.00  0.00    -0.014 A 
BRANCH  41  42
ATOM     42  C   UNL A   1      44.957  25.016  26.114  1.00  0.00     0.031 A 
ATOM     43  C   UNL A   1      46.313  25.660  26.032  1.00  0.00     0.074 A 
ATOM     44  C   UNL A   1      43.913  25.699  26.624  1.00  0.00     0.049 A 
ATOM     45  N   UNL A   1      46.686  26.854  26.418  1.00  0.00    -0.248 NA
ATOM     46  C   UNL A   1      47.400  24.845  25.468  1.00  0.00     0.031 C 
ATOM     47  C   UNL A   1      42.557  25.169  26.792  1.00  0.00     0.029 A 
ATOM     48  N   UNL A   1      43.830  26.981  27.106  1.00  0.00    -0.354 N 
ATOM     49  C   UNL A   1      48.048  26.928  26.154  1.00  0.00     0.074 A 
ATOM     50  C   UNL A   1      48.447  25.640  25.629  1.00  0.00     0.031 C 
ATOM     51  C   UNL A   1      41.776  26.124  27.320  1.00  0.00     0.029 A 
ATOM     52  C   UNL A   1      42.580  27.316  27.567  1.00  0.00     0.049 A 
ATOM     53  H   UNL A   1      44.594  27.600  27.121  1.00  0.00     0.167 HD
ATOM     54  C   UNL A   1      48.884  27.981  26.313  1.00  0.00     0.037 A 
ATOM     55  C   UNL A   1      42.136  28.451  28.138  1.00  0.00     0.037 A 
ATOM     56  C   UNL A   1      48.477  29.265  26.820  1.00  0.00     0.049 A 
ATOM     57  C   UNL A   1      43.090  29.599  28.324  1.00  0.00     0.074 A 
ATOM     58  C   UNL A   1      49.236  30.413  26.970  1.00  0.00     0.029 A 
ATOM     59  N   UNL A   1      47.200  29.570  27.267  1.00  0.00    -0.354 N 
ATOM     60  N   UNL A   1      44.361  29.678  28.008  1.00  0.00    -0.248 NA
ATOM     61  C   UNL A   1      42.548  30.819  28.939  1.00  0.00     0.031 C 
ATOM     62  C   UNL A   1      48.432  31.396  27.556  1.00  0.00     0.029 A 
ATOM     63  C   UNL A   1      47.155  30.879  27.716  1.00  0.00     0.049 A 
ATOM     64  H   UNL A   1      46.437  28.947  27.264  1.00  0.00     0.167 HD
ATOM     65  C   UNL A   1      44.762  30.961  28.358  1.00  0.00     0.074 A 
ATOM     66  C   UNL A   1      43.595  31.630  28.897  1.00  0.00     0.031 C 
ATOM     67  C   UNL A   1      45.985  31.534  28.243  1.00  0.00     0.037 A 
BRANCH  54  68
ATOM     68  C   UNL A   1      50.325  27.787  25.934  1.00  0.00     0.057 A 
ATOM     69  C   UNL A   1      50.760  27.879  24.605  1.00  0.00     0.134 A 
ATOM     70  C   UNL A   1      51.295  27.538  26.913  1.00  0.00     0.134 A 
ATOM     71  F   UNL A   1      49.882  28.105  23.616  1.00  0.00    -0.206 F 
ATOM     72  C   UNL A   1      52.101  27.703  24.260  1.00  0.00     0.040 A 
ATOM     73  C   UNL A   1      52.645  27.391  26.585  1.00  0.00     0.040 A 
ATOM     74  F   UNL A   1      50.951  27.445  28.207  1.00  0.00    -0.206 F 
ATOM     75  C   UNL A   1      53.049  27.466  25.254  1.00  0.00     0.006 A 
ENDBRANCH  54  68
BRANCH  55  76
ATOM     76  C   UNL A   1      40.718  28.566  28.561  1.00  0.00     0.057 A 
ATOM     77  C   UNL A   1      39.729  29.002  27.672  1.00  0.00     0.134 A 
ATOM     78  C   UNL A   1      40.316  28.250  29.866  1.00  0.00     0.134 A 
ATOM     79  F   UNL A   1      40.054  29.336  26.414  1.00  0.00    -0.206 F 
ATOM     80  C   UNL A   1      38.398  29.142  28.067  1.00  0.00     0.040 A 
ATOM     81  C   UNL A   1      38.984  28.358  30.267  1.00  0.00     0.040 A 
ATOM     82  F   UNL A   1      41.212  27.816  30.765  1.00  0.00    -0.206 F 
ATOM     83  C   UNL A   1      38.022  28.814  29.369  1.00  0.00     0.006 A 
ENDBRANCH  55  76
BRANCH  67  84
ATOM     84  C   UNL A   1      46.117  32.967  28.671  1.00  0.00     0.057 A 
ATOM     85  C   UNL A   1      46.500  33.321  29.971  1.00  0.00     0.134 A 
ATOM     86  C   UNL A   1      45.904  34.005  27.754  1.00  0.00     0.134 A 
ATOM     87  F   UNL A   1      46.706  32.377  30.901  1.00  0.00    -0.206 F 
ATOM     88  C   UNL A   1      46.643  34.658  30.349  1.00  0.00     0.040 A 
ATOM     89  C   UNL A   1      46.074  35.342  28.112  1.00  0.00     0.040 A 
ATOM     90  F   UNL A   1      45.546  33.734  26.490  1.00  0.00    -0.206 F 
ATOM     91  C   UNL A   1      46.438  35.671  29.416  1.00  0.00     0.006 A 
ENDBRANCH  67  84
ENDBRANCH  41  42
ENDBRANCH  33  36
ENDBRANCH  31  32
ENDBRANCH  30  31
ENDBRANCH  29  30
ENDBRANCH  28  29
ENDBRANCH   1  28
TORSDOF 19
ENDMDL
