MODEL 1
REMARK VINA RESULT:     -12.3      0.000      0.000
REMARK SMILES Cc1nc(-c2cccc(N3C[C@H](C(=O)NCCCCCCNC(=O)c4ccc(-c5c6nc(c(-c7c(F)cccc7F)c7ccc([nH]7)c(-c7c(F)cccc7F)c7nc(c(-c8c(F)cccc8F)c8ccc5[nH]8)C=C7)C=C6)cc4)CC3=O)c2)no1
REMARK SMILES IDX 18 1 17 2 16 3 15 4 13 5 14 6 12 8 10 9 11 10 80 11 79 12
REMARK SMILES IDX 81 13 9 14 5 15 6 16 82 17 7 18 8 19 4 20 1 21 2 22 3 23
REMARK SMILES IDX 84 24 83 25 19 26 20 27 21 28 22 29 23 30 24 32 25 33 26 34
REMARK SMILES IDX 78 35 27 36 77 37 28 38 29 39 30 40 71 41 31 42 76 43 70 44
REMARK SMILES IDX 72 45 32 46 75 47 69 48 68 49 33 51 59 52 42 53 58 54 43 55
REMARK SMILES IDX 46 56 57 57 73 58 44 59 45 60 56 62 74 63 47 64 34 65 35 66
REMARK SMILES IDX 40 67 36 68 37 69 39 70 41 71 38 72 60 73 61 74 66 75 62 76
REMARK SMILES IDX 63 77 65 78 67 79 64 80 48 81 49 82 54 83 50 84 51 85 53 86
REMARK SMILES IDX 55 87 52 88
REMARK H PARENT 15 7 22 31 72 50 46 61
REMARK Flexibility Score: inf
ROOT
ATOM      1  C   UNL A   1      31.411  29.232  25.192  1.00  0.00     0.002 C 
ENDROOT
BRANCH   1   2
ATOM      2  C   UNL A   1      30.600  29.394  23.899  1.00  0.00     0.021 C 
BRANCH   2   3
ATOM      3  C   UNL A   1      30.480  28.106  23.084  1.00  0.00     0.116 C 
BRANCH   3   4
ATOM      4  N   UNL A   1      30.439  26.953  23.965  1.00  0.00    -0.356 N 
ATOM      5  C   UNL A   1      31.299  25.901  24.063  1.00  0.00     0.225 C 
ATOM      6  O   UNL A   1      30.961  24.927  24.733  1.00  0.00    -0.275 OA
ATOM      7  H   UNL A   1      29.674  26.929  24.585  1.00  0.00     0.163 HD
BRANCH   5   8
ATOM      8  C   UNL A   1      32.672  26.028  23.441  1.00  0.00     0.107 C 
ATOM      9  N   UNL A   1      33.775  23.959  23.438  1.00  0.00    -0.312 N 
ATOM     10  C   UNL A   1      33.618  25.145  24.238  1.00  0.00     0.139 C 
ATOM     11  C   UNL A   1      33.336  24.134  22.128  1.00  0.00     0.227 C 
ATOM     12  C   UNL A   1      32.735  25.507  22.011  1.00  0.00     0.116 C 
ATOM     13  O   UNL A   1      33.419  23.351  21.192  1.00  0.00    -0.274 OA
BRANCH   9  14
ATOM     14  C   UNL A   1      34.434  22.809  23.908  1.00  0.00     0.044 A 
ATOM     15  C   UNL A   1      34.340  20.502  24.666  1.00  0.00     0.025 A 
ATOM     16  C   UNL A   1      35.713  20.537  24.931  1.00  0.00     0.012 A 
ATOM     17  C   UNL A   1      33.704  21.650  24.180  1.00  0.00     0.038 A 
ATOM     18  C   UNL A   1      36.450  21.691  24.660  1.00  0.00     0.003 A 
ATOM     19  C   UNL A   1      35.816  22.816  24.124  1.00  0.00     0.026 A 
BRANCH  15  20
ATOM     20  C   UNL A   1      33.575  19.281  24.838  1.00  0.00     0.202 A 
ATOM     21  C   UNL A   1      33.120  15.759  24.906  1.00  0.00     0.114 C 
ATOM     22  C   UNL A   1      33.153  17.230  24.904  1.00  0.00     0.223 A 
ATOM     23  N   UNL A   1      34.126  18.044  24.575  1.00  0.00    -0.191 NA
ATOM     24  O   UNL A   1      32.028  17.873  25.328  1.00  0.00    -0.339 OA
ATOM     25  N   UNL A   1      32.317  19.238  25.303  1.00  0.00    -0.057 NA
ENDBRANCH  15  20
ENDBRANCH   9  14
ENDBRANCH   5   8
ENDBRANCH   3   4
ENDBRANCH   2   3
ENDBRANCH   1   2
BRANCH   1  26
ATOM     26  C   UNL A   1      32.904  29.553  25.062  1.00  0.00     0.002 C 
BRANCH  26  27
ATOM     27  C   UNL A   1      33.837  28.555  25.749  1.00  0.00     0.021 C 
BRANCH  27  28
ATOM     28  C   UNL A   1      33.855  28.659  27.268  1.00  0.00     0.116 C 
BRANCH  28  29
ATOM     29  N   UNL A   1      33.796  30.039  27.723  1.00  0.00    -0.352 N 
ATOM     30  C   UNL A   1      34.741  30.766  28.404  1.00  0.00     0.251 C 
ATOM     31  H   UNL A   1      32.962  30.518  27.514  1.00  0.00     0.163 HD
ATOM     32  O   UNL A   1      34.460  31.859  28.882  1.00  0.00    -0.269 OA
BRANCH  30  33
ATOM     33  C   UNL A   1      36.099  30.210  28.576  1.00  0.00     0.039 A 
ATOM     34  C   UNL A   1      36.995  30.262  27.505  1.00  0.00     0.014 A 
ATOM     35  C   UNL A   1      36.488  29.647  29.794  1.00  0.00     0.014 A 
ATOM     36  C   UNL A   1      38.301  29.799  27.676  1.00  0.00     0.010 A 
ATOM     37  C   UNL A   1      37.809  29.262  29.987  1.00  0.00     0.010 A 
ATOM     38  C   UNL A   1      38.728  29.325  28.927  1.00  0.00    -0.014 A 
BRANCH  38  39
ATOM     39  C   UNL A   1      40.122  28.869  29.151  1.00  0.00     0.031 A 
ATOM     40  C   UNL A   1      41.129  29.809  29.755  1.00  0.00     0.074 A 
ATOM     41  C   UNL A   1      40.503  27.643  28.744  1.00  0.00     0.049 A 
ATOM     42  N   UNL A   1      42.415  29.642  29.935  1.00  0.00    -0.248 NA
ATOM     43  C   UNL A   1      40.627  31.123  30.186  1.00  0.00     0.031 C 
ATOM     44  C   UNL A   1      39.631  26.651  28.111  1.00  0.00     0.029 A 
ATOM     45  N   UNL A   1      41.728  27.027  28.788  1.00  0.00    -0.354 N 
ATOM     46  C   UNL A   1      42.876  30.833  30.481  1.00  0.00     0.074 A 
ATOM     47  C   UNL A   1      41.746  31.733  30.548  1.00  0.00     0.031 C 
ATOM     48  C   UNL A   1      40.345  25.546  27.842  1.00  0.00     0.029 A 
ATOM     49  C   UNL A   1      41.731  25.766  28.243  1.00  0.00     0.049 A 
ATOM     50  H   UNL A   1      42.530  27.449  29.174  1.00  0.00     0.167 HD
ATOM     51  C   UNL A   1      44.123  31.142  30.909  1.00  0.00     0.037 A 
ATOM     52  C   UNL A   1      42.740  24.891  28.073  1.00  0.00     0.037 A 
ATOM     53  C   UNL A   1      45.240  30.236  30.859  1.00  0.00     0.049 A 
ATOM     54  C   UNL A   1      44.122  25.262  28.538  1.00  0.00     0.074 A 
ATOM     55  C   UNL A   1      46.530  30.433  31.317  1.00  0.00     0.029 A 
ATOM     56  N   UNL A   1      45.198  28.960  30.315  1.00  0.00    -0.354 N 
ATOM     57  N   UNL A   1      44.533  26.370  29.107  1.00  0.00    -0.248 NA
ATOM     58  C   UNL A   1      45.180  24.261  28.344  1.00  0.00     0.031 C 
ATOM     59  C   UNL A   1      47.283  29.297  31.001  1.00  0.00     0.029 A 
ATOM     60  C   UNL A   1      46.448  28.369  30.403  1.00  0.00     0.049 A 
ATOM     61  H   UNL A   1      44.400  28.539  29.925  1.00  0.00     0.167 HD
ATOM     62  C   UNL A   1      45.885  26.185  29.370  1.00  0.00     0.074 A 
ATOM     63  C   UNL A   1      46.222  24.856  28.905  1.00  0.00     0.031 C 
ATOM     64  C   UNL A   1      46.766  27.039  29.947  1.00  0.00     0.037 A 
BRANCH  51  65
ATOM     65  C   UNL A   1      44.342  32.521  31.461  1.00  0.00     0.057 A 
ATOM     66  C   UNL A   1      44.734  33.594  30.647  1.00  0.00     0.134 A 
ATOM     67  C   UNL A   1      44.138  32.788  32.821  1.00  0.00     0.134 A 
ATOM     68  F   UNL A   1      44.958  33.407  29.337  1.00  0.00    -0.206 F 
ATOM     69  C   UNL A   1      44.948  34.870  31.171  1.00  0.00     0.040 A 
ATOM     70  C   UNL A   1      44.317  34.067  33.350  1.00  0.00     0.040 A 
ATOM     71  F   UNL A   1      43.755  31.811  33.657  1.00  0.00    -0.206 F 
ATOM     72  C   UNL A   1      44.734  35.110  32.526  1.00  0.00     0.006 A 
ENDBRANCH  51  65
BRANCH  52  73
ATOM     73  C   UNL A   1      42.480  23.568  27.450  1.00  0.00     0.057 A 
ATOM     74  C   UNL A   1      42.570  23.394  26.063  1.00  0.00     0.134 A 
ATOM     75  C   UNL A   1      42.133  22.452  28.218  1.00  0.00     0.134 A 
ATOM     76  F   UNL A   1      42.882  24.431  25.271  1.00  0.00    -0.206 F 
ATOM     77  C   UNL A   1      42.306  22.163  25.462  1.00  0.00     0.040 A 
ATOM     78  C   UNL A   1      41.891  21.207  27.632  1.00  0.00     0.040 A 
ATOM     79  F   UNL A   1      42.038  22.549  29.552  1.00  0.00    -0.206 F 
ATOM     80  C   UNL A   1      41.970  21.063  26.248  1.00  0.00     0.006 A 
ENDBRANCH  52  73
BRANCH  64  81
ATOM     81  C   UNL A   1      48.169  26.547  30.156  1.00  0.00     0.057 A 
ATOM     82  C   UNL A   1      48.552  25.854  31.311  1.00  0.00     0.134 A 
ATOM     83  C   UNL A   1      49.139  26.728  29.160  1.00  0.00     0.134 A 
ATOM     84  F   UNL A   1      47.676  25.657  32.308  1.00  0.00    -0.206 F 
ATOM     85  C   UNL A   1      49.854  25.378  31.479  1.00  0.00     0.040 A 
ATOM     86  C   UNL A   1      50.435  26.232  29.303  1.00  0.00     0.040 A 
ATOM     87  F   UNL A   1      48.836  27.375  28.025  1.00  0.00    -0.206 F 
ATOM     88  C   UNL A   1      50.797  25.559  30.468  1.00  0.00     0.006 A 
ENDBRANCH  64  81
ENDBRANCH  38  39
ENDBRANCH  30  33
ENDBRANCH  28  29
ENDBRANCH  27  28
ENDBRANCH  26  27
ENDBRANCH   1  26
TORSDOF 15
ENDMDL
MODEL 2
REMARK VINA RESULT:     -12.1      2.741      8.240
REMARK SMILES Cc1nc(-c2cccc(N3C[C@H](C(=O)NCCCCCCNC(=O)c4ccc(-c5c6nc(c(-c7c(F)cccc7F)c7ccc([nH]7)c(-c7c(F)cccc7F)c7nc(c(-c8c(F)cccc8F)c8ccc5[nH]8)C=C7)C=C6)cc4)CC3=O)c2)no1
REMARK SMILES IDX 18 1 17 2 16 3 15 4 13 5 14 6 12 8 10 9 11 10 80 11 79 12
REMARK SMILES IDX 81 13 9 14 5 15 6 16 82 17 7 18 8 19 4 20 1 21 2 22 3 23
REMARK SMILES IDX 84 24 83 25 19 26 20 27 21 28 22 29 23 30 24 32 25 33 26 34
REMARK SMILES IDX 78 35 27 36 77 37 28 38 29 39 30 40 71 41 31 42 76 43 70 44
REMARK SMILES IDX 72 45 32 46 75 47 69 48 68 49 33 51 59 52 42 53 58 54 43 55
REMARK SMILES IDX 46 56 57 57 73 58 44 59 45 60 56 62 74 63 47 64 34 65 35 66
REMARK SMILES IDX 40 67 36 68 37 69 39 70 41 71 38 72 60 73 61 74 66 75 62 76
REMARK SMILES IDX 63 77 65 78 67 79 64 80 48 81 49 82 54 83 50 84 51 85 53 86
REMARK SMILES IDX 55 87 52 88
REMARK H PARENT 15 7 22 31 72 50 46 61
REMARK Flexibility Score: inf
ROOT
ATOM      1  C   UNL A   1      35.582  20.483  24.950  1.00  0.00     0.002 C 
ENDROOT
BRANCH   1   2
ATOM      2  C   UNL A   1      34.580  21.465  24.329  1.00  0.00     0.021 C 
BRANCH   2   3
ATOM      3  C   UNL A   1      33.167  20.896  24.191  1.00  0.00     0.116 C 
BRANCH   3   4
ATOM      4  N   UNL A   1      32.304  21.846  23.511  1.00  0.00    -0.356 N 
ATOM      5  C   UNL A   1      31.548  22.857  24.024  1.00  0.00     0.225 C 
ATOM      6  O   UNL A   1      30.728  23.407  23.292  1.00  0.00    -0.275 OA
ATOM      7  H   UNL A   1      32.261  21.744  22.533  1.00  0.00     0.163 HD
BRANCH   5   8
ATOM      8  C   UNL A   1      31.831  23.330  25.433  1.00  0.00     0.107 C 
ATOM      9  N   UNL A   1      31.247  25.587  25.681  1.00  0.00    -0.312 N 
ATOM     10  C   UNL A   1      32.366  24.749  25.339  1.00  0.00     0.139 C 
ATOM     11  C   UNL A   1      30.215  24.880  26.294  1.00  0.00     0.227 C 
ATOM     12  C   UNL A   1      30.582  23.421  26.300  1.00  0.00     0.116 C 
ATOM     13  O   UNL A   1      29.181  25.318  26.778  1.00  0.00    -0.274 OA
BRANCH   9  14
ATOM     14  C   UNL A   1      31.274  26.986  25.537  1.00  0.00     0.044 A 
ATOM     15  C   UNL A   1      30.684  28.974  24.270  1.00  0.00     0.025 A 
ATOM     16  C   UNL A   1      31.394  29.761  25.181  1.00  0.00     0.012 A 
ATOM     17  C   UNL A   1      30.651  27.585  24.440  1.00  0.00     0.038 A 
ATOM     18  C   UNL A   1      32.018  29.170  26.281  1.00  0.00     0.003 A 
ATOM     19  C   UNL A   1      31.935  27.788  26.473  1.00  0.00     0.026 A 
BRANCH  15  20
ATOM     20  C   UNL A   1      29.938  29.576  23.181  1.00  0.00     0.202 A 
ATOM     21  C   UNL A   1      28.044  32.144  21.620  1.00  0.00     0.114 C 
ATOM     22  C   UNL A   1      28.803  30.994  22.136  1.00  0.00     0.223 A 
ATOM     23  N   UNL A   1      29.287  30.782  23.336  1.00  0.00    -0.191 NA
ATOM     24  O   UNL A   1      29.084  29.994  21.254  1.00  0.00    -0.339 OA
ATOM     25  N   UNL A   1      29.858  29.060  21.944  1.00  0.00    -0.057 NA
ENDBRANCH  15  20
ENDBRANCH   9  14
ENDBRANCH   5   8
ENDBRANCH   3   4
ENDBRANCH   2   3
ENDBRANCH   1   2
BRANCH   1  26
ATOM     26  C   UNL A   1      37.047  20.926  24.881  1.00  0.00     0.002 C 
BRANCH  26  27
ATOM     27  C   UNL A   1      38.067  19.799  25.050  1.00  0.00     0.021 C 
BRANCH  27  28
ATOM     28  C   UNL A   1      39.237  20.145  25.962  1.00  0.00     0.116 C 
BRANCH  28  29
ATOM     29  N   UNL A   1      40.249  19.101  25.975  1.00  0.00    -0.352 N 
ATOM     30  C   UNL A   1      41.612  19.220  26.079  1.00  0.00     0.251 C 
ATOM     31  H   UNL A   1      39.908  18.180  25.898  1.00  0.00     0.163 HD
ATOM     32  O   UNL A   1      42.339  18.253  25.882  1.00  0.00    -0.269 OA
BRANCH  30  33
ATOM     33  C   UNL A   1      42.202  20.533  26.412  1.00  0.00     0.039 A 
ATOM     34  C   UNL A   1      42.580  21.391  25.376  1.00  0.00     0.014 A 
ATOM     35  C   UNL A   1      42.374  20.918  27.745  1.00  0.00     0.014 A 
ATOM     36  C   UNL A   1      43.078  22.660  25.679  1.00  0.00     0.010 A 
ATOM     37  C   UNL A   1      42.794  22.209  28.042  1.00  0.00     0.010 A 
ATOM     38  C   UNL A   1      43.159  23.091  27.013  1.00  0.00    -0.014 A 
BRANCH  38  39
ATOM     39  C   UNL A   1      43.642  24.450  27.363  1.00  0.00     0.031 A 
ATOM     40  C   UNL A   1      42.656  25.516  27.755  1.00  0.00     0.074 A 
ATOM     41  C   UNL A   1      44.951  24.747  27.255  1.00  0.00     0.049 A 
ATOM     42  N   UNL A   1      42.861  26.787  27.993  1.00  0.00    -0.248 NA
ATOM     43  C   UNL A   1      41.248  25.104  27.863  1.00  0.00     0.031 C 
ATOM     44  C   UNL A   1      46.002  23.812  26.849  1.00  0.00     0.029 A 
ATOM     45  N   UNL A   1      45.619  25.928  27.463  1.00  0.00    -0.354 N 
ATOM     46  C   UNL A   1      41.609  27.326  28.260  1.00  0.00     0.074 A 
ATOM     47  C   UNL A   1      40.645  26.260  28.097  1.00  0.00     0.031 C 
ATOM     48  C   UNL A   1      47.184  24.450  26.855  1.00  0.00     0.029 A 
ATOM     49  C   UNL A   1      46.969  25.847  27.221  1.00  0.00     0.049 A 
ATOM     50  H   UNL A   1      45.173  26.755  27.758  1.00  0.00     0.167 HD
ATOM     51  C   UNL A   1      41.293  28.590  28.630  1.00  0.00     0.037 A 
ATOM     52  C   UNL A   1      47.924  26.794  27.276  1.00  0.00     0.037 A 
ATOM     53  C   UNL A   1      42.257  29.642  28.811  1.00  0.00     0.049 A 
ATOM     54  C   UNL A   1      47.547  28.196  27.671  1.00  0.00     0.074 A 
ATOM     55  C   UNL A   1      42.045  30.941  29.237  1.00  0.00     0.029 A 
ATOM     56  N   UNL A   1      43.619  29.515  28.574  1.00  0.00    -0.354 N 
ATOM     57  N   UNL A   1      46.367  28.680  27.979  1.00  0.00    -0.248 NA
ATOM     58  C   UNL A   1      48.634  29.184  27.732  1.00  0.00     0.031 C 
ATOM     59  C   UNL A   1      43.270  31.616  29.205  1.00  0.00     0.029 A 
ATOM     60  C   UNL A   1      44.255  30.721  28.819  1.00  0.00     0.049 A 
ATOM     61  H   UNL A   1      44.065  28.691  28.275  1.00  0.00     0.167 HD
ATOM     62  C   UNL A   1      46.575  30.015  28.303  1.00  0.00     0.074 A 
ATOM     63  C   UNL A   1      47.994  30.262  28.163  1.00  0.00     0.031 C 
ATOM     64  C   UNL A   1      45.671  30.950  28.687  1.00  0.00     0.037 A 
BRANCH  51  65
ATOM     65  C   UNL A   1      39.841  28.900  28.856  1.00  0.00     0.057 A 
ATOM     66  C   UNL A   1      38.985  29.256  27.803  1.00  0.00     0.134 A 
ATOM     67  C   UNL A   1      39.283  28.821  30.139  1.00  0.00     0.134 A 
ATOM     68  F   UNL A   1      39.455  29.363  26.551  1.00  0.00    -0.206 F 
ATOM     69  C   UNL A   1      37.640  29.557  28.024  1.00  0.00     0.040 A 
ATOM     70  C   UNL A   1      37.932  29.087  30.366  1.00  0.00     0.040 A 
ATOM     71  F   UNL A   1      40.042  28.479  31.191  1.00  0.00    -0.206 F 
ATOM     72  C   UNL A   1      37.108  29.466  29.309  1.00  0.00     0.006 A 
ENDBRANCH  51  65
BRANCH  52  73
ATOM     73  C   UNL A   1      49.334  26.446  26.968  1.00  0.00     0.057 A 
ATOM     74  C   UNL A   1      50.252  26.180  27.991  1.00  0.00     0.134 A 
ATOM     75  C   UNL A   1      49.800  26.374  25.651  1.00  0.00     0.134 A 
ATOM     76  F   UNL A   1      49.870  26.250  29.276  1.00  0.00    -0.206 F 
ATOM     77  C   UNL A   1      51.586  25.875  27.717  1.00  0.00     0.040 A 
ATOM     78  C   UNL A   1      51.126  26.044  25.360  1.00  0.00     0.040 A 
ATOM     79  F   UNL A   1      48.970  26.610  24.623  1.00  0.00    -0.206 F 
ATOM     80  C   UNL A   1      52.025  25.800  26.397  1.00  0.00     0.006 A 
ENDBRANCH  52  73
BRANCH  64  81
ATOM     81  C   UNL A   1      46.193  32.315  29.030  1.00  0.00     0.057 A 
ATOM     82  C   UNL A   1      46.634  32.642  30.319  1.00  0.00     0.134 A 
ATOM     83  C   UNL A   1      46.301  33.302  28.040  1.00  0.00     0.134 A 
ATOM     84  F   UNL A   1      46.547  31.748  31.315  1.00  0.00    -0.206 F 
ATOM     85  C   UNL A   1      47.142  33.908  30.616  1.00  0.00     0.040 A 
ATOM     86  C   UNL A   1      46.835  34.561  28.318  1.00  0.00     0.040 A 
ATOM     87  F   UNL A   1      45.905  33.052  26.784  1.00  0.00    -0.206 F 
ATOM     88  C   UNL A   1      47.253  34.869  29.611  1.00  0.00     0.006 A 
ENDBRANCH  64  81
ENDBRANCH  38  39
ENDBRANCH  30  33
ENDBRANCH  28  29
ENDBRANCH  27  28
ENDBRANCH  26  27
ENDBRANCH   1  26
TORSDOF 15
ENDMDL
MODEL 3
REMARK VINA RESULT:     -12.0      3.555      7.205
REMARK SMILES Cc1nc(-c2cccc(N3C[C@H](C(=O)NCCCCCCNC(=O)c4ccc(-c5c6nc(c(-c7c(F)cccc7F)c7ccc([nH]7)c(-c7c(F)cccc7F)c7nc(c(-c8c(F)cccc8F)c8ccc5[nH]8)C=C7)C=C6)cc4)CC3=O)c2)no1
REMARK SMILES IDX 18 1 17 2 16 3 15 4 13 5 14 6 12 8 10 9 11 10 80 11 79 12
REMARK SMILES IDX 81 13 9 14 5 15 6 16 82 17 7 18 8 19 4 20 1 21 2 22 3 23
REMARK SMILES IDX 84 24 83 25 19 26 20 27 21 28 22 29 23 30 24 32 25 33 26 34
REMARK SMILES IDX 78 35 27 36 77 37 28 38 29 39 30 40 71 41 31 42 76 43 70 44
REMARK SMILES IDX 72 45 32 46 75 47 69 48 68 49 33 51 59 52 42 53 58 54 43 55
REMARK SMILES IDX 46 56 57 57 73 58 44 59 45 60 56 62 74 63 47 64 34 65 35 66
REMARK SMILES IDX 40 67 36 68 37 69 39 70 41 71 38 72 60 73 61 74 66 75 62 76
REMARK SMILES IDX 63 77 65 78 67 79 64 80 48 81 49 82 54 83 50 84 51 85 53 86
REMARK SMILES IDX 55 87 52 88
REMARK H PARENT 15 7 22 31 72 50 46 61
REMARK Flexibility Score: inf
ROOT
ATOM      1  C   UNL A   1      32.470  30.077  26.257  1.00  0.00     0.002 C 
ENDROOT
BRANCH   1   2
ATOM      2  C   UNL A   1      32.095  28.929  27.204  1.00  0.00     0.021 C 
BRANCH   2   3
ATOM      3  C   UNL A   1      32.828  27.620  26.902  1.00  0.00     0.116 C 
BRANCH   3   4
ATOM      4  N   UNL A   1      31.938  26.686  26.236  1.00  0.00    -0.356 N 
ATOM      5  C   UNL A   1      32.018  26.148  24.986  1.00  0.00     0.225 C 
ATOM      6  O   UNL A   1      31.045  25.541  24.545  1.00  0.00    -0.275 OA
ATOM      7  H   UNL A   1      31.161  26.398  26.768  1.00  0.00     0.163 HD
BRANCH   5   8
ATOM      8  C   UNL A   1      33.337  26.222  24.249  1.00  0.00     0.107 C 
ATOM      9  N   UNL A   1      34.256  24.083  23.977  1.00  0.00    -0.312 N 
ATOM     10  C   UNL A   1      34.271  25.204  24.880  1.00  0.00     0.139 C 
ATOM     11  C   UNL A   1      33.720  24.405  22.732  1.00  0.00     0.227 C 
ATOM     12  C   UNL A   1      33.230  25.825  22.783  1.00  0.00     0.116 C 
ATOM     13  O   UNL A   1      33.654  23.702  21.733  1.00  0.00    -0.274 OA
BRANCH   9  14
ATOM     14  C   UNL A   1      34.855  22.849  24.289  1.00  0.00     0.044 A 
ATOM     15  C   UNL A   1      34.633  20.491  24.835  1.00  0.00     0.025 A 
ATOM     16  C   UNL A   1      36.020  20.404  25.001  1.00  0.00     0.012 A 
ATOM     17  C   UNL A   1      34.057  21.723  24.505  1.00  0.00     0.038 A 
ATOM     18  C   UNL A   1      36.824  21.525  24.785  1.00  0.00     0.003 A 
ATOM     19  C   UNL A   1      36.244  22.738  24.403  1.00  0.00     0.026 A 
BRANCH  15  20
ATOM     20  C   UNL A   1      33.790  19.316  24.948  1.00  0.00     0.202 A 
ATOM     21  C   UNL A   1      33.105  15.832  24.847  1.00  0.00     0.114 C 
ATOM     22  C   UNL A   1      33.234  17.297  24.916  1.00  0.00     0.223 A 
ATOM     23  N   UNL A   1      34.259  18.061  24.626  1.00  0.00    -0.191 NA
ATOM     24  O   UNL A   1      32.152  17.991  25.371  1.00  0.00    -0.339 OA
ATOM     25  N   UNL A   1      32.530  19.333  25.412  1.00  0.00    -0.057 NA
ENDBRANCH  15  20
ENDBRANCH   9  14
ENDBRANCH   5   8
ENDBRANCH   3   4
ENDBRANCH   2   3
ENDBRANCH   1   2
BRANCH   1  26
ATOM     26  C   UNL A   1      31.297  30.963  25.822  1.00  0.00     0.002 C 
BRANCH  26  27
ATOM     27  C   UNL A   1      31.251  32.338  26.489  1.00  0.00     0.021 C 
BRANCH  27  28
ATOM     28  C   UNL A   1      32.534  32.728  27.211  1.00  0.00     0.116 C 
BRANCH  28  29
ATOM     29  N   UNL A   1      32.506  34.106  27.672  1.00  0.00    -0.352 N 
ATOM     30  C   UNL A   1      33.277  34.711  28.634  1.00  0.00     0.251 C 
ATOM     31  H   UNL A   1      31.842  34.686  27.235  1.00  0.00     0.163 HD
ATOM     32  O   UNL A   1      32.998  35.834  29.039  1.00  0.00    -0.269 OA
BRANCH  30  33
ATOM     33  C   UNL A   1      34.438  33.989  29.194  1.00  0.00     0.039 A 
ATOM     34  C   UNL A   1      35.721  34.314  28.746  1.00  0.00     0.014 A 
ATOM     35  C   UNL A   1      34.259  33.000  30.164  1.00  0.00     0.014 A 
ATOM     36  C   UNL A   1      36.830  33.685  29.315  1.00  0.00     0.010 A 
ATOM     37  C   UNL A   1      35.366  32.434  30.786  1.00  0.00     0.010 A 
ATOM     38  C   UNL A   1      36.663  32.763  30.361  1.00  0.00    -0.014 A 
BRANCH  38  39
ATOM     39  C   UNL A   1      37.825  32.112  31.016  1.00  0.00     0.031 A 
ATOM     40  C   UNL A   1      38.549  30.996  30.315  1.00  0.00     0.074 A 
ATOM     41  C   UNL A   1      38.181  32.468  32.265  1.00  0.00     0.049 A 
ATOM     42  N   UNL A   1      39.515  30.229  30.755  1.00  0.00    -0.248 NA
ATOM     43  C   UNL A   1      38.107  30.679  28.948  1.00  0.00     0.031 C 
ATOM     44  C   UNL A   1      37.535  33.510  33.066  1.00  0.00     0.029 A 
ATOM     45  N   UNL A   1      39.166  31.981  33.087  1.00  0.00    -0.354 N 
ATOM     46  C   UNL A   1      39.780  29.332  29.729  1.00  0.00     0.074 A 
ATOM     47  C   UNL A   1      38.837  29.610  28.669  1.00  0.00     0.031 C 
ATOM     48  C   UNL A   1      38.152  33.596  34.255  1.00  0.00     0.029 A 
ATOM     49  C   UNL A   1      39.205  32.587  34.319  1.00  0.00     0.049 A 
ATOM     50  H   UNL A   1      39.785  31.264  32.819  1.00  0.00     0.167 HD
ATOM     51  C   UNL A   1      40.739  28.377  29.666  1.00  0.00     0.037 A 
ATOM     52  C   UNL A   1      39.993  32.348  35.384  1.00  0.00     0.037 A 
ATOM     53  C   UNL A   1      41.689  28.118  30.715  1.00  0.00     0.049 A 
ATOM     54  C   UNL A   1      41.039  31.270  35.298  1.00  0.00     0.074 A 
ATOM     55  C   UNL A   1      42.733  27.211  30.726  1.00  0.00     0.029 A 
ATOM     56  N   UNL A   1      41.708  28.767  31.941  1.00  0.00    -0.354 N 
ATOM     57  N   UNL A   1      41.319  30.468  34.300  1.00  0.00    -0.248 NA
ATOM     58  C   UNL A   1      41.882  31.067  36.485  1.00  0.00     0.031 C 
ATOM     59  C   UNL A   1      43.350  27.272  31.980  1.00  0.00     0.029 A 
ATOM     60  C   UNL A   1      42.730  28.260  32.727  1.00  0.00     0.049 A 
ATOM     61  H   UNL A   1      41.087  29.479  32.212  1.00  0.00     0.167 HD
ATOM     62  C   UNL A   1      42.391  29.691  34.724  1.00  0.00     0.074 A 
ATOM     63  C   UNL A   1      42.715  30.125  36.066  1.00  0.00     0.031 C 
ATOM     64  C   UNL A   1      43.049  28.710  34.058  1.00  0.00     0.037 A 
BRANCH  51  65
ATOM     65  C   UNL A   1      40.798  27.540  28.420  1.00  0.00     0.057 A 
ATOM     66  C   UNL A   1      41.603  27.892  27.326  1.00  0.00     0.134 A 
ATOM     67  C   UNL A   1      40.059  26.354  28.319  1.00  0.00     0.134 A 
ATOM     68  F   UNL A   1      42.328  29.020  27.351  1.00  0.00    -0.206 F 
ATOM     69  C   UNL A   1      41.642  27.116  26.167  1.00  0.00     0.040 A 
ATOM     70  C   UNL A   1      40.115  25.553  27.178  1.00  0.00     0.040 A 
ATOM     71  F   UNL A   1      39.274  25.953  29.330  1.00  0.00    -0.206 F 
ATOM     72  C   UNL A   1      40.900  25.938  26.093  1.00  0.00     0.006 A 
ENDBRANCH  51  65
BRANCH  52  73
ATOM     73  C   UNL A   1      39.838  33.158  36.619  1.00  0.00     0.057 A 
ATOM     74  C   UNL A   1      40.610  34.307  36.831  1.00  0.00     0.134 A 
ATOM     75  C   UNL A   1      38.923  32.806  37.617  1.00  0.00     0.134 A 
ATOM     76  F   UNL A   1      41.519  34.688  35.919  1.00  0.00    -0.206 F 
ATOM     77  C   UNL A   1      40.492  35.065  37.996  1.00  0.00     0.040 A 
ATOM     78  C   UNL A   1      38.774  33.570  38.777  1.00  0.00     0.040 A 
ATOM     79  F   UNL A   1      38.146  31.722  37.472  1.00  0.00    -0.206 F 
ATOM     80  C   UNL A   1      39.567  34.699  38.972  1.00  0.00     0.006 A 
ENDBRANCH  52  73
BRANCH  64  81
ATOM     81  C   UNL A   1      44.218  28.070  34.750  1.00  0.00     0.057 A 
ATOM     82  C   UNL A   1      44.084  26.903  35.513  1.00  0.00     0.134 A 
ATOM     83  C   UNL A   1      45.506  28.604  34.607  1.00  0.00     0.134 A 
ATOM     84  F   UNL A   1      42.877  26.348  35.701  1.00  0.00    -0.206 F 
ATOM     85  C   UNL A   1      45.185  26.304  36.128  1.00  0.00     0.040 A 
ATOM     86  C   UNL A   1      46.618  27.998  35.191  1.00  0.00     0.040 A 
ATOM     87  F   UNL A   1      45.705  29.714  33.882  1.00  0.00    -0.206 F 
ATOM     88  C   UNL A   1      46.459  26.846  35.959  1.00  0.00     0.006 A 
ENDBRANCH  64  81
ENDBRANCH  38  39
ENDBRANCH  30  33
ENDBRANCH  28  29
ENDBRANCH  27  28
ENDBRANCH  26  27
ENDBRANCH   1  26
TORSDOF 15
ENDMDL
