MODEL 1
REMARK VINA RESULT:     -12.7      0.000      0.000
REMARK SMILES CC(=O)N1CC2(CC[NH+](C3Cc4ccccc4C3)CC2)C[C@H]1C(=O)NCCCCCCNC(=O)c1ccc(-c2c3nc(c(-c4c(F)cccc4F)c4ccc([nH]4)c(-c4c(F)cccc4F)c4nc(c(-c5c(F)cccc5F)c5ccc2[nH]5)C=C4)C=C3)cc1
REMARK SMILES IDX 29 1 28 2 27 3 26 4 25 5 23 6 24 7 22 9 4 10 5 11 6 12 21 13
REMARK SMILES IDX 7 14 20 15 8 16 19 17 9 18 2 20 1 21 3 22 10 23 11 24 18 25
REMARK SMILES IDX 12 26 17 27 13 28 16 29 14 30 15 31 30 32 31 33 32 34 33 35
REMARK SMILES IDX 34 37 35 38 36 39 88 40 37 41 87 42 38 43 39 44 40 45 81 46
REMARK SMILES IDX 41 47 86 48 80 49 82 50 42 51 85 52 79 53 78 54 43 56 69 57
REMARK SMILES IDX 52 58 68 59 53 60 56 61 67 62 83 63 54 64 55 65 66 67 84 68
REMARK SMILES IDX 57 69 44 70 45 71 50 72 46 73 47 74 49 75 51 76 48 77 70 78
REMARK SMILES IDX 71 79 76 80 72 81 73 82 75 83 77 84 74 85 58 86 59 87 64 88
REMARK SMILES IDX 60 89 61 90 63 91 65 92 62 93
REMARK H PARENT 25 8 9 19 32 36 82 55 56 66
REMARK Flexibility Score: inf
ROOT
ATOM      1  C   UNL A   1      36.995  20.889  24.759  1.00  0.00     0.002 C 
ENDROOT
BRANCH   1   2
ATOM      2  C   UNL A   1      37.044  22.125  23.850  1.00  0.00     0.002 C 
BRANCH   2   3
ATOM      3  C   UNL A   1      36.143  23.295  24.245  1.00  0.00     0.021 C 
BRANCH   3   4
ATOM      4  C   UNL A   1      34.794  23.329  23.544  1.00  0.00     0.116 C 
BRANCH   4   5
ATOM      5  N   UNL A   1      34.018  22.123  23.572  1.00  0.00    -0.354 N 
ATOM      6  C   UNL A   1      32.756  21.966  24.081  1.00  0.00     0.242 C 
ATOM      7  O   UNL A   1      32.056  21.101  23.538  1.00  0.00    -0.273 OA
ATOM      8  H   UNL A   1      34.438  21.322  23.184  1.00  0.00     0.163 HD
BRANCH   6   9
ATOM      9  C   UNL A   1      32.124  22.920  25.147  1.00  0.00     0.175 C 
ATOM     10  N   UNL A   1      32.948  23.374  26.259  1.00  0.00    -0.330 N 
ATOM     11  C   UNL A   1      33.191  24.809  26.251  1.00  0.00     0.127 C 
ATOM     12  C   UNL A   1      32.230  25.418  25.204  1.00  0.00     0.001 C 
ATOM     13  C   UNL A   1      31.492  24.196  24.582  1.00  0.00     0.044 C 
ATOM     14  C   UNL A   1      32.926  26.223  24.080  1.00  0.00     0.070 C 
ATOM     15  C   UNL A   1      31.259  26.368  25.953  1.00  0.00     0.070 C 
ATOM     16  C   UNL A   1      33.562  27.508  24.580  1.00  0.00     0.263 C 
ATOM     17  C   UNL A   1      31.895  27.732  26.303  1.00  0.00     0.263 C 
ATOM     18  N   UNL A   1      32.595  28.403  25.200  1.00  0.00    -0.332 N 
ATOM     19  H   UNL A   1      33.157  29.158  25.595  1.00  0.00     0.348 HD
BRANCH  10  20
ATOM     20  C   UNL A   1      33.202  22.501  27.298  1.00  0.00     0.220 C 
ATOM     21  C   UNL A   1      34.415  21.618  27.167  1.00  0.00     0.114 C 
ATOM     22  O   UNL A   1      32.514  22.473  28.318  1.00  0.00    -0.275 OA
ENDBRANCH  10  20
BRANCH  18  23
ATOM     23  C   UNL A   1      31.724  29.197  24.302  1.00  0.00     0.192 C 
ATOM     24  C   UNL A   1      30.655  28.417  23.470  1.00  0.00     0.101 C 
ATOM     25  C   UNL A   1      30.994  30.440  24.880  1.00  0.00     0.101 C 
ATOM     26  C   UNL A   1      29.619  29.464  23.191  1.00  0.00    -0.039 A 
ATOM     27  C   UNL A   1      29.806  30.590  23.990  1.00  0.00    -0.039 A 
ATOM     28  C   UNL A   1      28.516  29.363  22.358  1.00  0.00     0.004 A 
ATOM     29  C   UNL A   1      28.895  31.634  23.992  1.00  0.00     0.004 A 
ATOM     30  C   UNL A   1      27.595  30.414  22.345  1.00  0.00     0.000 A 
ATOM     31  C   UNL A   1      27.781  31.540  23.159  1.00  0.00     0.000 A 
ENDBRANCH  18  23
ENDBRANCH   6   9
ENDBRANCH   4   5
ENDBRANCH   3   4
ENDBRANCH   2   3
ENDBRANCH   1   2
BRANCH   1  32
ATOM     32  C   UNL A   1      38.204  19.949  24.711  1.00  0.00     0.021 C 
BRANCH  32  33
ATOM     33  C   UNL A   1      38.949  19.756  26.031  1.00  0.00     0.116 C 
BRANCH  33  34
ATOM     34  N   UNL A   1      40.219  19.073  25.863  1.00  0.00    -0.352 N 
ATOM     35  C   UNL A   1      41.505  19.535  25.982  1.00  0.00     0.251 C 
ATOM     36  H   UNL A   1      40.145  18.120  25.625  1.00  0.00     0.163 HD
ATOM     37  O   UNL A   1      42.441  18.818  25.642  1.00  0.00    -0.269 OA
BRANCH  35  38
ATOM     38  C   UNL A   1      41.779  20.893  26.504  1.00  0.00     0.039 A 
ATOM     39  C   UNL A   1      41.667  21.112  27.880  1.00  0.00     0.014 A 
ATOM     40  C   UNL A   1      42.089  21.955  25.652  1.00  0.00     0.014 A 
ATOM     41  C   UNL A   1      41.911  22.383  28.406  1.00  0.00     0.010 A 
ATOM     42  C   UNL A   1      42.397  23.206  26.183  1.00  0.00     0.010 A 
ATOM     43  C   UNL A   1      42.302  23.435  27.564  1.00  0.00    -0.014 A 
BRANCH  43  44
ATOM     44  C   UNL A   1      42.600  24.783  28.109  1.00  0.00     0.031 A 
ATOM     45  C   UNL A   1      43.999  25.135  28.534  1.00  0.00     0.074 A 
ATOM     46  C   UNL A   1      41.601  25.672  28.271  1.00  0.00     0.049 A 
ATOM     47  N   UNL A   1      44.444  26.236  29.087  1.00  0.00    -0.248 NA
ATOM     48  C   UNL A   1      45.030  24.104  28.337  1.00  0.00     0.031 C 
ATOM     49  C   UNL A   1      40.196  25.436  27.933  1.00  0.00     0.029 A 
ATOM     50  N   UNL A   1      41.615  26.950  28.768  1.00  0.00    -0.354 N 
ATOM     51  C   UNL A   1      45.798  26.023  29.316  1.00  0.00     0.074 A 
ATOM     52  C   UNL A   1      46.091  24.672  28.890  1.00  0.00     0.031 C 
ATOM     53  C   UNL A   1      39.488  26.542  28.211  1.00  0.00     0.029 A 
ATOM     54  C   UNL A   1      40.378  27.550  28.776  1.00  0.00     0.049 A 
ATOM     55  H   UNL A   1      42.432  27.396  29.089  1.00  0.00     0.167 HD
ATOM     56  C   UNL A   1      46.718  26.884  29.814  1.00  0.00     0.037 A 
ATOM     57  C   UNL A   1      40.006  28.774  29.195  1.00  0.00     0.037 A 
ATOM     58  C   UNL A   1      46.429  28.237  30.212  1.00  0.00     0.049 A 
ATOM     59  C   UNL A   1      41.045  29.709  29.747  1.00  0.00     0.074 A 
ATOM     60  C   UNL A   1      47.301  29.205  30.678  1.00  0.00     0.029 A 
ATOM     61  N   UNL A   1      45.167  28.812  30.191  1.00  0.00    -0.354 N 
ATOM     62  N   UNL A   1      42.333  29.516  29.902  1.00  0.00    -0.248 NA
ATOM     63  C   UNL A   1      40.580  31.035  30.177  1.00  0.00     0.031 C 
ATOM     64  C   UNL A   1      46.561  30.355  30.974  1.00  0.00     0.029 A 
ATOM     65  C   UNL A   1      45.234  30.117  30.651  1.00  0.00     0.049 A 
ATOM     66  H   UNL A   1      44.345  28.361  29.893  1.00  0.00     0.167 HD
ATOM     67  C   UNL A   1      42.836  30.704  30.416  1.00  0.00     0.074 A 
ATOM     68  C   UNL A   1      41.717  31.615  30.537  1.00  0.00     0.031 C 
ATOM     69  C   UNL A   1      44.111  31.013  30.757  1.00  0.00     0.037 A 
BRANCH  56  70
ATOM     70  C   UNL A   1      48.127  26.384  29.952  1.00  0.00     0.057 A 
ATOM     71  C   UNL A   1      49.062  26.518  28.917  1.00  0.00     0.134 A 
ATOM     72  C   UNL A   1      48.562  25.784  31.140  1.00  0.00     0.134 A 
ATOM     73  F   UNL A   1      48.709  27.073  27.748  1.00  0.00    -0.206 F 
ATOM     74  C   UNL A   1      50.370  26.046  29.048  1.00  0.00     0.040 A 
ATOM     75  C   UNL A   1      49.875  25.333  31.293  1.00  0.00     0.040 A 
ATOM     76  F   UNL A   1      47.721  25.629  32.174  1.00  0.00    -0.206 F 
ATOM     77  C   UNL A   1      50.781  25.457  30.242  1.00  0.00     0.006 A 
ENDBRANCH  56  70
BRANCH  57  78
ATOM     78  C   UNL A   1      38.589  29.199  29.080  1.00  0.00     0.057 A 
ATOM     79  C   UNL A   1      38.075  29.664  27.864  1.00  0.00     0.134 A 
ATOM     80  C   UNL A   1      37.718  29.158  30.175  1.00  0.00     0.134 A 
ATOM     81  F   UNL A   1      38.865  29.742  26.783  1.00  0.00    -0.206 F 
ATOM     82  C   UNL A   1      36.751  30.091  27.745  1.00  0.00     0.040 A 
ATOM     83  C   UNL A   1      36.386  29.561  30.064  1.00  0.00     0.040 A 
ATOM     84  F   UNL A   1      38.149  28.715  31.366  1.00  0.00    -0.206 F 
ATOM     85  C   UNL A   1      35.902  30.036  28.848  1.00  0.00     0.006 A 
ENDBRANCH  57  78
BRANCH  69  86
ATOM     86  C   UNL A   1      44.368  32.405  31.254  1.00  0.00     0.057 A 
ATOM     87  C   UNL A   1      44.333  32.723  32.617  1.00  0.00     0.134 A 
ATOM     88  C   UNL A   1      44.686  33.433  30.356  1.00  0.00     0.134 A 
ATOM     89  F   UNL A   1      44.022  31.786  33.525  1.00  0.00    -0.206 F 
ATOM     90  C   UNL A   1      44.583  34.020  33.068  1.00  0.00     0.040 A 
ATOM     91  C   UNL A   1      44.964  34.727  30.798  1.00  0.00     0.040 A 
ATOM     92  F   UNL A   1      44.745  33.193  29.038  1.00  0.00    -0.206 F 
ATOM     93  C   UNL A   1      44.906  35.024  32.158  1.00  0.00     0.006 A 
ENDBRANCH  69  86
ENDBRANCH  43  44
ENDBRANCH  35  38
ENDBRANCH  33  34
ENDBRANCH  32  33
ENDBRANCH   1  32
TORSDOF 15
ENDMDL
MODEL 2
REMARK VINA RESULT:     -12.6      0.577      6.081
REMARK SMILES CC(=O)N1CC2(CC[NH+](C3Cc4ccccc4C3)CC2)C[C@H]1C(=O)NCCCCCCNC(=O)c1ccc(-c2c3nc(c(-c4c(F)cccc4F)c4ccc([nH]4)c(-c4c(F)cccc4F)c4nc(c(-c5c(F)cccc5F)c5ccc2[nH]5)C=C4)C=C3)cc1
REMARK SMILES IDX 29 1 28 2 27 3 26 4 25 5 23 6 24 7 22 9 4 10 5 11 6 12 21 13
REMARK SMILES IDX 7 14 20 15 8 16 19 17 9 18 2 20 1 21 3 22 10 23 11 24 18 25
REMARK SMILES IDX 12 26 17 27 13 28 16 29 14 30 15 31 30 32 31 33 32 34 33 35
REMARK SMILES IDX 34 37 35 38 36 39 88 40 37 41 87 42 38 43 39 44 40 45 81 46
REMARK SMILES IDX 41 47 86 48 80 49 82 50 42 51 85 52 79 53 78 54 43 56 69 57
REMARK SMILES IDX 52 58 68 59 53 60 56 61 67 62 83 63 54 64 55 65 66 67 84 68
REMARK SMILES IDX 57 69 44 70 45 71 50 72 46 73 47 74 49 75 51 76 48 77 70 78
REMARK SMILES IDX 71 79 76 80 72 81 73 82 75 83 77 84 74 85 58 86 59 87 64 88
REMARK SMILES IDX 60 89 61 90 63 91 65 92 62 93
REMARK H PARENT 25 8 9 19 32 36 82 55 56 66
REMARK Flexibility Score: inf
ROOT
ATOM      1  C   UNL A   1      36.986  20.997  24.799  1.00  0.00     0.002 C 
ENDROOT
BRANCH   1   2
ATOM      2  C   UNL A   1      36.981  22.204  23.850  1.00  0.00     0.002 C 
BRANCH   2   3
ATOM      3  C   UNL A   1      36.057  23.361  24.228  1.00  0.00     0.021 C 
BRANCH   3   4
ATOM      4  C   UNL A   1      34.702  23.351  23.539  1.00  0.00     0.116 C 
BRANCH   4   5
ATOM      5  N   UNL A   1      33.950  22.131  23.604  1.00  0.00    -0.354 N 
ATOM      6  C   UNL A   1      32.701  21.960  24.136  1.00  0.00     0.242 C 
ATOM      7  O   UNL A   1      32.009  21.070  23.622  1.00  0.00    -0.273 OA
ATOM      8  H   UNL A   1      34.380  21.331  23.224  1.00  0.00     0.163 HD
BRANCH   6   9
ATOM      9  C   UNL A   1      32.067  22.923  25.193  1.00  0.00     0.175 C 
ATOM     10  N   UNL A   1      32.887  23.378  26.308  1.00  0.00    -0.330 N 
ATOM     11  C   UNL A   1      33.136  24.811  26.295  1.00  0.00     0.127 C 
ATOM     12  C   UNL A   1      32.186  25.420  25.239  1.00  0.00     0.001 C 
ATOM     13  C   UNL A   1      31.445  24.199  24.619  1.00  0.00     0.044 C 
ATOM     14  C   UNL A   1      32.892  26.216  24.115  1.00  0.00     0.070 C 
ATOM     15  C   UNL A   1      31.214  26.379  25.977  1.00  0.00     0.070 C 
ATOM     16  C   UNL A   1      33.532  27.501  24.613  1.00  0.00     0.263 C 
ATOM     17  C   UNL A   1      31.855  27.741  26.324  1.00  0.00     0.263 C 
ATOM     18  N   UNL A   1      32.565  28.403  25.222  1.00  0.00    -0.332 N 
ATOM     19  H   UNL A   1      33.129  29.157  25.616  1.00  0.00     0.348 HD
BRANCH  10  20
ATOM     20  C   UNL A   1      33.129  22.508  27.353  1.00  0.00     0.220 C 
ATOM     21  C   UNL A   1      34.334  21.614  27.231  1.00  0.00     0.114 C 
ATOM     22  O   UNL A   1      32.439  22.493  28.371  1.00  0.00    -0.275 OA
ENDBRANCH  10  20
BRANCH  18  23
ATOM     23  C   UNL A   1      31.704  29.197  24.315  1.00  0.00     0.192 C 
ATOM     24  C   UNL A   1      30.645  28.417  23.471  1.00  0.00     0.101 C 
ATOM     25  C   UNL A   1      30.966  30.439  24.886  1.00  0.00     0.101 C 
ATOM     26  C   UNL A   1      29.612  29.464  23.180  1.00  0.00    -0.039 A 
ATOM     27  C   UNL A   1      29.789  30.589  23.982  1.00  0.00    -0.039 A 
ATOM     28  C   UNL A   1      28.518  29.362  22.335  1.00  0.00     0.004 A 
ATOM     29  C   UNL A   1      28.877  31.633  23.975  1.00  0.00     0.004 A 
ATOM     30  C   UNL A   1      27.596  30.413  22.312  1.00  0.00     0.000 A 
ATOM     31  C   UNL A   1      27.773  31.538  23.129  1.00  0.00     0.000 A 
ENDBRANCH  18  23
ENDBRANCH   6   9
ENDBRANCH   4   5
ENDBRANCH   3   4
ENDBRANCH   2   3
ENDBRANCH   1   2
BRANCH   1  32
ATOM     32  C   UNL A   1      38.214  20.082  24.744  1.00  0.00     0.021 C 
BRANCH  32  33
ATOM     33  C   UNL A   1      39.041  20.002  26.026  1.00  0.00     0.116 C 
BRANCH  33  34
ATOM     34  N   UNL A   1      40.243  19.202  25.868  1.00  0.00    -0.352 N 
ATOM     35  C   UNL A   1      41.565  19.541  26.006  1.00  0.00     0.251 C 
ATOM     36  H   UNL A   1      40.082  18.263  25.623  1.00  0.00     0.163 HD
ATOM     37  O   UNL A   1      42.433  18.740  25.673  1.00  0.00    -0.269 OA
BRANCH  35  38
ATOM     38  C   UNL A   1      41.959  20.864  26.541  1.00  0.00     0.039 A 
ATOM     39  C   UNL A   1      42.387  21.845  25.642  1.00  0.00     0.014 A 
ATOM     40  C   UNL A   1      41.964  21.125  27.913  1.00  0.00     0.014 A 
ATOM     41  C   UNL A   1      42.773  23.102  26.113  1.00  0.00     0.010 A 
ATOM     42  C   UNL A   1      42.287  22.399  28.377  1.00  0.00     0.010 A 
ATOM     43  C   UNL A   1      42.703  23.397  27.484  1.00  0.00    -0.014 A 
BRANCH  43  44
ATOM     44  C   UNL A   1      43.075  24.739  27.999  1.00  0.00     0.031 A 
ATOM     45  C   UNL A   1      42.013  25.770  28.264  1.00  0.00     0.074 A 
ATOM     46  C   UNL A   1      44.375  25.046  28.178  1.00  0.00     0.049 A 
ATOM     47  N   UNL A   1      42.145  27.012  28.656  1.00  0.00    -0.248 NA
ATOM     48  C   UNL A   1      40.619  25.358  28.030  1.00  0.00     0.031 C 
ATOM     49  C   UNL A   1      45.500  24.146  27.919  1.00  0.00     0.029 A 
ATOM     50  N   UNL A   1      44.967  26.204  28.612  1.00  0.00    -0.354 N 
ATOM     51  C   UNL A   1      40.857  27.532  28.702  1.00  0.00     0.074 A 
ATOM     52  C   UNL A   1      39.964  26.489  28.249  1.00  0.00     0.031 C 
ATOM     53  C   UNL A   1      46.645  24.778  28.222  1.00  0.00     0.029 A 
ATOM     54  C   UNL A   1      46.338  26.135  28.662  1.00  0.00     0.049 A 
ATOM     55  H   UNL A   1      44.458  27.009  28.863  1.00  0.00     0.167 HD
ATOM     56  C   UNL A   1      40.454  28.760  29.108  1.00  0.00     0.037 A 
ATOM     57  C   UNL A   1      47.245  27.063  29.022  1.00  0.00     0.037 A 
ATOM     58  C   UNL A   1      41.343  29.787  29.585  1.00  0.00     0.049 A 
ATOM     59  C   UNL A   1      46.773  28.419  29.464  1.00  0.00     0.074 A 
ATOM     60  C   UNL A   1      41.028  31.045  30.069  1.00  0.00     0.029 A 
ATOM     61  N   UNL A   1      42.725  29.674  29.635  1.00  0.00    -0.354 N 
ATOM     62  N   UNL A   1      45.548  28.878  29.561  1.00  0.00    -0.248 NA
ATOM     63  C   UNL A   1      47.809  29.385  29.855  1.00  0.00     0.031 C 
ATOM     64  C   UNL A   1      42.223  31.707  30.378  1.00  0.00     0.029 A 
ATOM     65  C   UNL A   1      43.278  30.844  30.127  1.00  0.00     0.049 A 
ATOM     66  H   UNL A   1      43.236  28.878  29.363  1.00  0.00     0.167 HD
ATOM     67  C   UNL A   1      45.664  30.172  30.052  1.00  0.00     0.074 A 
ATOM     68  C   UNL A   1      47.077  30.421  30.243  1.00  0.00     0.031 C 
ATOM     69  C   UNL A   1      44.687  31.072  30.320  1.00  0.00     0.037 A 
BRANCH  56  70
ATOM     70  C   UNL A   1      38.983  29.056  29.056  1.00  0.00     0.057 A 
ATOM     71  C   UNL A   1      38.165  28.933  30.188  1.00  0.00     0.134 A 
ATOM     72  C   UNL A   1      38.381  29.491  27.869  1.00  0.00     0.134 A 
ATOM     73  F   UNL A   1      38.676  28.510  31.354  1.00  0.00    -0.206 F 
ATOM     74  C   UNL A   1      36.796  29.203  30.132  1.00  0.00     0.040 A 
ATOM     75  C   UNL A   1      37.018  29.791  27.809  1.00  0.00     0.040 A 
ATOM     76  F   UNL A   1      39.106  29.636  26.750  1.00  0.00    -0.206 F 
ATOM     77  C   UNL A   1      36.220  29.640  28.942  1.00  0.00     0.006 A 
ENDBRANCH  56  70
BRANCH  57  78
ATOM     78  C   UNL A   1      48.692  26.732  29.008  1.00  0.00     0.057 A 
ATOM     79  C   UNL A   1      49.296  26.111  30.107  1.00  0.00     0.134 A 
ATOM     80  C   UNL A   1      49.504  27.030  27.907  1.00  0.00     0.134 A 
ATOM     81  F   UNL A   1      48.574  25.815  31.197  1.00  0.00    -0.206 F 
ATOM     82  C   UNL A   1      50.661  25.815  30.120  1.00  0.00     0.040 A 
ATOM     83  C   UNL A   1      50.864  26.719  27.899  1.00  0.00     0.040 A 
ATOM     84  F   UNL A   1      48.981  27.618  26.821  1.00  0.00    -0.206 F 
ATOM     85  C   UNL A   1      51.447  26.116  29.011  1.00  0.00     0.006 A 
ENDBRANCH  57  78
BRANCH  69  86
ATOM     86  C   UNL A   1      45.113  32.394  30.888  1.00  0.00     0.057 A 
ATOM     87  C   UNL A   1      45.381  33.499  30.071  1.00  0.00     0.134 A 
ATOM     88  C   UNL A   1      45.225  32.570  32.274  1.00  0.00     0.134 A 
ATOM     89  F   UNL A   1      45.306  33.391  28.736  1.00  0.00    -0.206 F 
ATOM     90  C   UNL A   1      45.768  34.727  30.611  1.00  0.00     0.040 A 
ATOM     91  C   UNL A   1      45.585  33.799  32.826  1.00  0.00     0.040 A 
ATOM     92  F   UNL A   1      44.973  31.554  33.112  1.00  0.00    -0.206 F 
ATOM     93  C   UNL A   1      45.864  34.880  31.993  1.00  0.00     0.006 A 
ENDBRANCH  69  86
ENDBRANCH  43  44
ENDBRANCH  35  38
ENDBRANCH  33  34
ENDBRANCH  32  33
ENDBRANCH   1  32
TORSDOF 15
ENDMDL
MODEL 3
REMARK VINA RESULT:     -12.3      4.789     10.228
REMARK SMILES CC(=O)N1CC2(CC[NH+](C3Cc4ccccc4C3)CC2)C[C@H]1C(=O)NCCCCCCNC(=O)c1ccc(-c2c3nc(c(-c4c(F)cccc4F)c4ccc([nH]4)c(-c4c(F)cccc4F)c4nc(c(-c5c(F)cccc5F)c5ccc2[nH]5)C=C4)C=C3)cc1
REMARK SMILES IDX 29 1 28 2 27 3 26 4 25 5 23 6 24 7 22 9 4 10 5 11 6 12 21 13
REMARK SMILES IDX 7 14 20 15 8 16 19 17 9 18 2 20 1 21 3 22 10 23 11 24 18 25
REMARK SMILES IDX 12 26 17 27 13 28 16 29 14 30 15 31 30 32 31 33 32 34 33 35
REMARK SMILES IDX 34 37 35 38 36 39 88 40 37 41 87 42 38 43 39 44 40 45 81 46
REMARK SMILES IDX 41 47 86 48 80 49 82 50 42 51 85 52 79 53 78 54 43 56 69 57
REMARK SMILES IDX 52 58 68 59 53 60 56 61 67 62 83 63 54 64 55 65 66 67 84 68
REMARK SMILES IDX 57 69 44 70 45 71 50 72 46 73 47 74 49 75 51 76 48 77 70 78
REMARK SMILES IDX 71 79 76 80 72 81 73 82 75 83 77 84 74 85 58 86 59 87 64 88
REMARK SMILES IDX 60 89 61 90 63 91 65 92 62 93
REMARK H PARENT 25 8 9 19 32 36 82 55 56 66
REMARK Flexibility Score: inf
ROOT
ATOM      1  C   UNL A   1      34.590  33.710  28.305  1.00  0.00     0.002 C 
ENDROOT
BRANCH   1   2
ATOM      2  C   UNL A   1      34.502  32.177  28.355  1.00  0.00     0.002 C 
BRANCH   2   3
ATOM      3  C   UNL A   1      33.416  31.531  27.495  1.00  0.00     0.021 C 
BRANCH   3   4
ATOM      4  C   UNL A   1      33.557  30.029  27.307  1.00  0.00     0.116 C 
BRANCH   4   5
ATOM      5  N   UNL A   1      34.322  29.586  26.178  1.00  0.00    -0.354 N 
ATOM      6  C   UNL A   1      33.873  28.842  25.119  1.00  0.00     0.242 C 
ATOM      7  O   UNL A   1      34.444  29.037  24.038  1.00  0.00    -0.273 OA
ATOM      8  H   UNL A   1      35.272  29.844  26.162  1.00  0.00     0.163 HD
BRANCH   6   9
ATOM      9  C   UNL A   1      32.601  27.934  25.172  1.00  0.00     0.175 C 
ATOM     10  N   UNL A   1      31.591  28.080  24.132  1.00  0.00    -0.330 N 
ATOM     11  C   UNL A   1      31.450  26.898  23.294  1.00  0.00     0.127 C 
ATOM     12  C   UNL A   1      32.233  25.762  23.989  1.00  0.00     0.001 C 
ATOM     13  C   UNL A   1      32.879  26.429  25.239  1.00  0.00     0.044 C 
ATOM     14  C   UNL A   1      33.342  25.116  23.123  1.00  0.00     0.070 C 
ATOM     15  C   UNL A   1      31.215  24.657  24.378  1.00  0.00     0.070 C 
ATOM     16  C   UNL A   1      32.789  24.327  21.949  1.00  0.00     0.263 C 
ATOM     17  C   UNL A   1      30.799  23.770  23.184  1.00  0.00     0.263 C 
ATOM     18  N   UNL A   1      31.905  23.249  22.370  1.00  0.00    -0.332 N 
ATOM     19  H   UNL A   1      31.514  22.883  21.501  1.00  0.00     0.348 HD
BRANCH  10  20
ATOM     20  C   UNL A   1      30.733  29.160  24.186  1.00  0.00     0.220 C 
ATOM     21  C   UNL A   1      29.529  29.119  23.283  1.00  0.00     0.114 C 
ATOM     22  O   UNL A   1      30.895  30.093  24.971  1.00  0.00    -0.275 OA
ENDBRANCH  10  20
BRANCH  18  23
ATOM     23  C   UNL A   1      32.533  22.013  22.891  1.00  0.00     0.192 C 
ATOM     24  C   UNL A   1      32.530  21.808  24.441  1.00  0.00     0.101 C 
ATOM     25  C   UNL A   1      32.114  20.648  22.278  1.00  0.00     0.101 C 
ATOM     26  C   UNL A   1      32.643  20.320  24.582  1.00  0.00    -0.039 A 
ATOM     27  C   UNL A   1      32.398  19.674  23.372  1.00  0.00    -0.039 A 
ATOM     28  C   UNL A   1      32.837  19.592  25.744  1.00  0.00     0.004 A 
ATOM     29  C   UNL A   1      32.326  18.293  23.291  1.00  0.00     0.004 A 
ATOM     30  C   UNL A   1      32.775  18.197  25.674  1.00  0.00     0.000 A 
ATOM     31  C   UNL A   1      32.517  17.552  24.456  1.00  0.00     0.000 A 
ENDBRANCH  18  23
ENDBRANCH   6   9
ENDBRANCH   4   5
ENDBRANCH   3   4
ENDBRANCH   2   3
ENDBRANCH   1   2
BRANCH   1  32
ATOM     32  C   UNL A   1      33.274  34.481  28.455  1.00  0.00     0.021 C 
BRANCH  32  33
ATOM     33  C   UNL A   1      33.394  35.900  29.007  1.00  0.00     0.116 C 
BRANCH  33  34
ATOM     34  N   UNL A   1      32.582  36.111  30.192  1.00  0.00    -0.352 N 
ATOM     35  C   UNL A   1      32.729  35.640  31.471  1.00  0.00     0.251 C 
ATOM     36  H   UNL A   1      31.797  36.689  30.054  1.00  0.00     0.163 HD
ATOM     37  O   UNL A   1      31.832  35.819  32.290  1.00  0.00    -0.269 OA
BRANCH  35  38
ATOM     38  C   UNL A   1      33.950  34.907  31.876  1.00  0.00     0.039 A 
ATOM     39  C   UNL A   1      33.833  33.557  32.220  1.00  0.00     0.014 A 
ATOM     40  C   UNL A   1      35.187  35.547  31.971  1.00  0.00     0.014 A 
ATOM     41  C   UNL A   1      34.964  32.838  32.613  1.00  0.00     0.010 A 
ATOM     42  C   UNL A   1      36.326  34.813  32.300  1.00  0.00     0.010 A 
ATOM     43  C   UNL A   1      36.224  33.454  32.633  1.00  0.00    -0.014 A 
BRANCH  43  44
ATOM     44  C   UNL A   1      37.442  32.696  33.015  1.00  0.00     0.031 A 
ATOM     45  C   UNL A   1      38.150  33.000  34.306  1.00  0.00     0.074 A 
ATOM     46  C   UNL A   1      37.941  31.770  32.173  1.00  0.00     0.049 A 
ATOM     47  N   UNL A   1      39.257  32.489  34.783  1.00  0.00    -0.248 NA
ATOM     48  C   UNL A   1      37.548  34.034  35.163  1.00  0.00     0.031 C 
ATOM     49  C   UNL A   1      37.368  31.413  30.874  1.00  0.00     0.029 A 
ATOM     50  N   UNL A   1      39.047  30.967  32.283  1.00  0.00    -0.354 N 
ATOM     51  C   UNL A   1      39.491  33.149  35.984  1.00  0.00     0.074 A 
ATOM     52  C   UNL A   1      38.440  34.131  36.138  1.00  0.00     0.031 C 
ATOM     53  C   UNL A   1      38.115  30.445  30.318  1.00  0.00     0.029 A 
ATOM     54  C   UNL A   1      39.234  30.139  31.202  1.00  0.00     0.049 A 
ATOM     55  H   UNL A   1      39.651  30.983  33.060  1.00  0.00     0.167 HD
ATOM     56  C   UNL A   1      40.478  32.939  36.888  1.00  0.00     0.037 A 
ATOM     57  C   UNL A   1      40.201  29.236  30.953  1.00  0.00     0.037 A 
ATOM     58  C   UNL A   1      41.507  31.942  36.745  1.00  0.00     0.049 A 
ATOM     59  C   UNL A   1      41.288  29.024  31.970  1.00  0.00     0.074 A 
ATOM     60  C   UNL A   1      42.520  31.614  37.630  1.00  0.00     0.029 A 
ATOM     61  N   UNL A   1      41.653  31.112  35.644  1.00  0.00    -0.354 N 
ATOM     62  N   UNL A   1      41.462  29.612  33.129  1.00  0.00    -0.248 NA
ATOM     63  C   UNL A   1      42.309  28.016  31.647  1.00  0.00     0.031 C 
ATOM     64  C   UNL A   1      43.302  30.610  37.046  1.00  0.00     0.029 A 
ATOM     65  C   UNL A   1      42.750  30.283  35.818  1.00  0.00     0.049 A 
ATOM     66  H   UNL A   1      41.065  31.110  34.855  1.00  0.00     0.167 HD
ATOM     67  C   UNL A   1      42.592  29.026  33.687  1.00  0.00     0.074 A 
ATOM     68  C   UNL A   1      43.054  28.029  32.744  1.00  0.00     0.031 C 
ATOM     69  C   UNL A   1      43.191  29.289  34.873  1.00  0.00     0.037 A 
BRANCH  56  70
ATOM     70  C   UNL A   1      40.487  33.804  38.114  1.00  0.00     0.057 A 
ATOM     71  C   UNL A   1      41.231  34.990  38.176  1.00  0.00     0.134 A 
ATOM     72  C   UNL A   1      39.724  33.463  39.238  1.00  0.00     0.134 A 
ATOM     73  F   UNL A   1      41.992  35.370  37.138  1.00  0.00    -0.206 F 
ATOM     74  C   UNL A   1      41.241  35.789  39.322  1.00  0.00     0.040 A 
ATOM     75  C   UNL A   1      39.704  34.267  40.379  1.00  0.00     0.040 A 
ATOM     76  F   UNL A   1      38.983  32.344  39.246  1.00  0.00    -0.206 F 
ATOM     77  C   UNL A   1      40.470  35.431  40.425  1.00  0.00     0.006 A 
ENDBRANCH  56  70
BRANCH  57  78
ATOM     78  C   UNL A   1      40.171  28.440  29.701  1.00  0.00     0.057 A 
ATOM     79  C   UNL A   1      39.417  27.264  29.616  1.00  0.00     0.134 A 
ATOM     80  C   UNL A   1      40.892  28.828  28.566  1.00  0.00     0.134 A 
ATOM     81  F   UNL A   1      38.717  26.832  30.676  1.00  0.00    -0.206 F 
ATOM     82  C   UNL A   1      39.396  26.490  28.454  1.00  0.00     0.040 A 
ATOM     83  C   UNL A   1      40.862  28.076  27.390  1.00  0.00     0.040 A 
ATOM     84  F   UNL A   1      41.628  29.949  28.582  1.00  0.00    -0.206 F 
ATOM     85  C   UNL A   1      40.118  26.900  27.335  1.00  0.00     0.006 A 
ENDBRANCH  57  78
BRANCH  69  86
ATOM     86  C   UNL A   1      44.387  28.459  35.235  1.00  0.00     0.057 A 
ATOM     87  C   UNL A   1      44.267  27.253  35.935  1.00  0.00     0.134 A 
ATOM     88  C   UNL A   1      45.673  28.859  34.848  1.00  0.00     0.134 A 
ATOM     89  F   UNL A   1      43.065  26.822  36.345  1.00  0.00    -0.206 F 
ATOM     90  C   UNL A   1      45.386  26.484  36.258  1.00  0.00     0.040 A 
ATOM     91  C   UNL A   1      46.796  28.086  35.142  1.00  0.00     0.040 A 
ATOM     92  F   UNL A   1      45.856  30.000  34.167  1.00  0.00    -0.206 F 
ATOM     93  C   UNL A   1      46.655  26.898  35.855  1.00  0.00     0.006 A 
ENDBRANCH  69  86
ENDBRANCH  43  44
ENDBRANCH  35  38
ENDBRANCH  33  34
ENDBRANCH  32  33
ENDBRANCH   1  32
TORSDOF 15
ENDMDL
