MODEL 1
REMARK VINA RESULT:     -10.7      0.000      0.000
REMARK SMILES Cc1cc(Br)cnc1S[C@@H](C)CC(=O)NCCCCCCNC(=O)c1ccc(-c2c3nc(c(-c4c(F)cccc4F)c4ccc([nH]4)c(-c4c(F)cccc4F)c4nc(c(-c5c(F)cccc5F)c5ccc2[nH]5)C=C4)C=C3)cc1
REMARK SMILES IDX 18 1 17 2 16 3 15 4 13 5 14 6 12 8 10 9 11 10 9 11 8 12 1 13
REMARK SMILES IDX 2 14 3 15 4 16 7 17 5 18 6 19 19 20 20 21 21 22 22 23 23 24
REMARK SMILES IDX 24 26 25 27 26 28 78 29 27 30 77 31 28 32 29 33 30 34 71 35
REMARK SMILES IDX 31 36 76 37 70 38 72 39 32 40 75 41 69 42 68 43 33 45 59 46
REMARK SMILES IDX 42 47 58 48 43 49 46 50 57 51 73 52 44 53 45 54 56 56 74 57
REMARK SMILES IDX 47 58 34 59 35 60 40 61 36 62 37 63 39 64 41 65 38 66 60 67
REMARK SMILES IDX 61 68 66 69 62 70 63 71 65 72 67 73 64 74 48 75 49 76 54 77
REMARK SMILES IDX 50 78 51 79 53 80 55 81 52 82
REMARK H PARENT 15 7 22 25 72 44 46 55
REMARK Flexibility Score: inf
ROOT
ATOM      1  C   UNL A   1      32.387  29.710  26.643  1.00  0.00     0.002 C 
ENDROOT
BRANCH   1   2
ATOM      2  C   UNL A   1      31.746  28.446  27.225  1.00  0.00     0.021 C 
BRANCH   2   3
ATOM      3  C   UNL A   1      31.941  27.225  26.330  1.00  0.00     0.116 C 
BRANCH   3   4
ATOM      4  N   UNL A   1      31.408  26.037  26.965  1.00  0.00    -0.356 N 
ATOM      5  C   UNL A   1      31.695  24.733  26.693  1.00  0.00     0.221 C 
ATOM      6  O   UNL A   1      31.031  23.848  27.231  1.00  0.00    -0.275 OA
ATOM      7  H   UNL A   1      30.753  26.191  27.685  1.00  0.00     0.163 HD
BRANCH   5   8
ATOM      8  C   UNL A   1      32.829  24.401  25.743  1.00  0.00     0.114 C 
BRANCH   8   9
ATOM      9  C   UNL A   1      32.414  23.346  24.711  1.00  0.00     0.059 C 
ATOM     10  C   UNL A   1      33.606  22.907  23.843  1.00  0.00     0.020 C 
BRANCH   9  11
ATOM     11  S   UNL A   1      31.048  23.675  23.496  1.00  0.00    -0.103 SA
BRANCH  11  12
ATOM     12  C   UNL A   1      30.797  25.425  23.325  1.00  0.00     0.099 A 
ATOM     13  C   UNL A   1      32.747  25.942  21.719  1.00  0.00     0.047 C 
ATOM     14  C   UNL A   1      31.531  26.302  22.518  1.00  0.00    -0.018 A 
ATOM     15  C   UNL A   1      31.058  27.622  22.379  1.00  0.00     0.023 A 
ATOM     16  C   UNL A   1      29.889  28.021  23.009  1.00  0.00     0.036 A 
ATOM     17  N   UNL A   1      29.669  25.830  23.973  1.00  0.00    -0.248 NA
ATOM     18  Br  UNL A   1      29.211  29.762  22.775  1.00  0.00    -0.049 Br
ATOM     19  C   UNL A   1      29.231  27.098  23.790  1.00  0.00     0.128 A 
ENDBRANCH  11  12
ENDBRANCH   9  11
ENDBRANCH   8   9
ENDBRANCH   5   8
ENDBRANCH   3   4
ENDBRANCH   2   3
ENDBRANCH   1   2
BRANCH   1  20
ATOM     20  C   UNL A   1      31.404  30.642  25.921  1.00  0.00     0.002 C 
BRANCH  20  21
ATOM     21  C   UNL A   1      31.305  32.057  26.500  1.00  0.00     0.021 C 
BRANCH  21  22
ATOM     22  C   UNL A   1      32.606  32.589  27.095  1.00  0.00     0.116 C 
BRANCH  22  23
ATOM     23  N   UNL A   1      32.481  33.984  27.490  1.00  0.00    -0.352 N 
ATOM     24  C   UNL A   1      33.103  34.664  28.503  1.00  0.00     0.251 C 
ATOM     25  H   UNL A   1      31.858  34.519  26.948  1.00  0.00     0.163 HD
ATOM     26  O   UNL A   1      32.695  35.777  28.838  1.00  0.00    -0.269 OA
BRANCH  24  27
ATOM     27  C   UNL A   1      34.257  34.066  29.202  1.00  0.00     0.039 A 
ATOM     28  C   UNL A   1      34.026  33.217  30.287  1.00  0.00     0.014 A 
ATOM     29  C   UNL A   1      35.566  34.372  28.815  1.00  0.00     0.014 A 
ATOM     30  C   UNL A   1      35.105  32.637  30.955  1.00  0.00     0.010 A 
ATOM     31  C   UNL A   1      36.639  33.741  29.438  1.00  0.00     0.010 A 
ATOM     32  C   UNL A   1      36.420  32.876  30.519  1.00  0.00    -0.014 A 
BRANCH  32  33
ATOM     33  C   UNL A   1      37.574  32.228  31.189  1.00  0.00     0.031 A 
ATOM     34  C   UNL A   1      38.303  31.097  30.521  1.00  0.00     0.074 A 
ATOM     35  C   UNL A   1      37.924  32.619  32.430  1.00  0.00     0.049 A 
ATOM     36  N   UNL A   1      39.303  30.381  30.967  1.00  0.00    -0.248 NA
ATOM     37  C   UNL A   1      37.828  30.700  29.186  1.00  0.00     0.031 C 
ATOM     38  C   UNL A   1      37.255  33.665  33.206  1.00  0.00     0.029 A 
ATOM     39  N   UNL A   1      38.922  32.174  33.258  1.00  0.00    -0.354 N 
ATOM     40  C   UNL A   1      39.565  29.440  29.979  1.00  0.00     0.074 A 
ATOM     41  C   UNL A   1      38.589  29.645  28.931  1.00  0.00     0.031 C 
ATOM     42  C   UNL A   1      37.873  33.793  34.392  1.00  0.00     0.029 A 
ATOM     43  C   UNL A   1      38.959  32.821  34.470  1.00  0.00     0.049 A 
ATOM     44  H   UNL A   1      39.552  31.460  33.009  1.00  0.00     0.167 HD
ATOM     45  C   UNL A   1      40.543  28.504  29.939  1.00  0.00     0.037 A 
ATOM     46  C   UNL A   1      39.774  32.647  35.526  1.00  0.00     0.037 A 
ATOM     47  C   UNL A   1      41.529  28.321  30.972  1.00  0.00     0.049 A 
ATOM     48  C   UNL A   1      40.866  31.617  35.450  1.00  0.00     0.074 A 
ATOM     49  C   UNL A   1      42.607  27.453  30.991  1.00  0.00     0.029 A 
ATOM     50  N   UNL A   1      41.553  29.016  32.172  1.00  0.00    -0.354 N 
ATOM     51  N   UNL A   1      41.155  30.790  34.474  1.00  0.00    -0.248 NA
ATOM     52  C   UNL A   1      41.751  31.503  36.617  1.00  0.00     0.031 C 
ATOM     53  C   UNL A   1      43.258  27.592  32.222  1.00  0.00     0.029 A 
ATOM     54  C   UNL A   1      42.614  28.579  32.949  1.00  0.00     0.049 A 
ATOM     55  H   UNL A   1      40.912  29.716  32.433  1.00  0.00     0.167 HD
ATOM     56  C   UNL A   1      42.266  30.074  34.898  1.00  0.00     0.074 A 
ATOM     57  C   UNL A   1      42.610  30.577  36.212  1.00  0.00     0.031 C 
ATOM     58  C   UNL A   1      42.941  29.089  34.257  1.00  0.00     0.037 A 
BRANCH  45  59
ATOM     59  C   UNL A   1      40.591  27.604  28.738  1.00  0.00     0.057 A 
ATOM     60  C   UNL A   1      41.431  27.870  27.648  1.00  0.00     0.134 A 
ATOM     61  C   UNL A   1      39.809  26.445  28.680  1.00  0.00     0.134 A 
ATOM     62  F   UNL A   1      42.199  28.970  27.633  1.00  0.00    -0.206 F 
ATOM     63  C   UNL A   1      41.469  27.031  26.533  1.00  0.00     0.040 A 
ATOM     64  C   UNL A   1      39.858  25.583  27.583  1.00  0.00     0.040 A 
ATOM     65  F   UNL A   1      38.987  26.126  29.692  1.00  0.00    -0.206 F 
ATOM     66  C   UNL A   1      40.685  25.880  26.501  1.00  0.00     0.006 A 
ENDBRANCH  45  59
BRANCH  46  67
ATOM     67  C   UNL A   1      39.604  33.489  36.736  1.00  0.00     0.057 A 
ATOM     68  C   UNL A   1      38.759  33.094  37.778  1.00  0.00     0.134 A 
ATOM     69  C   UNL A   1      40.290  34.701  36.883  1.00  0.00     0.134 A 
ATOM     70  F   UNL A   1      38.062  31.952  37.686  1.00  0.00    -0.206 F 
ATOM     71  C   UNL A   1      38.586  33.882  38.918  1.00  0.00     0.040 A 
ATOM     72  C   UNL A   1      40.147  35.486  38.028  1.00  0.00     0.040 A 
ATOM     73  F   UNL A   1      41.124  35.128  35.924  1.00  0.00    -0.206 F 
ATOM     74  C   UNL A   1      39.286  35.079  39.047  1.00  0.00     0.006 A 
ENDBRANCH  46  67
BRANCH  58  75
ATOM     75  C   UNL A   1      44.132  28.508  34.960  1.00  0.00     0.057 A 
ATOM     76  C   UNL A   1      45.412  29.060  34.824  1.00  0.00     0.134 A 
ATOM     77  C   UNL A   1      43.992  27.402  35.807  1.00  0.00     0.134 A 
ATOM     78  F   UNL A   1      45.616  30.112  34.016  1.00  0.00    -0.206 F 
ATOM     79  C   UNL A   1      46.515  28.517  35.485  1.00  0.00     0.040 A 
ATOM     80  C   UNL A   1      45.081  26.865  36.495  1.00  0.00     0.040 A 
ATOM     81  F   UNL A   1      42.791  26.830  35.988  1.00  0.00    -0.206 F 
ATOM     82  C   UNL A   1      46.349  27.419  36.329  1.00  0.00     0.006 A 
ENDBRANCH  58  75
ENDBRANCH  32  33
ENDBRANCH  24  27
ENDBRANCH  22  23
ENDBRANCH  21  22
ENDBRANCH  20  21
ENDBRANCH   1  20
TORSDOF 16
ENDMDL
MODEL 2
REMARK VINA RESULT:     -10.5      2.132      3.039
REMARK SMILES Cc1cc(Br)cnc1S[C@@H](C)CC(=O)NCCCCCCNC(=O)c1ccc(-c2c3nc(c(-c4c(F)cccc4F)c4ccc([nH]4)c(-c4c(F)cccc4F)c4nc(c(-c5c(F)cccc5F)c5ccc2[nH]5)C=C4)C=C3)cc1
REMARK SMILES IDX 18 1 17 2 16 3 15 4 13 5 14 6 12 8 10 9 11 10 9 11 8 12 1 13
REMARK SMILES IDX 2 14 3 15 4 16 7 17 5 18 6 19 19 20 20 21 21 22 22 23 23 24
REMARK SMILES IDX 24 26 25 27 26 28 78 29 27 30 77 31 28 32 29 33 30 34 71 35
REMARK SMILES IDX 31 36 76 37 70 38 72 39 32 40 75 41 69 42 68 43 33 45 59 46
REMARK SMILES IDX 42 47 58 48 43 49 46 50 57 51 73 52 44 53 45 54 56 56 74 57
REMARK SMILES IDX 47 58 34 59 35 60 40 61 36 62 37 63 39 64 41 65 38 66 60 67
REMARK SMILES IDX 61 68 66 69 62 70 63 71 65 72 67 73 64 74 48 75 49 76 54 77
REMARK SMILES IDX 50 78 51 79 53 80 55 81 52 82
REMARK H PARENT 15 7 22 25 72 44 46 55
REMARK Flexibility Score: inf
ROOT
ATOM      1  C   UNL A   1      32.615  30.278  26.733  1.00  0.00     0.002 C 
ENDROOT
BRANCH   1   2
ATOM      2  C   UNL A   1      33.043  29.164  25.773  1.00  0.00     0.021 C 
BRANCH   2   3
ATOM      3  C   UNL A   1      32.347  29.258  24.418  1.00  0.00     0.116 C 
BRANCH   3   4
ATOM      4  N   UNL A   1      33.315  29.198  23.342  1.00  0.00    -0.356 N 
ATOM      5  C   UNL A   1      33.503  28.204  22.430  1.00  0.00     0.221 C 
ATOM      6  O   UNL A   1      34.476  28.255  21.679  1.00  0.00    -0.275 OA
ATOM      7  H   UNL A   1      33.915  29.975  23.260  1.00  0.00     0.163 HD
BRANCH   5   8
ATOM      8  C   UNL A   1      32.506  27.063  22.353  1.00  0.00     0.114 C 
BRANCH   8   9
ATOM      9  C   UNL A   1      33.130  25.805  21.739  1.00  0.00     0.059 C 
ATOM     10  C   UNL A   1      32.528  25.494  20.358  1.00  0.00     0.020 C 
BRANCH   9  11
ATOM     11  S   UNL A   1      33.098  24.180  22.639  1.00  0.00    -0.103 SA
BRANCH  11  12
ATOM     12  C   UNL A   1      34.570  24.001  23.618  1.00  0.00     0.099 A 
ATOM     13  C   UNL A   1      33.750  25.165  25.767  1.00  0.00     0.047 C 
ATOM     14  C   UNL A   1      34.746  24.404  24.946  1.00  0.00    -0.018 A 
ATOM     15  C   UNL A   1      35.926  24.006  25.605  1.00  0.00     0.023 A 
ATOM     16  C   UNL A   1      36.866  23.222  24.954  1.00  0.00     0.036 A 
ATOM     17  N   UNL A   1      35.511  23.261  22.968  1.00  0.00    -0.248 NA
ATOM     18  Br  UNL A   1      38.414  22.627  25.846  1.00  0.00    -0.049 Br
ATOM     19  C   UNL A   1      36.618  22.874  23.645  1.00  0.00     0.128 A 
ENDBRANCH  11  12
ENDBRANCH   9  11
ENDBRANCH   8   9
ENDBRANCH   5   8
ENDBRANCH   3   4
ENDBRANCH   2   3
ENDBRANCH   1   2
BRANCH   1  20
ATOM     20  C   UNL A   1      31.325  31.003  26.325  1.00  0.00     0.002 C 
BRANCH  20  21
ATOM     21  C   UNL A   1      31.314  32.510  26.594  1.00  0.00     0.021 C 
BRANCH  21  22
ATOM     22  C   UNL A   1      32.582  33.046  27.251  1.00  0.00     0.116 C 
BRANCH  22  23
ATOM     23  N   UNL A   1      32.413  34.421  27.699  1.00  0.00    -0.352 N 
ATOM     24  C   UNL A   1      33.017  35.083  28.733  1.00  0.00     0.251 C 
ATOM     25  H   UNL A   1      31.769  34.954  27.180  1.00  0.00     0.163 HD
ATOM     26  O   UNL A   1      32.574  36.168  29.112  1.00  0.00    -0.269 OA
BRANCH  24  27
ATOM     27  C   UNL A   1      34.195  34.499  29.404  1.00  0.00     0.039 A 
ATOM     28  C   UNL A   1      34.012  33.778  30.587  1.00  0.00     0.014 A 
ATOM     29  C   UNL A   1      35.481  34.694  28.892  1.00  0.00     0.014 A 
ATOM     30  C   UNL A   1      35.113  33.213  31.231  1.00  0.00     0.010 A 
ATOM     31  C   UNL A   1      36.571  34.074  29.497  1.00  0.00     0.010 A 
ATOM     32  C   UNL A   1      36.399  33.336  30.677  1.00  0.00    -0.014 A 
BRANCH  32  33
ATOM     33  C   UNL A   1      37.572  32.700  31.325  1.00  0.00     0.031 A 
ATOM     34  C   UNL A   1      38.235  31.508  30.692  1.00  0.00     0.074 A 
ATOM     35  C   UNL A   1      37.999  33.158  32.517  1.00  0.00     0.049 A 
ATOM     36  N   UNL A   1      39.240  30.794  31.129  1.00  0.00    -0.248 NA
ATOM     37  C   UNL A   1      37.677  31.042  29.413  1.00  0.00     0.031 C 
ATOM     38  C   UNL A   1      37.401  34.269  33.259  1.00  0.00     0.029 A 
ATOM     39  N   UNL A   1      39.030  32.738  33.317  1.00  0.00    -0.354 N 
ATOM     40  C   UNL A   1      39.423  29.786  30.191  1.00  0.00     0.074 A 
ATOM     41  C   UNL A   1      38.396  29.952  29.186  1.00  0.00     0.031 C 
ATOM     42  C   UNL A   1      38.087  34.454  34.398  1.00  0.00     0.029 A 
ATOM     43  C   UNL A   1      39.151  33.459  34.481  1.00  0.00     0.049 A 
ATOM     44  H   UNL A   1      39.628  31.992  33.082  1.00  0.00     0.167 HD
ATOM     45  C   UNL A   1      40.374  28.822  30.159  1.00  0.00     0.037 A 
ATOM     46  C   UNL A   1      40.019  33.329  35.501  1.00  0.00     0.037 A 
ATOM     47  C   UNL A   1      41.411  28.676  31.148  1.00  0.00     0.049 A 
ATOM     48  C   UNL A   1      41.079  32.265  35.433  1.00  0.00     0.074 A 
ATOM     49  C   UNL A   1      42.467  27.781  31.165  1.00  0.00     0.029 A 
ATOM     50  N   UNL A   1      41.519  29.445  32.297  1.00  0.00    -0.354 N 
ATOM     51  N   UNL A   1      41.292  31.371  34.498  1.00  0.00    -0.248 NA
ATOM     52  C   UNL A   1      42.024  32.201  36.556  1.00  0.00     0.031 C 
ATOM     53  C   UNL A   1      43.188  27.979  32.347  1.00  0.00     0.029 A 
ATOM     54  C   UNL A   1      42.610  29.028  33.043  1.00  0.00     0.049 A 
ATOM     55  H   UNL A   1      40.910  30.177  32.547  1.00  0.00     0.167 HD
ATOM     56  C   UNL A   1      42.407  30.652  34.907  1.00  0.00     0.074 A 
ATOM     57  C   UNL A   1      42.835  31.226  36.166  1.00  0.00     0.031 C 
ATOM     58  C   UNL A   1      43.021  29.610  34.296  1.00  0.00     0.037 A 
BRANCH  45  59
ATOM     59  C   UNL A   1      40.334  27.847  29.018  1.00  0.00     0.057 A 
ATOM     60  C   UNL A   1      41.052  28.064  27.834  1.00  0.00     0.134 A 
ATOM     61  C   UNL A   1      39.590  26.665  29.112  1.00  0.00     0.134 A 
ATOM     62  F   UNL A   1      41.776  29.182  27.673  1.00  0.00    -0.206 F 
ATOM     63  C   UNL A   1      41.008  27.155  26.775  1.00  0.00     0.040 A 
ATOM     64  C   UNL A   1      39.559  25.735  28.072  1.00  0.00     0.040 A 
ATOM     65  F   UNL A   1      38.884  26.391  30.220  1.00  0.00    -0.206 F 
ATOM     66  C   UNL A   1      40.264  25.983  26.895  1.00  0.00     0.006 A 
ENDBRANCH  45  59
BRANCH  46  67
ATOM     67  C   UNL A   1      39.936  34.250  36.661  1.00  0.00     0.057 A 
ATOM     68  C   UNL A   1      39.142  33.944  37.771  1.00  0.00     0.134 A 
ATOM     69  C   UNL A   1      40.657  35.450  36.692  1.00  0.00     0.134 A 
ATOM     70  F   UNL A   1      38.416  32.817  37.792  1.00  0.00    -0.206 F 
ATOM     71  C   UNL A   1      39.053  34.807  38.866  1.00  0.00     0.040 A 
ATOM     72  C   UNL A   1      40.597  36.310  37.789  1.00  0.00     0.040 A 
ATOM     73  F   UNL A   1      41.445  35.794  35.662  1.00  0.00    -0.206 F 
ATOM     74  C   UNL A   1      39.786  35.991  38.878  1.00  0.00     0.006 A 
ENDBRANCH  46  67
BRANCH  58  75
ATOM     75  C   UNL A   1      44.234  29.041  34.970  1.00  0.00     0.057 A 
ATOM     76  C   UNL A   1      44.146  27.976  35.876  1.00  0.00     0.134 A 
ATOM     77  C   UNL A   1      45.510  29.544  34.688  1.00  0.00     0.134 A 
ATOM     78  F   UNL A   1      42.951  27.457  36.200  1.00  0.00    -0.206 F 
ATOM     79  C   UNL A   1      45.280  27.448  36.495  1.00  0.00     0.040 A 
ATOM     80  C   UNL A   1      46.655  29.009  35.280  1.00  0.00     0.040 A 
ATOM     81  F   UNL A   1      45.666  30.558  33.823  1.00  0.00    -0.206 F 
ATOM     82  C   UNL A   1      46.540  27.962  36.192  1.00  0.00     0.006 A 
ENDBRANCH  58  75
ENDBRANCH  32  33
ENDBRANCH  24  27
ENDBRANCH  22  23
ENDBRANCH  21  22
ENDBRANCH  20  21
ENDBRANCH   1  20
TORSDOF 16
ENDMDL
MODEL 3
REMARK VINA RESULT:     -10.5      4.642      9.047
REMARK SMILES Cc1cc(Br)cnc1S[C@@H](C)CC(=O)NCCCCCCNC(=O)c1ccc(-c2c3nc(c(-c4c(F)cccc4F)c4ccc([nH]4)c(-c4c(F)cccc4F)c4nc(c(-c5c(F)cccc5F)c5ccc2[nH]5)C=C4)C=C3)cc1
REMARK SMILES IDX 18 1 17 2 16 3 15 4 13 5 14 6 12 8 10 9 11 10 9 11 8 12 1 13
REMARK SMILES IDX 2 14 3 15 4 16 7 17 5 18 6 19 19 20 20 21 21 22 22 23 23 24
REMARK SMILES IDX 24 26 25 27 26 28 78 29 27 30 77 31 28 32 29 33 30 34 71 35
REMARK SMILES IDX 31 36 76 37 70 38 72 39 32 40 75 41 69 42 68 43 33 45 59 46
REMARK SMILES IDX 42 47 58 48 43 49 46 50 57 51 73 52 44 53 45 54 56 56 74 57
REMARK SMILES IDX 47 58 34 59 35 60 40 61 36 62 37 63 39 64 41 65 38 66 60 67
REMARK SMILES IDX 61 68 66 69 62 70 63 71 65 72 67 73 64 74 48 75 49 76 54 77
REMARK SMILES IDX 50 78 51 79 53 80 55 81 52 82
REMARK H PARENT 15 7 22 25 72 44 46 55
REMARK Flexibility Score: inf
ROOT
ATOM      1  C   UNL A   1      37.161  22.524  25.286  1.00  0.00     0.002 C 
ENDROOT
BRANCH   1   2
ATOM      2  C   UNL A   1      36.143  21.401  25.067  1.00  0.00     0.021 C 
BRANCH   2   3
ATOM      3  C   UNL A   1      35.032  21.406  26.113  1.00  0.00     0.116 C 
BRANCH   3   4
ATOM      4  N   UNL A   1      34.034  20.402  25.801  1.00  0.00    -0.356 N 
ATOM      5  C   UNL A   1      32.873  20.553  25.106  1.00  0.00     0.221 C 
ATOM      6  O   UNL A   1      32.070  19.621  25.068  1.00  0.00    -0.275 OA
ATOM      7  H   UNL A   1      34.219  19.494  26.136  1.00  0.00     0.163 HD
BRANCH   5   8
ATOM      8  C   UNL A   1      32.598  21.859  24.386  1.00  0.00     0.114 C 
BRANCH   8   9
ATOM      9  C   UNL A   1      31.504  22.674  25.085  1.00  0.00     0.059 C 
ATOM     10  C   UNL A   1      30.976  23.801  24.181  1.00  0.00     0.020 C 
BRANCH   9  11
ATOM     11  S   UNL A   1      31.815  23.495  26.722  1.00  0.00    -0.103 SA
BRANCH  11  12
ATOM     12  C   UNL A   1      32.195  25.212  26.475  1.00  0.00     0.099 A 
ATOM     13  C   UNL A   1      34.517  24.943  25.387  1.00  0.00     0.047 C 
ATOM     14  C   UNL A   1      33.338  25.737  25.861  1.00  0.00    -0.018 A 
ATOM     15  C   UNL A   1      33.367  27.121  25.594  1.00  0.00     0.023 A 
ATOM     16  C   UNL A   1      32.282  27.923  25.916  1.00  0.00     0.036 A 
ATOM     17  N   UNL A   1      31.145  26.008  26.822  1.00  0.00    -0.248 NA
ATOM     18  Br  UNL A   1      32.282  29.760  25.502  1.00  0.00    -0.049 Br
ATOM     19  C   UNL A   1      31.199  27.328  26.522  1.00  0.00     0.128 A 
ENDBRANCH  11  12
ENDBRANCH   9  11
ENDBRANCH   8   9
ENDBRANCH   5   8
ENDBRANCH   3   4
ENDBRANCH   2   3
ENDBRANCH   1   2
BRANCH   1  20
ATOM     20  C   UNL A   1      38.538  22.045  25.766  1.00  0.00     0.002 C 
BRANCH  20  21
ATOM     21  C   UNL A   1      38.958  20.662  25.259  1.00  0.00     0.021 C 
BRANCH  21  22
ATOM     22  C   UNL A   1      39.519  19.737  26.336  1.00  0.00     0.116 C 
BRANCH  22  23
ATOM     23  N   UNL A   1      40.769  19.123  25.915  1.00  0.00    -0.352 N 
ATOM     24  C   UNL A   1      42.016  19.675  25.793  1.00  0.00     0.251 C 
ATOM     25  H   UNL A   1      40.710  18.168  25.685  1.00  0.00     0.163 HD
ATOM     26  O   UNL A   1      42.904  19.065  25.194  1.00  0.00    -0.269 OA
BRANCH  24  27
ATOM     27  C   UNL A   1      42.302  21.003  26.369  1.00  0.00     0.039 A 
ATOM     28  C   UNL A   1      42.669  22.047  25.515  1.00  0.00     0.014 A 
ATOM     29  C   UNL A   1      42.247  21.212  27.751  1.00  0.00     0.014 A 
ATOM     30  C   UNL A   1      42.935  23.311  26.042  1.00  0.00     0.010 A 
ATOM     31  C   UNL A   1      42.447  22.488  28.268  1.00  0.00     0.010 A 
ATOM     32  C   UNL A   1      42.803  23.547  27.421  1.00  0.00    -0.014 A 
BRANCH  32  33
ATOM     33  C   UNL A   1      43.036  24.898  27.988  1.00  0.00     0.031 A 
ATOM     34  C   UNL A   1      44.410  25.304  28.442  1.00  0.00     0.074 A 
ATOM     35  C   UNL A   1      41.994  25.735  28.152  1.00  0.00     0.049 A 
ATOM     36  N   UNL A   1      44.798  26.421  29.001  1.00  0.00    -0.248 NA
ATOM     37  C   UNL A   1      45.483  24.314  28.270  1.00  0.00     0.031 C 
ATOM     38  C   UNL A   1      40.604  25.433  27.806  1.00  0.00     0.029 A 
ATOM     39  N   UNL A   1      41.942  27.007  28.663  1.00  0.00    -0.354 N 
ATOM     40  C   UNL A   1      46.153  26.263  29.263  1.00  0.00     0.074 A 
ATOM     41  C   UNL A   1      46.509  24.924  28.847  1.00  0.00     0.031 C 
ATOM     42  C   UNL A   1      39.839  26.497  28.097  1.00  0.00     0.029 A 
ATOM     43  C   UNL A   1      40.677  27.542  28.677  1.00  0.00     0.049 A 
ATOM     44  H   UNL A   1      42.735  27.491  28.988  1.00  0.00     0.167 HD
ATOM     45  C   UNL A   1      47.025  27.158  29.785  1.00  0.00     0.037 A 
ATOM     46  C   UNL A   1      40.241  28.738  29.113  1.00  0.00     0.037 A 
ATOM     47  C   UNL A   1      46.671  28.499  30.173  1.00  0.00     0.049 A 
ATOM     48  C   UNL A   1      41.231  29.723  29.668  1.00  0.00     0.074 A 
ATOM     49  C   UNL A   1      47.497  29.508  30.639  1.00  0.00     0.029 A 
ATOM     50  N   UNL A   1      45.385  29.015  30.145  1.00  0.00    -0.354 N 
ATOM     51  N   UNL A   1      42.525  29.590  29.832  1.00  0.00    -0.248 NA
ATOM     52  C   UNL A   1      40.702  31.029  30.086  1.00  0.00     0.031 C 
ATOM     53  C   UNL A   1      46.702  30.621  30.935  1.00  0.00     0.029 A 
ATOM     54  C   UNL A   1      45.389  30.321  30.608  1.00  0.00     0.049 A 
ATOM     55  H   UNL A   1      44.586  28.526  29.841  1.00  0.00     0.167 HD
ATOM     56  C   UNL A   1      42.969  30.798  30.353  1.00  0.00     0.074 A 
ATOM     57  C   UNL A   1      41.808  31.658  30.459  1.00  0.00     0.031 C 
ATOM     58  C   UNL A   1      44.224  31.163  30.710  1.00  0.00     0.037 A 
BRANCH  45  59
ATOM     59  C   UNL A   1      48.447  26.714  29.967  1.00  0.00     0.057 A 
ATOM     60  C   UNL A   1      48.882  26.086  31.143  1.00  0.00     0.134 A 
ATOM     61  C   UNL A   1      49.389  26.890  28.946  1.00  0.00     0.134 A 
ATOM     62  F   UNL A   1      48.034  25.896  32.165  1.00  0.00    -0.206 F 
ATOM     63  C   UNL A   1      50.206  25.678  31.307  1.00  0.00     0.040 A 
ATOM     64  C   UNL A   1      50.710  26.462  29.087  1.00  0.00     0.040 A 
ATOM     65  F   UNL A   1      49.040  27.478  27.791  1.00  0.00    -0.206 F 
ATOM     66  C   UNL A   1      51.124  25.861  30.274  1.00  0.00     0.006 A 
ENDBRANCH  45  59
BRANCH  46  67
ATOM     67  C   UNL A   1      38.800  29.078  29.015  1.00  0.00     0.057 A 
ATOM     68  C   UNL A   1      37.956  28.976  30.125  1.00  0.00     0.134 A 
ATOM     69  C   UNL A   1      38.236  29.525  27.813  1.00  0.00     0.134 A 
ATOM     70  F   UNL A   1      38.435  28.538  31.299  1.00  0.00    -0.206 F 
ATOM     71  C   UNL A   1      36.598  29.287  30.043  1.00  0.00     0.040 A 
ATOM     72  C   UNL A   1      36.886  29.863  27.722  1.00  0.00     0.040 A 
ATOM     73  F   UNL A   1      38.996  29.655  26.715  1.00  0.00    -0.206 F 
ATOM     74  C   UNL A   1      36.061  29.738  28.839  1.00  0.00     0.006 A 
ENDBRANCH  46  67
BRANCH  58  75
ATOM     75  C   UNL A   1      44.409  32.559  31.227  1.00  0.00     0.057 A 
ATOM     76  C   UNL A   1      44.355  32.854  32.596  1.00  0.00     0.134 A 
ATOM     77  C   UNL A   1      44.673  33.617  30.348  1.00  0.00     0.134 A 
ATOM     78  F   UNL A   1      44.092  31.887  33.489  1.00  0.00    -0.206 F 
ATOM     79  C   UNL A   1      44.533  34.154  33.069  1.00  0.00     0.040 A 
ATOM     80  C   UNL A   1      44.879  34.917  30.811  1.00  0.00     0.040 A 
ATOM     81  F   UNL A   1      44.746  33.401  29.026  1.00  0.00    -0.206 F 
ATOM     82  C   UNL A   1      44.802  35.190  32.175  1.00  0.00     0.006 A 
ENDBRANCH  58  75
ENDBRANCH  32  33
ENDBRANCH  24  27
ENDBRANCH  22  23
ENDBRANCH  21  22
ENDBRANCH  20  21
ENDBRANCH   1  20
TORSDOF 16
ENDMDL
