MODEL 1
REMARK VINA RESULT:     -11.0      0.000      0.000
REMARK SMILES CC[C@@](C)(NC(=O)Nc1ccccc1C#N)C(=O)NCCCCCCNC(=O)c1ccc(-c2c3nc(c(-c4c(F)cccc4F)c4ccc([nH]4)c(-c4c(F)cccc4F)c4nc(c(-c5c(F)cccc5F)c5ccc2[nH]5)C=C4)C=C3)cc1
REMARK SMILES IDX 22 1 21 2 20 3 19 4 17 5 18 6 3 8 4 9 2 10 1 11 5 12 6 13
REMARK SMILES IDX 7 15 8 16 9 18 10 19 14 20 11 21 13 22 12 23 15 24 16 25
REMARK SMILES IDX 23 26 24 27 25 28 26 29 27 30 28 32 29 33 30 34 82 35 31 36
REMARK SMILES IDX 81 37 32 38 33 39 34 40 75 41 35 42 80 43 74 44 76 45 36 46
REMARK SMILES IDX 79 47 73 48 72 49 37 51 63 52 46 53 62 54 47 55 50 56 61 57
REMARK SMILES IDX 77 58 48 59 49 60 60 62 78 63 51 64 38 65 39 66 44 67 40 68
REMARK SMILES IDX 41 69 43 70 45 71 42 72 64 73 65 74 70 75 66 76 67 77 69 78
REMARK SMILES IDX 71 79 68 80 52 81 53 82 58 83 54 84 55 85 57 86 59 87 56 88
REMARK H PARENT 19 7 5 14 8 17 26 31 76 50 50 61
REMARK Flexibility Score: inf
ROOT
ATOM      1  C   UNL A   1      36.625  23.517  25.408  1.00  0.00     0.002 C 
ENDROOT
BRANCH   1   2
ATOM      2  C   UNL A   1      35.217  23.801  25.981  1.00  0.00     0.021 C 
BRANCH   2   3
ATOM      3  C   UNL A   1      34.343  24.961  25.426  1.00  0.00     0.116 C 
BRANCH   3   4
ATOM      4  N   UNL A   1      33.320  25.433  26.348  1.00  0.00    -0.354 N 
ATOM      5  C   UNL A   1      32.034  25.952  26.199  1.00  0.00     0.245 C 
ATOM      6  O   UNL A   1      31.081  25.503  26.833  1.00  0.00    -0.272 OA
ATOM      7  H   UNL A   1      33.598  25.371  27.291  1.00  0.00     0.163 HD
BRANCH   5   8
ATOM      8  C   UNL A   1      31.845  27.110  25.219  1.00  0.00     0.117 C 
ATOM      9  C   UNL A   1      32.229  28.294  26.148  1.00  0.00     0.045 C 
BRANCH   8  10
ATOM     10  C   UNL A   1      32.635  27.294  23.899  1.00  0.00     0.035 C 
ATOM     11  C   UNL A   1      33.763  28.297  23.836  1.00  0.00     0.007 C 
ENDBRANCH   8  10
BRANCH   8  12
ATOM     12  N   UNL A   1      30.438  27.033  24.842  1.00  0.00    -0.324 N 
ATOM     13  C   UNL A   1      29.733  26.117  24.166  1.00  0.00     0.320 C 
ATOM     14  H   UNL A   1      29.903  27.803  25.143  1.00  0.00     0.166 HD
ATOM     15  O   UNL A   1      28.590  26.477  23.847  1.00  0.00    -0.248 OA
ATOM     16  N   UNL A   1      30.039  24.838  23.828  1.00  0.00    -0.307 N 
ATOM     17  H   UNL A   1      29.195  24.342  23.726  1.00  0.00     0.171 HD
BRANCH  16  18
ATOM     18  C   UNL A   1      31.126  23.925  23.562  1.00  0.00     0.060 A 
ATOM     19  C   UNL A   1      31.288  23.027  24.642  1.00  0.00     0.027 A 
ATOM     20  C   UNL A   1      32.186  23.874  22.606  1.00  0.00     0.076 A 
ATOM     21  C   UNL A   1      32.258  22.017  24.663  1.00  0.00     0.002 A 
ATOM     22  C   UNL A   1      33.073  22.773  22.573  1.00  0.00     0.021 A 
ATOM     23  C   UNL A   1      33.105  21.842  23.587  1.00  0.00     0.002 A 
BRANCH  20  24
ATOM     24  C   UNL A   1      32.748  24.892  21.756  1.00  0.00     0.101 C 
ATOM     25  N   UNL A   1      33.325  25.592  21.019  1.00  0.00    -0.192 NA
ENDBRANCH  20  24
ENDBRANCH  16  18
ENDBRANCH   8  12
ENDBRANCH   5   8
ENDBRANCH   3   4
ENDBRANCH   2   3
ENDBRANCH   1   2
BRANCH   1  26
ATOM     26  C   UNL A   1      36.743  22.626  24.176  1.00  0.00     0.002 C 
BRANCH  26  27
ATOM     27  C   UNL A   1      37.338  21.252  24.400  1.00  0.00     0.021 C 
BRANCH  27  28
ATOM     28  C   UNL A   1      38.283  21.185  25.582  1.00  0.00     0.116 C 
BRANCH  28  29
ATOM     29  N   UNL A   1      39.121  19.995  25.566  1.00  0.00    -0.352 N 
ATOM     30  C   UNL A   1      40.441  19.881  25.930  1.00  0.00     0.251 C 
ATOM     31  H   UNL A   1      38.686  19.167  25.255  1.00  0.00     0.163 HD
ATOM     32  O   UNL A   1      41.065  18.845  25.728  1.00  0.00    -0.269 OA
BRANCH  30  33
ATOM     33  C   UNL A   1      41.112  21.049  26.535  1.00  0.00     0.039 A 
ATOM     34  C   UNL A   1      41.688  22.005  25.698  1.00  0.00     0.014 A 
ATOM     35  C   UNL A   1      41.095  21.236  27.921  1.00  0.00     0.014 A 
ATOM     36  C   UNL A   1      42.180  23.189  26.248  1.00  0.00     0.010 A 
ATOM     37  C   UNL A   1      41.493  22.456  28.453  1.00  0.00     0.010 A 
ATOM     38  C   UNL A   1      42.041  23.446  27.622  1.00  0.00    -0.014 A 
BRANCH  38  39
ATOM     39  C   UNL A   1      42.450  24.748  28.205  1.00  0.00     0.031 A 
ATOM     40  C   UNL A   1      41.439  25.842  28.398  1.00  0.00     0.074 A 
ATOM     41  C   UNL A   1      43.746  24.966  28.503  1.00  0.00     0.049 A 
ATOM     42  N   UNL A   1      41.615  27.062  28.839  1.00  0.00    -0.248 NA
ATOM     43  C   UNL A   1      40.051  25.534  28.020  1.00  0.00     0.031 C 
ATOM     44  C   UNL A   1      44.832  24.003  28.312  1.00  0.00     0.029 A 
ATOM     45  N   UNL A   1      44.372  26.073  29.018  1.00  0.00    -0.354 N 
ATOM     46  C   UNL A   1      40.365  27.665  28.786  1.00  0.00     0.074 A 
ATOM     47  C   UNL A   1      39.456  26.700  28.207  1.00  0.00     0.031 C 
ATOM     48  C   UNL A   1      45.985  24.552  28.724  1.00  0.00     0.029 A 
ATOM     49  C   UNL A   1      45.730  25.922  29.161  1.00  0.00     0.049 A 
ATOM     50  H   UNL A   1      43.894  26.898  29.262  1.00  0.00     0.167 HD
ATOM     51  C   UNL A   1      40.003  28.900  29.207  1.00  0.00     0.037 A 
ATOM     52  C   UNL A   1      46.670  26.792  29.576  1.00  0.00     0.037 A 
ATOM     53  C   UNL A   1      40.915  29.856  29.779  1.00  0.00     0.049 A 
ATOM     54  C   UNL A   1      46.252  28.172  30.002  1.00  0.00     0.074 A 
ATOM     55  C   UNL A   1      40.639  31.116  30.282  1.00  0.00     0.029 A 
ATOM     56  N   UNL A   1      42.283  29.664  29.909  1.00  0.00    -0.354 N 
ATOM     57  N   UNL A   1      45.054  28.704  30.023  1.00  0.00    -0.248 NA
ATOM     58  C   UNL A   1      47.316  29.074  30.466  1.00  0.00     0.031 C 
ATOM     59  C   UNL A   1      41.848  31.713  30.650  1.00  0.00     0.029 A 
ATOM     60  C   UNL A   1      42.870  30.798  30.448  1.00  0.00     0.049 A 
ATOM     61  H   UNL A   1      42.765  28.844  29.658  1.00  0.00     0.167 HD
ATOM     62  C   UNL A   1      45.215  29.990  30.523  1.00  0.00     0.074 A 
ATOM     63  C   UNL A   1      46.624  30.152  30.810  1.00  0.00     0.031 C 
ATOM     64  C   UNL A   1      44.278  30.950  30.726  1.00  0.00     0.037 A 
BRANCH  51  65
ATOM     65  C   UNL A   1      38.559  29.288  29.044  1.00  0.00     0.057 A 
ATOM     66  C   UNL A   1      38.033  29.697  27.811  1.00  0.00     0.134 A 
ATOM     67  C   UNL A   1      37.679  29.240  30.133  1.00  0.00     0.134 A 
ATOM     68  F   UNL A   1      38.821  29.774  26.727  1.00  0.00    -0.206 F 
ATOM     69  C   UNL A   1      36.699  30.086  27.675  1.00  0.00     0.040 A 
ATOM     70  C   UNL A   1      36.335  29.592  30.003  1.00  0.00     0.040 A 
ATOM     71  F   UNL A   1      38.110  28.850  31.342  1.00  0.00    -0.206 F 
ATOM     72  C   UNL A   1      35.844  30.028  28.773  1.00  0.00     0.006 A 
ENDBRANCH  51  65
BRANCH  52  73
ATOM     73  C   UNL A   1      48.097  26.381  29.603  1.00  0.00     0.057 A 
ATOM     74  C   UNL A   1      48.664  25.784  30.735  1.00  0.00     0.134 A 
ATOM     75  C   UNL A   1      48.928  26.571  28.492  1.00  0.00     0.134 A 
ATOM     76  F   UNL A   1      47.926  25.591  31.837  1.00  0.00    -0.206 F 
ATOM     77  C   UNL A   1      50.009  25.407  30.768  1.00  0.00     0.040 A 
ATOM     78  C   UNL A   1      50.265  26.171  28.500  1.00  0.00     0.040 A 
ATOM     79  F   UNL A   1      48.446  27.131  27.372  1.00  0.00    -0.206 F 
ATOM     80  C   UNL A   1      50.811  25.593  29.644  1.00  0.00     0.006 A 
ENDBRANCH  52  73
BRANCH  64  81
ATOM     81  C   UNL A   1      44.740  32.254  31.311  1.00  0.00     0.057 A 
ATOM     82  C   UNL A   1      44.810  32.465  32.694  1.00  0.00     0.134 A 
ATOM     83  C   UNL A   1      45.168  33.296  30.478  1.00  0.00     0.134 A 
ATOM     84  F   UNL A   1      44.405  31.514  33.549  1.00  0.00    -0.206 F 
ATOM     85  C   UNL A   1      45.265  33.673  33.226  1.00  0.00     0.040 A 
ATOM     86  C   UNL A   1      45.657  34.496  30.998  1.00  0.00     0.040 A 
ATOM     87  F   UNL A   1      45.138  33.159  29.144  1.00  0.00    -0.206 F 
ATOM     88  C   UNL A   1      45.699  34.690  32.376  1.00  0.00     0.006 A 
ENDBRANCH  64  81
ENDBRANCH  38  39
ENDBRANCH  30  33
ENDBRANCH  28  29
ENDBRANCH  27  28
ENDBRANCH  26  27
ENDBRANCH   1  26
TORSDOF 17
ENDMDL
MODEL 2
REMARK VINA RESULT:     -10.9      4.146      8.551
REMARK SMILES CC[C@@](C)(NC(=O)Nc1ccccc1C#N)C(=O)NCCCCCCNC(=O)c1ccc(-c2c3nc(c(-c4c(F)cccc4F)c4ccc([nH]4)c(-c4c(F)cccc4F)c4nc(c(-c5c(F)cccc5F)c5ccc2[nH]5)C=C4)C=C3)cc1
REMARK SMILES IDX 22 1 21 2 20 3 19 4 17 5 18 6 3 8 4 9 2 10 1 11 5 12 6 13
REMARK SMILES IDX 7 15 8 16 9 18 10 19 14 20 11 21 13 22 12 23 15 24 16 25
REMARK SMILES IDX 23 26 24 27 25 28 26 29 27 30 28 32 29 33 30 34 82 35 31 36
REMARK SMILES IDX 81 37 32 38 33 39 34 40 75 41 35 42 80 43 74 44 76 45 36 46
REMARK SMILES IDX 79 47 73 48 72 49 37 51 63 52 46 53 62 54 47 55 50 56 61 57
REMARK SMILES IDX 77 58 48 59 49 60 60 62 78 63 51 64 38 65 39 66 44 67 40 68
REMARK SMILES IDX 41 69 43 70 45 71 42 72 64 73 65 74 70 75 66 76 67 77 69 78
REMARK SMILES IDX 71 79 68 80 52 81 53 82 58 83 54 84 55 85 57 86 59 87 56 88
REMARK H PARENT 19 7 5 14 8 17 26 31 76 50 50 61
REMARK Flexibility Score: inf
ROOT
ATOM      1  C   UNL A   1      31.777  29.540  27.180  1.00  0.00     0.002 C 
ENDROOT
BRANCH   1   2
ATOM      2  C   UNL A   1      32.543  28.231  26.880  1.00  0.00     0.021 C 
BRANCH   2   3
ATOM      3  C   UNL A   1      34.016  28.258  26.383  1.00  0.00     0.116 C 
BRANCH   3   4
ATOM      4  N   UNL A   1      34.161  28.485  24.952  1.00  0.00    -0.354 N 
ATOM      5  C   UNL A   1      33.380  28.196  23.833  1.00  0.00     0.245 C 
ATOM      6  O   UNL A   1      33.105  29.058  23.000  1.00  0.00    -0.272 OA
ATOM      7  H   UNL A   1      34.998  28.949  24.722  1.00  0.00     0.163 HD
BRANCH   5   8
ATOM      8  C   UNL A   1      32.877  26.762  23.669  1.00  0.00     0.117 C 
ATOM      9  C   UNL A   1      34.031  26.006  24.381  1.00  0.00     0.045 C 
BRANCH   8  10
ATOM     10  C   UNL A   1      31.548  26.216  24.248  1.00  0.00     0.035 C 
ATOM     11  C   UNL A   1      30.290  27.046  24.145  1.00  0.00     0.007 C 
ENDBRANCH   8  10
BRANCH   8  12
ATOM     12  N   UNL A   1      32.796  26.576  22.224  1.00  0.00    -0.324 N 
ATOM     13  C   UNL A   1      32.870  25.487  21.448  1.00  0.00     0.320 C 
ATOM     14  H   UNL A   1      32.663  27.413  21.722  1.00  0.00     0.166 HD
ATOM     15  O   UNL A   1      32.970  25.724  20.235  1.00  0.00    -0.248 OA
ATOM     16  N   UNL A   1      32.788  24.170  21.764  1.00  0.00    -0.307 N 
ATOM     17  H   UNL A   1      32.465  23.687  20.969  1.00  0.00     0.171 HD
BRANCH  16  18
ATOM     18  C   UNL A   1      32.991  23.202  22.818  1.00  0.00     0.060 A 
ATOM     19  C   UNL A   1      31.824  23.084  23.607  1.00  0.00     0.027 A 
ATOM     20  C   UNL A   1      34.130  22.541  23.370  1.00  0.00     0.076 A 
ATOM     21  C   UNL A   1      31.719  22.212  24.698  1.00  0.00     0.002 A 
ATOM     22  C   UNL A   1      33.975  21.569  24.386  1.00  0.00     0.021 A 
ATOM     23  C   UNL A   1      32.777  21.394  25.040  1.00  0.00     0.002 A 
BRANCH  20  24
ATOM     24  C   UNL A   1      35.536  22.843  23.288  1.00  0.00     0.101 C 
ATOM     25  N   UNL A   1      36.646  23.116  23.044  1.00  0.00    -0.192 NA
ENDBRANCH  20  24
ENDBRANCH  16  18
ENDBRANCH   8  12
ENDBRANCH   5   8
ENDBRANCH   3   4
ENDBRANCH   2   3
ENDBRANCH   1   2
BRANCH   1  26
ATOM     26  C   UNL A   1      31.900  30.697  26.194  1.00  0.00     0.002 C 
BRANCH  26  27
ATOM     27  C   UNL A   1      31.516  32.065  26.718  1.00  0.00     0.021 C 
BRANCH  27  28
ATOM     28  C   UNL A   1      32.660  32.804  27.381  1.00  0.00     0.116 C 
BRANCH  28  29
ATOM     29  N   UNL A   1      32.347  34.201  27.648  1.00  0.00    -0.352 N 
ATOM     30  C   UNL A   1      32.947  35.048  28.549  1.00  0.00     0.251 C 
ATOM     31  H   UNL A   1      31.613  34.587  27.116  1.00  0.00     0.163 HD
ATOM     32  O   UNL A   1      32.486  36.161  28.774  1.00  0.00    -0.269 OA
BRANCH  30  33
ATOM     33  C   UNL A   1      34.142  34.575  29.278  1.00  0.00     0.039 A 
ATOM     34  C   UNL A   1      33.980  33.997  30.537  1.00  0.00     0.014 A 
ATOM     35  C   UNL A   1      35.404  34.629  28.678  1.00  0.00     0.014 A 
ATOM     36  C   UNL A   1      35.076  33.402  31.162  1.00  0.00     0.010 A 
ATOM     37  C   UNL A   1      36.468  33.950  29.257  1.00  0.00     0.010 A 
ATOM     38  C   UNL A   1      36.316  33.329  30.506  1.00  0.00    -0.014 A 
BRANCH  38  39
ATOM     39  C   UNL A   1      37.459  32.597  31.105  1.00  0.00     0.031 A 
ATOM     40  C   UNL A   1      38.068  33.067  32.395  1.00  0.00     0.074 A 
ATOM     41  C   UNL A   1      37.990  31.543  30.453  1.00  0.00     0.049 A 
ATOM     42  N   UNL A   1      39.102  32.594  33.042  1.00  0.00    -0.248 NA
ATOM     43  C   UNL A   1      37.449  34.243  33.028  1.00  0.00     0.031 C 
ATOM     44  C   UNL A   1      37.524  31.022  29.167  1.00  0.00     0.029 A 
ATOM     45  N   UNL A   1      39.047  30.730  30.777  1.00  0.00    -0.354 N 
ATOM     46  C   UNL A   1      39.259  33.414  34.152  1.00  0.00     0.074 A 
ATOM     47  C   UNL A   1      38.258  34.454  34.053  1.00  0.00     0.031 C 
ATOM     48  C   UNL A   1      38.275  29.964  28.823  1.00  0.00     0.029 A 
ATOM     49  C   UNL A   1      39.307  29.764  29.836  1.00  0.00     0.049 A 
ATOM     50  H   UNL A   1      39.569  30.829  31.606  1.00  0.00     0.167 HD
ATOM     51  C   UNL A   1      40.139  33.297  35.174  1.00  0.00     0.037 A 
ATOM     52  C   UNL A   1      40.279  28.834  29.781  1.00  0.00     0.037 A 
ATOM     53  C   UNL A   1      41.135  32.260  35.264  1.00  0.00     0.049 A 
ATOM     54  C   UNL A   1      41.271  28.744  30.907  1.00  0.00     0.074 A 
ATOM     55  C   UNL A   1      42.043  32.024  36.282  1.00  0.00     0.029 A 
ATOM     56  N   UNL A   1      41.366  31.299  34.292  1.00  0.00    -0.354 N 
ATOM     57  N   UNL A   1      41.359  29.476  31.992  1.00  0.00    -0.248 NA
ATOM     58  C   UNL A   1      42.297  27.697  30.806  1.00  0.00     0.031 C 
ATOM     59  C   UNL A   1      42.868  30.965  35.894  1.00  0.00     0.029 A 
ATOM     60  C   UNL A   1      42.428  30.491  34.668  1.00  0.00     0.049 A 
ATOM     61  H   UNL A   1      40.851  31.202  33.459  1.00  0.00     0.167 HD
ATOM     62  C   UNL A   1      42.432  28.965  32.711  1.00  0.00     0.074 A 
ATOM     63  C   UNL A   1      42.951  27.849  31.949  1.00  0.00     0.031 C 
ATOM     64  C   UNL A   1      42.940  29.384  33.898  1.00  0.00     0.037 A 
BRANCH  51  65
ATOM     65  C   UNL A   1      40.070  34.329  36.266  1.00  0.00     0.057 A 
ATOM     66  C   UNL A   1      40.813  35.517  36.215  1.00  0.00     0.134 A 
ATOM     67  C   UNL A   1      39.242  34.137  37.379  1.00  0.00     0.134 A 
ATOM     68  F   UNL A   1      41.634  35.762  35.182  1.00  0.00    -0.206 F 
ATOM     69  C   UNL A   1      40.768  36.454  37.248  1.00  0.00     0.040 A 
ATOM     70  C   UNL A   1      39.160  35.084  38.401  1.00  0.00     0.040 A 
ATOM     71  F   UNL A   1      38.495  33.028  37.492  1.00  0.00    -0.206 F 
ATOM     72  C   UNL A   1      39.933  36.242  38.343  1.00  0.00     0.006 A 
ENDBRANCH  51  65
BRANCH  52  73
ATOM     73  C   UNL A   1      40.360  27.918  28.614  1.00  0.00     0.057 A 
ATOM     74  C   UNL A   1      41.088  28.257  27.468  1.00  0.00     0.134 A 
ATOM     75  C   UNL A   1      39.716  26.674  28.621  1.00  0.00     0.134 A 
ATOM     76  F   UNL A   1      41.713  29.441  27.392  1.00  0.00    -0.206 F 
ATOM     77  C   UNL A   1      41.158  27.404  26.365  1.00  0.00     0.040 A 
ATOM     78  C   UNL A   1      39.802  25.798  27.539  1.00  0.00     0.040 A 
ATOM     79  F   UNL A   1      39.008  26.283  29.692  1.00  0.00    -0.206 F 
ATOM     80  C   UNL A   1      40.520  26.165  26.403  1.00  0.00     0.006 A 
ENDBRANCH  52  73
BRANCH  64  81
ATOM     81  C   UNL A   1      44.102  28.616  34.461  1.00  0.00     0.057 A 
ATOM     82  C   UNL A   1      45.428  29.016  34.255  1.00  0.00     0.134 A 
ATOM     83  C   UNL A   1      43.887  27.487  35.262  1.00  0.00     0.134 A 
ATOM     84  F   UNL A   1      45.707  30.082  33.489  1.00  0.00    -0.206 F 
ATOM     85  C   UNL A   1      46.499  28.308  34.805  1.00  0.00     0.040 A 
ATOM     86  C   UNL A   1      44.947  26.790  35.845  1.00  0.00     0.040 A 
ATOM     87  F   UNL A   1      42.642  27.053  35.510  1.00  0.00    -0.206 F 
ATOM     88  C   UNL A   1      46.258  27.196  35.611  1.00  0.00     0.006 A 
ENDBRANCH  64  81
ENDBRANCH  38  39
ENDBRANCH  30  33
ENDBRANCH  28  29
ENDBRANCH  27  28
ENDBRANCH  26  27
ENDBRANCH   1  26
TORSDOF 17
ENDMDL
MODEL 3
REMARK VINA RESULT:     -10.8      0.946      2.617
REMARK SMILES CC[C@@](C)(NC(=O)Nc1ccccc1C#N)C(=O)NCCCCCCNC(=O)c1ccc(-c2c3nc(c(-c4c(F)cccc4F)c4ccc([nH]4)c(-c4c(F)cccc4F)c4nc(c(-c5c(F)cccc5F)c5ccc2[nH]5)C=C4)C=C3)cc1
REMARK SMILES IDX 22 1 21 2 20 3 19 4 17 5 18 6 3 8 4 9 2 10 1 11 5 12 6 13
REMARK SMILES IDX 7 15 8 16 9 18 10 19 14 20 11 21 13 22 12 23 15 24 16 25
REMARK SMILES IDX 23 26 24 27 25 28 26 29 27 30 28 32 29 33 30 34 82 35 31 36
REMARK SMILES IDX 81 37 32 38 33 39 34 40 75 41 35 42 80 43 74 44 76 45 36 46
REMARK SMILES IDX 79 47 73 48 72 49 37 51 63 52 46 53 62 54 47 55 50 56 61 57
REMARK SMILES IDX 77 58 48 59 49 60 60 62 78 63 51 64 38 65 39 66 44 67 40 68
REMARK SMILES IDX 41 69 43 70 45 71 42 72 64 73 65 74 70 75 66 76 67 77 69 78
REMARK SMILES IDX 71 79 68 80 52 81 53 82 58 83 54 84 55 85 57 86 59 87 56 88
REMARK H PARENT 19 7 5 14 8 17 26 31 76 50 50 61
REMARK Flexibility Score: inf
ROOT
ATOM      1  C   UNL A   1      35.698  22.691  24.199  1.00  0.00     0.002 C 
ENDROOT
BRANCH   1   2
ATOM      2  C   UNL A   1      35.558  23.954  25.080  1.00  0.00     0.021 C 
BRANCH   2   3
ATOM      3  C   UNL A   1      34.405  24.971  24.849  1.00  0.00     0.116 C 
BRANCH   3   4
ATOM      4  N   UNL A   1      33.712  24.811  23.578  1.00  0.00    -0.354 N 
ATOM      5  C   UNL A   1      32.388  24.951  23.163  1.00  0.00     0.245 C 
ATOM      6  O   UNL A   1      32.090  25.627  22.180  1.00  0.00    -0.272 OA
ATOM      7  H   UNL A   1      34.314  24.545  22.847  1.00  0.00     0.163 HD
BRANCH   5   8
ATOM      8  C   UNL A   1      31.310  24.228  23.971  1.00  0.00     0.117 C 
ATOM      9  C   UNL A   1      31.423  22.815  23.337  1.00  0.00     0.045 C 
BRANCH   8  10
ATOM     10  C   UNL A   1      31.329  24.041  25.509  1.00  0.00     0.035 C 
ATOM     11  C   UNL A   1      31.503  22.657  26.091  1.00  0.00     0.007 C 
ENDBRANCH   8  10
BRANCH   8  12
ATOM     12  N   UNL A   1      30.085  24.961  23.667  1.00  0.00    -0.324 N 
ATOM     13  C   UNL A   1      29.665  26.191  23.989  1.00  0.00     0.320 C 
ATOM     14  H   UNL A   1      29.443  24.452  23.120  1.00  0.00     0.166 HD
ATOM     15  O   UNL A   1      28.471  26.411  23.734  1.00  0.00    -0.248 OA
ATOM     16  N   UNL A   1      30.344  27.255  24.487  1.00  0.00    -0.307 N 
ATOM     17  H   UNL A   1      29.868  28.072  24.216  1.00  0.00     0.171 HD
BRANCH  16  18
ATOM     18  C   UNL A   1      31.498  27.650  25.262  1.00  0.00     0.060 A 
ATOM     19  C   UNL A   1      31.140  27.832  26.618  1.00  0.00     0.027 A 
ATOM     20  C   UNL A   1      32.811  28.115  24.945  1.00  0.00     0.076 A 
ATOM     21  C   UNL A   1      32.054  28.205  27.611  1.00  0.00     0.002 A 
ATOM     22  C   UNL A   1      33.754  28.361  25.971  1.00  0.00     0.021 A 
ATOM     23  C   UNL A   1      33.384  28.396  27.296  1.00  0.00     0.002 A 
BRANCH  20  24
ATOM     24  C   UNL A   1      33.356  28.666  23.731  1.00  0.00     0.101 C 
ATOM     25  N   UNL A   1      33.646  29.054  22.668  1.00  0.00    -0.192 NA
ENDBRANCH  20  24
ENDBRANCH  16  18
ENDBRANCH   8  12
ENDBRANCH   5   8
ENDBRANCH   3   4
ENDBRANCH   2   3
ENDBRANCH   1   2
BRANCH   1  26
ATOM     26  C   UNL A   1      37.086  22.091  24.002  1.00  0.00     0.002 C 
BRANCH  26  27
ATOM     27  C   UNL A   1      37.403  20.857  24.822  1.00  0.00     0.021 C 
BRANCH  27  28
ATOM     28  C   UNL A   1      38.620  21.015  25.710  1.00  0.00     0.116 C 
BRANCH  28  29
ATOM     29  N   UNL A   1      39.487  19.846  25.689  1.00  0.00    -0.352 N 
ATOM     30  C   UNL A   1      40.822  19.773  26.007  1.00  0.00     0.251 C 
ATOM     31  H   UNL A   1      39.064  19.001  25.411  1.00  0.00     0.163 HD
ATOM     32  O   UNL A   1      41.465  18.750  25.804  1.00  0.00    -0.269 OA
BRANCH  30  33
ATOM     33  C   UNL A   1      41.484  20.971  26.562  1.00  0.00     0.039 A 
ATOM     34  C   UNL A   1      42.049  21.898  25.686  1.00  0.00     0.014 A 
ATOM     35  C   UNL A   1      41.469  21.213  27.940  1.00  0.00     0.014 A 
ATOM     36  C   UNL A   1      42.531  23.108  26.187  1.00  0.00     0.010 A 
ATOM     37  C   UNL A   1      41.857  22.457  28.422  1.00  0.00     0.010 A 
ATOM     38  C   UNL A   1      42.393  23.418  27.551  1.00  0.00    -0.014 A 
BRANCH  38  39
ATOM     39  C   UNL A   1      42.792  24.745  28.080  1.00  0.00     0.031 A 
ATOM     40  C   UNL A   1      41.758  25.811  28.308  1.00  0.00     0.074 A 
ATOM     41  C   UNL A   1      44.095  25.012  28.296  1.00  0.00     0.049 A 
ATOM     42  N   UNL A   1      41.918  27.046  28.710  1.00  0.00    -0.248 NA
ATOM     43  C   UNL A   1      40.361  25.449  28.019  1.00  0.00     0.031 C 
ATOM     44  C   UNL A   1      45.199  24.080  28.063  1.00  0.00     0.029 A 
ATOM     45  N   UNL A   1      44.712  26.151  28.750  1.00  0.00    -0.354 N 
ATOM     46  C   UNL A   1      40.648  27.607  28.718  1.00  0.00     0.074 A 
ATOM     47  C   UNL A   1      39.739  26.601  28.215  1.00  0.00     0.031 C 
ATOM     48  C   UNL A   1      46.355  24.676  28.395  1.00  0.00     0.029 A 
ATOM     49  C   UNL A   1      46.081  26.047  28.816  1.00  0.00     0.049 A 
ATOM     50  H   UNL A   1      44.221  26.966  29.003  1.00  0.00     0.167 HD
ATOM     51  C   UNL A   1      40.269  28.839  29.132  1.00  0.00     0.037 A 
ATOM     52  C   UNL A   1      47.013  26.956  29.156  1.00  0.00     0.037 A 
ATOM     53  C   UNL A   1      41.181  29.838  29.629  1.00  0.00     0.049 A 
ATOM     54  C   UNL A   1      46.575  28.332  29.575  1.00  0.00     0.074 A 
ATOM     55  C   UNL A   1      40.892  31.100  30.119  1.00  0.00     0.029 A 
ATOM     56  N   UNL A   1      42.559  29.693  29.683  1.00  0.00    -0.354 N 
ATOM     57  N   UNL A   1      45.363  28.825  29.656  1.00  0.00    -0.248 NA
ATOM     58  C   UNL A   1      47.633  29.278  29.957  1.00  0.00     0.031 C 
ATOM     59  C   UNL A   1      42.100  31.744  30.403  1.00  0.00     0.029 A 
ATOM     60  C   UNL A   1      43.139  30.858  30.162  1.00  0.00     0.049 A 
ATOM     61  H   UNL A   1      43.053  28.883  29.422  1.00  0.00     0.167 HD
ATOM     62  C   UNL A   1      45.509  30.127  30.117  1.00  0.00     0.074 A 
ATOM     63  C   UNL A   1      46.927  30.341  30.317  1.00  0.00     0.031 C 
ATOM     64  C   UNL A   1      44.554  31.062  30.353  1.00  0.00     0.037 A 
BRANCH  51  65
ATOM     65  C   UNL A   1      38.806  29.177  29.046  1.00  0.00     0.057 A 
ATOM     66  C   UNL A   1      38.210  29.600  27.850  1.00  0.00     0.134 A 
ATOM     67  C   UNL A   1      37.980  29.067  30.171  1.00  0.00     0.134 A 
ATOM     68  F   UNL A   1      38.943  29.736  26.734  1.00  0.00    -0.206 F 
ATOM     69  C   UNL A   1      36.858  29.942  27.786  1.00  0.00     0.040 A 
ATOM     70  C   UNL A   1      36.619  29.371  30.112  1.00  0.00     0.040 A 
ATOM     71  F   UNL A   1      38.479  28.660  31.348  1.00  0.00    -0.206 F 
ATOM     72  C   UNL A   1      36.056  29.821  28.919  1.00  0.00     0.006 A 
ENDBRANCH  51  65
BRANCH  52  73
ATOM     73  C   UNL A   1      48.453  26.592  29.109  1.00  0.00     0.057 A 
ATOM     74  C   UNL A   1      49.235  26.852  27.978  1.00  0.00     0.134 A 
ATOM     75  C   UNL A   1      49.083  25.981  30.200  1.00  0.00     0.134 A 
ATOM     76  F   UNL A   1      48.686  27.419  26.893  1.00  0.00    -0.206 F 
ATOM     77  C   UNL A   1      50.585  26.501  27.925  1.00  0.00     0.040 A 
ATOM     78  C   UNL A   1      50.439  25.653  30.173  1.00  0.00     0.040 A 
ATOM     79  F   UNL A   1      48.393  25.711  31.318  1.00  0.00    -0.206 F 
ATOM     80  C   UNL A   1      51.193  25.907  29.029  1.00  0.00     0.006 A 
ENDBRANCH  52  73
BRANCH  64  81
ATOM     81  C   UNL A   1      45.006  32.393  30.882  1.00  0.00     0.057 A 
ATOM     82  C   UNL A   1      45.300  33.469  30.034  1.00  0.00     0.134 A 
ATOM     83  C   UNL A   1      45.100  32.615  32.262  1.00  0.00     0.134 A 
ATOM     84  F   UNL A   1      45.241  33.322  28.702  1.00  0.00    -0.206 F 
ATOM     85  C   UNL A   1      45.695  34.709  30.539  1.00  0.00     0.040 A 
ATOM     86  C   UNL A   1      45.462  33.861  32.780  1.00  0.00     0.040 A 
ATOM     87  F   UNL A   1      44.823  31.633  33.132  1.00  0.00    -0.206 F 
ATOM     88  C   UNL A   1      45.767  34.910  31.917  1.00  0.00     0.006 A 
ENDBRANCH  64  81
ENDBRANCH  38  39
ENDBRANCH  30  33
ENDBRANCH  28  29
ENDBRANCH  27  28
ENDBRANCH  26  27
ENDBRANCH   1  26
TORSDOF 17
ENDMDL
