MODEL 1
REMARK VINA RESULT:     -10.6      0.000      0.000
REMARK SMILES CC[NH2+][C@]1(C(=O)NCCCCCCNC(=O)c2ccc(-c3c4nc(c(-c5c(F)cccc5F)c5ccc([nH]5)c(-c5c(F)cccc5F)c5nc(c(-c6c(F)cccc6F)c6ccc3[nH]6)C=C5)C=C4)cc2)CC[C@@H]([N@@H+]2CCO[C@@H](CC)C2)C1
REMARK SMILES IDX 10 1 9 2 8 3 7 4 5 5 6 6 4 8 71 9 82 10 72 11 73 12 3 13
REMARK SMILES IDX 2 16 1 17 74 18 75 19 81 20 76 22 78 23 77 24 79 25 80 26
REMARK SMILES IDX 11 27 12 28 13 29 14 30 15 31 16 33 17 34 18 35 70 36 19 37
REMARK SMILES IDX 69 38 20 39 21 40 22 41 63 42 23 43 68 44 62 45 64 46 24 47
REMARK SMILES IDX 67 48 61 49 60 50 25 52 51 53 34 54 50 55 35 56 38 57 49 58
REMARK SMILES IDX 65 59 36 60 37 61 48 63 66 64 39 65 26 66 27 67 32 68 28 69
REMARK SMILES IDX 29 70 31 71 33 72 30 73 52 74 53 75 58 76 54 77 55 78 57 79
REMARK SMILES IDX 59 80 56 81 40 82 41 83 46 84 42 85 43 86 45 87 47 88 44 89
REMARK H PARENT 7 7 3 14 3 15 74 21 14 32 64 51 38 62
REMARK Flexibility Score: inf
ROOT
ATOM      1  C   UNL A   1      35.216  20.208  24.953  1.00  0.00     0.002 C 
ENDROOT
BRANCH   1   2
ATOM      2  C   UNL A   1      33.917  19.394  24.925  1.00  0.00     0.021 C 
BRANCH   2   3
ATOM      3  C   UNL A   1      32.665  20.244  24.677  1.00  0.00     0.116 C 
BRANCH   3   4
ATOM      4  N   UNL A   1      32.424  21.133  25.797  1.00  0.00    -0.351 N 
ATOM      5  C   UNL A   1      32.440  22.491  25.917  1.00  0.00     0.281 C 
ATOM      6  O   UNL A   1      32.380  22.924  27.074  1.00  0.00    -0.268 OA
ATOM      7  H   UNL A   1      32.208  20.665  26.635  1.00  0.00     0.163 HD
BRANCH   5   8
ATOM      8  C   UNL A   1      32.391  23.461  24.693  1.00  0.00     0.181 C 
ATOM      9  C   UNL A   1      31.011  23.320  24.009  1.00  0.00     0.085 C 
ATOM     10  C   UNL A   1      32.390  24.961  25.030  1.00  0.00     0.144 C 
ATOM     11  C   UNL A   1      30.870  24.572  23.163  1.00  0.00     0.072 C 
ATOM     12  C   UNL A   1      31.471  25.688  24.033  1.00  0.00     0.191 C 
BRANCH   8  13
ATOM     13  N   UNL A   1      33.569  23.206  23.821  1.00  0.00    -0.334 N 
ATOM     14  H   UNL A   1      33.745  22.202  23.809  1.00  0.00     0.347 HD
ATOM     15  H   UNL A   1      33.334  23.583  22.903  1.00  0.00     0.347 HD
BRANCH  13  16
ATOM     16  C   UNL A   1      34.797  23.881  24.245  1.00  0.00     0.257 C 
ATOM     17  C   UNL A   1      35.985  23.312  23.483  1.00  0.00     0.071 C 
ENDBRANCH  13  16
ENDBRANCH   8  13
BRANCH  12  18
ATOM     18  N   UNL A   1      30.511  26.647  24.604  1.00  0.00    -0.328 N 
ATOM     19  C   UNL A   1      29.591  27.272  23.636  1.00  0.00     0.291 C 
ATOM     20  C   UNL A   1      31.010  27.666  25.539  1.00  0.00     0.294 C 
ATOM     21  H   UNL A   1      29.989  25.988  25.182  1.00  0.00     0.348 HD
ATOM     22  C   UNL A   1      30.046  28.626  23.052  1.00  0.00     0.222 C 
ATOM     23  C   UNL A   1      31.571  28.931  24.860  1.00  0.00     0.173 C 
ATOM     24  O   UNL A   1      30.554  29.534  24.037  1.00  0.00    -0.367 OA
BRANCH  23  25
ATOM     25  C   UNL A   1      32.034  29.990  25.870  1.00  0.00     0.034 C 
ATOM     26  C   UNL A   1      32.566  29.405  27.169  1.00  0.00     0.007 C 
ENDBRANCH  23  25
ENDBRANCH  12  18
ENDBRANCH   5   8
ENDBRANCH   3   4
ENDBRANCH   2   3
ENDBRANCH   1   2
BRANCH   1  27
ATOM     27  C   UNL A   1      36.500  19.369  24.915  1.00  0.00     0.002 C 
BRANCH  27  28
ATOM     28  C   UNL A   1      37.769  20.150  24.563  1.00  0.00     0.021 C 
BRANCH  28  29
ATOM     29  C   UNL A   1      38.702  20.395  25.745  1.00  0.00     0.116 C 
BRANCH  29  30
ATOM     30  N   UNL A   1      39.781  19.420  25.788  1.00  0.00    -0.352 N 
ATOM     31  C   UNL A   1      41.111  19.611  26.049  1.00  0.00     0.251 C 
ATOM     32  H   UNL A   1      39.516  18.489  25.604  1.00  0.00     0.163 HD
ATOM     33  O   UNL A   1      41.925  18.717  25.812  1.00  0.00    -0.269 OA
BRANCH  31  34
ATOM     34  C   UNL A   1      41.575  20.897  26.605  1.00  0.00     0.039 A 
ATOM     35  C   UNL A   1      42.044  21.886  25.738  1.00  0.00     0.014 A 
ATOM     36  C   UNL A   1      41.560  21.119  27.985  1.00  0.00     0.014 A 
ATOM     37  C   UNL A   1      42.450  23.119  26.251  1.00  0.00     0.010 A 
ATOM     38  C   UNL A   1      41.891  22.373  28.488  1.00  0.00     0.010 A 
ATOM     39  C   UNL A   1      42.348  23.383  27.627  1.00  0.00    -0.014 A 
BRANCH  39  40
ATOM     40  C   UNL A   1      42.732  24.701  28.191  1.00  0.00     0.031 A 
ATOM     41  C   UNL A   1      41.689  25.766  28.392  1.00  0.00     0.074 A 
ATOM     42  C   UNL A   1      44.026  24.962  28.460  1.00  0.00     0.049 A 
ATOM     43  N   UNL A   1      41.836  27.006  28.782  1.00  0.00    -0.248 NA
ATOM     44  C   UNL A   1      40.298  25.395  28.084  1.00  0.00     0.031 C 
ATOM     45  C   UNL A   1      45.137  24.027  28.271  1.00  0.00     0.029 A 
ATOM     46  N   UNL A   1      44.629  26.099  28.936  1.00  0.00    -0.354 N 
ATOM     47  C   UNL A   1      40.564  27.563  28.756  1.00  0.00     0.074 A 
ATOM     48  C   UNL A   1      39.667  26.546  28.256  1.00  0.00     0.031 C 
ATOM     49  C   UNL A   1      46.281  24.623  28.642  1.00  0.00     0.029 A 
ATOM     50  C   UNL A   1      45.993  25.992  29.054  1.00  0.00     0.049 A 
ATOM     51  H   UNL A   1      44.130  26.915  29.172  1.00  0.00     0.167 HD
ATOM     52  C   UNL A   1      40.176  28.803  29.140  1.00  0.00     0.037 A 
ATOM     53  C   UNL A   1      46.910  26.901  29.437  1.00  0.00     0.037 A 
ATOM     54  C   UNL A   1      41.070  29.806  29.655  1.00  0.00     0.049 A 
ATOM     55  C   UNL A   1      46.455  28.278  29.840  1.00  0.00     0.074 A 
ATOM     56  C   UNL A   1      40.767  31.077  30.111  1.00  0.00     0.029 A 
ATOM     57  N   UNL A   1      42.442  29.651  29.779  1.00  0.00    -0.354 N 
ATOM     58  N   UNL A   1      45.241  28.773  29.866  1.00  0.00    -0.248 NA
ATOM     59  C   UNL A   1      47.496  29.220  30.273  1.00  0.00     0.031 C 
ATOM     60  C   UNL A   1      41.963  31.709  30.467  1.00  0.00     0.029 A 
ATOM     61  C   UNL A   1      43.003  30.812  30.287  1.00  0.00     0.049 A 
ATOM     62  H   UNL A   1      42.943  28.838  29.541  1.00  0.00     0.167 HD
ATOM     63  C   UNL A   1      45.368  30.068  30.350  1.00  0.00     0.074 A 
ATOM     64  C   UNL A   1      46.776  30.279  30.615  1.00  0.00     0.031 C 
ATOM     65  C   UNL A   1      44.405  30.999  30.559  1.00  0.00     0.037 A 
BRANCH  52  66
ATOM     66  C   UNL A   1      38.716  29.140  29.019  1.00  0.00     0.057 A 
ATOM     67  C   UNL A   1      37.848  29.069  30.117  1.00  0.00     0.134 A 
ATOM     68  C   UNL A   1      38.179  29.572  27.800  1.00  0.00     0.134 A 
ATOM     69  F   UNL A   1      38.295  28.651  31.311  1.00  0.00    -0.206 F 
ATOM     70  C   UNL A   1      36.495  29.390  30.001  1.00  0.00     0.040 A 
ATOM     71  C   UNL A   1      36.834  29.925  27.679  1.00  0.00     0.040 A 
ATOM     72  F   UNL A   1      38.954  29.670  26.710  1.00  0.00    -0.206 F 
ATOM     73  C   UNL A   1      35.986  29.827  28.781  1.00  0.00     0.006 A 
ENDBRANCH  52  66
BRANCH  53  74
ATOM     74  C   UNL A   1      48.350  26.539  29.471  1.00  0.00     0.057 A 
ATOM     75  C   UNL A   1      48.910  25.897  30.581  1.00  0.00     0.134 A 
ATOM     76  C   UNL A   1      49.205  26.840  28.404  1.00  0.00     0.134 A 
ATOM     77  F   UNL A   1      48.147  25.598  31.644  1.00  0.00    -0.206 F 
ATOM     78  C   UNL A   1      50.270  25.591  30.642  1.00  0.00     0.040 A 
ATOM     79  C   UNL A   1      50.561  26.514  28.437  1.00  0.00     0.040 A 
ATOM     80  F   UNL A   1      48.730  27.446  27.305  1.00  0.00    -0.206 F 
ATOM     81  C   UNL A   1      51.100  25.896  29.565  1.00  0.00     0.006 A 
ENDBRANCH  53  74
BRANCH  65  82
ATOM     82  C   UNL A   1      44.832  32.313  31.148  1.00  0.00     0.057 A 
ATOM     83  C   UNL A   1      45.174  33.410  30.348  1.00  0.00     0.134 A 
ATOM     84  C   UNL A   1      44.852  32.494  32.537  1.00  0.00     0.134 A 
ATOM     85  F   UNL A   1      45.187  33.301  29.011  1.00  0.00    -0.206 F 
ATOM     86  C   UNL A   1      45.543  34.634  30.909  1.00  0.00     0.040 A 
ATOM     87  C   UNL A   1      45.191  33.721  33.109  1.00  0.00     0.040 A 
ATOM     88  F   UNL A   1      44.526  31.487  33.360  1.00  0.00    -0.206 F 
ATOM     89  C   UNL A   1      45.544  34.794  32.294  1.00  0.00     0.006 A 
ENDBRANCH  65  82
ENDBRANCH  39  40
ENDBRANCH  31  34
ENDBRANCH  29  30
ENDBRANCH  28  29
ENDBRANCH  27  28
ENDBRANCH   1  27
TORSDOF 17
ENDMDL
MODEL 2
REMARK VINA RESULT:     -10.5      1.028      6.328
REMARK SMILES CC[NH2+][C@]1(C(=O)NCCCCCCNC(=O)c2ccc(-c3c4nc(c(-c5c(F)cccc5F)c5ccc([nH]5)c(-c5c(F)cccc5F)c5nc(c(-c6c(F)cccc6F)c6ccc3[nH]6)C=C5)C=C4)cc2)CC[C@@H]([N@@H+]2CCO[C@@H](CC)C2)C1
REMARK SMILES IDX 10 1 9 2 8 3 7 4 5 5 6 6 4 8 71 9 82 10 72 11 73 12 3 13
REMARK SMILES IDX 2 16 1 17 74 18 75 19 81 20 76 22 78 23 77 24 79 25 80 26
REMARK SMILES IDX 11 27 12 28 13 29 14 30 15 31 16 33 17 34 18 35 70 36 19 37
REMARK SMILES IDX 69 38 20 39 21 40 22 41 63 42 23 43 68 44 62 45 64 46 24 47
REMARK SMILES IDX 67 48 61 49 60 50 25 52 51 53 34 54 50 55 35 56 38 57 49 58
REMARK SMILES IDX 65 59 36 60 37 61 48 63 66 64 39 65 26 66 27 67 32 68 28 69
REMARK SMILES IDX 29 70 31 71 33 72 30 73 52 74 53 75 58 76 54 77 55 78 57 79
REMARK SMILES IDX 59 80 56 81 40 82 41 83 46 84 42 85 43 86 45 87 47 88 44 89
REMARK H PARENT 7 7 3 14 3 15 74 21 14 32 64 51 38 62
REMARK Flexibility Score: inf
ROOT
ATOM      1  C   UNL A   1      38.560  22.315  26.040  1.00  0.00     0.002 C 
ENDROOT
BRANCH   1   2
ATOM      2  C   UNL A   1      37.782  23.626  26.206  1.00  0.00     0.021 C 
BRANCH   2   3
ATOM      3  C   UNL A   1      36.320  23.534  25.752  1.00  0.00     0.116 C 
BRANCH   3   4
ATOM      4  N   UNL A   1      35.495  22.974  26.804  1.00  0.00    -0.351 N 
ATOM      5  C   UNL A   1      34.147  22.837  26.946  1.00  0.00     0.281 C 
ATOM      6  O   UNL A   1      33.761  22.486  28.067  1.00  0.00    -0.268 OA
ATOM      7  H   UNL A   1      36.010  22.624  27.567  1.00  0.00     0.163 HD
BRANCH   5   8
ATOM      8  C   UNL A   1      33.142  22.967  25.756  1.00  0.00     0.181 C 
ATOM      9  C   UNL A   1      31.751  22.488  26.234  1.00  0.00     0.085 C 
ATOM     10  C   UNL A   1      32.812  24.402  25.314  1.00  0.00     0.144 C 
ATOM     11  C   UNL A   1      30.776  23.064  25.222  1.00  0.00     0.072 C 
ATOM     12  C   UNL A   1      31.327  24.467  24.921  1.00  0.00     0.191 C 
BRANCH   8  13
ATOM     13  N   UNL A   1      33.693  22.257  24.571  1.00  0.00    -0.334 N 
ATOM     14  H   UNL A   1      33.328  22.708  23.732  1.00  0.00     0.347 HD
ATOM     15  H   UNL A   1      34.708  22.314  24.648  1.00  0.00     0.347 HD
BRANCH  13  16
ATOM     16  C   UNL A   1      33.360  20.833  24.506  1.00  0.00     0.257 C 
ATOM     17  C   UNL A   1      34.598  20.002  24.811  1.00  0.00     0.071 C 
ENDBRANCH  13  16
ENDBRANCH   8  13
BRANCH  12  18
ATOM     18  N   UNL A   1      30.551  25.594  25.465  1.00  0.00    -0.328 N 
ATOM     19  C   UNL A   1      29.759  26.350  24.478  1.00  0.00     0.291 C 
ATOM     20  C   UNL A   1      31.221  26.529  26.380  1.00  0.00     0.294 C 
ATOM     21  H   UNL A   1      29.920  25.050  26.055  1.00  0.00     0.348 HD
ATOM     22  C   UNL A   1      30.447  27.589  23.868  1.00  0.00     0.222 C 
ATOM     23  C   UNL A   1      31.999  27.659  25.677  1.00  0.00     0.173 C 
ATOM     24  O   UNL A   1      31.106  28.414  24.836  1.00  0.00    -0.367 OA
BRANCH  23  25
ATOM     25  C   UNL A   1      32.641  28.641  26.666  1.00  0.00     0.034 C 
ATOM     26  C   UNL A   1      34.132  28.845  26.445  1.00  0.00     0.007 C 
ENDBRANCH  23  25
ENDBRANCH  12  18
ENDBRANCH   5   8
ENDBRANCH   3   4
ENDBRANCH   2   3
ENDBRANCH   1   2
BRANCH   1  27
ATOM     27  C   UNL A   1      37.987  21.356  24.989  1.00  0.00     0.002 C 
BRANCH  27  28
ATOM     28  C   UNL A   1      38.642  19.973  24.953  1.00  0.00     0.021 C 
BRANCH  28  29
ATOM     29  C   UNL A   1      39.354  19.584  26.244  1.00  0.00     0.116 C 
BRANCH  29  30
ATOM     30  N   UNL A   1      40.626  18.929  25.979  1.00  0.00    -0.352 N 
ATOM     31  C   UNL A   1      41.882  19.471  25.908  1.00  0.00     0.251 C 
ATOM     32  H   UNL A   1      40.577  17.957  25.831  1.00  0.00     0.163 HD
ATOM     33  O   UNL A   1      42.814  18.816  25.441  1.00  0.00    -0.269 OA
BRANCH  31  34
ATOM     34  C   UNL A   1      42.116  20.849  26.382  1.00  0.00     0.039 A 
ATOM     35  C   UNL A   1      42.151  21.101  27.755  1.00  0.00     0.014 A 
ATOM     36  C   UNL A   1      42.287  21.893  25.469  1.00  0.00     0.014 A 
ATOM     37  C   UNL A   1      42.408  22.395  28.214  1.00  0.00     0.010 A 
ATOM     38  C   UNL A   1      42.620  23.164  25.926  1.00  0.00     0.010 A 
ATOM     39  C   UNL A   1      42.675  23.430  27.303  1.00  0.00    -0.014 A 
BRANCH  39  40
ATOM     40  C   UNL A   1      42.994  24.803  27.766  1.00  0.00     0.031 A 
ATOM     41  C   UNL A   1      44.426  25.205  27.996  1.00  0.00     0.074 A 
ATOM     42  C   UNL A   1      41.997  25.665  28.043  1.00  0.00     0.049 A 
ATOM     43  N   UNL A   1      44.904  26.321  28.486  1.00  0.00    -0.248 NA
ATOM     44  C   UNL A   1      45.454  24.208  27.658  1.00  0.00     0.031 C 
ATOM     45  C   UNL A   1      40.567  25.381  27.900  1.00  0.00     0.029 A 
ATOM     46  N   UNL A   1      42.032  26.952  28.519  1.00  0.00    -0.354 N 
ATOM     47  C   UNL A   1      46.282  26.155  28.523  1.00  0.00     0.074 A 
ATOM     48  C   UNL A   1      46.561  24.813  28.065  1.00  0.00     0.031 C 
ATOM     49  C   UNL A   1      39.865  26.466  28.264  1.00  0.00     0.029 A 
ATOM     50  C   UNL A   1      40.790  27.505  28.706  1.00  0.00     0.049 A 
ATOM     51  H   UNL A   1      42.871  27.433  28.708  1.00  0.00     0.167 HD
ATOM     52  C   UNL A   1      47.232  27.051  28.884  1.00  0.00     0.037 A 
ATOM     53  C   UNL A   1      40.434  28.710  29.193  1.00  0.00     0.037 A 
ATOM     54  C   UNL A   1      46.952  28.393  29.322  1.00  0.00     0.049 A 
ATOM     55  C   UNL A   1      41.508  29.680  29.604  1.00  0.00     0.074 A 
ATOM     56  C   UNL A   1      47.846  29.391  29.668  1.00  0.00     0.029 A 
ATOM     57  N   UNL A   1      45.680  28.923  29.477  1.00  0.00    -0.354 N 
ATOM     58  N   UNL A   1      42.811  29.532  29.580  1.00  0.00    -0.248 NA
ATOM     59  C   UNL A   1      41.063  30.988  30.105  1.00  0.00     0.031 C 
ATOM     60  C   UNL A   1      47.114  30.510  30.077  1.00  0.00     0.029 A 
ATOM     61  C   UNL A   1      45.766  30.229  29.932  1.00  0.00     0.049 A 
ATOM     62  H   UNL A   1      44.841  28.443  29.292  1.00  0.00     0.167 HD
ATOM     63  C   UNL A   1      43.340  30.735  30.026  1.00  0.00     0.074 A 
ATOM     64  C   UNL A   1      42.218  31.608  30.305  1.00  0.00     0.031 C 
ATOM     65  C   UNL A   1      44.639  31.088  30.189  1.00  0.00     0.037 A 
BRANCH  52  66
ATOM     66  C   UNL A   1      48.666  26.606  28.814  1.00  0.00     0.057 A 
ATOM     67  C   UNL A   1      49.435  26.772  27.654  1.00  0.00     0.134 A 
ATOM     68  C   UNL A   1      49.294  26.038  29.928  1.00  0.00     0.134 A 
ATOM     69  F   UNL A   1      48.891  27.300  26.547  1.00  0.00    -0.206 F 
ATOM     70  C   UNL A   1      50.768  26.364  27.597  1.00  0.00     0.040 A 
ATOM     71  C   UNL A   1      50.637  25.654  29.893  1.00  0.00     0.040 A 
ATOM     72  F   UNL A   1      48.620  25.856  31.073  1.00  0.00    -0.206 F 
ATOM     73  C   UNL A   1      51.375  25.810  28.721  1.00  0.00     0.006 A 
ENDBRANCH  52  66
BRANCH  53  74
ATOM     74  C   UNL A   1      38.999  29.074  29.308  1.00  0.00     0.057 A 
ATOM     75  C   UNL A   1      38.310  28.932  30.518  1.00  0.00     0.134 A 
ATOM     76  C   UNL A   1      38.277  29.557  28.210  1.00  0.00     0.134 A 
ATOM     77  F   UNL A   1      38.943  28.457  31.602  1.00  0.00    -0.206 F 
ATOM     78  C   UNL A   1      36.951  29.230  30.628  1.00  0.00     0.040 A 
ATOM     79  C   UNL A   1      36.924  29.887  28.311  1.00  0.00     0.040 A 
ATOM     80  F   UNL A   1      38.880  29.727  27.024  1.00  0.00    -0.206 F 
ATOM     81  C   UNL A   1      36.255  29.714  29.522  1.00  0.00     0.006 A 
ENDBRANCH  53  74
BRANCH  65  82
ATOM     82  C   UNL A   1      44.921  32.491  30.642  1.00  0.00     0.057 A 
ATOM     83  C   UNL A   1      45.034  33.556  29.739  1.00  0.00     0.134 A 
ATOM     84  C   UNL A   1      45.031  32.787  32.008  1.00  0.00     0.134 A 
ATOM     85  F   UNL A   1      44.950  33.340  28.418  1.00  0.00    -0.206 F 
ATOM     86  C   UNL A   1      45.269  34.861  30.177  1.00  0.00     0.040 A 
ATOM     87  C   UNL A   1      45.238  34.091  32.458  1.00  0.00     0.040 A 
ATOM     88  F   UNL A   1      44.924  31.816  32.926  1.00  0.00    -0.206 F 
ATOM     89  C   UNL A   1      45.364  35.132  31.541  1.00  0.00     0.006 A 
ENDBRANCH  65  82
ENDBRANCH  39  40
ENDBRANCH  31  34
ENDBRANCH  29  30
ENDBRANCH  28  29
ENDBRANCH  27  28
ENDBRANCH   1  27
TORSDOF 17
ENDMDL
MODEL 3
REMARK VINA RESULT:     -10.5      2.660      7.046
REMARK SMILES CC[NH2+][C@]1(C(=O)NCCCCCCNC(=O)c2ccc(-c3c4nc(c(-c5c(F)cccc5F)c5ccc([nH]5)c(-c5c(F)cccc5F)c5nc(c(-c6c(F)cccc6F)c6ccc3[nH]6)C=C5)C=C4)cc2)CC[C@@H]([N@@H+]2CCO[C@@H](CC)C2)C1
REMARK SMILES IDX 10 1 9 2 8 3 7 4 5 5 6 6 4 8 71 9 82 10 72 11 73 12 3 13
REMARK SMILES IDX 2 16 1 17 74 18 75 19 81 20 76 22 78 23 77 24 79 25 80 26
REMARK SMILES IDX 11 27 12 28 13 29 14 30 15 31 16 33 17 34 18 35 70 36 19 37
REMARK SMILES IDX 69 38 20 39 21 40 22 41 63 42 23 43 68 44 62 45 64 46 24 47
REMARK SMILES IDX 67 48 61 49 60 50 25 52 51 53 34 54 50 55 35 56 38 57 49 58
REMARK SMILES IDX 65 59 36 60 37 61 48 63 66 64 39 65 26 66 27 67 32 68 28 69
REMARK SMILES IDX 29 70 31 71 33 72 30 73 52 74 53 75 58 76 54 77 55 78 57 79
REMARK SMILES IDX 59 80 56 81 40 82 41 83 46 84 42 85 43 86 45 87 47 88 44 89
REMARK H PARENT 7 7 3 14 3 15 74 21 14 32 64 51 38 62
REMARK Flexibility Score: inf
ROOT
ATOM      1  C   UNL A   1      40.732  21.970  26.145  1.00  0.00     0.002 C 
ENDROOT
BRANCH   1   2
ATOM      2  C   UNL A   1      39.325  21.411  25.902  1.00  0.00     0.021 C 
BRANCH   2   3
ATOM      3  C   UNL A   1      38.222  22.475  25.961  1.00  0.00     0.116 C 
BRANCH   3   4
ATOM      4  N   UNL A   1      37.776  22.819  24.625  1.00  0.00    -0.351 N 
ATOM      5  C   UNL A   1      36.560  22.753  24.013  1.00  0.00     0.281 C 
ATOM      6  O   UNL A   1      36.566  22.946  22.792  1.00  0.00    -0.268 OA
ATOM      7  H   UNL A   1      38.491  23.168  24.047  1.00  0.00     0.163 HD
BRANCH   5   8
ATOM      8  C   UNL A   1      35.215  22.590  24.792  1.00  0.00     0.181 C 
ATOM      9  C   UNL A   1      35.059  23.787  25.760  1.00  0.00     0.085 C 
ATOM     10  C   UNL A   1      33.935  22.734  23.953  1.00  0.00     0.144 C 
ATOM     11  C   UNL A   1      33.584  23.807  26.114  1.00  0.00     0.072 C 
ATOM     12  C   UNL A   1      32.872  23.457  24.798  1.00  0.00     0.191 C 
BRANCH   8  13
ATOM     13  N   UNL A   1      35.177  21.245  25.425  1.00  0.00    -0.334 N 
ATOM     14  H   UNL A   1      36.138  20.945  25.594  1.00  0.00     0.347 HD
ATOM     15  H   UNL A   1      34.633  21.344  26.282  1.00  0.00     0.347 HD
BRANCH  13  16
ATOM     16  C   UNL A   1      34.510  20.215  24.627  1.00  0.00     0.257 C 
ATOM     17  C   UNL A   1      33.317  19.663  25.393  1.00  0.00     0.071 C 
ENDBRANCH  13  16
ENDBRANCH   8  13
BRANCH  12  18
ATOM     18  N   UNL A   1      32.151  24.561  24.142  1.00  0.00    -0.328 N 
ATOM     19  C   UNL A   1      32.960  25.391  23.230  1.00  0.00     0.291 C 
ATOM     20  C   UNL A   1      31.293  25.425  24.965  1.00  0.00     0.294 C 
ATOM     21  H   UNL A   1      31.507  23.992  23.592  1.00  0.00     0.348 HD
ATOM     22  C   UNL A   1      33.592  26.654  23.852  1.00  0.00     0.222 C 
ATOM     23  C   UNL A   1      32.036  26.584  25.658  1.00  0.00     0.173 C 
ATOM     24  O   UNL A   1      32.687  27.406  24.670  1.00  0.00    -0.367 OA
BRANCH  23  25
ATOM     25  C   UNL A   1      31.098  27.491  26.466  1.00  0.00     0.034 C 
ATOM     26  C   UNL A   1      31.782  28.203  27.624  1.00  0.00     0.007 C 
ENDBRANCH  23  25
ENDBRANCH  12  18
ENDBRANCH   5   8
ENDBRANCH   3   4
ENDBRANCH   2   3
ENDBRANCH   1   2
BRANCH   1  27
ATOM     27  C   UNL A   1      41.726  20.967  26.744  1.00  0.00     0.002 C 
BRANCH  27  28
ATOM     28  C   UNL A   1      41.908  19.679  25.936  1.00  0.00     0.021 C 
BRANCH  28  29
ATOM     29  C   UNL A   1      43.173  18.899  26.278  1.00  0.00     0.116 C 
BRANCH  29  30
ATOM     30  N   UNL A   1      43.947  18.583  25.088  1.00  0.00    -0.352 N 
ATOM     31  C   UNL A   1      44.610  19.426  24.236  1.00  0.00     0.251 C 
ATOM     32  H   UNL A   1      44.004  17.626  24.863  1.00  0.00     0.163 HD
ATOM     33  O   UNL A   1      45.014  19.016  23.147  1.00  0.00    -0.269 OA
BRANCH  31  34
ATOM     34  C   UNL A   1      44.829  20.834  24.618  1.00  0.00     0.039 A 
ATOM     35  C   UNL A   1      44.325  21.849  23.801  1.00  0.00     0.014 A 
ATOM     36  C   UNL A   1      45.545  21.152  25.776  1.00  0.00     0.014 A 
ATOM     37  C   UNL A   1      44.496  23.184  24.173  1.00  0.00     0.010 A 
ATOM     38  C   UNL A   1      45.647  22.478  26.184  1.00  0.00     0.010 A 
ATOM     39  C   UNL A   1      45.132  23.507  25.382  1.00  0.00    -0.014 A 
BRANCH  39  40
ATOM     40  C   UNL A   1      45.286  24.917  25.820  1.00  0.00     0.031 A 
ATOM     41  C   UNL A   1      46.638  25.574  25.774  1.00  0.00     0.074 A 
ATOM     42  C   UNL A   1      44.227  25.583  26.321  1.00  0.00     0.049 A 
ATOM     43  N   UNL A   1      46.998  26.760  26.197  1.00  0.00    -0.248 NA
ATOM     44  C   UNL A   1      47.739  24.782  25.204  1.00  0.00     0.031 C 
ATOM     45  C   UNL A   1      42.873  25.042  26.455  1.00  0.00     0.029 A 
ATOM     46  N   UNL A   1      44.127  26.855  26.824  1.00  0.00    -0.354 N 
ATOM     47  C   UNL A   1      48.362  26.849  25.953  1.00  0.00     0.074 A 
ATOM     48  C   UNL A   1      48.778  25.579  25.403  1.00  0.00     0.031 C 
ATOM     49  C   UNL A   1      42.076  25.981  26.989  1.00  0.00     0.029 A 
ATOM     50  C   UNL A   1      42.869  27.172  27.274  1.00  0.00     0.049 A 
ATOM     51  H   UNL A   1      44.885  27.483  26.858  1.00  0.00     0.167 HD
ATOM     52  C   UNL A   1      49.189  27.905  26.148  1.00  0.00     0.037 A 
ATOM     53  C   UNL A   1      42.409  28.293  27.863  1.00  0.00     0.037 A 
ATOM     54  C   UNL A   1      48.766  29.173  26.680  1.00  0.00     0.049 A 
ATOM     55  C   UNL A   1      43.351  29.445  28.086  1.00  0.00     0.074 A 
ATOM     56  C   UNL A   1      49.518  30.319  26.875  1.00  0.00     0.029 A 
ATOM     57  N   UNL A   1      47.479  29.462  27.104  1.00  0.00    -0.354 N 
ATOM     58  N   UNL A   1      44.628  29.537  27.797  1.00  0.00    -0.248 NA
ATOM     59  C   UNL A   1      42.789  30.651  28.710  1.00  0.00     0.031 C 
ATOM     60  C   UNL A   1      48.695  31.286  27.461  1.00  0.00     0.029 A 
ATOM     61  C   UNL A   1      47.418  30.763  27.578  1.00  0.00     0.049 A 
ATOM     62  H   UNL A   1      46.719  28.837  27.073  1.00  0.00     0.167 HD
ATOM     63  C   UNL A   1      45.012  30.818  28.171  1.00  0.00     0.074 A 
ATOM     64  C   UNL A   1      43.830  31.471  28.697  1.00  0.00     0.031 C 
ATOM     65  C   UNL A   1      46.231  31.402  28.084  1.00  0.00     0.037 A 
BRANCH  52  66
ATOM     66  C   UNL A   1      50.634  27.729  25.779  1.00  0.00     0.057 A 
ATOM     67  C   UNL A   1      51.088  27.909  24.465  1.00  0.00     0.134 A 
ATOM     68  C   UNL A   1      51.589  27.412  26.752  1.00  0.00     0.134 A 
ATOM     69  F   UNL A   1      50.225  28.203  23.482  1.00  0.00    -0.206 F 
ATOM     70  C   UNL A   1      52.434  27.752  24.128  1.00  0.00     0.040 A 
ATOM     71  C   UNL A   1      52.943  27.282  26.434  1.00  0.00     0.040 A 
ATOM     72  F   UNL A   1      51.227  27.233  28.031  1.00  0.00    -0.206 F 
ATOM     73  C   UNL A   1      53.366  27.445  25.116  1.00  0.00     0.006 A 
ENDBRANCH  52  66
BRANCH  53  74
ATOM     74  C   UNL A   1      40.985  28.389  28.275  1.00  0.00     0.057 A 
ATOM     75  C   UNL A   1      40.566  27.964  29.541  1.00  0.00     0.134 A 
ATOM     76  C   UNL A   1      40.006  28.892  27.410  1.00  0.00     0.134 A 
ATOM     77  F   UNL A   1      41.454  27.456  30.409  1.00  0.00    -0.206 F 
ATOM     78  C   UNL A   1      39.225  28.010  29.923  1.00  0.00     0.040 A 
ATOM     79  C   UNL A   1      38.665  28.971  27.788  1.00  0.00     0.040 A 
ATOM     80  F   UNL A   1      40.342  29.327  26.185  1.00  0.00    -0.206 F 
ATOM     81  C   UNL A   1      38.270  28.519  29.046  1.00  0.00     0.006 A 
ENDBRANCH  53  74
BRANCH  65  82
ATOM     82  C   UNL A   1      46.342  32.835  28.520  1.00  0.00     0.057 A 
ATOM     83  C   UNL A   1      46.127  33.900  27.637  1.00  0.00     0.134 A 
ATOM     84  C   UNL A   1      46.622  33.149  29.857  1.00  0.00     0.134 A 
ATOM     85  F   UNL A   1      45.867  33.669  26.342  1.00  0.00    -0.206 F 
ATOM     86  C   UNL A   1      46.207  35.227  28.063  1.00  0.00     0.040 A 
ATOM     87  C   UNL A   1      46.676  34.471  30.300  1.00  0.00     0.040 A 
ATOM     88  F   UNL A   1      46.829  32.177  30.757  1.00  0.00    -0.206 F 
ATOM     89  C   UNL A   1      46.474  35.515  29.401  1.00  0.00     0.006 A 
ENDBRANCH  65  82
ENDBRANCH  39  40
ENDBRANCH  31  34
ENDBRANCH  29  30
ENDBRANCH  28  29
ENDBRANCH  27  28
ENDBRANCH   1  27
TORSDOF 17
ENDMDL
