MODEL 1
REMARK VINA RESULT:     -11.1      0.000      0.000
REMARK SMILES Cc1cc(CNC(=O)C[C@H](C)CC(=O)NCCCCCCNC(=O)c2ccc(-c3c4nc(c(-c5c(F)cccc5F)c5ccc([nH]5)c(-c5c(F)cccc5F)c5nc(c(-c6c(F)cccc6F)c6ccc3[nH]6)C=C5)C=C4)cc2)cc(C)c1F
REMARK SMILES IDX 17 1 16 2 15 3 13 4 14 5 12 7 10 8 11 9 9 10 7 11 6 12 8 14
REMARK SMILES IDX 5 15 4 16 1 17 2 18 3 19 82 20 80 21 83 22 79 23 81 24 18 25
REMARK SMILES IDX 19 26 20 27 21 28 22 29 23 30 24 32 25 33 26 34 78 35 27 36
REMARK SMILES IDX 77 37 28 38 29 39 30 40 71 41 31 42 76 43 70 44 72 45 32 46
REMARK SMILES IDX 75 47 69 48 68 49 33 51 59 52 42 53 58 54 43 55 46 56 57 57
REMARK SMILES IDX 73 58 44 59 45 60 56 62 74 63 47 64 34 65 35 66 40 67 36 68
REMARK SMILES IDX 37 69 39 70 41 71 38 72 60 73 61 74 66 75 62 76 63 77 65 78
REMARK SMILES IDX 67 79 64 80 48 81 49 82 54 83 50 84 51 85 53 86 55 87 52 88
REMARK H PARENT 15 6 6 13 22 31 72 50 46 61
REMARK Flexibility Score: inf
ROOT
ATOM      1  C   UNL A   1      32.708  28.666  25.664  1.00  0.00     0.021 C 
ENDROOT
BRANCH   1   2
ATOM      2  C   UNL A   1      33.089  28.878  24.196  1.00  0.00     0.116 C 
BRANCH   2   3
ATOM      3  N   UNL A   1      31.922  29.282  23.432  1.00  0.00    -0.356 N 
ATOM      4  C   UNL A   1      31.023  28.533  22.735  1.00  0.00     0.220 C 
ATOM      5  O   UNL A   1      30.200  29.120  22.030  1.00  0.00    -0.275 OA
ATOM      6  H   UNL A   1      31.754  30.252  23.414  1.00  0.00     0.163 HD
BRANCH   4   7
ATOM      7  C   UNL A   1      31.021  27.013  22.825  1.00  0.00     0.103 C 
BRANCH   7   8
ATOM      8  C   UNL A   1      30.320  26.471  24.088  1.00  0.00     0.004 C 
ATOM      9  C   UNL A   1      28.796  26.468  23.915  1.00  0.00     0.009 C 
BRANCH   8  10
ATOM     10  C   UNL A   1      30.815  25.055  24.452  1.00  0.00     0.103 C 
BRANCH  10  11
ATOM     11  C   UNL A   1      31.320  24.957  25.886  1.00  0.00     0.220 C 
ATOM     12  N   UNL A   1      32.637  25.158  26.167  1.00  0.00    -0.352 N 
ATOM     13  H   UNL A   1      32.845  25.370  27.106  1.00  0.00     0.163 HD
ATOM     14  O   UNL A   1      30.535  24.768  26.817  1.00  0.00    -0.275 OA
BRANCH  12  15
ATOM     15  C   UNL A   1      33.770  25.103  25.272  1.00  0.00     0.151 C 
BRANCH  15  16
ATOM     16  C   UNL A   1      34.591  23.842  25.408  1.00  0.00    -0.028 A 
ATOM     17  C   UNL A   1      38.237  22.804  25.864  1.00  0.00     0.047 C 
ATOM     18  C   UNL A   1      36.754  22.724  25.667  1.00  0.00    -0.015 A 
ATOM     19  C   UNL A   1      35.966  23.883  25.693  1.00  0.00     0.012 A 
ATOM     20  C   UNL A   1      36.146  21.506  25.363  1.00  0.00     0.129 A 
ATOM     21  C   UNL A   1      34.777  21.422  25.108  1.00  0.00    -0.015 A 
ATOM     22  F   UNL A   1      36.899  20.398  25.302  1.00  0.00    -0.206 F 
ATOM     23  C   UNL A   1      34.007  22.595  25.132  1.00  0.00     0.012 A 
ATOM     24  C   UNL A   1      34.130  20.107  24.794  1.00  0.00     0.047 C 
ENDBRANCH  15  16
ENDBRANCH  12  15
ENDBRANCH  10  11
ENDBRANCH   8  10
ENDBRANCH   7   8
ENDBRANCH   4   7
ENDBRANCH   2   3
ENDBRANCH   1   2
BRANCH   1  25
ATOM     25  C   UNL A   1      32.712  29.940  26.508  1.00  0.00     0.002 C 
BRANCH  25  26
ATOM     26  C   UNL A   1      31.370  30.682  26.537  1.00  0.00     0.002 C 
BRANCH  26  27
ATOM     27  C   UNL A   1      31.458  32.214  26.565  1.00  0.00     0.021 C 
BRANCH  27  28
ATOM     28  C   UNL A   1      32.647  32.775  27.342  1.00  0.00     0.116 C 
BRANCH  28  29
ATOM     29  N   UNL A   1      32.456  34.177  27.671  1.00  0.00    -0.352 N 
ATOM     30  C   UNL A   1      33.057  34.921  28.652  1.00  0.00     0.251 C 
ATOM     31  H   UNL A   1      31.805  34.659  27.112  1.00  0.00     0.163 HD
ATOM     32  O   UNL A   1      32.593  36.014  28.977  1.00  0.00    -0.269 OA
BRANCH  30  33
ATOM     33  C   UNL A   1      34.269  34.414  29.323  1.00  0.00     0.039 A 
ATOM     34  C   UNL A   1      35.507  34.539  28.686  1.00  0.00     0.014 A 
ATOM     35  C   UNL A   1      34.171  33.759  30.555  1.00  0.00     0.014 A 
ATOM     36  C   UNL A   1      36.655  34.034  29.298  1.00  0.00     0.010 A 
ATOM     37  C   UNL A   1      35.321  33.297  31.187  1.00  0.00     0.010 A 
ATOM     38  C   UNL A   1      36.570  33.413  30.554  1.00  0.00    -0.014 A 
BRANCH  38  39
ATOM     39  C   UNL A   1      37.757  32.795  31.188  1.00  0.00     0.031 A 
ATOM     40  C   UNL A   1      38.363  31.567  30.567  1.00  0.00     0.074 A 
ATOM     41  C   UNL A   1      38.254  33.293  32.335  1.00  0.00     0.049 A 
ATOM     42  N   UNL A   1      39.340  30.814  31.002  1.00  0.00    -0.248 NA
ATOM     43  C   UNL A   1      37.776  31.120  29.293  1.00  0.00     0.031 C 
ATOM     44  C   UNL A   1      37.750  34.476  33.033  1.00  0.00     0.029 A 
ATOM     45  N   UNL A   1      39.287  32.853  33.123  1.00  0.00    -0.354 N 
ATOM     46  C   UNL A   1      39.482  29.804  30.059  1.00  0.00     0.074 A 
ATOM     47  C   UNL A   1      38.460  30.010  29.056  1.00  0.00     0.031 C 
ATOM     48  C   UNL A   1      38.476  34.666  34.149  1.00  0.00     0.029 A 
ATOM     49  C   UNL A   1      39.470  33.602  34.259  1.00  0.00     0.049 A 
ATOM     50  H   UNL A   1      39.844  32.074  32.895  1.00  0.00     0.167 HD
ATOM     51  C   UNL A   1      40.395  28.805  30.020  1.00  0.00     0.037 A 
ATOM     52  C   UNL A   1      40.332  33.434  35.280  1.00  0.00     0.037 A 
ATOM     53  C   UNL A   1      41.411  28.601  31.019  1.00  0.00     0.049 A 
ATOM     54  C   UNL A   1      41.294  32.276  35.247  1.00  0.00     0.074 A 
ATOM     55  C   UNL A   1      42.399  27.635  31.060  1.00  0.00     0.029 A 
ATOM     56  N   UNL A   1      41.559  29.378  32.158  1.00  0.00    -0.354 N 
ATOM     57  N   UNL A   1      41.452  31.355  34.327  1.00  0.00    -0.248 NA
ATOM     58  C   UNL A   1      42.199  32.133  36.398  1.00  0.00     0.031 C 
ATOM     59  C   UNL A   1      43.119  27.798  32.249  1.00  0.00     0.029 A 
ATOM     60  C   UNL A   1      42.611  28.898  32.921  1.00  0.00     0.049 A 
ATOM     61  H   UNL A   1      41.000  30.154  32.391  1.00  0.00     0.167 HD
ATOM     62  C   UNL A   1      42.498  30.552  34.766  1.00  0.00     0.074 A 
ATOM     63  C   UNL A   1      42.937  31.095  36.034  1.00  0.00     0.031 C 
ATOM     64  C   UNL A   1      43.048  29.466  34.170  1.00  0.00     0.037 A 
BRANCH  51  65
ATOM     65  C   UNL A   1      40.326  27.855  28.862  1.00  0.00     0.057 A 
ATOM     66  C   UNL A   1      41.030  28.112  27.679  1.00  0.00     0.134 A 
ATOM     67  C   UNL A   1      39.548  26.689  28.910  1.00  0.00     0.134 A 
ATOM     68  F   UNL A   1      41.789  29.212  27.564  1.00  0.00    -0.206 F 
ATOM     69  C   UNL A   1      40.967  27.245  26.588  1.00  0.00     0.040 A 
ATOM     70  C   UNL A   1      39.498  25.800  27.835  1.00  0.00     0.040 A 
ATOM     71  F   UNL A   1      38.860  26.377  30.018  1.00  0.00    -0.206 F 
ATOM     72  C   UNL A   1      40.205  26.080  26.667  1.00  0.00     0.006 A 
ENDBRANCH  51  65
BRANCH  52  73
ATOM     73  C   UNL A   1      40.338  34.382  36.424  1.00  0.00     0.057 A 
ATOM     74  C   UNL A   1      41.065  35.576  36.381  1.00  0.00     0.134 A 
ATOM     75  C   UNL A   1      39.580  34.129  37.573  1.00  0.00     0.134 A 
ATOM     76  F   UNL A   1      41.816  35.875  35.310  1.00  0.00    -0.206 F 
ATOM     77  C   UNL A   1      41.038  36.487  37.438  1.00  0.00     0.040 A 
ATOM     78  C   UNL A   1      39.522  35.044  38.627  1.00  0.00     0.040 A 
ATOM     79  F   UNL A   1      38.845  33.012  37.665  1.00  0.00    -0.206 F 
ATOM     80  C   UNL A   1      40.255  36.226  38.561  1.00  0.00     0.006 A 
ENDBRANCH  52  73
BRANCH  64  81
ATOM     81  C   UNL A   1      44.222  28.826  34.852  1.00  0.00     0.057 A 
ATOM     82  C   UNL A   1      45.527  29.217  34.526  1.00  0.00     0.134 A 
ATOM     83  C   UNL A   1      44.068  27.794  35.785  1.00  0.00     0.134 A 
ATOM     84  F   UNL A   1      45.743  30.195  33.634  1.00  0.00    -0.206 F 
ATOM     85  C   UNL A   1      46.639  28.598  35.098  1.00  0.00     0.040 A 
ATOM     86  C   UNL A   1      45.172  27.184  36.383  1.00  0.00     0.040 A 
ATOM     87  F   UNL A   1      42.844  27.383  36.149  1.00  0.00    -0.206 F 
ATOM     88  C   UNL A   1      46.462  27.580  36.033  1.00  0.00     0.006 A 
ENDBRANCH  64  81
ENDBRANCH  38  39
ENDBRANCH  30  33
ENDBRANCH  28  29
ENDBRANCH  27  28
ENDBRANCH  26  27
ENDBRANCH  25  26
ENDBRANCH   1  25
TORSDOF 18
ENDMDL
MODEL 2
REMARK VINA RESULT:     -11.1      5.111      9.759
REMARK SMILES Cc1cc(CNC(=O)C[C@H](C)CC(=O)NCCCCCCNC(=O)c2ccc(-c3c4nc(c(-c5c(F)cccc5F)c5ccc([nH]5)c(-c5c(F)cccc5F)c5nc(c(-c6c(F)cccc6F)c6ccc3[nH]6)C=C5)C=C4)cc2)cc(C)c1F
REMARK SMILES IDX 17 1 16 2 15 3 13 4 14 5 12 7 10 8 11 9 9 10 7 11 6 12 8 14
REMARK SMILES IDX 5 15 4 16 1 17 2 18 3 19 82 20 80 21 83 22 79 23 81 24 18 25
REMARK SMILES IDX 19 26 20 27 21 28 22 29 23 30 24 32 25 33 26 34 78 35 27 36
REMARK SMILES IDX 77 37 28 38 29 39 30 40 71 41 31 42 76 43 70 44 72 45 32 46
REMARK SMILES IDX 75 47 69 48 68 49 33 51 59 52 42 53 58 54 43 55 46 56 57 57
REMARK SMILES IDX 73 58 44 59 45 60 56 62 74 63 47 64 34 65 35 66 40 67 36 68
REMARK SMILES IDX 37 69 39 70 41 71 38 72 60 73 61 74 66 75 62 76 63 77 65 78
REMARK SMILES IDX 67 79 64 80 48 81 49 82 54 83 50 84 51 85 53 86 55 87 52 88
REMARK H PARENT 15 6 6 13 22 31 72 50 46 61
REMARK Flexibility Score: inf
ROOT
ATOM      1  C   UNL A   1      35.534  22.233  25.517  1.00  0.00     0.021 C 
ENDROOT
BRANCH   1   2
ATOM      2  C   UNL A   1      34.534  21.757  26.574  1.00  0.00     0.116 C 
BRANCH   2   3
ATOM      3  N   UNL A   1      33.843  20.568  26.107  1.00  0.00    -0.356 N 
ATOM      4  C   UNL A   1      32.671  20.441  25.425  1.00  0.00     0.220 C 
ATOM      5  O   UNL A   1      32.205  19.310  25.278  1.00  0.00    -0.275 OA
ATOM      6  H   UNL A   1      34.294  19.719  26.317  1.00  0.00     0.163 HD
BRANCH   4   7
ATOM      7  C   UNL A   1      31.954  21.655  24.851  1.00  0.00     0.103 C 
BRANCH   7   8
ATOM      8  C   UNL A   1      32.504  22.107  23.482  1.00  0.00     0.004 C 
ATOM      9  C   UNL A   1      32.100  21.126  22.375  1.00  0.00     0.009 C 
BRANCH   8  10
ATOM     10  C   UNL A   1      32.040  23.534  23.123  1.00  0.00     0.103 C 
BRANCH  10  11
ATOM     11  C   UNL A   1      33.200  24.477  22.834  1.00  0.00     0.220 C 
ATOM     12  N   UNL A   1      33.806  25.153  23.848  1.00  0.00    -0.352 N 
ATOM     13  H   UNL A   1      34.705  25.503  23.650  1.00  0.00     0.163 HD
ATOM     14  O   UNL A   1      33.653  24.586  21.692  1.00  0.00    -0.275 OA
BRANCH  12  15
ATOM     15  C   UNL A   1      33.307  25.425  25.177  1.00  0.00     0.151 C 
BRANCH  15  16
ATOM     16  C   UNL A   1      32.771  26.827  25.349  1.00  0.00    -0.028 A 
ATOM     17  C   UNL A   1      30.274  29.189  23.686  1.00  0.00     0.047 C 
ATOM     18  C   UNL A   1      31.325  28.662  24.615  1.00  0.00    -0.015 A 
ATOM     19  C   UNL A   1      31.717  27.317  24.560  1.00  0.00     0.012 A 
ATOM     20  C   UNL A   1      31.995  29.521  25.485  1.00  0.00     0.129 A 
ATOM     21  C   UNL A   1      33.024  29.062  26.309  1.00  0.00    -0.015 A 
ATOM     22  F   UNL A   1      31.650  30.816  25.518  1.00  0.00    -0.206 F 
ATOM     23  C   UNL A   1      33.406  27.713  26.233  1.00  0.00     0.012 A 
ATOM     24  C   UNL A   1      33.730  29.990  27.250  1.00  0.00     0.047 C 
ENDBRANCH  15  16
ENDBRANCH  12  15
ENDBRANCH  10  11
ENDBRANCH   8  10
ENDBRANCH   7   8
ENDBRANCH   4   7
ENDBRANCH   2   3
ENDBRANCH   1   2
BRANCH   1  25
ATOM     25  C   UNL A   1      36.851  21.458  25.499  1.00  0.00     0.002 C 
BRANCH  25  26
ATOM     26  C   UNL A   1      36.733  20.027  24.959  1.00  0.00     0.002 C 
BRANCH  26  27
ATOM     27  C   UNL A   1      38.022  19.195  24.997  1.00  0.00     0.021 C 
BRANCH  27  28
ATOM     28  C   UNL A   1      39.183  19.841  25.751  1.00  0.00     0.116 C 
BRANCH  28  29
ATOM     29  N   UNL A   1      40.284  18.911  25.935  1.00  0.00    -0.352 N 
ATOM     30  C   UNL A   1      41.619  19.176  26.085  1.00  0.00     0.251 C 
ATOM     31  H   UNL A   1      40.036  17.958  25.954  1.00  0.00     0.163 HD
ATOM     32  O   UNL A   1      42.450  18.278  25.959  1.00  0.00    -0.269 OA
BRANCH  30  33
ATOM     33  C   UNL A   1      42.066  20.545  26.403  1.00  0.00     0.039 A 
ATOM     34  C   UNL A   1      42.090  20.965  27.736  1.00  0.00     0.014 A 
ATOM     35  C   UNL A   1      42.404  21.433  25.376  1.00  0.00     0.014 A 
ATOM     36  C   UNL A   1      42.482  22.269  28.045  1.00  0.00     0.010 A 
ATOM     37  C   UNL A   1      42.839  22.717  25.687  1.00  0.00     0.010 A 
ATOM     38  C   UNL A   1      42.863  23.152  27.023  1.00  0.00    -0.014 A 
BRANCH  38  39
ATOM     39  C   UNL A   1      43.202  24.564  27.312  1.00  0.00     0.031 A 
ATOM     40  C   UNL A   1      44.643  24.992  27.284  1.00  0.00     0.074 A 
ATOM     41  C   UNL A   1      42.239  25.441  27.648  1.00  0.00     0.049 A 
ATOM     42  N   UNL A   1      45.171  26.147  27.595  1.00  0.00    -0.248 NA
ATOM     43  C   UNL A   1      45.620  23.973  26.867  1.00  0.00     0.031 C 
ATOM     44  C   UNL A   1      40.808  25.144  27.713  1.00  0.00     0.029 A 
ATOM     45  N   UNL A   1      42.324  26.760  28.016  1.00  0.00    -0.354 N 
ATOM     46  C   UNL A   1      46.540  25.994  27.413  1.00  0.00     0.074 A 
ATOM     47  C   UNL A   1      46.766  24.621  27.016  1.00  0.00     0.031 C 
ATOM     48  C   UNL A   1      40.149  26.250  28.099  1.00  0.00     0.029 A 
ATOM     49  C   UNL A   1      41.113  27.320  28.341  1.00  0.00     0.049 A 
ATOM     50  H   UNL A   1      43.173  27.257  28.044  1.00  0.00     0.167 HD
ATOM     51  C   UNL A   1      47.520  26.919  27.546  1.00  0.00     0.037 A 
ATOM     52  C   UNL A   1      40.822  28.553  28.798  1.00  0.00     0.037 A 
ATOM     53  C   UNL A   1      47.293  28.284  27.942  1.00  0.00     0.049 A 
ATOM     54  C   UNL A   1      41.937  29.544  29.002  1.00  0.00     0.074 A 
ATOM     55  C   UNL A   1      48.213  29.306  28.083  1.00  0.00     0.029 A 
ATOM     56  N   UNL A   1      46.052  28.811  28.269  1.00  0.00    -0.354 N 
ATOM     57  N   UNL A   1      43.222  29.404  28.781  1.00  0.00    -0.248 NA
ATOM     58  C   UNL A   1      41.561  30.868  29.521  1.00  0.00     0.031 C 
ATOM     59  C   UNL A   1      47.536  30.442  28.538  1.00  0.00     0.029 A 
ATOM     60  C   UNL A   1      46.187  30.141  28.632  1.00  0.00     0.049 A 
ATOM     61  H   UNL A   1      45.202  28.314  28.246  1.00  0.00     0.167 HD
ATOM     62  C   UNL A   1      43.799  30.629  29.093  1.00  0.00     0.074 A 
ATOM     63  C   UNL A   1      42.724  31.501  29.516  1.00  0.00     0.031 C 
ATOM     64  C   UNL A   1      45.101  31.000  29.029  1.00  0.00     0.037 A 
BRANCH  51  65
ATOM     65  C   UNL A   1      48.926  26.476  27.268  1.00  0.00     0.057 A 
ATOM     66  C   UNL A   1      49.453  26.535  25.973  1.00  0.00     0.134 A 
ATOM     67  C   UNL A   1      49.754  25.974  28.282  1.00  0.00     0.134 A 
ATOM     68  F   UNL A   1      48.712  27.000  24.956  1.00  0.00    -0.206 F 
ATOM     69  C   UNL A   1      50.755  26.116  25.695  1.00  0.00     0.040 A 
ATOM     70  C   UNL A   1      51.067  25.577  28.021  1.00  0.00     0.040 A 
ATOM     71  F   UNL A   1      49.315  25.904  29.547  1.00  0.00    -0.206 F 
ATOM     72  C   UNL A   1      51.569  25.642  26.722  1.00  0.00     0.006 A 
ENDBRANCH  51  65
BRANCH  52  73
ATOM     73  C   UNL A   1      39.417  28.933  29.094  1.00  0.00     0.057 A 
ATOM     74  C   UNL A   1      38.582  29.474  28.110  1.00  0.00     0.134 A 
ATOM     75  C   UNL A   1      38.867  28.726  30.364  1.00  0.00     0.134 A 
ATOM     76  F   UNL A   1      39.050  29.702  26.874  1.00  0.00    -0.206 F 
ATOM     77  C   UNL A   1      37.249  29.791  28.376  1.00  0.00     0.040 A 
ATOM     78  C   UNL A   1      37.528  29.015  30.638  1.00  0.00     0.040 A 
ATOM     79  F   UNL A   1      39.611  28.192  31.343  1.00  0.00    -0.206 F 
ATOM     80  C   UNL A   1      36.716  29.552  29.641  1.00  0.00     0.006 A 
ENDBRANCH  52  73
BRANCH  64  81
ATOM     81  C   UNL A   1      45.431  32.424  29.370  1.00  0.00     0.057 A 
ATOM     82  C   UNL A   1      45.408  33.411  28.376  1.00  0.00     0.134 A 
ATOM     83  C   UNL A   1      45.819  32.809  30.658  1.00  0.00     0.134 A 
ATOM     84  F   UNL A   1      45.051  33.106  27.119  1.00  0.00    -0.206 F 
ATOM     85  C   UNL A   1      45.768  34.731  28.650  1.00  0.00     0.040 A 
ATOM     86  C   UNL A   1      46.157  34.131  30.950  1.00  0.00     0.040 A 
ATOM     87  F   UNL A   1      45.848  31.913  31.656  1.00  0.00    -0.206 F 
ATOM     88  C   UNL A   1      46.141  35.095  29.942  1.00  0.00     0.006 A 
ENDBRANCH  64  81
ENDBRANCH  38  39
ENDBRANCH  30  33
ENDBRANCH  28  29
ENDBRANCH  27  28
ENDBRANCH  26  27
ENDBRANCH  25  26
ENDBRANCH   1  25
TORSDOF 18
ENDMDL
MODEL 3
REMARK VINA RESULT:     -11.0      4.069      8.651
REMARK SMILES Cc1cc(CNC(=O)C[C@H](C)CC(=O)NCCCCCCNC(=O)c2ccc(-c3c4nc(c(-c5c(F)cccc5F)c5ccc([nH]5)c(-c5c(F)cccc5F)c5nc(c(-c6c(F)cccc6F)c6ccc3[nH]6)C=C5)C=C4)cc2)cc(C)c1F
REMARK SMILES IDX 17 1 16 2 15 3 13 4 14 5 12 7 10 8 11 9 9 10 7 11 6 12 8 14
REMARK SMILES IDX 5 15 4 16 1 17 2 18 3 19 82 20 80 21 83 22 79 23 81 24 18 25
REMARK SMILES IDX 19 26 20 27 21 28 22 29 23 30 24 32 25 33 26 34 78 35 27 36
REMARK SMILES IDX 77 37 28 38 29 39 30 40 71 41 31 42 76 43 70 44 72 45 32 46
REMARK SMILES IDX 75 47 69 48 68 49 33 51 59 52 42 53 58 54 43 55 46 56 57 57
REMARK SMILES IDX 73 58 44 59 45 60 56 62 74 63 47 64 34 65 35 66 40 67 36 68
REMARK SMILES IDX 37 69 39 70 41 71 38 72 60 73 61 74 66 75 62 76 63 77 65 78
REMARK SMILES IDX 67 79 64 80 48 81 49 82 54 83 50 84 51 85 53 86 55 87 52 88
REMARK H PARENT 15 6 6 13 22 31 72 50 46 61
REMARK Flexibility Score: inf
ROOT
ATOM      1  C   UNL A   1      30.507  26.119  26.128  1.00  0.00     0.021 C 
ENDROOT
BRANCH   1   2
ATOM      2  C   UNL A   1      30.653  24.609  26.336  1.00  0.00     0.116 C 
BRANCH   2   3
ATOM      3  N   UNL A   1      30.440  23.910  25.081  1.00  0.00    -0.356 N 
ATOM      4  C   UNL A   1      31.331  23.522  24.126  1.00  0.00     0.220 C 
ATOM      5  O   UNL A   1      30.889  23.080  23.064  1.00  0.00    -0.275 OA
ATOM      6  H   UNL A   1      29.503  23.680  24.889  1.00  0.00     0.163 HD
BRANCH   4   7
ATOM      7  C   UNL A   1      32.833  23.621  24.359  1.00  0.00     0.103 C 
BRANCH   7   8
ATOM      8  C   UNL A   1      33.362  25.070  24.365  1.00  0.00     0.004 C 
ATOM      9  C   UNL A   1      34.240  25.331  25.595  1.00  0.00     0.009 C 
BRANCH   8  10
ATOM     10  C   UNL A   1      34.144  25.398  23.075  1.00  0.00     0.103 C 
BRANCH  10  11
ATOM     11  C   UNL A   1      33.242  25.536  21.857  1.00  0.00     0.220 C 
ATOM     12  N   UNL A   1      32.645  26.727  21.574  1.00  0.00    -0.352 N 
ATOM     13  H   UNL A   1      32.327  26.836  20.649  1.00  0.00     0.163 HD
ATOM     14  O   UNL A   1      33.097  24.597  21.071  1.00  0.00    -0.275 OA
BRANCH  12  15
ATOM     15  C   UNL A   1      32.417  27.853  22.451  1.00  0.00     0.151 C 
BRANCH  15  16
ATOM     16  C   UNL A   1      30.964  28.257  22.556  1.00  0.00    -0.028 A 
ATOM     17  C   UNL A   1      28.819  31.407  22.325  1.00  0.00     0.047 C 
ATOM     18  C   UNL A   1      29.222  29.978  22.523  1.00  0.00    -0.015 A 
ATOM     19  C   UNL A   1      30.541  29.567  22.278  1.00  0.00     0.012 A 
ATOM     20  C   UNL A   1      28.317  29.052  23.041  1.00  0.00     0.129 A 
ATOM     21  C   UNL A   1      28.694  27.733  23.297  1.00  0.00    -0.015 A 
ATOM     22  F   UNL A   1      27.064  29.446  23.311  1.00  0.00    -0.206 F 
ATOM     23  C   UNL A   1      30.020  27.344  23.052  1.00  0.00     0.012 A 
ATOM     24  C   UNL A   1      27.711  26.743  23.843  1.00  0.00     0.047 C 
ENDBRANCH  15  16
ENDBRANCH  12  15
ENDBRANCH  10  11
ENDBRANCH   8  10
ENDBRANCH   7   8
ENDBRANCH   4   7
ENDBRANCH   2   3
ENDBRANCH   1   2
BRANCH   1  25
ATOM     25  C   UNL A   1      31.381  26.971  27.048  1.00  0.00     0.002 C 
BRANCH  25  26
ATOM     26  C   UNL A   1      31.576  28.416  26.572  1.00  0.00     0.002 C 
BRANCH  26  27
ATOM     27  C   UNL A   1      32.941  28.729  25.944  1.00  0.00     0.021 C 
BRANCH  27  28
ATOM     28  C   UNL A   1      34.081  28.916  26.944  1.00  0.00     0.116 C 
BRANCH  28  29
ATOM     29  N   UNL A   1      33.997  30.202  27.615  1.00  0.00    -0.352 N 
ATOM     30  C   UNL A   1      34.868  30.765  28.510  1.00  0.00     0.251 C 
ATOM     31  H   UNL A   1      33.205  30.744  27.396  1.00  0.00     0.163 HD
ATOM     32  O   UNL A   1      34.525  31.732  29.189  1.00  0.00    -0.269 OA
BRANCH  30  33
ATOM     33  C   UNL A   1      36.228  30.214  28.659  1.00  0.00     0.039 A 
ATOM     34  C   UNL A   1      36.621  29.686  29.892  1.00  0.00     0.014 A 
ATOM     35  C   UNL A   1      37.135  30.276  27.595  1.00  0.00     0.014 A 
ATOM     36  C   UNL A   1      37.916  29.190  30.053  1.00  0.00     0.010 A 
ATOM     37  C   UNL A   1      38.410  29.740  27.742  1.00  0.00     0.010 A 
ATOM     38  C   UNL A   1      38.817  29.210  28.977  1.00  0.00    -0.014 A 
BRANCH  38  39
ATOM     39  C   UNL A   1      40.222  28.769  29.142  1.00  0.00     0.031 A 
ATOM     40  C   UNL A   1      41.234  29.737  29.687  1.00  0.00     0.074 A 
ATOM     41  C   UNL A   1      40.597  27.535  28.759  1.00  0.00     0.049 A 
ATOM     42  N   UNL A   1      42.527  29.594  29.826  1.00  0.00    -0.248 NA
ATOM     43  C   UNL A   1      40.722  31.048  30.116  1.00  0.00     0.031 C 
ATOM     44  C   UNL A   1      39.707  26.510  28.214  1.00  0.00     0.029 A 
ATOM     45  N   UNL A   1      41.834  26.942  28.756  1.00  0.00    -0.354 N 
ATOM     46  C   UNL A   1      42.981  30.795  30.355  1.00  0.00     0.074 A 
ATOM     47  C   UNL A   1      41.837  31.674  30.463  1.00  0.00     0.031 C 
ATOM     48  C   UNL A   1      40.429  25.413  27.927  1.00  0.00     0.029 A 
ATOM     49  C   UNL A   1      41.833  25.670  28.236  1.00  0.00     0.049 A 
ATOM     50  H   UNL A   1      42.645  27.386  29.094  1.00  0.00     0.167 HD
ATOM     51  C   UNL A   1      44.237  31.131  30.735  1.00  0.00     0.037 A 
ATOM     52  C   UNL A   1      42.856  24.821  28.020  1.00  0.00     0.037 A 
ATOM     53  C   UNL A   1      45.374  30.256  30.626  1.00  0.00     0.049 A 
ATOM     54  C   UNL A   1      44.253  25.242  28.389  1.00  0.00     0.074 A 
ATOM     55  C   UNL A   1      46.684  30.491  31.004  1.00  0.00     0.029 A 
ATOM     56  N   UNL A   1      45.334  28.978  30.088  1.00  0.00    -0.354 N 
ATOM     57  N   UNL A   1      44.665  26.362  28.933  1.00  0.00    -0.248 NA
ATOM     58  C   UNL A   1      45.331  24.280  28.113  1.00  0.00     0.031 C 
ATOM     59  C   UNL A   1      47.446  29.371  30.655  1.00  0.00     0.029 A 
ATOM     60  C   UNL A   1      46.601  28.420  30.106  1.00  0.00     0.049 A 
ATOM     61  H   UNL A   1      44.525  28.534  29.745  1.00  0.00     0.167 HD
ATOM     62  C   UNL A   1      46.037  26.223  29.102  1.00  0.00     0.074 A 
ATOM     63  C   UNL A   1      46.388  24.909  28.604  1.00  0.00     0.031 C 
ATOM     64  C   UNL A   1      46.926  27.101  29.626  1.00  0.00     0.037 A 
BRANCH  51  65
ATOM     65  C   UNL A   1      44.441  32.507  31.295  1.00  0.00     0.057 A 
ATOM     66  C   UNL A   1      44.306  32.750  32.667  1.00  0.00     0.134 A 
ATOM     67  C   UNL A   1      44.756  33.599  30.473  1.00  0.00     0.134 A 
ATOM     68  F   UNL A   1      44.001  31.752  33.510  1.00  0.00    -0.206 F 
ATOM     69  C   UNL A   1      44.481  34.027  33.203  1.00  0.00     0.040 A 
ATOM     70  C   UNL A   1      44.959  34.875  31.001  1.00  0.00     0.040 A 
ATOM     71  F   UNL A   1      44.913  33.431  29.152  1.00  0.00    -0.206 F 
ATOM     72  C   UNL A   1      44.816  35.092  32.370  1.00  0.00     0.006 A 
ENDBRANCH  51  65
BRANCH  52  73
ATOM     73  C   UNL A   1      42.608  23.481  27.429  1.00  0.00     0.057 A 
ATOM     74  C   UNL A   1      42.274  22.380  28.224  1.00  0.00     0.134 A 
ATOM     75  C   UNL A   1      42.661  23.284  26.044  1.00  0.00     0.134 A 
ATOM     76  F   UNL A   1      42.211  22.502  29.559  1.00  0.00    -0.206 F 
ATOM     77  C   UNL A   1      41.999  21.131  27.666  1.00  0.00     0.040 A 
ATOM     78  C   UNL A   1      42.364  22.046  25.469  1.00  0.00     0.040 A 
ATOM     79  F   UNL A   1      42.955  24.306  25.227  1.00  0.00    -0.206 F 
ATOM     80  C   UNL A   1      42.033  20.964  26.282  1.00  0.00     0.006 A 
ENDBRANCH  52  73
BRANCH  64  81
ATOM     81  C   UNL A   1      48.354  26.651  29.744  1.00  0.00     0.057 A 
ATOM     82  C   UNL A   1      48.790  25.976  30.891  1.00  0.00     0.134 A 
ATOM     83  C   UNL A   1      49.304  26.929  28.754  1.00  0.00     0.134 A 
ATOM     84  F   UNL A   1      47.930  25.686  31.880  1.00  0.00    -0.206 F 
ATOM     85  C   UNL A   1      50.123  25.600  31.054  1.00  0.00     0.040 A 
ATOM     86  C   UNL A   1      50.636  26.535  28.895  1.00  0.00     0.040 A 
ATOM     87  F   UNL A   1      48.947  27.560  27.626  1.00  0.00    -0.206 F 
ATOM     88  C   UNL A   1      51.050  25.877  30.052  1.00  0.00     0.006 A 
ENDBRANCH  64  81
ENDBRANCH  38  39
ENDBRANCH  30  33
ENDBRANCH  28  29
ENDBRANCH  27  28
ENDBRANCH  26  27
ENDBRANCH  25  26
ENDBRANCH   1  25
TORSDOF 18
ENDMDL
