MODEL 1
REMARK VINA RESULT:     -10.3      0.000      0.000
REMARK SMILES O=C(NCCCCCCNC(=O)c1sc2ccccc2c1CSC[C@H](O)CO)c1ccc(-c2c3nc(c(-c4c(F)cccc4F)c4ccc([nH]4)c(-c4c(F)cccc4F)c4nc(c(-c5c(F)cccc5F)c5ccc2[nH]5)C=C4)C=C3)cc1
REMARK SMILES IDX 8 1 7 2 6 3 5 4 4 5 3 6 1 7 2 8 29 10 30 11 82 12 31 13
REMARK SMILES IDX 81 14 32 15 33 16 34 17 75 18 35 19 80 20 74 21 76 22 36 23
REMARK SMILES IDX 79 24 73 25 72 26 37 28 63 29 46 30 62 31 47 32 50 33 61 34
REMARK SMILES IDX 77 35 48 36 49 37 60 39 78 40 51 41 38 42 39 43 44 44 40 45
REMARK SMILES IDX 41 46 43 47 45 48 42 49 64 50 65 51 70 52 66 53 67 54 69 55
REMARK SMILES IDX 71 56 68 57 52 58 53 59 58 60 54 61 55 62 57 63 59 64 56 65
REMARK SMILES IDX 9 66 10 67 11 68 12 70 13 71 14 72 21 73 15 74 20 75 16 76
REMARK SMILES IDX 19 77 17 78 18 79 22 80 23 81 24 82 25 83 27 84 28 85 26 87
REMARK H PARENT 3 9 76 27 50 38 10 69 28 86 26 88
REMARK Flexibility Score: inf
ROOT
ATOM      1  C   UNL A   1      33.631  26.865  22.435  1.00  0.00     0.021 C 
ENDROOT
BRANCH   1   2
ATOM      2  C   UNL A   1      32.825  27.800  23.342  1.00  0.00     0.002 C 
BRANCH   2   3
ATOM      3  C   UNL A   1      33.585  28.525  24.454  1.00  0.00     0.002 C 
BRANCH   3   4
ATOM      4  C   UNL A   1      33.024  28.407  25.874  1.00  0.00     0.021 C 
BRANCH   4   5
ATOM      5  C   UNL A   1      34.019  28.565  27.020  1.00  0.00     0.116 C 
BRANCH   5   6
ATOM      6  N   UNL A   1      33.943  29.850  27.688  1.00  0.00    -0.352 N 
ATOM      7  O   UNL A   1      34.640  31.593  28.931  1.00  0.00    -0.269 OA
ATOM      8  C   UNL A   1      34.917  30.533  28.377  1.00  0.00     0.251 C 
ATOM      9  H   UNL A   1      33.069  30.297  27.641  1.00  0.00     0.163 HD
BRANCH   8  10
ATOM     10  C   UNL A   1      36.291  29.986  28.498  1.00  0.00     0.039 A 
ATOM     11  C   UNL A   1      36.739  29.355  29.662  1.00  0.00     0.014 A 
ATOM     12  C   UNL A   1      37.144  30.086  27.391  1.00  0.00     0.014 A 
ATOM     13  C   UNL A   1      38.063  28.925  29.757  1.00  0.00     0.010 A 
ATOM     14  C   UNL A   1      38.460  29.624  27.472  1.00  0.00     0.010 A 
ATOM     15  C   UNL A   1      38.938  29.072  28.669  1.00  0.00    -0.014 A 
BRANCH  15  16
ATOM     16  C   UNL A   1      40.353  28.654  28.806  1.00  0.00     0.031 A 
ATOM     17  C   UNL A   1      40.782  27.274  28.396  1.00  0.00     0.074 A 
ATOM     18  C   UNL A   1      41.267  29.530  29.263  1.00  0.00     0.049 A 
ATOM     19  N   UNL A   1      41.986  26.761  28.364  1.00  0.00    -0.248 NA
ATOM     20  C   UNL A   1      39.720  26.351  27.967  1.00  0.00     0.031 C 
ATOM     21  C   UNL A   1      40.980  30.892  29.714  1.00  0.00     0.029 A 
ATOM     22  N   UNL A   1      42.625  29.406  29.401  1.00  0.00    -0.354 N 
ATOM     23  C   UNL A   1      41.827  25.452  27.933  1.00  0.00     0.074 A 
ATOM     24  C   UNL A   1      40.411  25.247  27.711  1.00  0.00     0.031 C 
ATOM     25  C   UNL A   1      42.136  31.493  30.044  1.00  0.00     0.029 A 
ATOM     26  C   UNL A   1      43.236  30.557  29.829  1.00  0.00     0.049 A 
ATOM     27  H   UNL A   1      43.114  28.573  29.211  1.00  0.00     0.167 HD
ATOM     28  C   UNL A   1      42.774  24.504  27.735  1.00  0.00     0.037 A 
ATOM     29  C   UNL A   1      44.541  30.833  30.007  1.00  0.00     0.037 A 
ATOM     30  C   UNL A   1      44.186  24.700  27.919  1.00  0.00     0.049 A 
ATOM     31  C   UNL A   1      45.576  29.787  29.724  1.00  0.00     0.074 A 
ATOM     32  C   UNL A   1      45.218  23.799  27.718  1.00  0.00     0.029 A 
ATOM     33  N   UNL A   1      44.766  25.885  28.339  1.00  0.00    -0.354 N 
ATOM     34  N   UNL A   1      45.412  28.561  29.297  1.00  0.00    -0.248 NA
ATOM     35  C   UNL A   1      46.979  30.169  29.942  1.00  0.00     0.031 C 
ATOM     36  C   UNL A   1      46.426  24.443  28.015  1.00  0.00     0.029 A 
ATOM     37  C   UNL A   1      46.142  25.742  28.400  1.00  0.00     0.049 A 
ATOM     38  H   UNL A   1      44.273  26.707  28.563  1.00  0.00     0.167 HD
ATOM     39  C   UNL A   1      46.687  28.024  29.191  1.00  0.00     0.074 A 
ATOM     40  C   UNL A   1      47.617  29.059  29.596  1.00  0.00     0.031 C 
ATOM     41  C   UNL A   1      47.051  26.783  28.793  1.00  0.00     0.037 A 
BRANCH  28  42
ATOM     42  C   UNL A   1      42.301  23.158  27.293  1.00  0.00     0.057 A 
ATOM     43  C   UNL A   1      41.865  22.203  28.216  1.00  0.00     0.134 A 
ATOM     44  C   UNL A   1      42.265  22.822  25.935  1.00  0.00     0.134 A 
ATOM     45  F   UNL A   1      41.891  22.467  29.532  1.00  0.00    -0.206 F 
ATOM     46  C   UNL A   1      41.408  20.950  27.803  1.00  0.00     0.040 A 
ATOM     47  C   UNL A   1      41.808  21.575  25.509  1.00  0.00     0.040 A 
ATOM     48  F   UNL A   1      42.680  23.697  25.006  1.00  0.00    -0.206 F 
ATOM     49  C   UNL A   1      41.378  20.635  26.445  1.00  0.00     0.006 A 
ENDBRANCH  28  42
BRANCH  29  50
ATOM     50  C   UNL A   1      44.944  32.188  30.439  1.00  0.00     0.057 A 
ATOM     51  C   UNL A   1      45.233  33.181  29.499  1.00  0.00     0.134 A 
ATOM     52  C   UNL A   1      45.039  32.517  31.794  1.00  0.00     0.134 A 
ATOM     53  F   UNL A   1      45.166  32.910  28.188  1.00  0.00    -0.206 F 
ATOM     54  C   UNL A   1      45.606  34.466  29.894  1.00  0.00     0.040 A 
ATOM     55  C   UNL A   1      45.409  33.798  32.202  1.00  0.00     0.040 A 
ATOM     56  F   UNL A   1      44.779  31.596  32.733  1.00  0.00    -0.206 F 
ATOM     57  C   UNL A   1      45.692  34.777  31.249  1.00  0.00     0.006 A 
ENDBRANCH  29  50
BRANCH  41  58
ATOM     58  C   UNL A   1      48.516  26.485  28.768  1.00  0.00     0.057 A 
ATOM     59  C   UNL A   1      49.290  26.766  27.638  1.00  0.00     0.134 A 
ATOM     60  C   UNL A   1      49.156  25.936  29.884  1.00  0.00     0.134 A 
ATOM     61  F   UNL A   1      48.726  27.284  26.538  1.00  0.00    -0.206 F 
ATOM     62  C   UNL A   1      50.661  26.505  27.617  1.00  0.00     0.040 A 
ATOM     63  C   UNL A   1      50.526  25.672  29.876  1.00  0.00     0.040 A 
ATOM     64  F   UNL A   1      48.459  25.639  30.992  1.00  0.00    -0.206 F 
ATOM     65  C   UNL A   1      51.282  25.958  28.739  1.00  0.00     0.006 A 
ENDBRANCH  41  58
ENDBRANCH  15  16
ENDBRANCH   8  10
ENDBRANCH   5   6
ENDBRANCH   4   5
ENDBRANCH   3   4
ENDBRANCH   2   3
ENDBRANCH   1   2
BRANCH   1  66
ATOM     66  C   UNL A   1      33.072  25.460  22.221  1.00  0.00     0.116 C 
BRANCH  66  67
ATOM     67  N   UNL A   1      32.099  25.066  23.219  1.00  0.00    -0.351 N 
ATOM     68  C   UNL A   1      32.304  24.395  24.399  1.00  0.00     0.261 C 
ATOM     69  H   UNL A   1      31.166  25.311  23.025  1.00  0.00     0.163 HD
ATOM     70  O   UNL A   1      31.334  24.255  25.153  1.00  0.00    -0.268 OA
BRANCH  68  71
ATOM     71  C   UNL A   1      33.617  23.859  24.688  1.00  0.00     0.097 A 
ATOM     72  S   UNL A   1      34.721  24.808  25.578  1.00  0.00    -0.130 S 
ATOM     73  C   UNL A   1      34.113  22.590  24.415  1.00  0.00    -0.007 A 
ATOM     74  C   UNL A   1      35.962  23.632  25.450  1.00  0.00     0.035 A 
ATOM     75  C   UNL A   1      35.514  22.482  24.794  1.00  0.00    -0.003 A 
ATOM     76  C   UNL A   1      37.282  23.748  25.932  1.00  0.00     0.019 A 
ATOM     77  C   UNL A   1      36.449  21.428  24.615  1.00  0.00     0.010 A 
ATOM     78  C   UNL A   1      38.170  22.688  25.743  1.00  0.00     0.001 A 
ATOM     79  C   UNL A   1      37.760  21.538  25.090  1.00  0.00     0.001 A 
BRANCH  73  80
ATOM     80  C   UNL A   1      33.333  21.486  23.756  1.00  0.00     0.107 C 
BRANCH  80  81
ATOM     81  S   UNL A   1      32.550  20.296  24.898  1.00  0.00    -0.154 SA
BRANCH  81  82
ATOM     82  C   UNL A   1      33.125  18.685  24.240  1.00  0.00     0.104 C 
BRANCH  82  83
ATOM     83  C   UNL A   1      32.717  17.527  25.150  1.00  0.00     0.149 C 
BRANCH  83  84
ATOM     84  C   UNL A   1      33.799  16.443  25.176  1.00  0.00     0.188 C 
BRANCH  84  85
ATOM     85  O   UNL A   1      33.966  15.915  23.860  1.00  0.00    -0.394 OA
ATOM     86  H   UNL A   1      33.759  14.967  23.863  1.00  0.00     0.210 HD
ENDBRANCH  84  85
ENDBRANCH  83  84
BRANCH  83  87
ATOM     87  O   UNL A   1      32.530  17.989  26.500  1.00  0.00    -0.390 OA
ATOM     88  H   UNL A   1      32.811  18.915  26.567  1.00  0.00     0.211 HD
ENDBRANCH  83  87
ENDBRANCH  82  83
ENDBRANCH  81  82
ENDBRANCH  80  81
ENDBRANCH  73  80
ENDBRANCH  68  71
ENDBRANCH  66  67
ENDBRANCH   1  66
TORSDOF 20
ENDMDL
MODEL 2
REMARK VINA RESULT:     -10.1      4.197      8.052
REMARK SMILES O=C(NCCCCCCNC(=O)c1sc2ccccc2c1CSC[C@H](O)CO)c1ccc(-c2c3nc(c(-c4c(F)cccc4F)c4ccc([nH]4)c(-c4c(F)cccc4F)c4nc(c(-c5c(F)cccc5F)c5ccc2[nH]5)C=C4)C=C3)cc1
REMARK SMILES IDX 8 1 7 2 6 3 5 4 4 5 3 6 1 7 2 8 29 10 30 11 82 12 31 13
REMARK SMILES IDX 81 14 32 15 33 16 34 17 75 18 35 19 80 20 74 21 76 22 36 23
REMARK SMILES IDX 79 24 73 25 72 26 37 28 63 29 46 30 62 31 47 32 50 33 61 34
REMARK SMILES IDX 77 35 48 36 49 37 60 39 78 40 51 41 38 42 39 43 44 44 40 45
REMARK SMILES IDX 41 46 43 47 45 48 42 49 64 50 65 51 70 52 66 53 67 54 69 55
REMARK SMILES IDX 71 56 68 57 52 58 53 59 58 60 54 61 55 62 57 63 59 64 56 65
REMARK SMILES IDX 9 66 10 67 11 68 12 70 13 71 14 72 21 73 15 74 20 75 16 76
REMARK SMILES IDX 19 77 17 78 18 79 22 80 23 81 24 82 25 83 27 84 28 85 26 87
REMARK H PARENT 3 9 76 27 50 38 10 69 28 86 26 88
REMARK Flexibility Score: inf
ROOT
ATOM      1  C   UNL A   1      31.486  27.893  27.323  1.00  0.00     0.021 C 
ENDROOT
BRANCH   1   2
ATOM      2  C   UNL A   1      32.218  29.215  27.069  1.00  0.00     0.002 C 
BRANCH   2   3
ATOM      3  C   UNL A   1      31.578  30.192  26.083  1.00  0.00     0.002 C 
BRANCH   3   4
ATOM      4  C   UNL A   1      31.385  31.635  26.557  1.00  0.00     0.021 C 
BRANCH   4   5
ATOM      5  C   UNL A   1      32.645  32.410  26.931  1.00  0.00     0.116 C 
BRANCH   5   6
ATOM      6  N   UNL A   1      32.382  33.723  27.486  1.00  0.00    -0.352 N 
ATOM      7  O   UNL A   1      32.655  35.503  28.837  1.00  0.00    -0.269 OA
ATOM      8  C   UNL A   1      33.074  34.416  28.451  1.00  0.00     0.251 C 
ATOM      9  H   UNL A   1      31.594  34.184  27.121  1.00  0.00     0.163 HD
BRANCH   8  10
ATOM     10  C   UNL A   1      34.299  33.848  29.066  1.00  0.00     0.039 A 
ATOM     11  C   UNL A   1      35.578  34.293  28.718  1.00  0.00     0.014 A 
ATOM     12  C   UNL A   1      34.151  32.858  30.045  1.00  0.00     0.014 A 
ATOM     13  C   UNL A   1      36.704  33.675  29.266  1.00  0.00     0.010 A 
ATOM     14  C   UNL A   1      35.277  32.263  30.620  1.00  0.00     0.010 A 
ATOM     15  C   UNL A   1      36.561  32.644  30.207  1.00  0.00    -0.014 A 
BRANCH  15  16
ATOM     16  C   UNL A   1      37.768  31.968  30.740  1.00  0.00     0.031 A 
ATOM     17  C   UNL A   1      38.242  32.250  32.138  1.00  0.00     0.074 A 
ATOM     18  C   UNL A   1      38.418  31.067  29.982  1.00  0.00     0.049 A 
ATOM     19  N   UNL A   1      39.223  31.693  32.802  1.00  0.00    -0.248 NA
ATOM     20  C   UNL A   1      37.522  33.292  32.885  1.00  0.00     0.031 C 
ATOM     21  C   UNL A   1      38.074  30.717  28.603  1.00  0.00     0.029 A 
ATOM     22  N   UNL A   1      39.491  30.267  30.277  1.00  0.00    -0.354 N 
ATOM     23  C   UNL A   1      39.253  32.328  34.035  1.00  0.00     0.074 A 
ATOM     24  C   UNL A   1      38.190  33.312  34.031  1.00  0.00     0.031 C 
ATOM     25  C   UNL A   1      38.899  29.743  28.183  1.00  0.00     0.029 A 
ATOM     26  C   UNL A   1      39.824  29.407  29.262  1.00  0.00     0.049 A 
ATOM     27  H   UNL A   1      39.975  30.306  31.133  1.00  0.00     0.167 HD
ATOM     28  C   UNL A   1      40.087  32.113  35.079  1.00  0.00     0.037 A 
ATOM     29  C   UNL A   1      40.759  28.440  29.214  1.00  0.00     0.037 A 
ATOM     30  C   UNL A   1      41.126  31.119  35.112  1.00  0.00     0.049 A 
ATOM     31  C   UNL A   1      41.631  28.178  30.405  1.00  0.00     0.074 A 
ATOM     32  C   UNL A   1      42.002  30.817  36.141  1.00  0.00     0.029 A 
ATOM     33  N   UNL A   1      41.421  30.258  34.069  1.00  0.00    -0.354 N 
ATOM     34  N   UNL A   1      41.633  28.773  31.570  1.00  0.00    -0.248 NA
ATOM     35  C   UNL A   1      42.626  27.103  30.272  1.00  0.00     0.031 C 
ATOM     36  C   UNL A   1      42.828  29.767  35.720  1.00  0.00     0.029 A 
ATOM     37  C   UNL A   1      42.463  29.420  34.430  1.00  0.00     0.049 A 
ATOM     38  H   UNL A   1      40.960  30.244  33.200  1.00  0.00     0.167 HD
ATOM     39  C   UNL A   1      42.623  28.146  32.312  1.00  0.00     0.074 A 
ATOM     40  C   UNL A   1      43.200  27.120  31.467  1.00  0.00     0.031 C 
ATOM     41  C   UNL A   1      43.017  28.400  33.582  1.00  0.00     0.037 A 
BRANCH  28  42
ATOM     42  C   UNL A   1      39.903  32.979  36.282  1.00  0.00     0.057 A 
ATOM     43  C   UNL A   1      39.005  32.632  37.296  1.00  0.00     0.134 A 
ATOM     44  C   UNL A   1      40.643  34.158  36.436  1.00  0.00     0.134 A 
ATOM     45  F   UNL A   1      38.260  31.521  37.194  1.00  0.00    -0.206 F 
ATOM     46  C   UNL A   1      38.845  33.433  38.428  1.00  0.00     0.040 A 
ATOM     47  C   UNL A   1      40.494  34.965  37.564  1.00  0.00     0.040 A 
ATOM     48  F   UNL A   1      41.513  34.543  35.490  1.00  0.00    -0.206 F 
ATOM     49  C   UNL A   1      39.592  34.603  38.564  1.00  0.00     0.006 A 
ENDBRANCH  28  42
BRANCH  29  50
ATOM     50  C   UNL A   1      40.886  27.611  27.997  1.00  0.00     0.057 A 
ATOM     51  C   UNL A   1      41.699  28.021  26.936  1.00  0.00     0.134 A 
ATOM     52  C   UNL A   1      40.209  26.395  27.875  1.00  0.00     0.134 A 
ATOM     53  F   UNL A   1      42.361  29.184  27.003  1.00  0.00    -0.206 F 
ATOM     54  C   UNL A   1      41.836  27.244  25.786  1.00  0.00     0.040 A 
ATOM     55  C   UNL A   1      40.337  25.608  26.732  1.00  0.00     0.040 A 
ATOM     56  F   UNL A   1      39.411  25.964  28.862  1.00  0.00    -0.206 F 
ATOM     57  C   UNL A   1      41.155  26.032  25.683  1.00  0.00     0.006 A 
ENDBRANCH  29  50
BRANCH  41  58
ATOM     58  C   UNL A   1      44.115  27.548  34.132  1.00  0.00     0.057 A 
ATOM     59  C   UNL A   1      43.838  26.327  34.756  1.00  0.00     0.134 A 
ATOM     60  C   UNL A   1      45.453  27.938  34.017  1.00  0.00     0.134 A 
ATOM     61  F   UNL A   1      42.572  25.909  34.901  1.00  0.00    -0.206 F 
ATOM     62  C   UNL A   1      44.862  25.521  35.255  1.00  0.00     0.040 A 
ATOM     63  C   UNL A   1      46.486  27.140  34.511  1.00  0.00     0.040 A 
ATOM     64  F   UNL A   1      45.775  29.104  33.435  1.00  0.00    -0.206 F 
ATOM     65  C   UNL A   1      46.189  25.926  35.131  1.00  0.00     0.006 A 
ENDBRANCH  41  58
ENDBRANCH  15  16
ENDBRANCH   8  10
ENDBRANCH   5   6
ENDBRANCH   4   5
ENDBRANCH   3   4
ENDBRANCH   2   3
ENDBRANCH   1   2
BRANCH   1  66
ATOM     66  C   UNL A   1      31.840  26.721  26.410  1.00  0.00     0.116 C 
BRANCH  66  67
ATOM     67  N   UNL A   1      30.971  25.573  26.578  1.00  0.00    -0.351 N 
ATOM     68  C   UNL A   1      31.258  24.245  26.385  1.00  0.00     0.261 C 
ATOM     69  H   UNL A   1      30.053  25.773  26.870  1.00  0.00     0.163 HD
ATOM     70  O   UNL A   1      30.389  23.421  26.690  1.00  0.00    -0.268 OA
BRANCH  68  71
ATOM     71  C   UNL A   1      32.533  23.874  25.805  1.00  0.00     0.097 A 
ATOM     72  S   UNL A   1      33.861  23.596  26.839  1.00  0.00    -0.130 S 
ATOM     73  C   UNL A   1      32.834  23.611  24.475  1.00  0.00    -0.007 A 
ATOM     74  C   UNL A   1      34.928  23.311  25.528  1.00  0.00     0.035 A 
ATOM     75  C   UNL A   1      34.257  23.355  24.302  1.00  0.00    -0.003 A 
ATOM     76  C   UNL A   1      36.311  23.053  25.610  1.00  0.00     0.019 A 
ATOM     77  C   UNL A   1      35.029  23.141  23.129  1.00  0.00     0.010 A 
ATOM     78  C   UNL A   1      37.035  22.842  24.436  1.00  0.00     0.001 A 
ATOM     79  C   UNL A   1      36.402  22.886  23.206  1.00  0.00     0.001 A 
BRANCH  73  80
ATOM     80  C   UNL A   1      31.843  23.646  23.345  1.00  0.00     0.107 C 
BRANCH  80  81
ATOM     81  S   UNL A   1      31.311  25.314  22.827  1.00  0.00    -0.154 SA
BRANCH  81  82
ATOM     82  C   UNL A   1      32.891  26.242  22.810  1.00  0.00     0.104 C 
BRANCH  82  83
ATOM     83  C   UNL A   1      32.785  27.522  21.982  1.00  0.00     0.149 C 
BRANCH  83  84
ATOM     84  C   UNL A   1      32.141  28.648  22.795  1.00  0.00     0.188 C 
BRANCH  84  85
ATOM     85  O   UNL A   1      31.753  29.702  21.913  1.00  0.00    -0.394 OA
ATOM     86  H   UNL A   1      32.071  30.549  22.261  1.00  0.00     0.210 HD
ENDBRANCH  84  85
ENDBRANCH  83  84
BRANCH  83  87
ATOM     87  O   UNL A   1      34.090  27.969  21.575  1.00  0.00    -0.390 OA
ATOM     88  H   UNL A   1      34.189  28.911  21.783  1.00  0.00     0.211 HD
ENDBRANCH  83  87
ENDBRANCH  82  83
ENDBRANCH  81  82
ENDBRANCH  80  81
ENDBRANCH  73  80
ENDBRANCH  68  71
ENDBRANCH  66  67
ENDBRANCH   1  66
TORSDOF 20
ENDMDL
MODEL 3
REMARK VINA RESULT:     -10.1      3.781      7.089
REMARK SMILES O=C(NCCCCCCNC(=O)c1sc2ccccc2c1CSC[C@H](O)CO)c1ccc(-c2c3nc(c(-c4c(F)cccc4F)c4ccc([nH]4)c(-c4c(F)cccc4F)c4nc(c(-c5c(F)cccc5F)c5ccc2[nH]5)C=C4)C=C3)cc1
REMARK SMILES IDX 8 1 7 2 6 3 5 4 4 5 3 6 1 7 2 8 29 10 30 11 82 12 31 13
REMARK SMILES IDX 81 14 32 15 33 16 34 17 75 18 35 19 80 20 74 21 76 22 36 23
REMARK SMILES IDX 79 24 73 25 72 26 37 28 63 29 46 30 62 31 47 32 50 33 61 34
REMARK SMILES IDX 77 35 48 36 49 37 60 39 78 40 51 41 38 42 39 43 44 44 40 45
REMARK SMILES IDX 41 46 43 47 45 48 42 49 64 50 65 51 70 52 66 53 67 54 69 55
REMARK SMILES IDX 71 56 68 57 52 58 53 59 58 60 54 61 55 62 57 63 59 64 56 65
REMARK SMILES IDX 9 66 10 67 11 68 12 70 13 71 14 72 21 73 15 74 20 75 16 76
REMARK SMILES IDX 19 77 17 78 18 79 22 80 23 81 24 82 25 83 27 84 28 85 26 87
REMARK H PARENT 3 9 76 27 50 38 10 69 28 86 26 88
REMARK Flexibility Score: inf
ROOT
ATOM      1  C   UNL A   1      30.852  26.197  26.087  1.00  0.00     0.021 C 
ENDROOT
BRANCH   1   2
ATOM      2  C   UNL A   1      32.175  26.950  26.252  1.00  0.00     0.002 C 
BRANCH   2   3
ATOM      3  C   UNL A   1      32.215  28.078  27.283  1.00  0.00     0.002 C 
BRANCH   3   4
ATOM      4  C   UNL A   1      31.569  29.408  26.888  1.00  0.00     0.021 C 
BRANCH   4   5
ATOM      5  C   UNL A   1      32.450  30.405  26.140  1.00  0.00     0.116 C 
BRANCH   5   6
ATOM      6  N   UNL A   1      32.257  31.781  26.553  1.00  0.00    -0.352 N 
ATOM      7  O   UNL A   1      32.673  33.700  27.654  1.00  0.00    -0.269 OA
ATOM      8  C   UNL A   1      33.039  32.564  27.371  1.00  0.00     0.251 C 
ATOM      9  H   UNL A   1      31.452  32.219  26.198  1.00  0.00     0.163 HD
BRANCH   8  10
ATOM     10  C   UNL A   1      34.299  32.038  27.950  1.00  0.00     0.039 A 
ATOM     11  C   UNL A   1      34.429  30.707  28.359  1.00  0.00     0.014 A 
ATOM     12  C   UNL A   1      35.393  32.906  28.058  1.00  0.00     0.014 A 
ATOM     13  C   UNL A   1      35.608  30.278  28.971  1.00  0.00     0.010 A 
ATOM     14  C   UNL A   1      36.586  32.468  28.637  1.00  0.00     0.010 A 
ATOM     15  C   UNL A   1      36.689  31.160  29.130  1.00  0.00    -0.014 A 
BRANCH  15  16
ATOM     16  C   UNL A   1      37.914  30.699  29.825  1.00  0.00     0.031 A 
ATOM     17  C   UNL A   1      38.152  31.058  31.264  1.00  0.00     0.074 A 
ATOM     18  C   UNL A   1      38.798  29.921  29.174  1.00  0.00     0.049 A 
ATOM     19  N   UNL A   1      39.120  30.675  32.059  1.00  0.00    -0.248 NA
ATOM     20  C   UNL A   1      37.177  31.963  31.892  1.00  0.00     0.031 C 
ATOM     21  C   UNL A   1      38.697  29.518  27.771  1.00  0.00     0.029 A 
ATOM     22  N   UNL A   1      39.944  29.316  29.619  1.00  0.00    -0.354 N 
ATOM     23  C   UNL A   1      38.885  31.307  33.271  1.00  0.00     0.074 A 
ATOM     24  C   UNL A   1      37.680  32.096  33.112  1.00  0.00     0.031 C 
ATOM     25  C   UNL A   1      39.721  28.698  27.480  1.00  0.00     0.029 A 
ATOM     26  C   UNL A   1      40.545  28.524  28.673  1.00  0.00     0.049 A 
ATOM     27  H   UNL A   1      40.301  29.436  30.528  1.00  0.00     0.167 HD
ATOM     28  C   UNL A   1      39.603  31.237  34.417  1.00  0.00     0.037 A 
ATOM     29  C   UNL A   1      41.627  27.730  28.764  1.00  0.00     0.037 A 
ATOM     30  C   UNL A   1      40.781  30.434  34.602  1.00  0.00     0.049 A 
ATOM     31  C   UNL A   1      42.371  27.620  30.061  1.00  0.00     0.074 A 
ATOM     32  C   UNL A   1      41.557  30.285  35.739  1.00  0.00     0.029 A 
ATOM     33  N   UNL A   1      41.348  29.635  33.623  1.00  0.00    -0.354 N 
ATOM     34  N   UNL A   1      42.124  28.208  31.204  1.00  0.00    -0.248 NA
ATOM     35  C   UNL A   1      43.542  26.731  30.078  1.00  0.00     0.031 C 
ATOM     36  C   UNL A   1      42.595  29.392  35.448  1.00  0.00     0.029 A 
ATOM     37  C   UNL A   1      42.462  28.987  34.130  1.00  0.00     0.049 A 
ATOM     38  H   UNL A   1      41.011  29.543  32.703  1.00  0.00     0.167 HD
ATOM     39  C   UNL A   1      43.103  27.758  32.078  1.00  0.00     0.074 A 
ATOM     40  C   UNL A   1      43.948  26.845  31.335  1.00  0.00     0.031 C 
ATOM     41  C   UNL A   1      43.283  28.075  33.382  1.00  0.00     0.037 A 
BRANCH  28  42
ATOM     42  C   UNL A   1      39.124  32.060  35.568  1.00  0.00     0.057 A 
ATOM     43  C   UNL A   1      39.517  33.393  35.719  1.00  0.00     0.134 A 
ATOM     44  C   UNL A   1      38.249  31.522  36.518  1.00  0.00     0.134 A 
ATOM     45  F   UNL A   1      40.366  33.955  34.845  1.00  0.00    -0.206 F 
ATOM     46  C   UNL A   1      39.057  34.168  36.786  1.00  0.00     0.040 A 
ATOM     47  C   UNL A   1      37.779  32.287  37.586  1.00  0.00     0.040 A 
ATOM     48  F   UNL A   1      37.845  30.246  36.426  1.00  0.00    -0.206 F 
ATOM     49  C   UNL A   1      38.185  33.614  37.722  1.00  0.00     0.006 A 
ENDBRANCH  28  42
BRANCH  29  50
ATOM     50  C   UNL A   1      42.046  26.935  27.592  1.00  0.00     0.057 A 
ATOM     51  C   UNL A   1      41.619  25.613  27.435  1.00  0.00     0.134 A 
ATOM     52  C   UNL A   1      42.869  27.481  26.603  1.00  0.00     0.134 A 
ATOM     53  F   UNL A   1      40.836  25.042  28.362  1.00  0.00    -0.206 F 
ATOM     54  C   UNL A   1      41.999  24.855  26.328  1.00  0.00     0.040 A 
ATOM     55  C   UNL A   1      43.255  26.735  25.491  1.00  0.00     0.040 A 
ATOM     56  F   UNL A   1      43.311  28.742  26.712  1.00  0.00    -0.206 F 
ATOM     57  C   UNL A   1      42.818  25.417  25.351  1.00  0.00     0.006 A 
ENDBRANCH  29  50
BRANCH  41  58
ATOM     58  C   UNL A   1      44.430  27.423  34.084  1.00  0.00     0.057 A 
ATOM     59  C   UNL A   1      44.291  26.163  34.676  1.00  0.00     0.134 A 
ATOM     60  C   UNL A   1      45.681  28.045  34.148  1.00  0.00     0.134 A 
ATOM     61  F   UNL A   1      43.111  25.526  34.652  1.00  0.00    -0.206 F 
ATOM     62  C   UNL A   1      45.364  25.543  35.317  1.00  0.00     0.040 A 
ATOM     63  C   UNL A   1      46.762  27.434  34.785  1.00  0.00     0.040 A 
ATOM     64  F   UNL A   1      45.868  29.257  33.603  1.00  0.00    -0.206 F 
ATOM     65  C   UNL A   1      46.604  26.178  35.371  1.00  0.00     0.006 A 
ENDBRANCH  41  58
ENDBRANCH  15  16
ENDBRANCH   8  10
ENDBRANCH   5   6
ENDBRANCH   4   5
ENDBRANCH   3   4
ENDBRANCH   2   3
ENDBRANCH   1   2
BRANCH   1  66
ATOM     66  C   UNL A   1      30.726  25.281  24.871  1.00  0.00     0.116 C 
BRANCH  66  67
ATOM     67  N   UNL A   1      30.273  23.944  25.198  1.00  0.00    -0.351 N 
ATOM     68  C   UNL A   1      31.024  22.827  25.469  1.00  0.00     0.261 C 
ATOM     69  H   UNL A   1      29.298  23.820  25.230  1.00  0.00     0.163 HD
ATOM     70  O   UNL A   1      30.424  21.807  25.828  1.00  0.00    -0.268 OA
BRANCH  68  71
ATOM     71  C   UNL A   1      32.460  22.879  25.290  1.00  0.00     0.097 A 
ATOM     72  S   UNL A   1      33.444  23.300  26.618  1.00  0.00    -0.130 S 
ATOM     73  C   UNL A   1      33.205  22.537  24.168  1.00  0.00    -0.007 A 
ATOM     74  C   UNL A   1      34.879  23.233  25.682  1.00  0.00     0.035 A 
ATOM     75  C   UNL A   1      34.618  22.817  24.373  1.00  0.00    -0.003 A 
ATOM     76  C   UNL A   1      36.184  23.538  26.121  1.00  0.00     0.019 A 
ATOM     77  C   UNL A   1      35.725  22.725  23.487  1.00  0.00     0.010 A 
ATOM     78  C   UNL A   1      37.246  23.430  25.222  1.00  0.00     0.001 A 
ATOM     79  C   UNL A   1      37.021  23.027  23.917  1.00  0.00     0.001 A 
BRANCH  73  80
ATOM     80  C   UNL A   1      32.631  22.007  22.884  1.00  0.00     0.107 C 
BRANCH  80  81
ATOM     81  S   UNL A   1      32.161  20.243  22.909  1.00  0.00    -0.154 SA
BRANCH  81  82
ATOM     82  C   UNL A   1      33.220  19.575  24.248  1.00  0.00     0.104 C 
BRANCH  82  83
ATOM     83  C   UNL A   1      33.324  18.052  24.177  1.00  0.00     0.149 C 
BRANCH  83  84
ATOM     84  C   UNL A   1      32.633  17.399  25.377  1.00  0.00     0.188 C 
BRANCH  84  85
ATOM     85  O   UNL A   1      32.734  18.266  26.507  1.00  0.00    -0.394 OA
ATOM     86  H   UNL A   1      33.651  18.564  26.605  1.00  0.00     0.210 HD
ENDBRANCH  84  85
ENDBRANCH  83  84
BRANCH  83  87
ATOM     87  O   UNL A   1      32.687  17.558  22.985  1.00  0.00    -0.390 OA
ATOM     88  H   UNL A   1      33.236  17.768  22.214  1.00  0.00     0.211 HD
ENDBRANCH  83  87
ENDBRANCH  82  83
ENDBRANCH  81  82
ENDBRANCH  80  81
ENDBRANCH  73  80
ENDBRANCH  68  71
ENDBRANCH  66  67
ENDBRANCH   1  66
TORSDOF 20
ENDMDL
