MODEL 1
REMARK VINA RESULT:     -12.1      0.000      0.000
REMARK SMILES CCSc1ccc(-c2cc(Cl)cc3c2O[C@H](C(F)(F)F)C(C(=O)NCCCCCCNC(=O)c2ccc(-c4c5nc(c(-c6c(F)cccc6F)c6ccc([nH]6)c(-c6c(F)cccc6F)c6nc(c(-c7c(F)cccc7F)c7ccc4[nH]7)C=C6)C=C5)cc2)=C3)cc1
REMARK SMILES IDX 27 1 26 2 25 3 24 4 22 5 23 6 21 8 8 9 9 10 14 11 10 12
REMARK SMILES IDX 13 13 15 14 11 15 12 16 88 17 16 18 7 19 4 20 5 21 90 22
REMARK SMILES IDX 6 23 89 24 3 25 2 26 1 27 17 28 18 29 19 30 20 31 28 32
REMARK SMILES IDX 29 33 30 34 31 35 32 36 33 38 34 39 35 40 87 41 36 42 86 43
REMARK SMILES IDX 37 44 38 45 39 46 80 47 40 48 85 49 79 50 81 51 41 52 84 53
REMARK SMILES IDX 78 54 77 55 42 57 68 58 51 59 67 60 52 61 55 62 66 63 82 64
REMARK SMILES IDX 53 65 54 66 65 68 83 69 56 70 43 71 44 72 49 73 45 74 46 75
REMARK SMILES IDX 48 76 50 77 47 78 69 79 70 80 75 81 71 82 72 83 74 84 76 85
REMARK SMILES IDX 73 86 57 87 58 88 63 89 59 90 60 91 62 92 64 93 61 94
REMARK H PARENT 24 7 31 37 81 56 55 67
REMARK Flexibility Score: inf
ROOT
ATOM      1  C   UNL A   1      30.314  30.590  24.291  1.00  0.00     0.002 C 
ENDROOT
BRANCH   1   2
ATOM      2  C   UNL A   1      30.202  29.191  23.662  1.00  0.00     0.021 C 
BRANCH   2   3
ATOM      3  C   UNL A   1      31.138  28.945  22.470  1.00  0.00     0.116 C 
BRANCH   3   4
ATOM      4  N   UNL A   1      31.275  27.522  22.238  1.00  0.00    -0.352 N 
ATOM      5  C   UNL A   1      32.274  26.752  22.737  1.00  0.00     0.251 C 
ATOM      6  O   UNL A   1      32.935  26.040  21.991  1.00  0.00    -0.270 OA
ATOM      7  H   UNL A   1      30.594  27.081  21.680  1.00  0.00     0.163 HD
BRANCH   5   8
ATOM      8  C   UNL A   1      32.384  26.704  24.224  1.00  0.00     0.067 C 
ATOM      9  C   UNL A   1      34.551  23.286  24.600  1.00  0.00     0.026 A 
ATOM     10  C   UNL A   1      33.978  22.366  23.683  1.00  0.00     0.033 A 
ATOM     11  C   UNL A   1      33.796  24.447  24.861  1.00  0.00     0.135 A 
ATOM     12  C   UNL A   1      32.669  22.478  23.223  1.00  0.00     0.042 A 
ATOM     13  C   UNL A   1      32.428  24.476  24.487  1.00  0.00     0.019 A 
ATOM     14  O   UNL A   1      34.331  25.612  25.406  1.00  0.00    -0.475 OA
ATOM     15  Cl  UNL A   1      32.057  21.332  22.098  1.00  0.00    -0.084 Cl
ATOM     16  C   UNL A   1      31.856  23.488  23.691  1.00  0.00     0.032 A 
ATOM     17  C   UNL A   1      31.661  25.707  24.769  1.00  0.00     0.025 C 
ATOM     18  C   UNL A   1      33.791  26.862  24.777  1.00  0.00     0.314 C 
BRANCH   9  19
ATOM     19  C   UNL A   1      35.746  22.772  25.331  1.00  0.00    -0.015 A 
ATOM     20  C   UNL A   1      38.452  21.934  25.775  1.00  0.00     0.007 A 
ATOM     21  C   UNL A   1      38.055  23.251  26.027  1.00  0.00     0.015 A 
ATOM     22  C   UNL A   1      37.468  21.019  25.400  1.00  0.00     0.015 A 
ATOM     23  C   UNL A   1      36.723  23.658  25.829  1.00  0.00     0.010 A 
ATOM     24  C   UNL A   1      36.136  21.430  25.180  1.00  0.00     0.010 A 
BRANCH  20  25
ATOM     25  S   UNL A   1      40.149  21.480  26.106  1.00  0.00    -0.126 SA
BRANCH  25  26
ATOM     26  C   UNL A   1      40.525  22.222  27.743  1.00  0.00     0.071 C 
ATOM     27  C   UNL A   1      41.991  22.588  27.906  1.00  0.00     0.016 C 
ENDBRANCH  25  26
ENDBRANCH  20  25
ENDBRANCH   9  19
BRANCH  18  28
ATOM     28  C   UNL A   1      33.772  28.061  25.755  1.00  0.00     0.429 C 
ATOM     29  F   UNL A   1      33.882  29.251  25.127  1.00  0.00    -0.167 F 
ATOM     30  F   UNL A   1      32.633  28.081  26.488  1.00  0.00    -0.167 F 
ATOM     31  F   UNL A   1      34.792  28.008  26.657  1.00  0.00    -0.167 F 
ENDBRANCH  18  28
ENDBRANCH   5   8
ENDBRANCH   3   4
ENDBRANCH   2   3
ENDBRANCH   1   2
BRANCH   1  32
ATOM     32  C   UNL A   1      31.162  30.655  25.564  1.00  0.00     0.002 C 
BRANCH  32  33
ATOM     33  C   UNL A   1      31.070  31.982  26.316  1.00  0.00     0.021 C 
BRANCH  33  34
ATOM     34  C   UNL A   1      32.382  32.447  26.936  1.00  0.00     0.116 C 
BRANCH  34  35
ATOM     35  N   UNL A   1      32.313  33.820  27.409  1.00  0.00    -0.352 N 
ATOM     36  C   UNL A   1      33.071  34.442  28.363  1.00  0.00     0.251 C 
ATOM     37  H   UNL A   1      31.625  34.381  26.982  1.00  0.00     0.163 HD
ATOM     38  O   UNL A   1      32.758  35.566  28.765  1.00  0.00    -0.269 OA
BRANCH  36  39
ATOM     39  C   UNL A   1      34.252  33.762  28.929  1.00  0.00     0.039 A 
ATOM     40  C   UNL A   1      34.058  32.667  29.774  1.00  0.00     0.014 A 
ATOM     41  C   UNL A   1      35.548  34.210  28.647  1.00  0.00     0.014 A 
ATOM     42  C   UNL A   1      35.162  32.005  30.312  1.00  0.00     0.010 A 
ATOM     43  C   UNL A   1      36.647  33.496  29.113  1.00  0.00     0.010 A 
ATOM     44  C   UNL A   1      36.465  32.403  29.972  1.00  0.00    -0.014 A 
BRANCH  44  45
ATOM     45  C   UNL A   1      37.644  31.706  30.545  1.00  0.00     0.031 A 
ATOM     46  C   UNL A   1      38.078  31.992  31.957  1.00  0.00     0.074 A 
ATOM     47  C   UNL A   1      38.336  30.833  29.787  1.00  0.00     0.049 A 
ATOM     48  N   UNL A   1      39.079  31.487  32.633  1.00  0.00    -0.248 NA
ATOM     49  C   UNL A   1      37.304  33.001  32.698  1.00  0.00     0.031 C 
ATOM     50  C   UNL A   1      38.047  30.511  28.389  1.00  0.00     0.029 A 
ATOM     51  N   UNL A   1      39.426  30.057  30.090  1.00  0.00    -0.354 N 
ATOM     52  C   UNL A   1      39.054  32.116  33.871  1.00  0.00     0.074 A 
ATOM     53  C   UNL A   1      37.988  33.091  33.829  1.00  0.00     0.031 C 
ATOM     54  C   UNL A   1      38.916  29.580  27.964  1.00  0.00     0.029 A 
ATOM     55  C   UNL A   1      39.843  29.265  29.048  1.00  0.00     0.049 A 
ATOM     56  H   UNL A   1      39.866  30.064  30.970  1.00  0.00     0.167 HD
ATOM     57  C   UNL A   1      39.827  31.880  34.958  1.00  0.00     0.037 A 
ATOM     58  C   UNL A   1      40.858  28.384  28.975  1.00  0.00     0.037 A 
ATOM     59  C   UNL A   1      40.879  30.898  35.002  1.00  0.00     0.049 A 
ATOM     60  C   UNL A   1      41.706  28.142  30.193  1.00  0.00     0.074 A 
ATOM     61  C   UNL A   1      41.693  30.552  36.065  1.00  0.00     0.029 A 
ATOM     62  N   UNL A   1      41.263  30.106  33.930  1.00  0.00    -0.354 N 
ATOM     63  N   UNL A   1      41.628  28.695  31.380  1.00  0.00    -0.248 NA
ATOM     64  C   UNL A   1      42.774  27.141  30.067  1.00  0.00     0.031 C 
ATOM     65  C   UNL A   1      42.603  29.586  35.622  1.00  0.00     0.029 A 
ATOM     66  C   UNL A   1      42.315  29.285  34.301  1.00  0.00     0.049 A 
ATOM     67  H   UNL A   1      40.848  30.124  33.036  1.00  0.00     0.167 HD
ATOM     68  C   UNL A   1      42.613  28.088  32.149  1.00  0.00     0.074 A 
ATOM     69  C   UNL A   1      43.262  27.112  31.297  1.00  0.00     0.031 C 
ATOM     70  C   UNL A   1      42.948  28.316  33.443  1.00  0.00     0.037 A 
BRANCH  57  71
ATOM     71  C   UNL A   1      39.557  32.700  36.188  1.00  0.00     0.057 A 
ATOM     72  C   UNL A   1      40.216  33.914  36.429  1.00  0.00     0.134 A 
ATOM     73  C   UNL A   1      38.612  32.284  37.136  1.00  0.00     0.134 A 
ATOM     74  F   UNL A   1      41.143  34.367  35.571  1.00  0.00    -0.206 F 
ATOM     75  C   UNL A   1      39.970  34.666  37.579  1.00  0.00     0.040 A 
ATOM     76  C   UNL A   1      38.334  33.043  38.274  1.00  0.00     0.040 A 
ATOM     77  F   UNL A   1      37.939  31.135  36.968  1.00  0.00    -0.206 F 
ATOM     78  C   UNL A   1      39.022  34.234  38.503  1.00  0.00     0.006 A 
ENDBRANCH  57  71
BRANCH  58  79
ATOM     79  C   UNL A   1      41.111  27.646  27.711  1.00  0.00     0.057 A 
ATOM     80  C   UNL A   1      40.550  26.384  27.482  1.00  0.00     0.134 A 
ATOM     81  C   UNL A   1      41.924  28.180  26.705  1.00  0.00     0.134 A 
ATOM     82  F   UNL A   1      39.774  25.811  28.414  1.00  0.00    -0.206 F 
ATOM     83  C   UNL A   1      40.808  25.669  26.311  1.00  0.00     0.040 A 
ATOM     84  C   UNL A   1      42.168  27.490  25.516  1.00  0.00     0.040 A 
ATOM     85  F   UNL A   1      42.484  29.389  26.857  1.00  0.00    -0.206 F 
ATOM     86  C   UNL A   1      41.616  26.225  25.321  1.00  0.00     0.006 A 
ENDBRANCH  58  79
BRANCH  70  87
ATOM     87  C   UNL A   1      44.039  27.464  34.028  1.00  0.00     0.057 A 
ATOM     88  C   UNL A   1      43.780  26.214  34.607  1.00  0.00     0.134 A 
ATOM     89  C   UNL A   1      45.372  27.894  33.990  1.00  0.00     0.134 A 
ATOM     90  F   UNL A   1      42.524  25.748  34.685  1.00  0.00    -0.206 F 
ATOM     91  C   UNL A   1      44.802  25.440  35.158  1.00  0.00     0.040 A 
ATOM     92  C   UNL A   1      46.406  27.113  34.509  1.00  0.00     0.040 A 
ATOM     93  F   UNL A   1      45.693  29.074  33.440  1.00  0.00    -0.206 F 
ATOM     94  C   UNL A   1      46.121  25.887  35.104  1.00  0.00     0.006 A 
ENDBRANCH  70  87
ENDBRANCH  44  45
ENDBRANCH  36  39
ENDBRANCH  34  35
ENDBRANCH  33  34
ENDBRANCH  32  33
ENDBRANCH   1  32
TORSDOF 17
ENDMDL
MODEL 2
REMARK VINA RESULT:     -12.0      4.891     10.237
REMARK SMILES CCSc1ccc(-c2cc(Cl)cc3c2O[C@H](C(F)(F)F)C(C(=O)NCCCCCCNC(=O)c2ccc(-c4c5nc(c(-c6c(F)cccc6F)c6ccc([nH]6)c(-c6c(F)cccc6F)c6nc(c(-c7c(F)cccc7F)c7ccc4[nH]7)C=C6)C=C5)cc2)=C3)cc1
REMARK SMILES IDX 27 1 26 2 25 3 24 4 22 5 23 6 21 8 8 9 9 10 14 11 10 12
REMARK SMILES IDX 13 13 15 14 11 15 12 16 88 17 16 18 7 19 4 20 5 21 90 22
REMARK SMILES IDX 6 23 89 24 3 25 2 26 1 27 17 28 18 29 19 30 20 31 28 32
REMARK SMILES IDX 29 33 30 34 31 35 32 36 33 38 34 39 35 40 87 41 36 42 86 43
REMARK SMILES IDX 37 44 38 45 39 46 80 47 40 48 85 49 79 50 81 51 41 52 84 53
REMARK SMILES IDX 78 54 77 55 42 57 68 58 51 59 67 60 52 61 55 62 66 63 82 64
REMARK SMILES IDX 53 65 54 66 65 68 83 69 56 70 43 71 44 72 49 73 45 74 46 75
REMARK SMILES IDX 48 76 50 77 47 78 69 79 70 80 75 81 71 82 72 83 74 84 76 85
REMARK SMILES IDX 73 86 57 87 58 88 63 89 59 90 60 91 62 92 64 93 61 94
REMARK H PARENT 24 7 31 37 81 56 55 67
REMARK Flexibility Score: inf
ROOT
ATOM      1  C   UNL A   1      35.868  20.400  25.002  1.00  0.00     0.002 C 
ENDROOT
BRANCH   1   2
ATOM      2  C   UNL A   1      36.004  21.555  26.007  1.00  0.00     0.021 C 
BRANCH   2   3
ATOM      3  C   UNL A   1      34.723  21.882  26.788  1.00  0.00     0.116 C 
BRANCH   3   4
ATOM      4  N   UNL A   1      34.435  23.298  26.691  1.00  0.00    -0.352 N 
ATOM      5  C   UNL A   1      34.075  23.935  25.548  1.00  0.00     0.251 C 
ATOM      6  O   UNL A   1      34.680  24.933  25.181  1.00  0.00    -0.270 OA
ATOM      7  H   UNL A   1      34.505  23.838  27.511  1.00  0.00     0.163 HD
BRANCH   5   8
ATOM      8  C   UNL A   1      32.823  23.450  24.896  1.00  0.00     0.067 C 
ATOM      9  C   UNL A   1      31.001  27.027  24.261  1.00  0.00     0.026 A 
ATOM     10  C   UNL A   1      31.196  27.773  25.453  1.00  0.00     0.033 A 
ATOM     11  C   UNL A   1      31.293  25.651  24.341  1.00  0.00     0.135 A 
ATOM     12  C   UNL A   1      31.453  27.174  26.683  1.00  0.00     0.042 A 
ATOM     13  C   UNL A   1      31.425  25.050  25.619  1.00  0.00     0.019 A 
ATOM     14  O   UNL A   1      31.533  24.845  23.231  1.00  0.00    -0.475 OA
ATOM     15  Cl  UNL A   1      31.695  28.151  28.076  1.00  0.00    -0.084 Cl
ATOM     16  C   UNL A   1      31.483  25.800  26.789  1.00  0.00     0.032 A 
ATOM     17  C   UNL A   1      31.735  23.605  25.674  1.00  0.00     0.025 C 
ATOM     18  C   UNL A   1      32.646  23.862  23.443  1.00  0.00     0.314 C 
BRANCH   9  19
ATOM     19  C   UNL A   1      30.289  27.763  23.177  1.00  0.00    -0.015 A 
ATOM     20  C   UNL A   1      28.891  29.897  21.866  1.00  0.00     0.007 A 
ATOM     21  C   UNL A   1      30.280  29.775  21.762  1.00  0.00     0.015 A 
ATOM     22  C   UNL A   1      28.199  28.892  22.541  1.00  0.00     0.015 A 
ATOM     23  C   UNL A   1      30.964  28.717  22.388  1.00  0.00     0.010 A 
ATOM     24  C   UNL A   1      28.886  27.841  23.187  1.00  0.00     0.010 A 
BRANCH  20  25
ATOM     25  S   UNL A   1      28.089  31.236  20.994  1.00  0.00    -0.126 SA
BRANCH  25  26
ATOM     26  C   UNL A   1      28.419  32.727  22.012  1.00  0.00     0.071 C 
ATOM     27  C   UNL A   1      28.704  32.400  23.469  1.00  0.00     0.016 C 
ENDBRANCH  25  26
ENDBRANCH  20  25
ENDBRANCH   9  19
BRANCH  18  28
ATOM     28  C   UNL A   1      32.465  22.568  22.614  1.00  0.00     0.429 C 
ATOM     29  F   UNL A   1      32.997  22.659  21.376  1.00  0.00    -0.167 F 
ATOM     30  F   UNL A   1      33.031  21.504  23.232  1.00  0.00    -0.167 F 
ATOM     31  F   UNL A   1      31.153  22.242  22.445  1.00  0.00    -0.167 F 
ENDBRANCH  18  28
ENDBRANCH   5   8
ENDBRANCH   3   4
ENDBRANCH   2   3
ENDBRANCH   1   2
BRANCH   1  32
ATOM     32  C   UNL A   1      37.181  19.957  24.349  1.00  0.00     0.002 C 
BRANCH  32  33
ATOM     33  C   UNL A   1      38.069  19.094  25.242  1.00  0.00     0.021 C 
BRANCH  33  34
ATOM     34  C   UNL A   1      39.281  19.818  25.815  1.00  0.00     0.116 C 
BRANCH  34  35
ATOM     35  N   UNL A   1      40.447  18.955  25.912  1.00  0.00    -0.352 N 
ATOM     36  C   UNL A   1      41.752  19.292  26.148  1.00  0.00     0.251 C 
ATOM     37  H   UNL A   1      40.273  17.993  25.790  1.00  0.00     0.163 HD
ATOM     38  O   UNL A   1      42.641  18.446  26.021  1.00  0.00    -0.269 OA
BRANCH  36  39
ATOM     39  C   UNL A   1      42.101  20.673  26.536  1.00  0.00     0.039 A 
ATOM     40  C   UNL A   1      42.147  20.999  27.893  1.00  0.00     0.014 A 
ATOM     41  C   UNL A   1      42.361  21.650  25.569  1.00  0.00     0.014 A 
ATOM     42  C   UNL A   1      42.483  22.297  28.280  1.00  0.00     0.010 A 
ATOM     43  C   UNL A   1      42.781  22.918  25.958  1.00  0.00     0.010 A 
ATOM     44  C   UNL A   1      42.821  23.262  27.317  1.00  0.00    -0.014 A 
BRANCH  44  45
ATOM     45  C   UNL A   1      43.174  24.645  27.722  1.00  0.00     0.031 A 
ATOM     46  C   UNL A   1      44.611  25.092  27.712  1.00  0.00     0.074 A 
ATOM     47  C   UNL A   1      42.205  25.491  28.121  1.00  0.00     0.049 A 
ATOM     48  N   UNL A   1      45.117  26.257  28.031  1.00  0.00    -0.248 NA
ATOM     49  C   UNL A   1      45.615  24.091  27.319  1.00  0.00     0.031 C 
ATOM     50  C   UNL A   1      40.782  25.160  28.225  1.00  0.00     0.029 A 
ATOM     51  N   UNL A   1      42.270  26.805  28.511  1.00  0.00    -0.354 N 
ATOM     52  C   UNL A   1      46.492  26.126  27.880  1.00  0.00     0.074 A 
ATOM     53  C   UNL A   1      46.748  24.752  27.513  1.00  0.00     0.031 C 
ATOM     54  C   UNL A   1      40.105  26.250  28.620  1.00  0.00     0.029 A 
ATOM     55  C   UNL A   1      41.048  27.345  28.829  1.00  0.00     0.049 A 
ATOM     56  H   UNL A   1      43.113  27.312  28.558  1.00  0.00     0.167 HD
ATOM     57  C   UNL A   1      47.452  27.072  28.003  1.00  0.00     0.037 A 
ATOM     58  C   UNL A   1      40.725  28.586  29.241  1.00  0.00     0.037 A 
ATOM     59  C   UNL A   1      47.193  28.443  28.355  1.00  0.00     0.049 A 
ATOM     60  C   UNL A   1      41.809  29.618  29.375  1.00  0.00     0.074 A 
ATOM     61  C   UNL A   1      48.090  29.491  28.466  1.00  0.00     0.029 A 
ATOM     62  N   UNL A   1      45.940  28.957  28.657  1.00  0.00    -0.354 N 
ATOM     63  N   UNL A   1      43.098  29.499  29.163  1.00  0.00    -0.248 NA
ATOM     64  C   UNL A   1      41.393  30.964  29.791  1.00  0.00     0.031 C 
ATOM     65  C   UNL A   1      47.387  30.626  28.883  1.00  0.00     0.029 A 
ATOM     66  C   UNL A   1      46.043  30.302  28.972  1.00  0.00     0.049 A 
ATOM     67  H   UNL A   1      45.101  28.441  28.647  1.00  0.00     0.167 HD
ATOM     68  C   UNL A   1      43.640  30.758  29.387  1.00  0.00     0.074 A 
ATOM     69  C   UNL A   1      42.537  31.629  29.735  1.00  0.00     0.031 C 
ATOM     70  C   UNL A   1      44.934  31.157  29.312  1.00  0.00     0.037 A 
BRANCH  57  71
ATOM     71  C   UNL A   1      48.873  26.650  27.751  1.00  0.00     0.057 A 
ATOM     72  C   UNL A   1      49.693  26.161  28.777  1.00  0.00     0.134 A 
ATOM     73  C   UNL A   1      49.424  26.715  26.464  1.00  0.00     0.134 A 
ATOM     74  F   UNL A   1      49.236  26.084  30.036  1.00  0.00    -0.206 F 
ATOM     75  C   UNL A   1      51.016  25.781  28.540  1.00  0.00     0.040 A 
ATOM     76  C   UNL A   1      50.734  26.308  26.208  1.00  0.00     0.040 A 
ATOM     77  F   UNL A   1      48.695  27.168  25.433  1.00  0.00    -0.206 F 
ATOM     78  C   UNL A   1      51.537  25.848  27.250  1.00  0.00     0.006 A 
ENDBRANCH  57  71
BRANCH  58  79
ATOM     79  C   UNL A   1      39.308  28.925  29.531  1.00  0.00     0.057 A 
ATOM     80  C   UNL A   1      38.776  28.785  30.819  1.00  0.00     0.134 A 
ATOM     81  C   UNL A   1      38.450  29.392  28.529  1.00  0.00     0.134 A 
ATOM     82  F   UNL A   1      39.544  28.328  31.820  1.00  0.00    -0.206 F 
ATOM     83  C   UNL A   1      37.439  29.071  31.094  1.00  0.00     0.040 A 
ATOM     84  C   UNL A   1      37.117  29.710  28.795  1.00  0.00     0.040 A 
ATOM     85  F   UNL A   1      38.900  29.558  27.276  1.00  0.00    -0.206 F 
ATOM     86  C   UNL A   1      36.605  29.541  30.080  1.00  0.00     0.006 A 
ENDBRANCH  58  79
BRANCH  70  87
ATOM     87  C   UNL A   1      45.219  32.610  29.567  1.00  0.00     0.057 A 
ATOM     88  C   UNL A   1      45.537  33.095  30.843  1.00  0.00     0.134 A 
ATOM     89  C   UNL A   1      45.195  33.533  28.514  1.00  0.00     0.134 A 
ATOM     90  F   UNL A   1      45.566  32.266  31.898  1.00  0.00    -0.206 F 
ATOM     91  C   UNL A   1      45.786  34.450  31.067  1.00  0.00     0.040 A 
ATOM     92  C   UNL A   1      45.474  34.885  28.720  1.00  0.00     0.040 A 
ATOM     93  F   UNL A   1      44.910  33.136  27.265  1.00  0.00    -0.206 F 
ATOM     94  C   UNL A   1      45.761  35.348  30.002  1.00  0.00     0.006 A 
ENDBRANCH  70  87
ENDBRANCH  44  45
ENDBRANCH  36  39
ENDBRANCH  34  35
ENDBRANCH  33  34
ENDBRANCH  32  33
ENDBRANCH   1  32
TORSDOF 17
ENDMDL
MODEL 3
REMARK VINA RESULT:     -11.9      5.003      9.641
REMARK SMILES CCSc1ccc(-c2cc(Cl)cc3c2O[C@H](C(F)(F)F)C(C(=O)NCCCCCCNC(=O)c2ccc(-c4c5nc(c(-c6c(F)cccc6F)c6ccc([nH]6)c(-c6c(F)cccc6F)c6nc(c(-c7c(F)cccc7F)c7ccc4[nH]7)C=C6)C=C5)cc2)=C3)cc1
REMARK SMILES IDX 27 1 26 2 25 3 24 4 22 5 23 6 21 8 8 9 9 10 14 11 10 12
REMARK SMILES IDX 13 13 15 14 11 15 12 16 88 17 16 18 7 19 4 20 5 21 90 22
REMARK SMILES IDX 6 23 89 24 3 25 2 26 1 27 17 28 18 29 19 30 20 31 28 32
REMARK SMILES IDX 29 33 30 34 31 35 32 36 33 38 34 39 35 40 87 41 36 42 86 43
REMARK SMILES IDX 37 44 38 45 39 46 80 47 40 48 85 49 79 50 81 51 41 52 84 53
REMARK SMILES IDX 78 54 77 55 42 57 68 58 51 59 67 60 52 61 55 62 66 63 82 64
REMARK SMILES IDX 53 65 54 66 65 68 83 69 56 70 43 71 44 72 49 73 45 74 46 75
REMARK SMILES IDX 48 76 50 77 47 78 69 79 70 80 75 81 71 82 72 83 74 84 76 85
REMARK SMILES IDX 73 86 57 87 58 88 63 89 59 90 60 91 62 92 64 93 61 94
REMARK H PARENT 24 7 31 37 81 56 55 67
REMARK Flexibility Score: inf
ROOT
ATOM      1  C   UNL A   1      35.910  20.564  25.014  1.00  0.00     0.002 C 
ENDROOT
BRANCH   1   2
ATOM      2  C   UNL A   1      36.003  21.648  26.100  1.00  0.00     0.021 C 
BRANCH   2   3
ATOM      3  C   UNL A   1      34.683  21.945  26.828  1.00  0.00     0.116 C 
BRANCH   3   4
ATOM      4  N   UNL A   1      34.383  23.359  26.745  1.00  0.00    -0.352 N 
ATOM      5  C   UNL A   1      34.040  24.009  25.605  1.00  0.00     0.251 C 
ATOM      6  O   UNL A   1      34.643  25.019  25.266  1.00  0.00    -0.270 OA
ATOM      7  H   UNL A   1      34.432  23.887  27.575  1.00  0.00     0.163 HD
BRANCH   5   8
ATOM      8  C   UNL A   1      32.806  23.523  24.921  1.00  0.00     0.067 C 
ATOM      9  C   UNL A   1      30.987  27.096  24.257  1.00  0.00     0.026 A 
ATOM     10  C   UNL A   1      31.150  27.838  25.456  1.00  0.00     0.033 A 
ATOM     11  C   UNL A   1      31.282  25.721  24.338  1.00  0.00     0.135 A 
ATOM     12  C   UNL A   1      31.379  27.234  26.690  1.00  0.00     0.042 A 
ATOM     13  C   UNL A   1      31.385  25.115  25.616  1.00  0.00     0.019 A 
ATOM     14  O   UNL A   1      31.552  24.920  23.231  1.00  0.00    -0.475 OA
ATOM     15  Cl  UNL A   1      31.584  28.206  28.092  1.00  0.00    -0.084 Cl
ATOM     16  C   UNL A   1      31.411  25.860  26.791  1.00  0.00     0.032 A 
ATOM     17  C   UNL A   1      31.699  23.671  25.673  1.00  0.00     0.025 C 
ATOM     18  C   UNL A   1      32.663  23.941  23.466  1.00  0.00     0.314 C 
BRANCH   9  19
ATOM     19  C   UNL A   1      30.298  27.835  23.159  1.00  0.00    -0.015 A 
ATOM     20  C   UNL A   1      28.922  29.968  21.824  1.00  0.00     0.007 A 
ATOM     21  C   UNL A   1      30.314  29.854  21.755  1.00  0.00     0.015 A 
ATOM     22  C   UNL A   1      28.219  28.955  22.476  1.00  0.00     0.015 A 
ATOM     23  C   UNL A   1      30.988  28.796  22.392  1.00  0.00     0.010 A 
ATOM     24  C   UNL A   1      28.895  27.905  23.133  1.00  0.00     0.010 A 
BRANCH  20  25
ATOM     25  S   UNL A   1      28.135  31.306  20.939  1.00  0.00    -0.126 SA
BRANCH  25  26
ATOM     26  C   UNL A   1      28.298  32.763  22.045  1.00  0.00     0.071 C 
ATOM     27  C   UNL A   1      28.818  32.404  23.426  1.00  0.00     0.016 C 
ENDBRANCH  25  26
ENDBRANCH  20  25
ENDBRANCH   9  19
BRANCH  18  28
ATOM     28  C   UNL A   1      32.507  22.649  22.627  1.00  0.00     0.429 C 
ATOM     29  F   UNL A   1      33.147  21.591  23.169  1.00  0.00    -0.167 F 
ATOM     30  F   UNL A   1      31.203  22.314  22.477  1.00  0.00    -0.167 F 
ATOM     31  F   UNL A   1      33.000  22.791  21.365  1.00  0.00    -0.167 F 
ENDBRANCH  18  28
ENDBRANCH   5   8
ENDBRANCH   3   4
ENDBRANCH   2   3
ENDBRANCH   1   2
BRANCH   1  32
ATOM     32  C   UNL A   1      37.234  20.233  24.321  1.00  0.00     0.002 C 
BRANCH  32  33
ATOM     33  C   UNL A   1      38.102  19.223  25.069  1.00  0.00     0.021 C 
BRANCH  33  34
ATOM     34  C   UNL A   1      39.308  19.829  25.775  1.00  0.00     0.116 C 
BRANCH  34  35
ATOM     35  N   UNL A   1      40.403  18.882  25.911  1.00  0.00    -0.352 N 
ATOM     36  C   UNL A   1      41.730  19.126  26.140  1.00  0.00     0.251 C 
ATOM     37  H   UNL A   1      40.155  17.933  25.827  1.00  0.00     0.163 HD
ATOM     38  O   UNL A   1      42.551  18.209  26.051  1.00  0.00    -0.269 OA
BRANCH  36  39
ATOM     39  C   UNL A   1      42.185  20.490  26.474  1.00  0.00     0.039 A 
ATOM     40  C   UNL A   1      42.558  21.347  25.437  1.00  0.00     0.014 A 
ATOM     41  C   UNL A   1      42.265  20.919  27.804  1.00  0.00     0.014 A 
ATOM     42  C   UNL A   1      42.983  22.643  25.732  1.00  0.00     0.010 A 
ATOM     43  C   UNL A   1      42.604  22.237  28.089  1.00  0.00     0.010 A 
ATOM     44  C   UNL A   1      42.992  23.105  27.058  1.00  0.00    -0.014 A 
BRANCH  44  45
ATOM     45  C   UNL A   1      43.448  24.480  27.379  1.00  0.00     0.031 A 
ATOM     46  C   UNL A   1      42.457  25.520  27.824  1.00  0.00     0.074 A 
ATOM     47  C   UNL A   1      44.751  24.799  27.246  1.00  0.00     0.049 A 
ATOM     48  N   UNL A   1      42.662  26.773  28.148  1.00  0.00    -0.248 NA
ATOM     49  C   UNL A   1      41.046  25.109  27.888  1.00  0.00     0.031 C 
ATOM     50  C   UNL A   1      45.799  23.894  26.772  1.00  0.00     0.029 A 
ATOM     51  N   UNL A   1      45.413  25.972  27.501  1.00  0.00    -0.354 N 
ATOM     52  C   UNL A   1      41.409  27.295  28.449  1.00  0.00     0.074 A 
ATOM     53  C   UNL A   1      40.444  26.248  28.200  1.00  0.00     0.031 C 
ATOM     54  C   UNL A   1      46.978  24.535  26.800  1.00  0.00     0.029 A 
ATOM     55  C   UNL A   1      46.764  25.904  27.262  1.00  0.00     0.049 A 
ATOM     56  H   UNL A   1      44.964  26.786  27.825  1.00  0.00     0.167 HD
ATOM     57  C   UNL A   1      41.094  28.524  28.922  1.00  0.00     0.037 A 
ATOM     58  C   UNL A   1      47.722  26.839  27.400  1.00  0.00     0.037 A 
ATOM     59  C   UNL A   1      42.060  29.559  29.183  1.00  0.00     0.049 A 
ATOM     60  C   UNL A   1      47.347  28.198  27.922  1.00  0.00     0.074 A 
ATOM     61  C   UNL A   1      41.849  30.824  29.701  1.00  0.00     0.029 A 
ATOM     62  N   UNL A   1      43.420  29.447  28.941  1.00  0.00    -0.354 N 
ATOM     63  N   UNL A   1      46.168  28.657  28.268  1.00  0.00    -0.248 NA
ATOM     64  C   UNL A   1      48.440  29.167  28.090  1.00  0.00     0.031 C 
ATOM     65  C   UNL A   1      43.076  31.496  29.726  1.00  0.00     0.029 A 
ATOM     66  C   UNL A   1      44.060  30.628  29.281  1.00  0.00     0.049 A 
ATOM     67  H   UNL A   1      43.867  28.647  28.580  1.00  0.00     0.167 HD
ATOM     68  C   UNL A   1      46.381  29.952  28.723  1.00  0.00     0.074 A 
ATOM     69  C   UNL A   1      47.805  30.198  28.625  1.00  0.00     0.031 C 
ATOM     70  C   UNL A   1      45.480  30.856  29.182  1.00  0.00     0.037 A 
BRANCH  57  71
ATOM     71  C   UNL A   1      39.643  28.809  29.190  1.00  0.00     0.057 A 
ATOM     72  C   UNL A   1      38.783  29.277  28.187  1.00  0.00     0.134 A 
ATOM     73  C   UNL A   1      39.091  28.595  30.461  1.00  0.00     0.134 A 
ATOM     74  F   UNL A   1      39.246  29.516  26.950  1.00  0.00    -0.206 F 
ATOM     75  C   UNL A   1      37.438  29.551  28.443  1.00  0.00     0.040 A 
ATOM     76  C   UNL A   1      37.741  28.835  30.722  1.00  0.00     0.040 A 
ATOM     77  F   UNL A   1      39.854  28.143  31.467  1.00  0.00    -0.206 F 
ATOM     78  C   UNL A   1      36.913  29.324  29.713  1.00  0.00     0.006 A 
ENDBRANCH  57  71
BRANCH  58  79
ATOM     79  C   UNL A   1      49.132  26.514  27.063  1.00  0.00     0.057 A 
ATOM     80  C   UNL A   1      49.653  26.774  25.790  1.00  0.00     0.134 A 
ATOM     81  C   UNL A   1      49.989  25.929  28.001  1.00  0.00     0.134 A 
ATOM     82  F   UNL A   1      48.877  27.319  24.841  1.00  0.00    -0.206 F 
ATOM     83  C   UNL A   1      50.966  26.443  25.454  1.00  0.00     0.040 A 
ATOM     84  C   UNL A   1      51.314  25.618  27.689  1.00  0.00     0.040 A 
ATOM     85  F   UNL A   1      49.555  25.663  29.242  1.00  0.00    -0.206 F 
ATOM     86  C   UNL A   1      51.804  25.867  26.408  1.00  0.00     0.006 A 
ENDBRANCH  58  79
BRANCH  70  87
ATOM     87  C   UNL A   1      46.015  32.178  29.654  1.00  0.00     0.057 A 
ATOM     88  C   UNL A   1      46.428  32.387  30.977  1.00  0.00     0.134 A 
ATOM     89  C   UNL A   1      46.139  33.252  28.762  1.00  0.00     0.134 A 
ATOM     90  F   UNL A   1      46.326  31.404  31.884  1.00  0.00    -0.206 F 
ATOM     91  C   UNL A   1      46.911  33.625  31.403  1.00  0.00     0.040 A 
ATOM     92  C   UNL A   1      46.651  34.484  29.169  1.00  0.00     0.040 A 
ATOM     93  F   UNL A   1      45.775  33.119  27.478  1.00  0.00    -0.206 F 
ATOM     94  C   UNL A   1      47.029  34.676  30.496  1.00  0.00     0.006 A 
ENDBRANCH  70  87
ENDBRANCH  44  45
ENDBRANCH  36  39
ENDBRANCH  34  35
ENDBRANCH  33  34
ENDBRANCH  32  33
ENDBRANCH   1  32
TORSDOF 17
ENDMDL
