MODEL 1
REMARK VINA RESULT:     -12.8      0.000      0.000
REMARK SMILES C[C@@H]1C(C(=O)NCCCCCCNC(=O)c2ccc(-c3c4nc(c(-c5c(F)cccc5F)c5ccc([nH]5)c(-c5c(F)cccc5F)c5nc(c(-c6c(F)cccc6F)c6ccc3[nH]6)C=C5)C=C4)cc2)=NC2=C1C(=O)C[C@H](c1ccccc1)C2
REMARK SMILES IDX 10 1 9 2 8 3 7 4 6 5 4 6 5 7 3 9 1 10 2 11 72 12 70 13 71 14
REMARK SMILES IDX 73 15 83 16 74 17 75 18 76 19 77 20 78 21 82 22 79 23 81 24
REMARK SMILES IDX 80 25 11 26 12 27 13 28 14 29 15 31 16 32 17 33 69 34 18 35
REMARK SMILES IDX 68 36 19 37 20 38 21 39 62 40 22 41 67 42 61 43 63 44 23 45
REMARK SMILES IDX 66 46 60 47 59 48 24 50 50 51 33 52 49 53 34 54 37 55 48 56
REMARK SMILES IDX 64 57 35 58 36 59 47 61 65 62 38 63 25 64 26 65 31 66 27 67
REMARK SMILES IDX 28 68 30 69 32 70 29 71 51 72 52 73 57 74 53 75 54 76 56 77
REMARK SMILES IDX 58 78 55 79 39 80 40 81 45 82 41 83 42 84 44 85 46 86 43 87
REMARK H PARENT 6 8 13 30 63 49 37 60
REMARK Flexibility Score: inf
ROOT
ATOM      1  C   UNL A   1      36.431  20.649  24.941  1.00  0.00     0.002 C 
ENDROOT
BRANCH   1   2
ATOM      2  C   UNL A   1      36.653  21.921  24.116  1.00  0.00     0.002 C 
BRANCH   2   3
ATOM      3  C   UNL A   1      36.795  23.255  24.844  1.00  0.00     0.021 C 
BRANCH   3   4
ATOM      4  C   UNL A   1      35.579  24.168  25.005  1.00  0.00     0.116 C 
BRANCH   4   5
ATOM      5  N   UNL A   1      34.774  24.046  26.202  1.00  0.00    -0.351 N 
ATOM      6  C   UNL A   1      33.613  23.306  26.401  1.00  0.00     0.266 C 
ATOM      7  O   UNL A   1      33.278  23.005  27.543  1.00  0.00    -0.268 OA
ATOM      8  H   UNL A   1      35.091  24.557  26.982  1.00  0.00     0.163 HD
BRANCH   6   9
ATOM      9  C   UNL A   1      32.661  22.988  25.246  1.00  0.00     0.113 C 
ATOM     10  C   UNL A   1      32.427  20.736  24.208  1.00  0.00     0.020 C 
ATOM     11  C   UNL A   1      33.033  22.131  24.065  1.00  0.00     0.076 C 
ATOM     12  C   UNL A   1      32.248  23.002  23.138  1.00  0.00     0.026 C 
ATOM     13  N   UNL A   1      31.474  23.537  25.157  1.00  0.00    -0.251 NA
ATOM     14  C   UNL A   1      31.233  23.571  23.798  1.00  0.00     0.049 C 
ATOM     15  C   UNL A   1      32.881  23.853  22.107  1.00  0.00     0.161 C 
ATOM     16  C   UNL A   1      30.452  24.699  23.190  1.00  0.00     0.065 C 
ATOM     17  O   UNL A   1      33.736  23.360  21.371  1.00  0.00    -0.294 OA
ATOM     18  C   UNL A   1      32.562  25.364  22.064  1.00  0.00     0.089 C 
ATOM     19  C   UNL A   1      31.423  25.881  23.004  1.00  0.00     0.033 C 
BRANCH  19  20
ATOM     20  C   UNL A   1      31.851  26.518  24.343  1.00  0.00    -0.044 A 
ATOM     21  C   UNL A   1      30.888  26.861  25.318  1.00  0.00     0.004 A 
ATOM     22  C   UNL A   1      33.187  26.787  24.663  1.00  0.00     0.004 A 
ATOM     23  C   UNL A   1      31.245  27.271  26.604  1.00  0.00     0.000 A 
ATOM     24  C   UNL A   1      33.549  27.230  25.944  1.00  0.00     0.000 A 
ATOM     25  C   UNL A   1      32.582  27.434  26.925  1.00  0.00     0.000 A 
ENDBRANCH  19  20
ENDBRANCH   6   9
ENDBRANCH   4   5
ENDBRANCH   3   4
ENDBRANCH   2   3
ENDBRANCH   1   2
BRANCH   1  26
ATOM     26  C   UNL A   1      37.548  19.599  24.979  1.00  0.00     0.021 C 
BRANCH  26  27
ATOM     27  C   UNL A   1      38.922  20.128  25.357  1.00  0.00     0.116 C 
BRANCH  27  28
ATOM     28  N   UNL A   1      39.897  19.082  25.693  1.00  0.00    -0.352 N 
ATOM     29  C   UNL A   1      41.226  19.242  26.038  1.00  0.00     0.251 C 
ATOM     30  H   UNL A   1      39.564  18.156  25.668  1.00  0.00     0.163 HD
ATOM     31  O   UNL A   1      42.025  18.300  25.967  1.00  0.00    -0.269 OA
BRANCH  29  32
ATOM     32  C   UNL A   1      41.682  20.554  26.522  1.00  0.00     0.039 A 
ATOM     33  C   UNL A   1      42.444  21.443  25.753  1.00  0.00     0.014 A 
ATOM     34  C   UNL A   1      41.297  20.888  27.814  1.00  0.00     0.014 A 
ATOM     35  C   UNL A   1      42.762  22.692  26.287  1.00  0.00     0.010 A 
ATOM     36  C   UNL A   1      41.398  22.178  28.233  1.00  0.00     0.010 A 
ATOM     37  C   UNL A   1      42.229  23.043  27.530  1.00  0.00    -0.014 A 
BRANCH  37  38
ATOM     38  C   UNL A   1      42.467  24.319  28.187  1.00  0.00     0.031 A 
ATOM     39  C   UNL A   1      41.377  25.319  28.013  1.00  0.00     0.074 A 
ATOM     40  C   UNL A   1      43.394  24.378  29.174  1.00  0.00     0.049 A 
ATOM     41  N   UNL A   1      41.441  26.498  27.488  1.00  0.00    -0.248 NA
ATOM     42  C   UNL A   1      40.002  24.895  28.339  1.00  0.00     0.031 C 
ATOM     43  C   UNL A   1      44.249  23.285  29.672  1.00  0.00     0.029 A 
ATOM     44  N   UNL A   1      43.650  25.373  30.061  1.00  0.00    -0.354 N 
ATOM     45  C   UNL A   1      40.162  27.041  27.620  1.00  0.00     0.074 A 
ATOM     46  C   UNL A   1      39.290  25.939  27.913  1.00  0.00     0.031 C 
ATOM     47  C   UNL A   1      44.732  23.603  30.893  1.00  0.00     0.029 A 
ATOM     48  C   UNL A   1      44.360  24.971  31.191  1.00  0.00     0.049 A 
ATOM     49  H   UNL A   1      43.359  26.303  29.918  1.00  0.00     0.167 HD
ATOM     50  C   UNL A   1      39.970  28.383  27.764  1.00  0.00     0.037 A 
ATOM     51  C   UNL A   1      44.566  25.709  32.311  1.00  0.00     0.037 A 
ATOM     52  C   UNL A   1      41.164  29.107  27.405  1.00  0.00     0.049 A 
ATOM     53  C   UNL A   1      44.255  27.119  31.961  1.00  0.00     0.074 A 
ATOM     54  C   UNL A   1      41.926  29.220  26.258  1.00  0.00     0.029 A 
ATOM     55  N   UNL A   1      41.960  29.556  28.432  1.00  0.00    -0.354 N 
ATOM     56  N   UNL A   1      44.955  27.827  31.116  1.00  0.00    -0.248 NA
ATOM     57  C   UNL A   1      42.885  27.567  32.167  1.00  0.00     0.031 C 
ATOM     58  C   UNL A   1      43.274  29.256  26.719  1.00  0.00     0.029 A 
ATOM     59  C   UNL A   1      43.256  29.248  28.115  1.00  0.00     0.049 A 
ATOM     60  H   UNL A   1      41.654  30.017  29.245  1.00  0.00     0.167 HD
ATOM     61  C   UNL A   1      44.014  28.535  30.380  1.00  0.00     0.074 A 
ATOM     62  C   UNL A   1      42.760  28.384  31.118  1.00  0.00     0.031 C 
ATOM     63  C   UNL A   1      44.268  28.919  29.094  1.00  0.00     0.037 A 
BRANCH  50  64
ATOM     64  C   UNL A   1      38.878  29.025  28.597  1.00  0.00     0.057 A 
ATOM     65  C   UNL A   1      38.781  28.683  29.961  1.00  0.00     0.134 A 
ATOM     66  C   UNL A   1      37.761  29.717  28.085  1.00  0.00     0.134 A 
ATOM     67  F   UNL A   1      39.777  28.032  30.582  1.00  0.00    -0.206 F 
ATOM     68  C   UNL A   1      37.625  28.911  30.718  1.00  0.00     0.040 A 
ATOM     69  C   UNL A   1      36.623  29.998  28.849  1.00  0.00     0.040 A 
ATOM     70  F   UNL A   1      37.652  30.080  26.803  1.00  0.00    -0.206 F 
ATOM     71  C   UNL A   1      36.535  29.560  30.158  1.00  0.00     0.006 A 
ENDBRANCH  50  64
BRANCH  51  72
ATOM     72  C   UNL A   1      44.694  25.241  33.710  1.00  0.00     0.057 A 
ATOM     73  C   UNL A   1      43.568  24.947  34.491  1.00  0.00     0.134 A 
ATOM     74  C   UNL A   1      45.932  24.828  34.236  1.00  0.00     0.134 A 
ATOM     75  F   UNL A   1      42.339  25.258  34.055  1.00  0.00    -0.206 F 
ATOM     76  C   UNL A   1      43.666  24.273  35.719  1.00  0.00     0.040 A 
ATOM     77  C   UNL A   1      46.044  24.160  35.461  1.00  0.00     0.040 A 
ATOM     78  F   UNL A   1      47.066  24.985  33.538  1.00  0.00    -0.206 F 
ATOM     79  C   UNL A   1      44.907  23.870  36.203  1.00  0.00     0.006 A 
ENDBRANCH  51  72
BRANCH  63  80
ATOM     80  C   UNL A   1      45.666  28.760  28.562  1.00  0.00     0.057 A 
ATOM     81  C   UNL A   1      46.112  27.633  27.854  1.00  0.00     0.134 A 
ATOM     82  C   UNL A   1      46.513  29.871  28.577  1.00  0.00     0.134 A 
ATOM     83  F   UNL A   1      45.334  26.555  27.706  1.00  0.00    -0.206 F 
ATOM     84  C   UNL A   1      47.351  27.609  27.205  1.00  0.00     0.040 A 
ATOM     85  C   UNL A   1      47.739  29.873  27.907  1.00  0.00     0.040 A 
ATOM     86  F   UNL A   1      46.129  31.004  29.187  1.00  0.00    -0.206 F 
ATOM     87  C   UNL A   1      48.162  28.739  27.220  1.00  0.00     0.006 A 
ENDBRANCH  63  80
ENDBRANCH  37  38
ENDBRANCH  29  32
ENDBRANCH  27  28
ENDBRANCH  26  27
ENDBRANCH   1  26
TORSDOF 14
ENDMDL
MODEL 2
REMARK VINA RESULT:     -12.5      4.154      8.971
REMARK SMILES C[C@@H]1C(C(=O)NCCCCCCNC(=O)c2ccc(-c3c4nc(c(-c5c(F)cccc5F)c5ccc([nH]5)c(-c5c(F)cccc5F)c5nc(c(-c6c(F)cccc6F)c6ccc3[nH]6)C=C5)C=C4)cc2)=NC2=C1C(=O)C[C@H](c1ccccc1)C2
REMARK SMILES IDX 10 1 9 2 8 3 7 4 6 5 4 6 5 7 3 9 1 10 2 11 72 12 70 13 71 14
REMARK SMILES IDX 73 15 83 16 74 17 75 18 76 19 77 20 78 21 82 22 79 23 81 24
REMARK SMILES IDX 80 25 11 26 12 27 13 28 14 29 15 31 16 32 17 33 69 34 18 35
REMARK SMILES IDX 68 36 19 37 20 38 21 39 62 40 22 41 67 42 61 43 63 44 23 45
REMARK SMILES IDX 66 46 60 47 59 48 24 50 50 51 33 52 49 53 34 54 37 55 48 56
REMARK SMILES IDX 64 57 35 58 36 59 47 61 65 62 38 63 25 64 26 65 31 66 27 67
REMARK SMILES IDX 28 68 30 69 32 70 29 71 51 72 52 73 57 74 53 75 54 76 56 77
REMARK SMILES IDX 58 78 55 79 39 80 40 81 45 82 41 83 42 84 44 85 46 86 43 87
REMARK H PARENT 6 8 13 30 63 49 37 60
REMARK Flexibility Score: inf
ROOT
ATOM      1  C   UNL A   1      31.439  30.433  25.874  1.00  0.00     0.002 C 
ENDROOT
BRANCH   1   2
ATOM      2  C   UNL A   1      31.925  29.496  26.984  1.00  0.00     0.002 C 
BRANCH   2   3
ATOM      3  C   UNL A   1      33.313  28.873  26.866  1.00  0.00     0.021 C 
BRANCH   3   4
ATOM      4  C   UNL A   1      33.489  27.536  26.146  1.00  0.00     0.116 C 
BRANCH   4   5
ATOM      5  N   UNL A   1      34.054  27.536  24.814  1.00  0.00    -0.351 N 
ATOM      6  C   UNL A   1      33.401  27.451  23.588  1.00  0.00     0.266 C 
ATOM      7  O   UNL A   1      33.968  27.845  22.573  1.00  0.00    -0.268 OA
ATOM      8  H   UNL A   1      35.036  27.606  24.767  1.00  0.00     0.163 HD
BRANCH   6   9
ATOM      9  C   UNL A   1      32.053  26.739  23.449  1.00  0.00     0.113 C 
ATOM     10  C   UNL A   1      29.874  27.914  23.179  1.00  0.00     0.020 C 
ATOM     11  C   UNL A   1      30.796  27.181  24.151  1.00  0.00     0.076 C 
ATOM     12  C   UNL A   1      30.379  25.763  24.375  1.00  0.00     0.026 C 
ATOM     13  N   UNL A   1      31.929  25.618  22.782  1.00  0.00    -0.251 NA
ATOM     14  C   UNL A   1      30.872  24.985  23.405  1.00  0.00     0.049 C 
ATOM     15  C   UNL A   1      30.334  25.141  25.717  1.00  0.00     0.161 C 
ATOM     16  C   UNL A   1      30.843  23.489  23.526  1.00  0.00     0.065 C 
ATOM     17  O   UNL A   1      29.777  25.745  26.634  1.00  0.00    -0.294 OA
ATOM     18  C   UNL A   1      31.098  23.823  25.972  1.00  0.00     0.089 C 
ATOM     19  C   UNL A   1      31.727  23.109  24.730  1.00  0.00     0.033 C 
BRANCH  19  20
ATOM     20  C   UNL A   1      33.228  23.346  24.468  1.00  0.00    -0.044 A 
ATOM     21  C   UNL A   1      34.018  24.062  25.394  1.00  0.00     0.004 A 
ATOM     22  C   UNL A   1      33.882  22.876  23.322  1.00  0.00     0.004 A 
ATOM     23  C   UNL A   1      35.407  24.143  25.282  1.00  0.00     0.000 A 
ATOM     24  C   UNL A   1      35.275  22.984  23.189  1.00  0.00     0.000 A 
ATOM     25  C   UNL A   1      36.039  23.582  24.186  1.00  0.00     0.000 A 
ENDBRANCH  19  20
ENDBRANCH   6   9
ENDBRANCH   4   5
ENDBRANCH   3   4
ENDBRANCH   2   3
ENDBRANCH   1   2
BRANCH   1  26
ATOM     26  C   UNL A   1      31.324  31.932  26.180  1.00  0.00     0.021 C 
BRANCH  26  27
ATOM     27  C   UNL A   1      32.265  32.448  27.256  1.00  0.00     0.116 C 
BRANCH  27  28
ATOM     28  N   UNL A   1      32.180  33.896  27.484  1.00  0.00    -0.352 N 
ATOM     29  C   UNL A   1      32.898  34.654  28.391  1.00  0.00     0.251 C 
ATOM     30  H   UNL A   1      31.535  34.385  26.925  1.00  0.00     0.163 HD
ATOM     31  O   UNL A   1      32.515  35.779  28.731  1.00  0.00    -0.269 OA
BRANCH  29  32
ATOM     32  C   UNL A   1      34.154  34.113  28.933  1.00  0.00     0.039 A 
ATOM     33  C   UNL A   1      34.287  33.622  30.238  1.00  0.00     0.014 A 
ATOM     34  C   UNL A   1      35.233  34.099  28.059  1.00  0.00     0.014 A 
ATOM     35  C   UNL A   1      35.507  33.066  30.626  1.00  0.00     0.010 A 
ATOM     36  C   UNL A   1      36.327  33.349  28.355  1.00  0.00     0.010 A 
ATOM     37  C   UNL A   1      36.517  32.936  29.669  1.00  0.00    -0.014 A 
BRANCH  37  38
ATOM     38  C   UNL A   1      37.824  32.358  29.939  1.00  0.00     0.031 A 
ATOM     39  C   UNL A   1      37.991  30.955  29.469  1.00  0.00     0.074 A 
ATOM     40  C   UNL A   1      38.859  33.191  30.208  1.00  0.00     0.049 A 
ATOM     41  N   UNL A   1      38.281  29.903  30.161  1.00  0.00    -0.248 NA
ATOM     42  C   UNL A   1      37.649  30.658  28.065  1.00  0.00     0.031 C 
ATOM     43  C   UNL A   1      38.832  34.662  30.296  1.00  0.00     0.029 A 
ATOM     44  N   UNL A   1      40.188  32.922  30.286  1.00  0.00    -0.354 N 
ATOM     45  C   UNL A   1      38.372  28.858  29.240  1.00  0.00     0.074 A 
ATOM     46  C   UNL A   1      37.741  29.328  28.039  1.00  0.00     0.031 C 
ATOM     47  C   UNL A   1      40.084  35.152  30.173  1.00  0.00     0.029 A 
ATOM     48  C   UNL A   1      41.012  34.039  30.162  1.00  0.00     0.049 A 
ATOM     49  H   UNL A   1      40.541  32.012  30.421  1.00  0.00     0.167 HD
ATOM     50  C   UNL A   1      39.211  27.803  29.442  1.00  0.00     0.037 A 
ATOM     51  C   UNL A   1      42.359  34.025  30.002  1.00  0.00     0.037 A 
ATOM     52  C   UNL A   1      39.654  27.763  30.813  1.00  0.00     0.049 A 
ATOM     53  C   UNL A   1      42.824  32.664  30.378  1.00  0.00     0.074 A 
ATOM     54  C   UNL A   1      39.024  27.648  32.037  1.00  0.00     0.029 A 
ATOM     55  N   UNL A   1      40.912  28.247  31.081  1.00  0.00    -0.354 N 
ATOM     56  N   UNL A   1      42.756  32.186  31.590  1.00  0.00    -0.248 NA
ATOM     57  C   UNL A   1      42.895  31.671  29.316  1.00  0.00     0.031 C 
ATOM     58  C   UNL A   1      39.745  28.523  32.901  1.00  0.00     0.029 A 
ATOM     59  C   UNL A   1      40.818  29.054  32.184  1.00  0.00     0.049 A 
ATOM     60  H   UNL A   1      41.732  28.048  30.575  1.00  0.00     0.167 HD
ATOM     61  C   UNL A   1      42.355  30.866  31.429  1.00  0.00     0.074 A 
ATOM     62  C   UNL A   1      42.522  30.588  30.003  1.00  0.00     0.031 C 
ATOM     63  C   UNL A   1      41.644  30.221  32.401  1.00  0.00     0.037 A 
BRANCH  50  64
ATOM     64  C   UNL A   1      39.950  27.052  28.351  1.00  0.00     0.057 A 
ATOM     65  C   UNL A   1      40.760  27.784  27.460  1.00  0.00     0.134 A 
ATOM     66  C   UNL A   1      39.689  25.725  27.952  1.00  0.00     0.134 A 
ATOM     67  F   UNL A   1      41.098  29.056  27.720  1.00  0.00    -0.206 F 
ATOM     68  C   UNL A   1      41.179  27.274  26.225  1.00  0.00     0.040 A 
ATOM     69  C   UNL A   1      40.149  25.188  26.744  1.00  0.00     0.040 A 
ATOM     70  F   UNL A   1      38.902  24.896  28.645  1.00  0.00    -0.206 F 
ATOM     71  C   UNL A   1      40.863  25.974  25.857  1.00  0.00     0.006 A 
ENDBRANCH  50  64
BRANCH  51  72
ATOM     72  C   UNL A   1      43.207  34.982  29.253  1.00  0.00     0.057 A 
ATOM     73  C   UNL A   1      42.949  35.296  27.911  1.00  0.00     0.134 A 
ATOM     74  C   UNL A   1      44.139  35.806  29.909  1.00  0.00     0.134 A 
ATOM     75  F   UNL A   1      42.042  34.598  27.213  1.00  0.00    -0.206 F 
ATOM     76  C   UNL A   1      43.576  36.371  27.263  1.00  0.00     0.040 A 
ATOM     77  C   UNL A   1      44.775  36.878  29.274  1.00  0.00     0.040 A 
ATOM     78  F   UNL A   1      44.401  35.648  31.215  1.00  0.00    -0.206 F 
ATOM     79  C   UNL A   1      44.486  37.172  27.947  1.00  0.00     0.006 A 
ENDBRANCH  51  72
BRANCH  63  80
ATOM     80  C   UNL A   1      41.495  30.888  33.741  1.00  0.00     0.057 A 
ATOM     81  C   UNL A   1      40.412  31.709  34.092  1.00  0.00     0.134 A 
ATOM     82  C   UNL A   1      42.358  30.508  34.773  1.00  0.00     0.134 A 
ATOM     83  F   UNL A   1      39.482  32.050  33.194  1.00  0.00    -0.206 F 
ATOM     84  C   UNL A   1      40.209  32.145  35.405  1.00  0.00     0.040 A 
ATOM     85  C   UNL A   1      42.150  30.910  36.094  1.00  0.00     0.040 A 
ATOM     86  F   UNL A   1      43.384  29.679  34.522  1.00  0.00    -0.206 F 
ATOM     87  C   UNL A   1      41.073  31.733  36.413  1.00  0.00     0.006 A 
ENDBRANCH  63  80
ENDBRANCH  37  38
ENDBRANCH  29  32
ENDBRANCH  27  28
ENDBRANCH  26  27
ENDBRANCH   1  26
TORSDOF 14
ENDMDL
MODEL 3
REMARK VINA RESULT:     -12.5      2.542      7.429
REMARK SMILES C[C@@H]1C(C(=O)NCCCCCCNC(=O)c2ccc(-c3c4nc(c(-c5c(F)cccc5F)c5ccc([nH]5)c(-c5c(F)cccc5F)c5nc(c(-c6c(F)cccc6F)c6ccc3[nH]6)C=C5)C=C4)cc2)=NC2=C1C(=O)C[C@H](c1ccccc1)C2
REMARK SMILES IDX 10 1 9 2 8 3 7 4 6 5 4 6 5 7 3 9 1 10 2 11 72 12 70 13 71 14
REMARK SMILES IDX 73 15 83 16 74 17 75 18 76 19 77 20 78 21 82 22 79 23 81 24
REMARK SMILES IDX 80 25 11 26 12 27 13 28 14 29 15 31 16 32 17 33 69 34 18 35
REMARK SMILES IDX 68 36 19 37 20 38 21 39 62 40 22 41 67 42 61 43 63 44 23 45
REMARK SMILES IDX 66 46 60 47 59 48 24 50 50 51 33 52 49 53 34 54 37 55 48 56
REMARK SMILES IDX 64 57 35 58 36 59 47 61 65 62 38 63 25 64 26 65 31 66 27 67
REMARK SMILES IDX 28 68 30 69 32 70 29 71 51 72 52 73 57 74 53 75 54 76 56 77
REMARK SMILES IDX 58 78 55 79 39 80 40 81 45 82 41 83 42 84 44 85 46 86 43 87
REMARK H PARENT 6 8 13 30 63 49 37 60
REMARK Flexibility Score: inf
ROOT
ATOM      1  C   UNL A   1      34.750  29.666  27.208  1.00  0.00     0.002 C 
ENDROOT
BRANCH   1   2
ATOM      2  C   UNL A   1      33.931  28.382  27.035  1.00  0.00     0.002 C 
BRANCH   2   3
ATOM      3  C   UNL A   1      33.639  27.880  25.624  1.00  0.00     0.021 C 
BRANCH   3   4
ATOM      4  C   UNL A   1      33.495  26.380  25.364  1.00  0.00     0.116 C 
BRANCH   4   5
ATOM      5  N   UNL A   1      34.235  25.792  24.269  1.00  0.00    -0.351 N 
ATOM      6  C   UNL A   1      33.854  24.766  23.409  1.00  0.00     0.266 C 
ATOM      7  O   UNL A   1      34.413  24.651  22.323  1.00  0.00    -0.268 OA
ATOM      8  H   UNL A   1      35.130  26.170  24.108  1.00  0.00     0.163 HD
BRANCH   6   9
ATOM      9  C   UNL A   1      32.862  23.685  23.847  1.00  0.00     0.113 C 
ATOM     10  C   UNL A   1      30.417  23.766  23.386  1.00  0.00     0.020 C 
ATOM     11  C   UNL A   1      31.507  23.979  24.434  1.00  0.00     0.076 C 
ATOM     12  C   UNL A   1      31.625  22.828  25.379  1.00  0.00     0.026 C 
ATOM     13  N   UNL A   1      33.177  22.413  23.835  1.00  0.00    -0.251 NA
ATOM     14  C   UNL A   1      32.401  21.878  24.844  1.00  0.00     0.049 C 
ATOM     15  C   UNL A   1      31.763  23.000  26.842  1.00  0.00     0.161 C 
ATOM     16  C   UNL A   1      32.913  20.739  25.678  1.00  0.00     0.065 C 
ATOM     17  O   UNL A   1      30.993  23.763  27.425  1.00  0.00    -0.294 OA
ATOM     18  C   UNL A   1      32.944  22.332  27.581  1.00  0.00     0.089 C 
ATOM     19  C   UNL A   1      33.832  21.340  26.760  1.00  0.00     0.033 C 
BRANCH  19  20
ATOM     20  C   UNL A   1      35.153  21.889  26.183  1.00  0.00    -0.044 A 
ATOM     21  C   UNL A   1      35.996  21.068  25.402  1.00  0.00     0.004 A 
ATOM     22  C   UNL A   1      35.586  23.204  26.396  1.00  0.00     0.004 A 
ATOM     23  C   UNL A   1      37.102  21.574  24.718  1.00  0.00     0.000 A 
ATOM     24  C   UNL A   1      36.716  23.709  25.736  1.00  0.00     0.000 A 
ATOM     25  C   UNL A   1      37.450  22.905  24.869  1.00  0.00     0.000 A 
ENDBRANCH  19  20
ENDBRANCH   6   9
ENDBRANCH   4   5
ENDBRANCH   3   4
ENDBRANCH   2   3
ENDBRANCH   1   2
BRANCH   1  26
ATOM     26  C   UNL A   1      34.018  30.950  27.618  1.00  0.00     0.021 C 
BRANCH  26  27
ATOM     27  C   UNL A   1      34.915  32.096  28.055  1.00  0.00     0.116 C 
BRANCH  27  28
ATOM     28  N   UNL A   1      34.628  32.603  29.403  1.00  0.00    -0.352 N 
ATOM     29  C   UNL A   1      35.111  32.126  30.608  1.00  0.00     0.251 C 
ATOM     30  H   UNL A   1      34.018  33.373  29.455  1.00  0.00     0.163 HD
ATOM     31  O   UNL A   1      34.552  32.400  31.677  1.00  0.00    -0.269 OA
BRANCH  29  32
ATOM     32  C   UNL A   1      36.329  31.302  30.610  1.00  0.00     0.039 A 
ATOM     33  C   UNL A   1      36.317  29.901  30.578  1.00  0.00     0.014 A 
ATOM     34  C   UNL A   1      37.531  31.998  30.631  1.00  0.00     0.014 A 
ATOM     35  C   UNL A   1      37.533  29.220  30.511  1.00  0.00     0.010 A 
ATOM     36  C   UNL A   1      38.687  31.352  30.324  1.00  0.00     0.010 A 
ATOM     37  C   UNL A   1      38.710  29.964  30.383  1.00  0.00    -0.014 A 
BRANCH  37  38
ATOM     38  C   UNL A   1      40.037  29.376  30.285  1.00  0.00     0.031 A 
ATOM     39  C   UNL A   1      40.744  29.219  31.586  1.00  0.00     0.074 A 
ATOM     40  C   UNL A   1      40.359  28.685  29.164  1.00  0.00     0.049 A 
ATOM     41  N   UNL A   1      41.878  29.718  31.952  1.00  0.00    -0.248 NA
ATOM     42  C   UNL A   1      40.027  28.530  32.676  1.00  0.00     0.031 C 
ATOM     43  C   UNL A   1      39.523  28.467  27.969  1.00  0.00     0.029 A 
ATOM     44  N   UNL A   1      41.429  27.886  28.918  1.00  0.00    -0.354 N 
ATOM     45  C   UNL A   1      42.112  29.224  33.236  1.00  0.00     0.074 A 
ATOM     46  C   UNL A   1      40.852  28.720  33.705  1.00  0.00     0.031 C 
ATOM     47  C   UNL A   1      40.003  27.423  27.259  1.00  0.00     0.029 A 
ATOM     48  C   UNL A   1      41.259  27.007  27.849  1.00  0.00     0.049 A 
ATOM     49  H   UNL A   1      42.257  27.924  29.450  1.00  0.00     0.167 HD
ATOM     50  C   UNL A   1      43.377  29.007  33.695  1.00  0.00     0.037 A 
ATOM     51  C   UNL A   1      42.078  25.975  27.525  1.00  0.00     0.037 A 
ATOM     52  C   UNL A   1      44.342  29.671  32.855  1.00  0.00     0.049 A 
ATOM     53  C   UNL A   1      43.358  26.198  28.248  1.00  0.00     0.074 A 
ATOM     54  C   UNL A   1      44.575  30.982  32.488  1.00  0.00     0.029 A 
ATOM     55  N   UNL A   1      45.015  28.899  31.938  1.00  0.00    -0.354 N 
ATOM     56  N   UNL A   1      44.168  27.190  27.997  1.00  0.00    -0.248 NA
ATOM     57  C   UNL A   1      43.482  25.608  29.573  1.00  0.00     0.031 C 
ATOM     58  C   UNL A   1      44.948  30.915  31.114  1.00  0.00     0.029 A 
ATOM     59  C   UNL A   1      45.004  29.570  30.744  1.00  0.00     0.049 A 
ATOM     60  H   UNL A   1      45.431  28.023  32.109  1.00  0.00     0.167 HD
ATOM     61  C   UNL A   1      44.599  27.621  29.244  1.00  0.00     0.074 A 
ATOM     62  C   UNL A   1      44.196  26.565  30.173  1.00  0.00     0.031 C 
ATOM     63  C   UNL A   1      44.969  28.919  29.454  1.00  0.00     0.037 A 
BRANCH  50  64
ATOM     64  C   UNL A   1      43.786  27.890  34.636  1.00  0.00     0.057 A 
ATOM     65  C   UNL A   1      44.460  28.226  35.827  1.00  0.00     0.134 A 
ATOM     66  C   UNL A   1      43.817  26.518  34.311  1.00  0.00     0.134 A 
ATOM     67  F   UNL A   1      44.500  29.495  36.263  1.00  0.00    -0.206 F 
ATOM     68  C   UNL A   1      45.196  27.294  36.570  1.00  0.00     0.040 A 
ATOM     69  C   UNL A   1      44.505  25.570  35.076  1.00  0.00     0.040 A 
ATOM     70  F   UNL A   1      43.275  26.020  33.196  1.00  0.00    -0.206 F 
ATOM     71  C   UNL A   1      45.231  25.961  36.187  1.00  0.00     0.006 A 
ENDBRANCH  50  64
BRANCH  51  72
ATOM     72  C   UNL A   1      41.723  24.676  26.909  1.00  0.00     0.057 A 
ATOM     73  C   UNL A   1      42.567  24.047  25.983  1.00  0.00     0.134 A 
ATOM     74  C   UNL A   1      40.663  23.895  27.404  1.00  0.00     0.134 A 
ATOM     75  F   UNL A   1      43.633  24.693  25.489  1.00  0.00    -0.206 F 
ATOM     76  C   UNL A   1      42.374  22.717  25.580  1.00  0.00     0.040 A 
ATOM     77  C   UNL A   1      40.456  22.568  27.007  1.00  0.00     0.040 A 
ATOM     78  F   UNL A   1      39.842  24.366  28.354  1.00  0.00    -0.206 F 
ATOM     79  C   UNL A   1      41.320  21.970  26.099  1.00  0.00     0.006 A 
ENDBRANCH  51  72
BRANCH  63  80
ATOM     80  C   UNL A   1      45.116  29.823  28.261  1.00  0.00     0.057 A 
ATOM     81  C   UNL A   1      44.094  30.655  27.776  1.00  0.00     0.134 A 
ATOM     82  C   UNL A   1      46.393  30.018  27.727  1.00  0.00     0.134 A 
ATOM     83  F   UNL A   1      42.860  30.607  28.290  1.00  0.00    -0.206 F 
ATOM     84  C   UNL A   1      44.331  31.624  26.796  1.00  0.00     0.040 A 
ATOM     85  C   UNL A   1      46.650  31.002  26.770  1.00  0.00     0.040 A 
ATOM     86  F   UNL A   1      47.430  29.296  28.182  1.00  0.00    -0.206 F 
ATOM     87  C   UNL A   1      45.617  31.807  26.299  1.00  0.00     0.006 A 
ENDBRANCH  63  80
ENDBRANCH  37  38
ENDBRANCH  29  32
ENDBRANCH  27  28
ENDBRANCH  26  27
ENDBRANCH   1  26
TORSDOF 14
ENDMDL
