MODEL 1
REMARK VINA RESULT:     -12.0      0.000      0.000
REMARK SMILES CC(C)(C)c1cc2c(cc1Cl)C=C(C(=O)NCCCCCCNC(=O)c1ccc(-c3c4nc(c(-c5c(F)cccc5F)c5ccc([nH]5)c(-c5c(F)cccc5F)c5nc(c(-c6c(F)cccc6F)c6ccc3[nH]6)C=C5)C=C4)cc1)[C@@H](C(F)(F)F)O2
REMARK SMILES IDX 20 1 19 2 18 3 17 4 16 5 14 6 15 7 13 9 5 10 6 11 10 12 7 13
REMARK SMILES IDX 9 14 11 15 8 16 85 17 12 18 80 19 2 20 1 21 3 22 4 23 81 24
REMARK SMILES IDX 82 25 83 26 84 27 21 28 22 29 23 30 24 31 25 33 26 34 27 35
REMARK SMILES IDX 79 36 28 37 78 38 29 39 30 40 31 41 72 42 32 43 77 44 71 45
REMARK SMILES IDX 73 46 33 47 76 48 70 49 69 50 34 52 60 53 43 54 59 55 44 56
REMARK SMILES IDX 47 57 58 58 74 59 45 60 46 61 57 63 75 64 48 65 35 66 36 67
REMARK SMILES IDX 41 68 37 69 38 70 40 71 42 72 39 73 61 74 62 75 67 76 63 77
REMARK SMILES IDX 64 78 66 79 68 80 65 81 49 82 50 83 55 84 51 85 52 86 54 87
REMARK SMILES IDX 56 88 53 89
REMARK H PARENT 16 8 23 32 73 51 47 62
REMARK Flexibility Score: inf
ROOT
ATOM      1  C   UNL A   1      38.150  22.154  26.073  1.00  0.00     0.002 C 
ENDROOT
BRANCH   1   2
ATOM      2  C   UNL A   1      37.717  21.309  24.868  1.00  0.00     0.002 C 
BRANCH   2   3
ATOM      3  C   UNL A   1      36.227  21.368  24.513  1.00  0.00     0.021 C 
BRANCH   3   4
ATOM      4  C   UNL A   1      35.417  20.170  24.998  1.00  0.00     0.116 C 
BRANCH   4   5
ATOM      5  N   UNL A   1      34.103  20.117  24.383  1.00  0.00    -0.352 N 
ATOM      6  C   UNL A   1      33.020  20.921  24.275  1.00  0.00     0.251 C 
ATOM      7  O   UNL A   1      32.094  20.458  23.601  1.00  0.00    -0.270 OA
ATOM      8  H   UNL A   1      33.962  19.263  23.915  1.00  0.00     0.163 HD
BRANCH   6   9
ATOM      9  C   UNL A   1      32.873  22.272  24.896  1.00  0.00     0.067 C 
ATOM     10  C   UNL A   1      32.797  27.315  25.680  1.00  0.00    -0.020 A 
ATOM     11  C   UNL A   1      32.278  26.165  26.328  1.00  0.00     0.053 A 
ATOM     12  C   UNL A   1      33.499  27.074  24.479  1.00  0.00     0.045 A 
ATOM     13  C   UNL A   1      32.465  24.873  25.839  1.00  0.00     0.128 A 
ATOM     14  C   UNL A   1      33.670  25.762  23.983  1.00  0.00     0.032 A 
ATOM     15  Cl  UNL A   1      34.185  28.290  23.462  1.00  0.00    -0.084 Cl
ATOM     16  C   UNL A   1      33.154  24.659  24.659  1.00  0.00     0.019 A 
ATOM     17  O   UNL A   1      31.888  23.867  26.554  1.00  0.00    -0.475 OA
ATOM     18  C   UNL A   1      33.262  23.307  24.127  1.00  0.00     0.025 C 
ATOM     19  C   UNL A   1      32.363  22.520  26.288  1.00  0.00     0.314 C 
BRANCH  10  20
ATOM     20  C   UNL A   1      32.482  28.679  26.346  1.00  0.00    -0.012 C 
ATOM     21  C   UNL A   1      31.602  28.671  27.611  1.00  0.00     0.016 C 
ATOM     22  C   UNL A   1      31.739  29.607  25.345  1.00  0.00     0.016 C 
ATOM     23  C   UNL A   1      33.824  29.344  26.736  1.00  0.00     0.016 C 
ENDBRANCH  10  20
BRANCH  19  24
ATOM     24  C   UNL A   1      33.385  22.129  27.370  1.00  0.00     0.429 C 
ATOM     25  F   UNL A   1      32.969  22.550  28.591  1.00  0.00    -0.167 F 
ATOM     26  F   UNL A   1      33.553  20.789  27.468  1.00  0.00    -0.167 F 
ATOM     27  F   UNL A   1      34.606  22.666  27.151  1.00  0.00    -0.167 F 
ENDBRANCH  19  24
ENDBRANCH   6   9
ENDBRANCH   4   5
ENDBRANCH   3   4
ENDBRANCH   2   3
ENDBRANCH   1   2
BRANCH   1  28
ATOM     28  C   UNL A   1      37.926  23.663  25.944  1.00  0.00     0.021 C 
BRANCH  28  29
ATOM     29  C   UNL A   1      38.981  24.530  26.621  1.00  0.00     0.116 C 
BRANCH  29  30
ATOM     30  N   UNL A   1      40.150  24.746  25.785  1.00  0.00    -0.352 N 
ATOM     31  C   UNL A   1      41.161  25.664  25.935  1.00  0.00     0.251 C 
ATOM     32  H   UNL A   1      40.228  24.153  25.003  1.00  0.00     0.163 HD
ATOM     33  O   UNL A   1      42.007  25.813  25.059  1.00  0.00    -0.269 OA
BRANCH  31  34
ATOM     34  C   UNL A   1      41.199  26.502  27.151  1.00  0.00     0.039 A 
ATOM     35  C   UNL A   1      40.745  25.999  28.373  1.00  0.00     0.014 A 
ATOM     36  C   UNL A   1      41.652  27.820  27.053  1.00  0.00     0.014 A 
ATOM     37  C   UNL A   1      40.595  26.859  29.456  1.00  0.00     0.010 A 
ATOM     38  C   UNL A   1      41.565  28.664  28.162  1.00  0.00     0.010 A 
ATOM     39  C   UNL A   1      40.990  28.204  29.357  1.00  0.00    -0.014 A 
BRANCH  39  40
ATOM     40  C   UNL A   1      40.764  29.124  30.499  1.00  0.00     0.031 A 
ATOM     41  C   UNL A   1      39.643  30.128  30.461  1.00  0.00     0.074 A 
ATOM     42  C   UNL A   1      41.543  29.027  31.593  1.00  0.00     0.049 A 
ATOM     43  N   UNL A   1      39.309  31.029  31.349  1.00  0.00    -0.248 NA
ATOM     44  C   UNL A   1      38.784  30.118  29.265  1.00  0.00     0.031 C 
ATOM     45  C   UNL A   1      42.647  28.080  31.762  1.00  0.00     0.029 A 
ATOM     46  N   UNL A   1      41.517  29.724  32.774  1.00  0.00    -0.354 N 
ATOM     47  C   UNL A   1      38.220  31.707  30.814  1.00  0.00     0.074 A 
ATOM     48  C   UNL A   1      37.961  31.128  29.514  1.00  0.00     0.031 C 
ATOM     49  C   UNL A   1      43.168  28.231  32.989  1.00  0.00     0.029 A 
ATOM     50  C   UNL A   1      42.476  29.320  33.669  1.00  0.00     0.049 A 
ATOM     51  H   UNL A   1      40.871  30.443  32.961  1.00  0.00     0.167 HD
ATOM     52  C   UNL A   1      37.496  32.712  31.362  1.00  0.00     0.037 A 
ATOM     53  C   UNL A   1      42.781  29.792  34.890  1.00  0.00     0.037 A 
ATOM     54  C   UNL A   1      37.739  33.273  32.665  1.00  0.00     0.049 A 
ATOM     55  C   UNL A   1      42.002  30.948  35.447  1.00  0.00     0.074 A 
ATOM     56  C   UNL A   1      37.039  34.272  33.321  1.00  0.00     0.029 A 
ATOM     57  N   UNL A   1      38.765  32.883  33.512  1.00  0.00    -0.354 N 
ATOM     58  N   UNL A   1      40.975  31.577  34.931  1.00  0.00    -0.248 NA
ATOM     59  C   UNL A   1      42.440  31.472  36.748  1.00  0.00     0.031 C 
ATOM     60  C   UNL A   1      37.664  34.510  34.550  1.00  0.00     0.029 A 
ATOM     61  C   UNL A   1      38.732  33.637  34.673  1.00  0.00     0.049 A 
ATOM     62  H   UNL A   1      39.419  32.174  33.317  1.00  0.00     0.167 HD
ATOM     63  C   UNL A   1      40.640  32.568  35.842  1.00  0.00     0.074 A 
ATOM     64  C   UNL A   1      41.559  32.442  36.956  1.00  0.00     0.031 C 
ATOM     65  C   UNL A   1      39.664  33.504  35.763  1.00  0.00     0.037 A 
BRANCH  52  66
ATOM     66  C   UNL A   1      36.378  33.284  30.541  1.00  0.00     0.057 A 
ATOM     67  C   UNL A   1      35.047  32.940  30.810  1.00  0.00     0.134 A 
ATOM     68  C   UNL A   1      36.618  34.149  29.467  1.00  0.00     0.134 A 
ATOM     69  F   UNL A   1      34.750  32.112  31.823  1.00  0.00    -0.206 F 
ATOM     70  C   UNL A   1      33.994  33.436  30.039  1.00  0.00     0.040 A 
ATOM     71  C   UNL A   1      35.572  34.668  28.701  1.00  0.00     0.040 A 
ATOM     72  F   UNL A   1      37.869  34.528  29.166  1.00  0.00    -0.206 F 
ATOM     73  C   UNL A   1      34.255  34.308  28.984  1.00  0.00     0.006 A 
ENDBRANCH  52  66
BRANCH  53  74
ATOM     74  C   UNL A   1      43.893  29.187  35.661  1.00  0.00     0.057 A 
ATOM     75  C   UNL A   1      45.211  29.631  35.508  1.00  0.00     0.134 A 
ATOM     76  C   UNL A   1      43.660  28.151  36.572  1.00  0.00     0.134 A 
ATOM     77  F   UNL A   1      45.497  30.619  34.649  1.00  0.00    -0.206 F 
ATOM     78  C   UNL A   1      46.263  29.058  36.224  1.00  0.00     0.040 A 
ATOM     79  C   UNL A   1      44.699  27.583  37.311  1.00  0.00     0.040 A 
ATOM     80  F   UNL A   1      42.413  27.698  36.776  1.00  0.00    -0.206 F 
ATOM     81  C   UNL A   1      46.006  28.033  37.134  1.00  0.00     0.006 A 
ENDBRANCH  53  74
BRANCH  65  82
ATOM     82  C   UNL A   1      39.547  34.457  36.913  1.00  0.00     0.057 A 
ATOM     83  C   UNL A   1      40.163  35.713  36.872  1.00  0.00     0.134 A 
ATOM     84  C   UNL A   1      38.830  34.121  38.069  1.00  0.00     0.134 A 
ATOM     85  F   UNL A   1      40.866  36.091  35.793  1.00  0.00    -0.206 F 
ATOM     86  C   UNL A   1      40.072  36.603  37.942  1.00  0.00     0.040 A 
ATOM     87  C   UNL A   1      38.715  35.011  39.137  1.00  0.00     0.040 A 
ATOM     88  F   UNL A   1      38.203  32.938  38.161  1.00  0.00    -0.206 F 
ATOM     89  C   UNL A   1      39.341  36.255  39.077  1.00  0.00     0.006 A 
ENDBRANCH  65  82
ENDBRANCH  39  40
ENDBRANCH  31  34
ENDBRANCH  29  30
ENDBRANCH  28  29
ENDBRANCH   1  28
TORSDOF 15
ENDMDL
MODEL 2
REMARK VINA RESULT:     -11.9      3.101      8.626
REMARK SMILES CC(C)(C)c1cc2c(cc1Cl)C=C(C(=O)NCCCCCCNC(=O)c1ccc(-c3c4nc(c(-c5c(F)cccc5F)c5ccc([nH]5)c(-c5c(F)cccc5F)c5nc(c(-c6c(F)cccc6F)c6ccc3[nH]6)C=C5)C=C4)cc1)[C@@H](C(F)(F)F)O2
REMARK SMILES IDX 20 1 19 2 18 3 17 4 16 5 14 6 15 7 13 9 5 10 6 11 10 12 7 13
REMARK SMILES IDX 9 14 11 15 8 16 85 17 12 18 80 19 2 20 1 21 3 22 4 23 81 24
REMARK SMILES IDX 82 25 83 26 84 27 21 28 22 29 23 30 24 31 25 33 26 34 27 35
REMARK SMILES IDX 79 36 28 37 78 38 29 39 30 40 31 41 72 42 32 43 77 44 71 45
REMARK SMILES IDX 73 46 33 47 76 48 70 49 69 50 34 52 60 53 43 54 59 55 44 56
REMARK SMILES IDX 47 57 58 58 74 59 45 60 46 61 57 63 75 64 48 65 35 66 36 67
REMARK SMILES IDX 41 68 37 69 38 70 40 71 42 72 39 73 61 74 62 75 67 76 63 77
REMARK SMILES IDX 64 78 66 79 68 80 65 81 49 82 50 83 55 84 51 85 52 86 54 87
REMARK SMILES IDX 56 88 53 89
REMARK H PARENT 16 8 23 32 73 51 47 62
REMARK Flexibility Score: inf
ROOT
ATOM      1  C   UNL A   1      34.551  33.340  29.325  1.00  0.00     0.002 C 
ENDROOT
BRANCH   1   2
ATOM      2  C   UNL A   1      34.402  31.876  28.891  1.00  0.00     0.002 C 
BRANCH   2   3
ATOM      3  C   UNL A   1      33.910  31.652  27.457  1.00  0.00     0.021 C 
BRANCH   3   4
ATOM      4  C   UNL A   1      33.185  30.327  27.241  1.00  0.00     0.116 C 
BRANCH   4   5
ATOM      5  N   UNL A   1      32.214  30.409  26.165  1.00  0.00    -0.352 N 
ATOM      6  C   UNL A   1      31.546  29.553  25.357  1.00  0.00     0.251 C 
ATOM      7  O   UNL A   1      30.758  30.088  24.570  1.00  0.00    -0.270 OA
ATOM      8  H   UNL A   1      31.974  31.344  25.971  1.00  0.00     0.163 HD
BRANCH   6   9
ATOM      9  C   UNL A   1      31.695  28.067  25.350  1.00  0.00     0.067 C 
ATOM     10  C   UNL A   1      33.606  23.338  25.570  1.00  0.00    -0.020 A 
ATOM     11  C   UNL A   1      32.320  23.933  25.638  1.00  0.00     0.053 A 
ATOM     12  C   UNL A   1      34.687  24.238  25.444  1.00  0.00     0.045 A 
ATOM     13  C   UNL A   1      32.118  25.310  25.558  1.00  0.00     0.128 A 
ATOM     14  C   UNL A   1      34.475  25.633  25.379  1.00  0.00     0.032 A 
ATOM     15  Cl  UNL A   1      36.355  23.792  25.395  1.00  0.00    -0.084 Cl
ATOM     16  C   UNL A   1      33.192  26.173  25.437  1.00  0.00     0.019 A 
ATOM     17  O   UNL A   1      30.829  25.739  25.662  1.00  0.00    -0.475 OA
ATOM     18  C   UNL A   1      32.959  27.611  25.440  1.00  0.00     0.025 C 
ATOM     19  C   UNL A   1      30.555  27.096  25.221  1.00  0.00     0.314 C 
BRANCH  10  20
ATOM     20  C   UNL A   1      33.655  21.794  25.695  1.00  0.00    -0.012 C 
ATOM     21  C   UNL A   1      34.640  21.033  24.787  1.00  0.00     0.016 C 
ATOM     22  C   UNL A   1      32.261  21.185  25.378  1.00  0.00     0.016 C 
ATOM     23  C   UNL A   1      34.029  21.443  27.155  1.00  0.00     0.016 C 
ENDBRANCH  10  20
BRANCH  19  24
ATOM     24  C   UNL A   1      29.976  27.049  23.796  1.00  0.00     0.429 C 
ATOM     25  F   UNL A   1      29.545  25.797  23.498  1.00  0.00    -0.167 F 
ATOM     26  F   UNL A   1      28.906  27.865  23.642  1.00  0.00    -0.167 F 
ATOM     27  F   UNL A   1      30.880  27.401  22.855  1.00  0.00    -0.167 F 
ENDBRANCH  19  24
ENDBRANCH   6   9
ENDBRANCH   4   5
ENDBRANCH   3   4
ENDBRANCH   2   3
ENDBRANCH   1   2
BRANCH   1  28
ATOM     28  C   UNL A   1      33.395  34.269  28.945  1.00  0.00     0.021 C 
BRANCH  28  29
ATOM     29  C   UNL A   1      33.522  35.698  29.460  1.00  0.00     0.116 C 
BRANCH  29  30
ATOM     30  N   UNL A   1      32.530  36.019  30.472  1.00  0.00    -0.352 N 
ATOM     31  C   UNL A   1      32.529  35.705  31.810  1.00  0.00     0.251 C 
ATOM     32  H   UNL A   1      31.751  36.531  30.157  1.00  0.00     0.163 HD
ATOM     33  O   UNL A   1      31.543  35.927  32.505  1.00  0.00    -0.269 OA
BRANCH  31  34
ATOM     34  C   UNL A   1      33.720  35.057  32.400  1.00  0.00     0.039 A 
ATOM     35  C   UNL A   1      34.945  35.728  32.437  1.00  0.00     0.014 A 
ATOM     36  C   UNL A   1      33.614  33.749  32.876  1.00  0.00     0.014 A 
ATOM     37  C   UNL A   1      36.095  35.035  32.803  1.00  0.00     0.010 A 
ATOM     38  C   UNL A   1      34.760  33.077  33.309  1.00  0.00     0.010 A 
ATOM     39  C   UNL A   1      36.016  33.699  33.229  1.00  0.00    -0.014 A 
BRANCH  39  40
ATOM     40  C   UNL A   1      37.258  32.955  33.554  1.00  0.00     0.031 A 
ATOM     41  C   UNL A   1      37.978  33.202  34.852  1.00  0.00     0.074 A 
ATOM     42  C   UNL A   1      37.716  32.023  32.697  1.00  0.00     0.049 A 
ATOM     43  N   UNL A   1      39.088  32.669  35.296  1.00  0.00    -0.248 NA
ATOM     44  C   UNL A   1      37.371  34.176  35.773  1.00  0.00     0.031 C 
ATOM     45  C   UNL A   1      37.096  31.676  31.417  1.00  0.00     0.029 A 
ATOM     46  N   UNL A   1      38.802  31.190  32.779  1.00  0.00    -0.354 N 
ATOM     47  C   UNL A   1      39.325  33.257  36.533  1.00  0.00     0.074 A 
ATOM     48  C   UNL A   1      38.255  34.204  36.762  1.00  0.00     0.031 C 
ATOM     49  C   UNL A   1      37.789  30.676  30.852  1.00  0.00     0.029 A 
ATOM     50  C   UNL A   1      38.933  30.354  31.698  1.00  0.00     0.049 A 
ATOM     51  H   UNL A   1      39.426  31.191  33.541  1.00  0.00     0.167 HD
ATOM     52  C   UNL A   1      40.336  33.021  37.403  1.00  0.00     0.037 A 
ATOM     53  C   UNL A   1      39.882  29.446  31.410  1.00  0.00     0.037 A 
ATOM     54  C   UNL A   1      41.388  32.063  37.187  1.00  0.00     0.049 A 
ATOM     55  C   UNL A   1      41.025  29.250  32.363  1.00  0.00     0.074 A 
ATOM     56  C   UNL A   1      42.439  31.728  38.024  1.00  0.00     0.029 A 
ATOM     57  N   UNL A   1      41.524  31.284  36.047  1.00  0.00    -0.354 N 
ATOM     58  N   UNL A   1      41.235  29.811  33.528  1.00  0.00    -0.248 NA
ATOM     59  C   UNL A   1      42.074  28.308  31.948  1.00  0.00     0.031 C 
ATOM     60  C   UNL A   1      43.230  30.773  37.375  1.00  0.00     0.029 A 
ATOM     61  C   UNL A   1      42.653  30.489  36.149  1.00  0.00     0.049 A 
ATOM     62  H   UNL A   1      40.907  31.296  35.280  1.00  0.00     0.167 HD
ATOM     63  C   UNL A   1      42.435  29.290  33.989  1.00  0.00     0.074 A 
ATOM     64  C   UNL A   1      42.896  28.349  32.989  1.00  0.00     0.031 C 
ATOM     65  C   UNL A   1      43.101  29.570  35.136  1.00  0.00     0.037 A 
BRANCH  52  66
ATOM     66  C   UNL A   1      40.361  33.828  38.667  1.00  0.00     0.057 A 
ATOM     67  C   UNL A   1      41.144  34.987  38.759  1.00  0.00     0.134 A 
ATOM     68  C   UNL A   1      39.638  33.445  39.803  1.00  0.00     0.134 A 
ATOM     69  F   UNL A   1      41.864  35.406  37.708  1.00  0.00    -0.206 F 
ATOM     70  C   UNL A   1      41.205  35.736  39.935  1.00  0.00     0.040 A 
ATOM     71  C   UNL A   1      39.676  34.196  40.980  1.00  0.00     0.040 A 
ATOM     72  F   UNL A   1      38.859  32.353  39.777  1.00  0.00    -0.206 F 
ATOM     73  C   UNL A   1      40.466  35.343  41.049  1.00  0.00     0.006 A 
ENDBRANCH  52  66
BRANCH  53  74
ATOM     74  C   UNL A   1      39.806  28.671  30.148  1.00  0.00     0.057 A 
ATOM     75  C   UNL A   1      40.417  29.128  28.975  1.00  0.00     0.134 A 
ATOM     76  C   UNL A   1      39.122  27.452  30.090  1.00  0.00     0.134 A 
ATOM     77  F   UNL A   1      41.086  30.291  28.969  1.00  0.00    -0.206 F 
ATOM     78  C   UNL A   1      40.340  28.409  27.783  1.00  0.00     0.040 A 
ATOM     79  C   UNL A   1      39.056  26.710  28.910  1.00  0.00     0.040 A 
ATOM     80  F   UNL A   1      38.535  26.954  31.189  1.00  0.00    -0.206 F 
ATOM     81  C   UNL A   1      39.662  27.190  27.750  1.00  0.00     0.006 A 
ENDBRANCH  53  74
BRANCH  65  82
ATOM     82  C   UNL A   1      44.393  28.845  35.360  1.00  0.00     0.057 A 
ATOM     83  C   UNL A   1      44.418  27.604  36.006  1.00  0.00     0.134 A 
ATOM     84  C   UNL A   1      45.615  29.387  34.944  1.00  0.00     0.134 A 
ATOM     85  F   UNL A   1      43.279  27.034  36.430  1.00  0.00    -0.206 F 
ATOM     86  C   UNL A   1      45.616  26.926  36.233  1.00  0.00     0.040 A 
ATOM     87  C   UNL A   1      46.818  28.709  35.147  1.00  0.00     0.040 A 
ATOM     88  F   UNL A   1      45.654  30.566  34.304  1.00  0.00    -0.206 F 
ATOM     89  C   UNL A   1      46.821  27.476  35.797  1.00  0.00     0.006 A 
ENDBRANCH  65  82
ENDBRANCH  39  40
ENDBRANCH  31  34
ENDBRANCH  29  30
ENDBRANCH  28  29
ENDBRANCH   1  28
TORSDOF 15
ENDMDL
MODEL 3
REMARK VINA RESULT:     -11.9      4.838      8.530
REMARK SMILES CC(C)(C)c1cc2c(cc1Cl)C=C(C(=O)NCCCCCCNC(=O)c1ccc(-c3c4nc(c(-c5c(F)cccc5F)c5ccc([nH]5)c(-c5c(F)cccc5F)c5nc(c(-c6c(F)cccc6F)c6ccc3[nH]6)C=C5)C=C4)cc1)[C@@H](C(F)(F)F)O2
REMARK SMILES IDX 20 1 19 2 18 3 17 4 16 5 14 6 15 7 13 9 5 10 6 11 10 12 7 13
REMARK SMILES IDX 9 14 11 15 8 16 85 17 12 18 80 19 2 20 1 21 3 22 4 23 81 24
REMARK SMILES IDX 82 25 83 26 84 27 21 28 22 29 23 30 24 31 25 33 26 34 27 35
REMARK SMILES IDX 79 36 28 37 78 38 29 39 30 40 31 41 72 42 32 43 77 44 71 45
REMARK SMILES IDX 73 46 33 47 76 48 70 49 69 50 34 52 60 53 43 54 59 55 44 56
REMARK SMILES IDX 47 57 58 58 74 59 45 60 46 61 57 63 75 64 48 65 35 66 36 67
REMARK SMILES IDX 41 68 37 69 38 70 40 71 42 72 39 73 61 74 62 75 67 76 63 77
REMARK SMILES IDX 64 78 66 79 68 80 65 81 49 82 50 83 55 84 51 85 52 86 54 87
REMARK SMILES IDX 56 88 53 89
REMARK H PARENT 16 8 23 32 73 51 47 62
REMARK Flexibility Score: inf
ROOT
ATOM      1  C   UNL A   1      36.513  19.992  25.003  1.00  0.00     0.002 C 
ENDROOT
BRANCH   1   2
ATOM      2  C   UNL A   1      35.956  18.563  24.947  1.00  0.00     0.002 C 
BRANCH   2   3
ATOM      3  C   UNL A   1      34.492  18.435  24.511  1.00  0.00     0.021 C 
BRANCH   3   4
ATOM      4  C   UNL A   1      33.623  19.639  24.863  1.00  0.00     0.116 C 
BRANCH   4   5
ATOM      5  N   UNL A   1      32.889  20.133  23.712  1.00  0.00    -0.352 N 
ATOM      6  C   UNL A   1      32.474  21.328  23.232  1.00  0.00     0.251 C 
ATOM      7  O   UNL A   1      31.880  21.277  22.151  1.00  0.00    -0.270 OA
ATOM      8  H   UNL A   1      32.620  19.397  23.117  1.00  0.00     0.163 HD
BRANCH   6   9
ATOM      9  C   UNL A   1      32.675  22.651  23.898  1.00  0.00     0.067 C 
ATOM     10  C   UNL A   1      32.047  27.432  25.572  1.00  0.00    -0.020 A 
ATOM     11  C   UNL A   1      32.886  26.332  25.888  1.00  0.00     0.053 A 
ATOM     12  C   UNL A   1      31.089  27.197  24.561  1.00  0.00     0.045 A 
ATOM     13  C   UNL A   1      32.801  25.104  25.234  1.00  0.00     0.128 A 
ATOM     14  C   UNL A   1      31.001  25.945  23.915  1.00  0.00     0.032 A 
ATOM     15  Cl  UNL A   1      29.911  28.338  24.019  1.00  0.00    -0.084 Cl
ATOM     16  C   UNL A   1      31.853  24.895  24.249  1.00  0.00     0.019 A 
ATOM     17  O   UNL A   1      33.655  24.133  25.661  1.00  0.00    -0.475 OA
ATOM     18  C   UNL A   1      31.731  23.577  23.641  1.00  0.00     0.025 C 
ATOM     19  C   UNL A   1      33.844  22.995  24.777  1.00  0.00     0.314 C 
BRANCH  10  20
ATOM     20  C   UNL A   1      32.260  28.720  26.408  1.00  0.00    -0.012 C 
ATOM     21  C   UNL A   1      31.837  30.061  25.779  1.00  0.00     0.016 C 
ATOM     22  C   UNL A   1      33.765  28.893  26.755  1.00  0.00     0.016 C 
ATOM     23  C   UNL A   1      31.461  28.572  27.726  1.00  0.00     0.016 C 
ENDBRANCH  10  20
BRANCH  19  24
ATOM     24  C   UNL A   1      35.145  23.194  23.980  1.00  0.00     0.429 C 
ATOM     25  F   UNL A   1      35.465  22.063  23.301  1.00  0.00    -0.167 F 
ATOM     26  F   UNL A   1      35.043  24.177  23.054  1.00  0.00    -0.167 F 
ATOM     27  F   UNL A   1      36.197  23.504  24.770  1.00  0.00    -0.167 F 
ENDBRANCH  19  24
ENDBRANCH   6   9
ENDBRANCH   4   5
ENDBRANCH   3   4
ENDBRANCH   2   3
ENDBRANCH   1   2
BRANCH   1  28
ATOM     28  C   UNL A   1      37.985  20.149  24.613  1.00  0.00     0.021 C 
BRANCH  28  29
ATOM     29  C   UNL A   1      38.951  20.275  25.784  1.00  0.00     0.116 C 
BRANCH  29  30
ATOM     30  N   UNL A   1      39.901  19.175  25.847  1.00  0.00    -0.352 N 
ATOM     31  C   UNL A   1      41.250  19.214  26.100  1.00  0.00     0.251 C 
ATOM     32  H   UNL A   1      39.525  18.280  25.686  1.00  0.00     0.163 HD
ATOM     33  O   UNL A   1      41.940  18.207  25.976  1.00  0.00    -0.269 OA
BRANCH  31  34
ATOM     34  C   UNL A   1      41.876  20.496  26.487  1.00  0.00     0.039 A 
ATOM     35  C   UNL A   1      42.006  20.842  27.834  1.00  0.00     0.014 A 
ATOM     36  C   UNL A   1      42.292  21.377  25.486  1.00  0.00     0.014 A 
ATOM     37  C   UNL A   1      42.403  22.131  28.176  1.00  0.00     0.010 A 
ATOM     38  C   UNL A   1      42.757  22.647  25.835  1.00  0.00     0.010 A 
ATOM     39  C   UNL A   1      42.769  23.050  27.180  1.00  0.00    -0.014 A 
BRANCH  39  40
ATOM     40  C   UNL A   1      43.129  24.440  27.556  1.00  0.00     0.031 A 
ATOM     41  C   UNL A   1      44.563  24.896  27.515  1.00  0.00     0.074 A 
ATOM     42  C   UNL A   1      42.157  25.307  27.896  1.00  0.00     0.049 A 
ATOM     43  N   UNL A   1      45.070  26.059  27.834  1.00  0.00    -0.248 NA
ATOM     44  C   UNL A   1      45.558  23.913  27.056  1.00  0.00     0.031 C 
ATOM     45  C   UNL A   1      40.728  24.995  27.952  1.00  0.00     0.029 A 
ATOM     46  N   UNL A   1      42.223  26.632  28.245  1.00  0.00    -0.354 N 
ATOM     47  C   UNL A   1      46.441  25.944  27.636  1.00  0.00     0.074 A 
ATOM     48  C   UNL A   1      46.691  24.590  27.191  1.00  0.00     0.031 C 
ATOM     49  C   UNL A   1      40.049  26.105  28.277  1.00  0.00     0.029 A 
ATOM     50  C   UNL A   1      40.997  27.190  28.509  1.00  0.00     0.049 A 
ATOM     51  H   UNL A   1      43.068  27.134  28.298  1.00  0.00     0.167 HD
ATOM     52  C   UNL A   1      47.402  26.884  27.801  1.00  0.00     0.037 A 
ATOM     53  C   UNL A   1      40.674  28.430  28.918  1.00  0.00     0.037 A 
ATOM     54  C   UNL A   1      47.153  28.237  28.223  1.00  0.00     0.049 A 
ATOM     55  C   UNL A   1      41.765  29.433  29.153  1.00  0.00     0.074 A 
ATOM     56  C   UNL A   1      48.057  29.274  28.387  1.00  0.00     0.029 A 
ATOM     57  N   UNL A   1      45.903  28.744  28.548  1.00  0.00    -0.354 N 
ATOM     58  N   UNL A   1      43.055  29.311  28.961  1.00  0.00    -0.248 NA
ATOM     59  C   UNL A   1      41.355  30.742  29.682  1.00  0.00     0.031 C 
ATOM     60  C   UNL A   1      47.359  30.396  28.846  1.00  0.00     0.029 A 
ATOM     61  C   UNL A   1      46.016  30.069  28.936  1.00  0.00     0.049 A 
ATOM     62  H   UNL A   1      45.061  28.236  28.508  1.00  0.00     0.167 HD
ATOM     63  C   UNL A   1      43.612  30.523  29.341  1.00  0.00     0.074 A 
ATOM     64  C   UNL A   1      42.516  31.378  29.752  1.00  0.00     0.031 C 
ATOM     65  C   UNL A   1      44.915  30.896  29.354  1.00  0.00     0.037 A 
BRANCH  52  66
ATOM     66  C   UNL A   1      48.821  26.474  27.540  1.00  0.00     0.057 A 
ATOM     67  C   UNL A   1      49.616  25.956  28.571  1.00  0.00     0.134 A 
ATOM     68  C   UNL A   1      49.412  26.618  26.279  1.00  0.00     0.134 A 
ATOM     69  F   UNL A   1      49.112  25.795  29.804  1.00  0.00    -0.206 F 
ATOM     70  C   UNL A   1      50.948  25.596  28.357  1.00  0.00     0.040 A 
ATOM     71  C   UNL A   1      50.738  26.244  26.047  1.00  0.00     0.040 A 
ATOM     72  F   UNL A   1      48.701  27.095  25.246  1.00  0.00    -0.206 F 
ATOM     73  C   UNL A   1      51.511  25.736  27.090  1.00  0.00     0.006 A 
ENDBRANCH  52  66
BRANCH  53  74
ATOM     74  C   UNL A   1      39.255  28.785  29.157  1.00  0.00     0.057 A 
ATOM     75  C   UNL A   1      38.653  28.582  30.404  1.00  0.00     0.134 A 
ATOM     76  C   UNL A   1      38.469  29.338  28.140  1.00  0.00     0.134 A 
ATOM     77  F   UNL A   1      39.356  28.054  31.416  1.00  0.00    -0.206 F 
ATOM     78  C   UNL A   1      37.315  28.905  30.631  1.00  0.00     0.040 A 
ATOM     79  C   UNL A   1      37.135  29.686  28.359  1.00  0.00     0.040 A 
ATOM     80  F   UNL A   1      38.997  29.573  26.930  1.00  0.00    -0.206 F 
ATOM     81  C   UNL A   1      36.553  29.465  29.606  1.00  0.00     0.006 A 
ENDBRANCH  53  74
BRANCH  65  82
ATOM     82  C   UNL A   1      45.215  32.286  29.828  1.00  0.00     0.057 A 
ATOM     83  C   UNL A   1      45.564  32.530  31.161  1.00  0.00     0.134 A 
ATOM     84  C   UNL A   1      45.145  33.383  28.961  1.00  0.00     0.134 A 
ATOM     85  F   UNL A   1      45.645  31.520  32.040  1.00  0.00    -0.206 F 
ATOM     86  C   UNL A   1      45.833  33.821  31.617  1.00  0.00     0.040 A 
ATOM     87  C   UNL A   1      45.432  34.676  29.401  1.00  0.00     0.040 A 
ATOM     88  F   UNL A   1      44.833  33.210  27.668  1.00  0.00    -0.206 F 
ATOM     89  C   UNL A   1      45.773  34.898  30.734  1.00  0.00     0.006 A 
ENDBRANCH  65  82
ENDBRANCH  39  40
ENDBRANCH  31  34
ENDBRANCH  29  30
ENDBRANCH  28  29
ENDBRANCH   1  28
TORSDOF 15
ENDMDL
