MODEL 1
REMARK VINA RESULT:     -10.0      0.000      0.000
REMARK SMILES CSCC[C@H](C(=O)NCCCCCCNC(=O)c1ccc(-c2c3nc(c(-c4c(F)cccc4F)c4ccc([nH]4)c(-c4c(F)cccc4F)c4nc(c(-c5c(F)cccc5F)c5ccc2[nH]5)C=C4)C=C3)cc1)N1C(=O)/C(=C/c2cn(C)c3ccccc23)SC1=S
REMARK SMILES IDX 11 1 10 2 9 3 8 4 6 5 7 6 5 8 4 9 3 10 2 11 1 12 72 13 73 14
REMARK SMILES IDX 88 15 74 16 75 17 87 18 89 19 76 20 77 21 78 22 86 23 79 24
REMARK SMILES IDX 81 25 85 26 80 27 82 28 84 29 83 30 12 31 13 32 14 33 15 34
REMARK SMILES IDX 16 35 17 37 18 38 19 39 71 40 20 41 70 42 21 43 22 44 23 45
REMARK SMILES IDX 64 46 24 47 69 48 63 49 65 50 25 51 68 52 62 53 61 54 26 56
REMARK SMILES IDX 52 57 35 58 51 59 36 60 39 61 50 62 66 63 37 64 38 65 49 67
REMARK SMILES IDX 67 68 40 69 27 70 28 71 33 72 29 73 30 74 32 75 34 76 31 77
REMARK SMILES IDX 53 78 54 79 59 80 55 81 56 82 58 83 60 84 57 85 41 86 42 87
REMARK SMILES IDX 47 88 43 89 44 90 46 91 48 92 45 93
REMARK H PARENT 8 7 15 36 65 55 39 66
REMARK Flexibility Score: inf
ROOT
ATOM      1  C   UNL A   1      40.815  27.555  27.029  1.00  0.00     0.002 C 
ENDROOT
BRANCH   1   2
ATOM      2  C   UNL A   1      40.060  28.890  27.050  1.00  0.00     0.021 C 
BRANCH   2   3
ATOM      3  C   UNL A   1      38.942  28.951  28.091  1.00  0.00     0.116 C 
BRANCH   3   4
ATOM      4  N   UNL A   1      38.598  30.321  28.393  1.00  0.00    -0.354 N 
ATOM      5  C   UNL A   1      37.359  30.875  28.503  1.00  0.00     0.243 C 
ATOM      6  O   UNL A   1      37.261  32.098  28.360  1.00  0.00    -0.273 OA
ATOM      7  H   UNL A   1      39.356  30.932  28.537  1.00  0.00     0.163 HD
BRANCH   5   8
ATOM      8  C   UNL A   1      36.139  29.973  28.903  1.00  0.00     0.182 C 
BRANCH   8   9
ATOM      9  C   UNL A   1      36.306  30.084  30.505  1.00  0.00     0.046 C 
BRANCH   9  10
ATOM     10  C   UNL A   1      35.854  31.300  31.326  1.00  0.00     0.072 C 
BRANCH  10  11
ATOM     11  S   UNL A   1      36.708  31.592  32.921  1.00  0.00    -0.165 SA
ATOM     12  C   UNL A   1      35.828  33.019  33.584  1.00  0.00     0.085 C 
ENDBRANCH  10  11
ENDBRANCH   9  10
ENDBRANCH   8   9
BRANCH   8  13
ATOM     13  N   UNL A   1      34.576  30.259  28.049  1.00  0.00    -0.280 N 
ATOM     14  C   UNL A   1      34.433  29.129  27.444  1.00  0.00     0.266 C 
ATOM     15  C   UNL A   1      33.560  31.998  27.889  1.00  0.00     0.149 C 
ATOM     16  O   UNL A   1      34.973  28.094  27.186  1.00  0.00    -0.268 OA
ATOM     17  C   UNL A   1      33.232  29.700  27.184  1.00  0.00     0.081 C 
ATOM     18  S   UNL A   1      32.326  32.017  27.068  1.00  0.00    -0.054 SA
ATOM     19  S   UNL A   1      33.769  33.883  28.434  1.00  0.00    -0.052 S 
ATOM     20  C   UNL A   1      32.621  28.634  26.433  1.00  0.00     0.031 C 
BRANCH  20  21
ATOM     21  C   UNL A   1      31.548  29.148  25.705  1.00  0.00     0.001 A 
ATOM     22  C   UNL A   1      31.688  29.701  24.419  1.00  0.00     0.094 A 
ATOM     23  C   UNL A   1      31.212  27.801  25.474  1.00  0.00     0.007 A 
ATOM     24  N   UNL A   1      32.445  28.884  23.553  1.00  0.00    -0.350 N 
ATOM     25  C   UNL A   1      32.776  27.735  24.257  1.00  0.00     0.048 A 
ATOM     26  C   UNL A   1      31.188  26.121  26.559  1.00  0.00     0.011 A 
ATOM     27  C   UNL A   1      32.271  28.866  22.112  1.00  0.00     0.149 C 
ATOM     28  C   UNL A   1      33.938  26.176  24.296  1.00  0.00     0.027 A 
ATOM     29  C   UNL A   1      32.260  24.468  26.521  1.00  0.00     0.001 A 
ATOM     30  C   UNL A   1      33.851  24.463  25.258  1.00  0.00     0.002 A 
ENDBRANCH  20  21
ENDBRANCH   8  13
ENDBRANCH   5   8
ENDBRANCH   3   4
ENDBRANCH   2   3
ENDBRANCH   1   2
BRANCH   1  31
ATOM     31  C   UNL A   1      40.478  26.632  28.201  1.00  0.00     0.002 C 
BRANCH  31  32
ATOM     32  C   UNL A   1      39.650  25.408  27.807  1.00  0.00     0.021 C 
BRANCH  32  33
ATOM     33  C   UNL A   1      39.972  24.874  26.419  1.00  0.00     0.116 C 
BRANCH  33  34
ATOM     34  N   UNL A   1      40.668  23.601  26.485  1.00  0.00    -0.352 N 
ATOM     35  C   UNL A   1      42.009  23.357  26.347  1.00  0.00     0.251 C 
ATOM     36  H   UNL A   1      40.104  22.812  26.649  1.00  0.00     0.163 HD
ATOM     37  O   UNL A   1      42.425  22.214  26.190  1.00  0.00    -0.269 OA
BRANCH  35  38
ATOM     38  C   UNL A   1      42.949  24.495  26.377  1.00  0.00     0.039 A 
ATOM     39  C   UNL A   1      43.516  24.872  27.595  1.00  0.00     0.014 A 
ATOM     40  C   UNL A   1      43.269  25.182  25.202  1.00  0.00     0.014 A 
ATOM     41  C   UNL A   1      44.430  25.924  27.627  1.00  0.00     0.010 A 
ATOM     42  C   UNL A   1      44.248  26.167  25.222  1.00  0.00     0.010 A 
ATOM     43  C   UNL A   1      44.819  26.566  26.439  1.00  0.00    -0.014 A 
BRANCH  43  44
ATOM     44  C   UNL A   1      45.780  27.697  26.461  1.00  0.00     0.031 A 
ATOM     45  C   UNL A   1      47.259  27.420  26.399  1.00  0.00     0.074 A 
ATOM     46  C   UNL A   1      45.329  28.962  26.564  1.00  0.00     0.049 A 
ATOM     47  N   UNL A   1      48.261  28.260  26.458  1.00  0.00    -0.248 NA
ATOM     48  C   UNL A   1      47.668  26.010  26.279  1.00  0.00     0.031 C 
ATOM     49  C   UNL A   1      43.923  29.355  26.671  1.00  0.00     0.029 A 
ATOM     50  N   UNL A   1      46.010  30.152  26.600  1.00  0.00    -0.354 N 
ATOM     51  C   UNL A   1      49.410  27.483  26.379  1.00  0.00     0.074 A 
ATOM     52  C   UNL A   1      48.987  26.101  26.349  1.00  0.00     0.031 C 
ATOM     53  C   UNL A   1      43.844  30.694  26.737  1.00  0.00     0.029 A 
ATOM     54  C   UNL A   1      45.193  31.252  26.719  1.00  0.00     0.049 A 
ATOM     55  H   UNL A   1      46.990  30.214  26.544  1.00  0.00     0.167 HD
ATOM     56  C   UNL A   1      50.700  27.883  26.299  1.00  0.00     0.037 A 
ATOM     57  C   UNL A   1      45.501  32.559  26.816  1.00  0.00     0.037 A 
ATOM     58  C   UNL A   1      51.119  29.260  26.317  1.00  0.00     0.049 A 
ATOM     59  C   UNL A   1      46.948  32.972  26.762  1.00  0.00     0.074 A 
ATOM     60  C   UNL A   1      52.401  29.771  26.231  1.00  0.00     0.029 A 
ATOM     61  N   UNL A   1      50.261  30.343  26.424  1.00  0.00    -0.354 N 
ATOM     62  N   UNL A   1      48.021  32.228  26.641  1.00  0.00    -0.248 NA
ATOM     63  C   UNL A   1      47.227  34.414  26.842  1.00  0.00     0.031 C 
ATOM     64  C   UNL A   1      52.323  31.164  26.331  1.00  0.00     0.029 A 
ATOM     65  C   UNL A   1      50.987  31.522  26.413  1.00  0.00     0.049 A 
ATOM     66  H   UNL A   1      49.280  30.284  26.497  1.00  0.00     0.167 HD
ATOM     67  C   UNL A   1      49.093  33.110  26.583  1.00  0.00     0.074 A 
ATOM     68  C   UNL A   1      48.539  34.445  26.668  1.00  0.00     0.031 C 
ATOM     69  C   UNL A   1      50.417  32.843  26.470  1.00  0.00     0.037 A 
BRANCH  56  70
ATOM     70  C   UNL A   1      51.751  26.820  26.161  1.00  0.00     0.057 A 
ATOM     71  C   UNL A   1      52.098  26.290  24.910  1.00  0.00     0.134 A 
ATOM     72  C   UNL A   1      52.461  26.357  27.276  1.00  0.00     0.134 A 
ATOM     73  F   UNL A   1      51.449  26.678  23.802  1.00  0.00    -0.206 F 
ATOM     74  C   UNL A   1      53.098  25.325  24.777  1.00  0.00     0.040 A 
ATOM     75  C   UNL A   1      53.483  25.416  27.152  1.00  0.00     0.040 A 
ATOM     76  F   UNL A   1      52.182  26.825  28.503  1.00  0.00    -0.206 F 
ATOM     77  C   UNL A   1      53.802  24.893  25.899  1.00  0.00     0.006 A 
ENDBRANCH  56  70
BRANCH  57  78
ATOM     78  C   UNL A   1      44.431  33.578  26.974  1.00  0.00     0.057 A 
ATOM     79  C   UNL A   1      43.859  34.214  25.865  1.00  0.00     0.134 A 
ATOM     80  C   UNL A   1      43.995  33.986  28.241  1.00  0.00     0.134 A 
ATOM     81  F   UNL A   1      44.243  33.881  24.624  1.00  0.00    -0.206 F 
ATOM     82  C   UNL A   1      42.933  35.249  26.009  1.00  0.00     0.040 A 
ATOM     83  C   UNL A   1      43.044  34.994  28.400  1.00  0.00     0.040 A 
ATOM     84  F   UNL A   1      44.490  33.409  29.347  1.00  0.00    -0.206 F 
ATOM     85  C   UNL A   1      42.523  35.641  27.282  1.00  0.00     0.006 A 
ENDBRANCH  57  78
BRANCH  69  86
ATOM     86  C   UNL A   1      51.349  34.015  26.350  1.00  0.00     0.057 A 
ATOM     87  C   UNL A   1      51.766  34.520  25.111  1.00  0.00     0.134 A 
ATOM     88  C   UNL A   1      51.817  34.664  27.501  1.00  0.00     0.134 A 
ATOM     89  F   UNL A   1      51.363  33.939  23.970  1.00  0.00    -0.206 F 
ATOM     90  C   UNL A   1      52.643  35.602  25.022  1.00  0.00     0.040 A 
ATOM     91  C   UNL A   1      52.665  35.770  27.423  1.00  0.00     0.040 A 
ATOM     92  F   UNL A   1      51.447  34.244  28.720  1.00  0.00    -0.206 F 
ATOM     93  C   UNL A   1      53.089  36.234  26.181  1.00  0.00     0.006 A 
ENDBRANCH  69  86
ENDBRANCH  43  44
ENDBRANCH  35  38
ENDBRANCH  33  34
ENDBRANCH  32  33
ENDBRANCH  31  32
ENDBRANCH   1  31
TORSDOF 18
ENDMDL
MODEL 2
REMARK VINA RESULT:      -9.6      0.532      5.930
REMARK SMILES CSCC[C@H](C(=O)NCCCCCCNC(=O)c1ccc(-c2c3nc(c(-c4c(F)cccc4F)c4ccc([nH]4)c(-c4c(F)cccc4F)c4nc(c(-c5c(F)cccc5F)c5ccc2[nH]5)C=C4)C=C3)cc1)N1C(=O)/C(=C/c2cn(C)c3ccccc23)SC1=S
REMARK SMILES IDX 11 1 10 2 9 3 8 4 6 5 7 6 5 8 4 9 3 10 2 11 1 12 72 13 73 14
REMARK SMILES IDX 88 15 74 16 75 17 87 18 89 19 76 20 77 21 78 22 86 23 79 24
REMARK SMILES IDX 81 25 85 26 80 27 82 28 84 29 83 30 12 31 13 32 14 33 15 34
REMARK SMILES IDX 16 35 17 37 18 38 19 39 71 40 20 41 70 42 21 43 22 44 23 45
REMARK SMILES IDX 64 46 24 47 69 48 63 49 65 50 25 51 68 52 62 53 61 54 26 56
REMARK SMILES IDX 52 57 35 58 51 59 36 60 39 61 50 62 66 63 37 64 38 65 49 67
REMARK SMILES IDX 67 68 40 69 27 70 28 71 33 72 29 73 30 74 32 75 34 76 31 77
REMARK SMILES IDX 53 78 54 79 59 80 55 81 56 82 58 83 60 84 57 85 41 86 42 87
REMARK SMILES IDX 47 88 43 89 44 90 46 91 48 92 45 93
REMARK H PARENT 8 7 15 36 65 55 39 66
REMARK Flexibility Score: inf
ROOT
ATOM      1  C   UNL A   1      40.062  28.100  27.128  1.00  0.00     0.002 C 
ENDROOT
BRANCH   1   2
ATOM      2  C   UNL A   1      39.398  29.461  27.372  1.00  0.00     0.021 C 
BRANCH   2   3
ATOM      3  C   UNL A   1      39.239  29.815  28.851  1.00  0.00     0.116 C 
BRANCH   3   4
ATOM      4  N   UNL A   1      38.539  31.068  29.005  1.00  0.00    -0.354 N 
ATOM      5  C   UNL A   1      37.223  31.334  28.777  1.00  0.00     0.243 C 
ATOM      6  O   UNL A   1      36.900  32.508  28.569  1.00  0.00    -0.273 OA
ATOM      7  H   UNL A   1      39.082  31.828  29.315  1.00  0.00     0.163 HD
BRANCH   5   8
ATOM      8  C   UNL A   1      36.169  30.176  28.886  1.00  0.00     0.182 C 
BRANCH   8   9
ATOM      9  C   UNL A   1      36.303  29.913  30.474  1.00  0.00     0.046 C 
BRANCH   9  10
ATOM     10  C   UNL A   1      35.982  30.968  31.543  1.00  0.00     0.072 C 
BRANCH  10  11
ATOM     11  S   UNL A   1      37.152  31.115  32.945  1.00  0.00    -0.165 SA
ATOM     12  C   UNL A   1      38.330  32.343  32.348  1.00  0.00     0.085 C 
ENDBRANCH  10  11
ENDBRANCH   9  10
ENDBRANCH   8   9
BRANCH   8  13
ATOM     13  N   UNL A   1      34.586  30.410  28.053  1.00  0.00    -0.280 N 
ATOM     14  C   UNL A   1      34.470  29.273  27.455  1.00  0.00     0.266 C 
ATOM     15  C   UNL A   1      33.514  32.115  27.899  1.00  0.00     0.149 C 
ATOM     16  O   UNL A   1      35.038  28.254  27.194  1.00  0.00    -0.268 OA
ATOM     17  C   UNL A   1      33.248  29.804  27.210  1.00  0.00     0.081 C 
ATOM     18  S   UNL A   1      32.269  32.091  27.096  1.00  0.00    -0.054 SA
ATOM     19  S   UNL A   1      33.672  34.009  28.432  1.00  0.00    -0.052 S 
ATOM     20  C   UNL A   1      32.660  28.716  26.473  1.00  0.00     0.031 C 
BRANCH  20  21
ATOM     21  C   UNL A   1      31.561  29.192  25.758  1.00  0.00     0.001 A 
ATOM     22  C   UNL A   1      31.665  29.739  24.466  1.00  0.00     0.094 A 
ATOM     23  C   UNL A   1      31.261  27.834  25.542  1.00  0.00     0.007 A 
ATOM     24  N   UNL A   1      32.432  28.938  23.594  1.00  0.00    -0.350 N 
ATOM     25  C   UNL A   1      32.808  27.804  24.301  1.00  0.00     0.048 A 
ATOM     26  C   UNL A   1      31.303  26.164  26.640  1.00  0.00     0.011 A 
ATOM     27  C   UNL A   1      32.237  28.902  22.156  1.00  0.00     0.149 C 
ATOM     28  C   UNL A   1      34.015  26.280  24.335  1.00  0.00     0.027 A 
ATOM     29  C   UNL A   1      32.422  24.542  26.598  1.00  0.00     0.001 A 
ATOM     30  C   UNL A   1      33.993  24.573  25.311  1.00  0.00     0.002 A 
ENDBRANCH  20  21
ENDBRANCH   8  13
ENDBRANCH   5   8
ENDBRANCH   3   4
ENDBRANCH   2   3
ENDBRANCH   1   2
BRANCH   1  31
ATOM     31  C   UNL A   1      40.287  27.281  28.400  1.00  0.00     0.002 C 
BRANCH  31  32
ATOM     32  C   UNL A   1      39.853  25.820  28.281  1.00  0.00     0.021 C 
BRANCH  32  33
ATOM     33  C   UNL A   1      39.902  25.282  26.858  1.00  0.00     0.116 C 
BRANCH  33  34
ATOM     34  N   UNL A   1      40.463  23.944  26.812  1.00  0.00    -0.352 N 
ATOM     35  C   UNL A   1      41.752  23.570  26.538  1.00  0.00     0.251 C 
ATOM     36  H   UNL A   1      39.835  23.209  27.001  1.00  0.00     0.163 HD
ATOM     37  O   UNL A   1      42.028  22.399  26.301  1.00  0.00    -0.269 OA
BRANCH  35  38
ATOM     38  C   UNL A   1      42.806  24.604  26.519  1.00  0.00     0.039 A 
ATOM     39  C   UNL A   1      43.149  25.197  25.304  1.00  0.00     0.014 A 
ATOM     40  C   UNL A   1      43.448  24.984  27.702  1.00  0.00     0.014 A 
ATOM     41  C   UNL A   1      44.120  26.198  25.281  1.00  0.00     0.010 A 
ATOM     42  C   UNL A   1      44.347  26.044  27.690  1.00  0.00     0.010 A 
ATOM     43  C   UNL A   1      44.711  26.643  26.476  1.00  0.00    -0.014 A 
BRANCH  43  44
ATOM     44  C   UNL A   1      45.756  27.697  26.465  1.00  0.00     0.031 A 
ATOM     45  C   UNL A   1      45.358  29.143  26.601  1.00  0.00     0.074 A 
ATOM     46  C   UNL A   1      47.050  27.360  26.306  1.00  0.00     0.049 A 
ATOM     47  N   UNL A   1      46.109  30.215  26.563  1.00  0.00    -0.248 NA
ATOM     48  C   UNL A   1      43.923  29.425  26.781  1.00  0.00     0.031 C 
ATOM     49  C   UNL A   1      47.557  25.998  26.124  1.00  0.00     0.029 A 
ATOM     50  N   UNL A   1      48.177  28.141  26.267  1.00  0.00    -0.354 N 
ATOM     51  C   UNL A   1      45.241  31.289  26.716  1.00  0.00     0.074 A 
ATOM     52  C   UNL A   1      43.901  30.749  26.767  1.00  0.00     0.031 C 
ATOM     53  C   UNL A   1      48.894  26.037  26.017  1.00  0.00     0.029 A 
ATOM     54  C   UNL A   1      49.337  27.426  26.079  1.00  0.00     0.049 A 
ATOM     55  H   UNL A   1      48.159  29.120  26.365  1.00  0.00     0.167 HD
ATOM     56  C   UNL A   1      45.535  32.604  26.842  1.00  0.00     0.037 A 
ATOM     57  C   UNL A   1      50.610  27.848  25.958  1.00  0.00     0.037 A 
ATOM     58  C   UNL A   1      46.870  33.139  26.804  1.00  0.00     0.049 A 
ATOM     59  C   UNL A   1      50.902  29.322  26.065  1.00  0.00     0.074 A 
ATOM     60  C   UNL A   1      47.275  34.455  26.933  1.00  0.00     0.029 A 
ATOM     61  N   UNL A   1      48.018  32.381  26.627  1.00  0.00    -0.354 N 
ATOM     62  N   UNL A   1      50.075  30.321  26.255  1.00  0.00    -0.248 NA
ATOM     63  C   UNL A   1      52.312  29.725  25.957  1.00  0.00     0.031 C 
ATOM     64  C   UNL A   1      48.665  34.500  26.789  1.00  0.00     0.029 A 
ATOM     65  C   UNL A   1      49.131  33.204  26.637  1.00  0.00     0.049 A 
ATOM     66  H   UNL A   1      48.038  31.403  26.512  1.00  0.00     0.167 HD
ATOM     67  C   UNL A   1      50.866  31.461  26.336  1.00  0.00     0.074 A 
ATOM     68  C   UNL A   1      52.239  31.027  26.188  1.00  0.00     0.031 C 
ATOM     69  C   UNL A   1      50.492  32.751  26.517  1.00  0.00     0.037 A 
BRANCH  56  70
ATOM     70  C   UNL A   1      44.392  33.554  27.059  1.00  0.00     0.057 A 
ATOM     71  C   UNL A   1      43.911  33.843  28.343  1.00  0.00     0.134 A 
ATOM     72  C   UNL A   1      43.800  34.226  25.982  1.00  0.00     0.134 A 
ATOM     73  F   UNL A   1      44.423  33.224  29.417  1.00  0.00    -0.206 F 
ATOM     74  C   UNL A   1      42.871  34.751  28.547  1.00  0.00     0.040 A 
ATOM     75  C   UNL A   1      42.780  35.159  26.176  1.00  0.00     0.040 A 
ATOM     76  F   UNL A   1      44.214  34.000  24.726  1.00  0.00    -0.206 F 
ATOM     77  C   UNL A   1      42.309  35.421  27.462  1.00  0.00     0.006 A 
ENDBRANCH  56  70
BRANCH  57  78
ATOM     78  C   UNL A   1      51.710  26.876  25.723  1.00  0.00     0.057 A 
ATOM     79  C   UNL A   1      52.141  26.562  24.428  1.00  0.00     0.134 A 
ATOM     80  C   UNL A   1      52.317  26.193  26.784  1.00  0.00     0.134 A 
ATOM     81  F   UNL A   1      51.590  27.170  23.367  1.00  0.00    -0.206 F 
ATOM     82  C   UNL A   1      53.097  25.572  24.193  1.00  0.00     0.040 A 
ATOM     83  C   UNL A   1      53.300  25.226  26.566  1.00  0.00     0.040 A 
ATOM     84  F   UNL A   1      51.963  26.455  28.051  1.00  0.00    -0.206 F 
ATOM     85  C   UNL A   1      53.679  24.901  25.265  1.00  0.00     0.006 A 
ENDBRANCH  57  78
BRANCH  69  86
ATOM     86  C   UNL A   1      51.585  33.774  26.645  1.00  0.00     0.057 A 
ATOM     87  C   UNL A   1      52.094  34.472  25.541  1.00  0.00     0.134 A 
ATOM     88  C   UNL A   1      52.117  34.083  27.904  1.00  0.00     0.134 A 
ATOM     89  F   UNL A   1      51.635  34.219  24.306  1.00  0.00    -0.206 F 
ATOM     90  C   UNL A   1      53.119  35.410  25.680  1.00  0.00     0.040 A 
ATOM     91  C   UNL A   1      53.116  35.045  28.060  1.00  0.00     0.040 A 
ATOM     92  F   UNL A   1      51.667  33.464  29.006  1.00  0.00    -0.206 F 
ATOM     93  C   UNL A   1      53.628  35.703  26.944  1.00  0.00     0.006 A 
ENDBRANCH  69  86
ENDBRANCH  43  44
ENDBRANCH  35  38
ENDBRANCH  33  34
ENDBRANCH  32  33
ENDBRANCH  31  32
ENDBRANCH   1  31
TORSDOF 18
ENDMDL
MODEL 3
REMARK VINA RESULT:      -9.5      6.894      9.886
REMARK SMILES CSCC[C@H](C(=O)NCCCCCCNC(=O)c1ccc(-c2c3nc(c(-c4c(F)cccc4F)c4ccc([nH]4)c(-c4c(F)cccc4F)c4nc(c(-c5c(F)cccc5F)c5ccc2[nH]5)C=C4)C=C3)cc1)N1C(=O)/C(=C/c2cn(C)c3ccccc23)SC1=S
REMARK SMILES IDX 11 1 10 2 9 3 8 4 6 5 7 6 5 8 4 9 3 10 2 11 1 12 72 13 73 14
REMARK SMILES IDX 88 15 74 16 75 17 87 18 89 19 76 20 77 21 78 22 86 23 79 24
REMARK SMILES IDX 81 25 85 26 80 27 82 28 84 29 83 30 12 31 13 32 14 33 15 34
REMARK SMILES IDX 16 35 17 37 18 38 19 39 71 40 20 41 70 42 21 43 22 44 23 45
REMARK SMILES IDX 64 46 24 47 69 48 63 49 65 50 25 51 68 52 62 53 61 54 26 56
REMARK SMILES IDX 52 57 35 58 51 59 36 60 39 61 50 62 66 63 37 64 38 65 49 67
REMARK SMILES IDX 67 68 40 69 27 70 28 71 33 72 29 73 30 74 32 75 34 76 31 77
REMARK SMILES IDX 53 78 54 79 59 80 55 81 56 82 58 83 60 84 57 85 41 86 42 87
REMARK SMILES IDX 47 88 43 89 44 90 46 91 48 92 45 93
REMARK H PARENT 8 7 15 36 65 55 39 66
REMARK Flexibility Score: inf
ROOT
ATOM      1  C   UNL A   1      37.322  23.223  25.839  1.00  0.00     0.002 C 
ENDROOT
BRANCH   1   2
ATOM      2  C   UNL A   1      37.363  21.824  25.211  1.00  0.00     0.021 C 
BRANCH   2   3
ATOM      3  C   UNL A   1      35.983  21.209  24.981  1.00  0.00     0.116 C 
BRANCH   3   4
ATOM      4  N   UNL A   1      35.279  21.048  26.231  1.00  0.00    -0.354 N 
ATOM      5  C   UNL A   1      34.126  21.651  26.635  1.00  0.00     0.243 C 
ATOM      6  O   UNL A   1      33.902  21.711  27.848  1.00  0.00    -0.273 OA
ATOM      7  H   UNL A   1      35.684  20.423  26.875  1.00  0.00     0.163 HD
BRANCH   5   8
ATOM      8  C   UNL A   1      33.095  22.148  25.561  1.00  0.00     0.182 C 
BRANCH   8   9
ATOM      9  C   UNL A   1      32.511  20.702  25.141  1.00  0.00     0.046 C 
BRANCH   9  10
ATOM     10  C   UNL A   1      32.588  20.133  23.717  1.00  0.00     0.072 C 
BRANCH  10  11
ATOM     11  S   UNL A   1      32.544  18.309  23.546  1.00  0.00    -0.165 SA
ATOM     12  C   UNL A   1      32.568  17.751  25.261  1.00  0.00     0.085 C 
ENDBRANCH  10  11
ENDBRANCH   9  10
ENDBRANCH   8   9
BRANCH   8  13
ATOM     13  N   UNL A   1      32.046  23.548  25.999  1.00  0.00    -0.280 N 
ATOM     14  C   UNL A   1      32.901  24.510  25.920  1.00  0.00     0.266 C 
ATOM     15  C   UNL A   1      30.153  23.498  26.705  1.00  0.00     0.149 C 
ATOM     16  O   UNL A   1      34.060  24.766  25.778  1.00  0.00    -0.268 OA
ATOM     17  C   UNL A   1      31.756  25.214  26.096  1.00  0.00     0.081 C 
ATOM     18  S   UNL A   1      29.507  24.780  27.073  1.00  0.00    -0.054 SA
ATOM     19  S   UNL A   1      28.807  22.149  27.217  1.00  0.00    -0.052 S 
ATOM     20  C   UNL A   1      32.290  26.550  26.046  1.00  0.00     0.031 C 
BRANCH  20  21
ATOM     21  C   UNL A   1      31.370  27.429  26.618  1.00  0.00     0.001 A 
ATOM     22  C   UNL A   1      31.749  28.591  27.313  1.00  0.00     0.094 A 
ATOM     23  C   UNL A   1      31.144  27.865  25.299  1.00  0.00     0.007 A 
ATOM     24  N   UNL A   1      32.701  29.361  26.611  1.00  0.00    -0.350 N 
ATOM     25  C   UNL A   1      32.927  28.728  25.397  1.00  0.00     0.048 A 
ATOM     26  C   UNL A   1      30.965  26.992  23.509  1.00  0.00     0.011 A 
ATOM     27  C   UNL A   1      32.829  30.800  26.750  1.00  0.00     0.149 C 
ATOM     28  C   UNL A   1      34.118  28.610  23.864  1.00  0.00     0.027 A 
ATOM     29  C   UNL A   1      32.088  26.978  21.890  1.00  0.00     0.001 A 
ATOM     30  C   UNL A   1      33.903  27.873  22.054  1.00  0.00     0.002 A 
ENDBRANCH  20  21
ENDBRANCH   8  13
ENDBRANCH   5   8
ENDBRANCH   3   4
ENDBRANCH   2   3
ENDBRANCH   1   2
BRANCH   1  31
ATOM     31  C   UNL A   1      38.638  23.650  26.490  1.00  0.00     0.002 C 
BRANCH  31  32
ATOM     32  C   UNL A   1      39.735  22.587  26.426  1.00  0.00     0.021 C 
BRANCH  32  33
ATOM     33  C   UNL A   1      41.084  23.070  26.940  1.00  0.00     0.116 C 
BRANCH  33  34
ATOM     34  N   UNL A   1      41.864  23.695  25.887  1.00  0.00    -0.352 N 
ATOM     35  C   UNL A   1      42.147  25.024  25.713  1.00  0.00     0.251 C 
ATOM     36  H   UNL A   1      42.238  23.086  25.211  1.00  0.00     0.163 HD
ATOM     37  O   UNL A   1      42.614  25.432  24.655  1.00  0.00    -0.269 OA
BRANCH  35  38
ATOM     38  C   UNL A   1      41.867  25.964  26.817  1.00  0.00     0.039 A 
ATOM     39  C   UNL A   1      41.139  25.515  27.919  1.00  0.00     0.014 A 
ATOM     40  C   UNL A   1      42.328  27.283  26.758  1.00  0.00     0.014 A 
ATOM     41  C   UNL A   1      40.899  26.387  28.980  1.00  0.00     0.010 A 
ATOM     42  C   UNL A   1      42.167  28.120  27.856  1.00  0.00     0.010 A 
ATOM     43  C   UNL A   1      41.428  27.689  28.966  1.00  0.00    -0.014 A 
BRANCH  43  44
ATOM     44  C   UNL A   1      41.168  28.631  30.083  1.00  0.00     0.031 A 
ATOM     45  C   UNL A   1      42.011  28.563  31.329  1.00  0.00     0.074 A 
ATOM     46  C   UNL A   1      40.164  29.524  29.990  1.00  0.00     0.049 A 
ATOM     47  N   UNL A   1      41.913  29.257  32.434  1.00  0.00    -0.248 NA
ATOM     48  C   UNL A   1      43.094  27.564  31.346  1.00  0.00     0.031 C 
ATOM     49  C   UNL A   1      39.253  29.662  28.852  1.00  0.00     0.029 A 
ATOM     50  N   UNL A   1      39.739  30.484  30.873  1.00  0.00    -0.354 N 
ATOM     51  C   UNL A   1      42.917  28.783  33.268  1.00  0.00     0.074 A 
ATOM     52  C   UNL A   1      43.562  27.690  32.579  1.00  0.00     0.031 C 
ATOM     53  C   UNL A   1      38.392  30.663  29.095  1.00  0.00     0.029 A 
ATOM     54  C   UNL A   1      38.662  31.210  30.422  1.00  0.00     0.049 A 
ATOM     55  H   UNL A   1      40.164  30.640  31.746  1.00  0.00     0.167 HD
ATOM     56  C   UNL A   1      43.296  29.242  34.484  1.00  0.00     0.037 A 
ATOM     57  C   UNL A   1      37.965  32.196  31.017  1.00  0.00     0.037 A 
ATOM     58  C   UNL A   1      42.660  30.339  35.165  1.00  0.00     0.049 A 
ATOM     59  C   UNL A   1      38.385  32.660  32.387  1.00  0.00     0.074 A 
ATOM     60  C   UNL A   1      42.974  30.888  36.395  1.00  0.00     0.029 A 
ATOM     61  N   UNL A   1      41.583  31.058  34.668  1.00  0.00    -0.354 N 
ATOM     62  N   UNL A   1      39.366  32.232  33.145  1.00  0.00    -0.248 NA
ATOM     63  C   UNL A   1      37.609  33.760  32.980  1.00  0.00     0.031 C 
ATOM     64  C   UNL A   1      42.059  31.910  36.664  1.00  0.00     0.029 A 
ATOM     65  C   UNL A   1      41.216  32.040  35.572  1.00  0.00     0.049 A 
ATOM     66  H   UNL A   1      41.144  30.893  33.802  1.00  0.00     0.167 HD
ATOM     67  C   UNL A   1      39.354  33.038  34.277  1.00  0.00     0.074 A 
ATOM     68  C   UNL A   1      38.277  33.989  34.100  1.00  0.00     0.031 C 
ATOM     69  C   UNL A   1      40.160  32.997  35.366  1.00  0.00     0.037 A 
BRANCH  56  70
ATOM     70  C   UNL A   1      44.466  28.573  35.146  1.00  0.00     0.057 A 
ATOM     71  C   UNL A   1      44.298  27.461  35.984  1.00  0.00     0.134 A 
ATOM     72  C   UNL A   1      45.775  29.007  34.905  1.00  0.00     0.134 A 
ATOM     73  F   UNL A   1      43.070  27.003  36.269  1.00  0.00    -0.206 F 
ATOM     74  C   UNL A   1      45.388  26.819  36.573  1.00  0.00     0.040 A 
ATOM     75  C   UNL A   1      46.874  28.353  35.463  1.00  0.00     0.040 A 
ATOM     76  F   UNL A   1      46.008  30.063  34.110  1.00  0.00    -0.206 F 
ATOM     77  C   UNL A   1      46.682  27.258  36.304  1.00  0.00     0.006 A 
ENDBRANCH  56  70
BRANCH  57  78
ATOM     78  C   UNL A   1      36.798  32.817  30.336  1.00  0.00     0.057 A 
ATOM     79  C   UNL A   1      35.488  32.416  30.623  1.00  0.00     0.134 A 
ATOM     80  C   UNL A   1      36.969  33.784  29.338  1.00  0.00     0.134 A 
ATOM     81  F   UNL A   1      35.257  31.482  31.558  1.00  0.00    -0.206 F 
ATOM     82  C   UNL A   1      34.395  32.915  29.912  1.00  0.00     0.040 A 
ATOM     83  C   UNL A   1      35.883  34.319  28.643  1.00  0.00     0.040 A 
ATOM     84  F   UNL A   1      38.195  34.225  29.023  1.00  0.00    -0.206 F 
ATOM     85  C   UNL A   1      34.592  33.871  28.918  1.00  0.00     0.006 A 
ENDBRANCH  57  78
BRANCH  69  86
ATOM     86  C   UNL A   1      39.961  34.057  36.412  1.00  0.00     0.057 A 
ATOM     87  C   UNL A   1      39.007  33.937  37.431  1.00  0.00     0.134 A 
ATOM     88  C   UNL A   1      40.761  35.208  36.409  1.00  0.00     0.134 A 
ATOM     89  F   UNL A   1      38.203  32.865  37.487  1.00  0.00    -0.206 F 
ATOM     90  C   UNL A   1      38.830  34.940  38.386  1.00  0.00     0.040 A 
ATOM     91  C   UNL A   1      40.617  36.200  37.380  1.00  0.00     0.040 A 
ATOM     92  F   UNL A   1      41.704  35.382  35.471  1.00  0.00    -0.206 F 
ATOM     93  C   UNL A   1      39.642  36.073  38.365  1.00  0.00     0.006 A 
ENDBRANCH  69  86
ENDBRANCH  43  44
ENDBRANCH  35  38
ENDBRANCH  33  34
ENDBRANCH  32  33
ENDBRANCH  31  32
ENDBRANCH   1  31
TORSDOF 18
ENDMDL
