MODEL 1
REMARK VINA RESULT:     -10.7      0.000      0.000
REMARK SMILES CC(C)C[C@H](NC(=O)[C@H](Cc1ccccc1)NC(=O)CNC(=O)C[NH3+])C(=O)NCCCCCCNC(=O)c1ccc(-c2c3nc(c(-c4c(F)cccc4F)c4ccc([nH]4)c(-c4c(F)cccc4F)c4nc(c(-c5c(F)cccc5F)c5ccc2[nH]5)C=C4)C=C3)cc1
REMARK SMILES IDX 29 1 28 2 26 3 27 4 5 6 4 7 2 8 1 9 3 10 6 11 7 12 8 14 9 15
REMARK SMILES IDX 17 16 18 17 19 19 20 20 21 21 22 22 23 24 24 25 25 26 10 30
REMARK SMILES IDX 11 31 12 32 16 33 13 34 15 35 14 36 30 37 31 38 32 39 33 40
REMARK SMILES IDX 34 41 35 42 36 43 37 45 38 46 39 47 91 48 40 49 90 50 41 51
REMARK SMILES IDX 42 52 43 53 84 54 44 55 89 56 83 57 85 58 45 59 88 60 82 61
REMARK SMILES IDX 81 62 46 64 72 65 55 66 71 67 56 68 59 69 70 70 86 71 57 72
REMARK SMILES IDX 58 73 69 75 87 76 60 77 47 78 48 79 53 80 49 81 50 82 52 83
REMARK SMILES IDX 54 84 51 85 73 86 74 87 79 88 75 89 76 90 78 91 80 92 77 93
REMARK SMILES IDX 61 94 62 95 67 96 63 97 64 98 66 99 68 100 65 101
REMARK H PARENT 28 5 6 13 17 18 21 23 25 27 25 28 25 29 35 44 85 63 59 74
REMARK Flexibility Score: inf
ROOT
ATOM      1  C   UNL A   1      36.316  23.958  25.266  1.00  0.00     0.116 C 
ENDROOT
BRANCH   1   2
ATOM      2  N   UNL A   1      35.850  23.332  26.493  1.00  0.00    -0.354 N 
ATOM      3  C   UNL A   1      34.578  23.122  26.943  1.00  0.00     0.242 C 
ATOM      4  O   UNL A   1      34.436  22.499  27.998  1.00  0.00    -0.273 OA
ATOM      5  H   UNL A   1      36.562  23.010  27.091  1.00  0.00     0.163 HD
BRANCH   3   6
ATOM      6  C   UNL A   1      33.362  23.557  26.099  1.00  0.00     0.171 C 
BRANCH   6   7
ATOM      7  C   UNL A   1      32.773  24.835  26.669  1.00  0.00     0.038 C 
BRANCH   7   8
ATOM      8  C   UNL A   1      31.825  25.725  25.847  1.00  0.00    -0.015 C 
ATOM      9  C   UNL A   1      30.384  25.227  25.913  1.00  0.00     0.007 C 
ATOM     10  C   UNL A   1      31.900  27.154  26.404  1.00  0.00     0.007 C 
ENDBRANCH   7   8
ENDBRANCH   6   7
BRANCH   6  11
ATOM     11  N   UNL A   1      32.418  22.412  26.016  1.00  0.00    -0.343 N 
ATOM     12  C   UNL A   1      32.064  21.419  25.162  1.00  0.00     0.243 C 
ATOM     13  H   UNL A   1      31.880  22.357  26.838  1.00  0.00     0.164 HD
ATOM     14  O   UNL A   1      31.290  20.593  25.675  1.00  0.00    -0.273 OA
BRANCH  12  15
ATOM     15  C   UNL A   1      32.344  21.317  23.626  1.00  0.00     0.175 C 
BRANCH  15  16
ATOM     16  N   UNL A   1      32.154  20.041  22.947  1.00  0.00    -0.342 N 
ATOM     17  C   UNL A   1      32.852  18.868  23.116  1.00  0.00     0.240 C 
ATOM     18  H   UNL A   1      31.431  20.015  22.278  1.00  0.00     0.164 HD
ATOM     19  O   UNL A   1      32.758  18.011  22.232  1.00  0.00    -0.273 OA
BRANCH  17  20
ATOM     20  C   UNL A   1      33.700  18.590  24.388  1.00  0.00     0.216 C 
BRANCH  20  21
ATOM     21  N   UNL A   1      34.406  17.329  24.435  1.00  0.00    -0.342 N 
ATOM     22  C   UNL A   1      34.025  16.175  25.062  1.00  0.00     0.275 C 
ATOM     23  H   UNL A   1      35.265  17.297  23.955  1.00  0.00     0.164 HD
ATOM     24  O   UNL A   1      34.869  15.294  25.237  1.00  0.00    -0.268 OA
BRANCH  22  25
ATOM     25  C   UNL A   1      32.569  15.977  25.500  1.00  0.00     0.360 C 
BRANCH  25  26
ATOM     26  N   UNL A   1      32.148  14.570  25.431  1.00  0.00    -0.350 N 
ATOM     27  H   UNL A   1      32.963  13.979  25.265  1.00  0.00     0.344 HD
ATOM     28  H   UNL A   1      31.481  14.451  24.668  1.00  0.00     0.344 HD
ATOM     29  H   UNL A   1      31.707  14.303  26.312  1.00  0.00     0.344 HD
ENDBRANCH  25  26
ENDBRANCH  22  25
ENDBRANCH  20  21
ENDBRANCH  17  20
ENDBRANCH  15  16
BRANCH  15  30
ATOM     30  C   UNL A   1      31.542  22.474  22.909  1.00  0.00     0.070 C 
BRANCH  30  31
ATOM     31  C   UNL A   1      32.220  23.821  22.703  1.00  0.00    -0.045 A 
ATOM     32  C   UNL A   1      33.609  23.957  22.773  1.00  0.00     0.004 A 
ATOM     33  C   UNL A   1      31.491  24.971  22.409  1.00  0.00     0.004 A 
ATOM     34  C   UNL A   1      34.209  25.222  22.675  1.00  0.00     0.000 A 
ATOM     35  C   UNL A   1      32.061  26.240  22.375  1.00  0.00     0.000 A 
ATOM     36  C   UNL A   1      33.431  26.368  22.520  1.00  0.00     0.000 A 
ENDBRANCH  30  31
ENDBRANCH  15  30
ENDBRANCH  12  15
ENDBRANCH   6  11
ENDBRANCH   3   6
ENDBRANCH   1   2
BRANCH   1  37
ATOM     37  C   UNL A   1      36.976  22.938  24.345  1.00  0.00     0.021 C 
BRANCH  37  38
ATOM     38  C   UNL A   1      37.744  21.836  25.084  1.00  0.00     0.002 C 
BRANCH  38  39
ATOM     39  C   UNL A   1      37.286  20.409  24.770  1.00  0.00     0.002 C 
BRANCH  39  40
ATOM     40  C   UNL A   1      38.285  19.314  25.147  1.00  0.00     0.021 C 
BRANCH  40  41
ATOM     41  C   UNL A   1      39.488  19.801  25.949  1.00  0.00     0.116 C 
BRANCH  41  42
ATOM     42  N   UNL A   1      40.582  18.842  25.943  1.00  0.00    -0.352 N 
ATOM     43  C   UNL A   1      41.926  19.070  26.073  1.00  0.00     0.251 C 
ATOM     44  H   UNL A   1      40.320  17.900  25.832  1.00  0.00     0.163 HD
ATOM     45  O   UNL A   1      42.734  18.165  25.871  1.00  0.00    -0.269 OA
BRANCH  43  46
ATOM     46  C   UNL A   1      42.403  20.420  26.430  1.00  0.00     0.039 A 
ATOM     47  C   UNL A   1      42.870  21.261  25.419  1.00  0.00     0.014 A 
ATOM     48  C   UNL A   1      42.372  20.857  27.757  1.00  0.00     0.014 A 
ATOM     49  C   UNL A   1      43.253  22.566  25.733  1.00  0.00     0.010 A 
ATOM     50  C   UNL A   1      42.679  22.181  28.056  1.00  0.00     0.010 A 
ATOM     51  C   UNL A   1      43.128  23.046  27.046  1.00  0.00    -0.014 A 
BRANCH  51  52
ATOM     52  C   UNL A   1      43.463  24.452  27.383  1.00  0.00     0.031 A 
ATOM     53  C   UNL A   1      44.893  24.914  27.361  1.00  0.00     0.074 A 
ATOM     54  C   UNL A   1      42.485  25.296  27.767  1.00  0.00     0.049 A 
ATOM     55  N   UNL A   1      45.389  26.082  27.677  1.00  0.00    -0.248 NA
ATOM     56  C   UNL A   1      45.903  23.923  26.956  1.00  0.00     0.031 C 
ATOM     57  C   UNL A   1      41.065  24.953  27.873  1.00  0.00     0.029 A 
ATOM     58  N   UNL A   1      42.537  26.613  28.146  1.00  0.00    -0.354 N 
ATOM     59  C   UNL A   1      46.765  25.964  27.521  1.00  0.00     0.074 A 
ATOM     60  C   UNL A   1      47.031  24.594  27.139  1.00  0.00     0.031 C 
ATOM     61  C   UNL A   1      40.379  26.038  28.266  1.00  0.00     0.029 A 
ATOM     62  C   UNL A   1      41.312  27.140  28.480  1.00  0.00     0.049 A 
ATOM     63  H   UNL A   1      43.373  27.132  28.177  1.00  0.00     0.167 HD
ATOM     64  C   UNL A   1      47.718  26.916  27.663  1.00  0.00     0.037 A 
ATOM     65  C   UNL A   1      40.981  28.370  28.916  1.00  0.00     0.037 A 
ATOM     66  C   UNL A   1      47.445  28.283  28.023  1.00  0.00     0.049 A 
ATOM     67  C   UNL A   1      42.061  29.404  29.080  1.00  0.00     0.074 A 
ATOM     68  C   UNL A   1      48.333  29.339  28.129  1.00  0.00     0.029 A 
ATOM     69  N   UNL A   1      46.191  28.780  28.343  1.00  0.00    -0.354 N 
ATOM     70  N   UNL A   1      43.348  29.299  28.854  1.00  0.00    -0.248 NA
ATOM     71  C   UNL A   1      41.641  30.730  29.553  1.00  0.00     0.031 C 
ATOM     72  C   UNL A   1      47.625  30.461  28.569  1.00  0.00     0.029 A 
ATOM     73  C   UNL A   1      46.286  30.121  28.676  1.00  0.00     0.049 A 
ATOM     74  H   UNL A   1      45.356  28.258  28.335  1.00  0.00     0.167 HD
ATOM     75  C   UNL A   1      43.886  30.551  29.126  1.00  0.00     0.074 A 
ATOM     76  C   UNL A   1      42.782  31.403  29.518  1.00  0.00     0.031 C 
ATOM     77  C   UNL A   1      45.176  30.959  29.056  1.00  0.00     0.037 A 
BRANCH  64  78
ATOM     78  C   UNL A   1      49.145  26.511  27.428  1.00  0.00     0.057 A 
ATOM     79  C   UNL A   1      49.981  26.102  28.476  1.00  0.00     0.134 A 
ATOM     80  C   UNL A   1      49.679  26.493  26.133  1.00  0.00     0.134 A 
ATOM     81  F   UNL A   1      49.538  26.106  29.742  1.00  0.00    -0.206 F 
ATOM     82  C   UNL A   1      51.303  25.716  28.248  1.00  0.00     0.040 A 
ATOM     83  C   UNL A   1      50.989  26.079  25.889  1.00  0.00     0.040 A 
ATOM     84  F   UNL A   1      48.932  26.866  25.083  1.00  0.00    -0.206 F 
ATOM     85  C   UNL A   1      51.808  25.696  26.949  1.00  0.00     0.006 A 
ENDBRANCH  64  78
BRANCH  65  86
ATOM     86  C   UNL A   1      39.564  28.699  29.218  1.00  0.00     0.057 A 
ATOM     87  C   UNL A   1      38.723  29.241  28.239  1.00  0.00     0.134 A 
ATOM     88  C   UNL A   1      39.021  28.496  30.492  1.00  0.00     0.134 A 
ATOM     89  F   UNL A   1      39.189  29.474  27.003  1.00  0.00    -0.206 F 
ATOM     90  C   UNL A   1      37.403  29.595  28.521  1.00  0.00     0.040 A 
ATOM     91  C   UNL A   1      37.694  28.819  30.782  1.00  0.00     0.040 A 
ATOM     92  F   UNL A   1      39.770  27.970  31.473  1.00  0.00    -0.206 F 
ATOM     93  C   UNL A   1      36.884  29.380  29.798  1.00  0.00     0.006 A 
ENDBRANCH  65  86
BRANCH  77  94
ATOM     94  C   UNL A   1      45.461  32.400  29.372  1.00  0.00     0.057 A 
ATOM     95  C   UNL A   1      45.814  32.823  30.659  1.00  0.00     0.134 A 
ATOM     96  C   UNL A   1      45.419  33.370  28.361  1.00  0.00     0.134 A 
ATOM     97  F   UNL A   1      45.862  31.947  31.674  1.00  0.00    -0.206 F 
ATOM     98  C   UNL A   1      46.089  34.163  30.936  1.00  0.00     0.040 A 
ATOM     99  C   UNL A   1      45.722  34.706  28.619  1.00  0.00     0.040 A 
ATOM    100  F   UNL A   1      45.097  33.030  27.103  1.00  0.00    -0.206 F 
ATOM    101  C   UNL A   1      46.051  35.108  29.911  1.00  0.00     0.006 A 
ENDBRANCH  77  94
ENDBRANCH  51  52
ENDBRANCH  43  46
ENDBRANCH  41  42
ENDBRANCH  40  41
ENDBRANCH  39  40
ENDBRANCH  38  39
ENDBRANCH  37  38
ENDBRANCH   1  37
TORSDOF 24
ENDMDL
MODEL 2
REMARK VINA RESULT:     -10.7      4.845      9.595
REMARK SMILES CC(C)C[C@H](NC(=O)[C@H](Cc1ccccc1)NC(=O)CNC(=O)C[NH3+])C(=O)NCCCCCCNC(=O)c1ccc(-c2c3nc(c(-c4c(F)cccc4F)c4ccc([nH]4)c(-c4c(F)cccc4F)c4nc(c(-c5c(F)cccc5F)c5ccc2[nH]5)C=C4)C=C3)cc1
REMARK SMILES IDX 29 1 28 2 26 3 27 4 5 6 4 7 2 8 1 9 3 10 6 11 7 12 8 14 9 15
REMARK SMILES IDX 17 16 18 17 19 19 20 20 21 21 22 22 23 24 24 25 25 26 10 30
REMARK SMILES IDX 11 31 12 32 16 33 13 34 15 35 14 36 30 37 31 38 32 39 33 40
REMARK SMILES IDX 34 41 35 42 36 43 37 45 38 46 39 47 91 48 40 49 90 50 41 51
REMARK SMILES IDX 42 52 43 53 84 54 44 55 89 56 83 57 85 58 45 59 88 60 82 61
REMARK SMILES IDX 81 62 46 64 72 65 55 66 71 67 56 68 59 69 70 70 86 71 57 72
REMARK SMILES IDX 58 73 69 75 87 76 60 77 47 78 48 79 53 80 49 81 50 82 52 83
REMARK SMILES IDX 54 84 51 85 73 86 74 87 79 88 75 89 76 90 78 91 80 92 77 93
REMARK SMILES IDX 61 94 62 95 67 96 63 97 64 98 66 99 68 100 65 101
REMARK H PARENT 28 5 6 13 17 18 21 23 25 27 25 28 25 29 35 44 85 63 59 74
REMARK Flexibility Score: inf
ROOT
ATOM      1  C   UNL A   1      31.876  27.269  26.740  1.00  0.00     0.116 C 
ENDROOT
BRANCH   1   2
ATOM      2  N   UNL A   1      30.931  26.192  26.978  1.00  0.00    -0.354 N 
ATOM      3  C   UNL A   1      30.202  25.450  26.092  1.00  0.00     0.242 C 
ATOM      4  O   UNL A   1      29.510  24.533  26.540  1.00  0.00    -0.273 OA
ATOM      5  H   UNL A   1      30.795  25.960  27.925  1.00  0.00     0.163 HD
BRANCH   3   6
ATOM      6  C   UNL A   1      30.330  25.690  24.573  1.00  0.00     0.171 C 
BRANCH   6   7
ATOM      7  C   UNL A   1      29.102  26.427  24.065  1.00  0.00     0.038 C 
BRANCH   7   8
ATOM      8  C   UNL A   1      29.168  27.898  23.623  1.00  0.00    -0.015 C 
ATOM      9  C   UNL A   1      30.189  28.107  22.508  1.00  0.00     0.007 C 
ATOM     10  C   UNL A   1      27.775  28.317  23.129  1.00  0.00     0.007 C 
ENDBRANCH   7   8
ENDBRANCH   6   7
BRANCH   6  11
ATOM     11  N   UNL A   1      30.597  24.385  23.915  1.00  0.00    -0.343 N 
ATOM     12  C   UNL A   1      31.634  23.555  23.638  1.00  0.00     0.243 C 
ATOM     13  H   UNL A   1      29.758  24.001  23.572  1.00  0.00     0.164 HD
ATOM     14  O   UNL A   1      31.267  22.458  23.185  1.00  0.00    -0.273 OA
BRANCH  12  15
ATOM     15  C   UNL A   1      33.163  23.886  23.634  1.00  0.00     0.175 C 
BRANCH  15  16
ATOM     16  N   UNL A   1      34.131  22.796  23.650  1.00  0.00    -0.342 N 
ATOM     17  C   UNL A   1      35.275  22.676  24.405  1.00  0.00     0.240 C 
ATOM     18  H   UNL A   1      33.941  22.046  23.040  1.00  0.00     0.164 HD
ATOM     19  O   UNL A   1      36.116  21.848  24.044  1.00  0.00    -0.273 OA
BRANCH  17  20
ATOM     20  C   UNL A   1      35.501  23.509  25.695  1.00  0.00     0.216 C 
BRANCH  20  21
ATOM     21  N   UNL A   1      34.338  23.764  26.516  1.00  0.00    -0.342 N 
ATOM     22  C   UNL A   1      33.578  22.858  27.202  1.00  0.00     0.275 C 
ATOM     23  H   UNL A   1      34.059  24.706  26.590  1.00  0.00     0.164 HD
ATOM     24  O   UNL A   1      32.471  23.209  27.614  1.00  0.00    -0.268 OA
BRANCH  22  25
ATOM     25  C   UNL A   1      34.119  21.450  27.481  1.00  0.00     0.360 C 
BRANCH  25  26
ATOM     26  N   UNL A   1      33.266  20.397  26.908  1.00  0.00    -0.350 N 
ATOM     27  H   UNL A   1      33.787  19.891  26.191  1.00  0.00     0.344 HD
ATOM     28  H   UNL A   1      32.437  20.822  26.489  1.00  0.00     0.344 HD
ATOM     29  H   UNL A   1      32.982  19.751  27.644  1.00  0.00     0.344 HD
ENDBRANCH  25  26
ENDBRANCH  22  25
ENDBRANCH  20  21
ENDBRANCH  17  20
ENDBRANCH  15  16
BRANCH  15  30
ATOM     30  C   UNL A   1      33.440  24.883  22.440  1.00  0.00     0.070 C 
BRANCH  30  31
ATOM     31  C   UNL A   1      33.659  26.357  22.748  1.00  0.00    -0.045 A 
ATOM     32  C   UNL A   1      33.895  26.803  24.051  1.00  0.00     0.004 A 
ATOM     33  C   UNL A   1      33.659  27.323  21.745  1.00  0.00     0.004 A 
ATOM     34  C   UNL A   1      33.999  28.175  24.330  1.00  0.00     0.000 A 
ATOM     35  C   UNL A   1      33.695  28.689  22.009  1.00  0.00     0.000 A 
ATOM     36  C   UNL A   1      33.855  29.120  23.314  1.00  0.00     0.000 A 
ENDBRANCH  30  31
ENDBRANCH  15  30
ENDBRANCH  12  15
ENDBRANCH   6  11
ENDBRANCH   3   6
ENDBRANCH   1   2
BRANCH   1  37
ATOM     37  C   UNL A   1      31.467  28.535  27.487  1.00  0.00     0.021 C 
BRANCH  37  38
ATOM     38  C   UNL A   1      32.305  29.767  27.129  1.00  0.00     0.002 C 
BRANCH  38  39
ATOM     39  C   UNL A   1      31.642  30.734  26.144  1.00  0.00     0.002 C 
BRANCH  39  40
ATOM     40  C   UNL A   1      31.412  32.147  26.682  1.00  0.00     0.021 C 
BRANCH  40  41
ATOM     41  C   UNL A   1      32.677  32.865  27.141  1.00  0.00     0.116 C 
BRANCH  41  42
ATOM     42  N   UNL A   1      32.405  34.210  27.624  1.00  0.00    -0.352 N 
ATOM     43  C   UNL A   1      32.995  34.888  28.659  1.00  0.00     0.251 C 
ATOM     44  H   UNL A   1      31.703  34.701  27.141  1.00  0.00     0.163 HD
ATOM     45  O   UNL A   1      32.527  35.957  29.050  1.00  0.00    -0.269 OA
BRANCH  43  46
ATOM     46  C   UNL A   1      34.180  34.313  29.322  1.00  0.00     0.039 A 
ATOM     47  C   UNL A   1      34.010  33.594  30.505  1.00  0.00     0.014 A 
ATOM     48  C   UNL A   1      35.453  34.472  28.766  1.00  0.00     0.014 A 
ATOM     49  C   UNL A   1      35.113  32.981  31.102  1.00  0.00     0.010 A 
ATOM     50  C   UNL A   1      36.537  33.797  29.318  1.00  0.00     0.010 A 
ATOM     51  C   UNL A   1      36.378  33.049  30.494  1.00  0.00    -0.014 A 
BRANCH  51  52
ATOM     52  C   UNL A   1      37.546  32.344  31.078  1.00  0.00     0.031 A 
ATOM     53  C   UNL A   1      38.170  32.842  32.352  1.00  0.00     0.074 A 
ATOM     54  C   UNL A   1      38.082  31.293  30.427  1.00  0.00     0.049 A 
ATOM     55  N   UNL A   1      39.225  32.397  32.984  1.00  0.00    -0.248 NA
ATOM     56  C   UNL A   1      37.540  34.011  32.986  1.00  0.00     0.031 C 
ATOM     57  C   UNL A   1      37.596  30.746  29.159  1.00  0.00     0.029 A 
ATOM     58  N   UNL A   1      39.158  30.502  30.739  1.00  0.00    -0.354 N 
ATOM     59  C   UNL A   1      39.392  33.236  34.079  1.00  0.00     0.074 A 
ATOM     60  C   UNL A   1      38.365  34.251  33.994  1.00  0.00     0.031 C 
ATOM     61  C   UNL A   1      38.355  29.693  28.814  1.00  0.00     0.029 A 
ATOM     62  C   UNL A   1      39.406  29.518  29.812  1.00  0.00     0.049 A 
ATOM     63  H   UNL A   1      39.703  30.627  31.550  1.00  0.00     0.167 HD
ATOM     64  C   UNL A   1      40.305  33.154  35.076  1.00  0.00     0.037 A 
ATOM     65  C   UNL A   1      40.376  28.585  29.768  1.00  0.00     0.037 A 
ATOM     66  C   UNL A   1      41.311  32.129  35.166  1.00  0.00     0.049 A 
ATOM     67  C   UNL A   1      41.387  28.526  30.881  1.00  0.00     0.074 A 
ATOM     68  C   UNL A   1      42.241  31.922  36.170  1.00  0.00     0.029 A 
ATOM     69  N   UNL A   1      41.524  31.145  34.214  1.00  0.00    -0.354 N 
ATOM     70  N   UNL A   1      41.485  29.279  31.949  1.00  0.00    -0.248 NA
ATOM     71  C   UNL A   1      42.418  27.484  30.783  1.00  0.00     0.031 C 
ATOM     72  C   UNL A   1      43.053  30.847  35.797  1.00  0.00     0.029 A 
ATOM     73  C   UNL A   1      42.590  30.345  34.592  1.00  0.00     0.049 A 
ATOM     74  H   UNL A   1      40.996  31.031  33.391  1.00  0.00     0.167 HD
ATOM     75  C   UNL A   1      42.566  28.782  32.667  1.00  0.00     0.074 A 
ATOM     76  C   UNL A   1      43.081  27.654  31.918  1.00  0.00     0.031 C 
ATOM     77  C   UNL A   1      43.085  29.219  33.840  1.00  0.00     0.037 A 
BRANCH  64  78
ATOM     78  C   UNL A   1      40.257  34.204  36.149  1.00  0.00     0.057 A 
ATOM     79  C   UNL A   1      40.955  35.414  36.035  1.00  0.00     0.134 A 
ATOM     80  C   UNL A   1      39.472  34.019  37.295  1.00  0.00     0.134 A 
ATOM     81  F   UNL A   1      41.735  35.652  34.970  1.00  0.00    -0.206 F 
ATOM     82  C   UNL A   1      40.895  36.389  37.032  1.00  0.00     0.040 A 
ATOM     83  C   UNL A   1      39.379  35.000  38.284  1.00  0.00     0.040 A 
ATOM     84  F   UNL A   1      38.772  32.887  37.466  1.00  0.00    -0.206 F 
ATOM     85  C   UNL A   1      40.099  36.186  38.157  1.00  0.00     0.006 A 
ENDBRANCH  64  78
BRANCH  65  86
ATOM     86  C   UNL A   1      40.434  27.620  28.640  1.00  0.00     0.057 A 
ATOM     87  C   UNL A   1      41.232  27.867  27.516  1.00  0.00     0.134 A 
ATOM     88  C   UNL A   1      39.682  26.439  28.647  1.00  0.00     0.134 A 
ATOM     89  F   UNL A   1      41.963  28.989  27.442  1.00  0.00    -0.206 F 
ATOM     90  C   UNL A   1      41.261  26.990  26.431  1.00  0.00     0.040 A 
ATOM     91  C   UNL A   1      39.723  25.538  27.581  1.00  0.00     0.040 A 
ATOM     92  F   UNL A   1      38.904  26.137  29.698  1.00  0.00    -0.206 F 
ATOM     93  C   UNL A   1      40.506  25.819  26.464  1.00  0.00     0.006 A 
ENDBRANCH  65  86
BRANCH  77  94
ATOM     94  C   UNL A   1      44.245  28.452  34.408  1.00  0.00     0.057 A 
ATOM     95  C   UNL A   1      44.066  27.349  35.251  1.00  0.00     0.134 A 
ATOM     96  C   UNL A   1      45.560  28.801  34.071  1.00  0.00     0.134 A 
ATOM     97  F   UNL A   1      42.834  26.969  35.622  1.00  0.00    -0.206 F 
ATOM     98  C   UNL A   1      45.152  26.636  35.760  1.00  0.00     0.040 A 
ATOM     99  C   UNL A   1      46.653  28.078  34.549  1.00  0.00     0.040 A 
ATOM    100  F   UNL A   1      45.802  29.842  33.258  1.00  0.00    -0.206 F 
ATOM    101  C   UNL A   1      46.451  26.996  35.402  1.00  0.00     0.006 A 
ENDBRANCH  77  94
ENDBRANCH  51  52
ENDBRANCH  43  46
ENDBRANCH  41  42
ENDBRANCH  40  41
ENDBRANCH  39  40
ENDBRANCH  38  39
ENDBRANCH  37  38
ENDBRANCH   1  37
TORSDOF 24
ENDMDL
MODEL 3
REMARK VINA RESULT:     -10.7      4.794      9.520
REMARK SMILES CC(C)C[C@H](NC(=O)[C@H](Cc1ccccc1)NC(=O)CNC(=O)C[NH3+])C(=O)NCCCCCCNC(=O)c1ccc(-c2c3nc(c(-c4c(F)cccc4F)c4ccc([nH]4)c(-c4c(F)cccc4F)c4nc(c(-c5c(F)cccc5F)c5ccc2[nH]5)C=C4)C=C3)cc1
REMARK SMILES IDX 29 1 28 2 26 3 27 4 5 6 4 7 2 8 1 9 3 10 6 11 7 12 8 14 9 15
REMARK SMILES IDX 17 16 18 17 19 19 20 20 21 21 22 22 23 24 24 25 25 26 10 30
REMARK SMILES IDX 11 31 12 32 16 33 13 34 15 35 14 36 30 37 31 38 32 39 33 40
REMARK SMILES IDX 34 41 35 42 36 43 37 45 38 46 39 47 91 48 40 49 90 50 41 51
REMARK SMILES IDX 42 52 43 53 84 54 44 55 89 56 83 57 85 58 45 59 88 60 82 61
REMARK SMILES IDX 81 62 46 64 72 65 55 66 71 67 56 68 59 69 70 70 86 71 57 72
REMARK SMILES IDX 58 73 69 75 87 76 60 77 47 78 48 79 53 80 49 81 50 82 52 83
REMARK SMILES IDX 54 84 51 85 73 86 74 87 79 88 75 89 76 90 78 91 80 92 77 93
REMARK SMILES IDX 61 94 62 95 67 96 63 97 64 98 66 99 68 100 65 101
REMARK H PARENT 28 5 6 13 17 18 21 23 25 27 25 28 25 29 35 44 85 63 59 74
REMARK Flexibility Score: inf
ROOT
ATOM      1  C   UNL A   1      32.918  27.633  26.923  1.00  0.00     0.116 C 
ENDROOT
BRANCH   1   2
ATOM      2  N   UNL A   1      33.510  27.542  25.598  1.00  0.00    -0.354 N 
ATOM      3  C   UNL A   1      33.107  26.833  24.503  1.00  0.00     0.242 C 
ATOM      4  O   UNL A   1      33.746  26.975  23.458  1.00  0.00    -0.273 OA
ATOM      5  H   UNL A   1      34.328  28.076  25.471  1.00  0.00     0.163 HD
BRANCH   3   6
ATOM      6  C   UNL A   1      31.829  25.969  24.551  1.00  0.00     0.171 C 
BRANCH   6   7
ATOM      7  C   UNL A   1      30.613  26.862  24.721  1.00  0.00     0.038 C 
BRANCH   7   8
ATOM      8  C   UNL A   1      29.679  27.189  23.544  1.00  0.00    -0.015 C 
ATOM      9  C   UNL A   1      28.230  26.825  23.855  1.00  0.00     0.007 C 
ATOM     10  C   UNL A   1      29.779  28.693  23.251  1.00  0.00     0.007 C 
ENDBRANCH   7   8
ENDBRANCH   6   7
BRANCH   6  11
ATOM     11  N   UNL A   1      32.004  24.936  25.605  1.00  0.00    -0.343 N 
ATOM     12  C   UNL A   1      32.652  23.762  25.809  1.00  0.00     0.243 C 
ATOM     13  H   UNL A   1      31.487  25.179  26.406  1.00  0.00     0.164 HD
ATOM     14  O   UNL A   1      32.582  23.371  26.987  1.00  0.00    -0.273 OA
BRANCH  12  15
ATOM     15  C   UNL A   1      33.268  22.797  24.742  1.00  0.00     0.175 C 
BRANCH  15  16
ATOM     16  N   UNL A   1      32.458  22.379  23.604  1.00  0.00    -0.342 N 
ATOM     17  C   UNL A   1      32.261  21.110  23.112  1.00  0.00     0.240 C 
ATOM     18  H   UNL A   1      31.989  23.101  23.124  1.00  0.00     0.164 HD
ATOM     19  O   UNL A   1      31.813  21.002  21.967  1.00  0.00    -0.273 OA
BRANCH  17  20
ATOM     20  C   UNL A   1      32.541  19.843  23.965  1.00  0.00     0.216 C 
BRANCH  20  21
ATOM     21  N   UNL A   1      32.921  18.647  23.246  1.00  0.00    -0.342 N 
ATOM     22  C   UNL A   1      33.042  17.376  23.734  1.00  0.00     0.275 C 
ATOM     23  H   UNL A   1      33.117  18.763  22.288  1.00  0.00     0.164 HD
ATOM     24  O   UNL A   1      33.642  16.540  23.057  1.00  0.00    -0.268 OA
BRANCH  22  25
ATOM     25  C   UNL A   1      32.405  17.000  25.078  1.00  0.00     0.360 C 
BRANCH  25  26
ATOM     26  N   UNL A   1      33.349  17.124  26.200  1.00  0.00    -0.350 N 
ATOM     27  H   UNL A   1      34.200  17.585  25.879  1.00  0.00     0.344 HD
ATOM     28  H   UNL A   1      33.579  16.194  26.554  1.00  0.00     0.344 HD
ATOM     29  H   UNL A   1      32.922  17.675  26.944  1.00  0.00     0.344 HD
ENDBRANCH  25  26
ENDBRANCH  22  25
ENDBRANCH  20  21
ENDBRANCH  17  20
ENDBRANCH  15  16
BRANCH  15  30
ATOM     30  C   UNL A   1      34.646  23.409  24.272  1.00  0.00     0.070 C 
BRANCH  30  31
ATOM     31  C   UNL A   1      35.938  22.817  24.818  1.00  0.00    -0.045 A 
ATOM     32  C   UNL A   1      36.848  23.594  25.541  1.00  0.00     0.004 A 
ATOM     33  C   UNL A   1      36.259  21.473  24.645  1.00  0.00     0.004 A 
ATOM     34  C   UNL A   1      38.077  23.056  25.954  1.00  0.00     0.000 A 
ATOM     35  C   UNL A   1      37.498  20.940  24.989  1.00  0.00     0.000 A 
ATOM     36  C   UNL A   1      38.420  21.742  25.639  1.00  0.00     0.000 A 
ENDBRANCH  30  31
ENDBRANCH  15  30
ENDBRANCH  12  15
ENDBRANCH   6  11
ENDBRANCH   3   6
ENDBRANCH   1   2
BRANCH   1  37
ATOM     37  C   UNL A   1      32.299  29.007  27.155  1.00  0.00     0.021 C 
BRANCH  37  38
ATOM     38  C   UNL A   1      32.503  29.987  25.994  1.00  0.00     0.002 C 
BRANCH  38  39
ATOM     39  C   UNL A   1      31.369  30.998  25.796  1.00  0.00     0.002 C 
BRANCH  39  40
ATOM     40  C   UNL A   1      31.287  32.091  26.863  1.00  0.00     0.021 C 
BRANCH  40  41
ATOM     41  C   UNL A   1      32.618  32.764  27.186  1.00  0.00     0.116 C 
BRANCH  41  42
ATOM     42  N   UNL A   1      32.449  34.140  27.625  1.00  0.00    -0.352 N 
ATOM     43  C   UNL A   1      33.110  34.813  28.619  1.00  0.00     0.251 C 
ATOM     44  H   UNL A   1      31.769  34.661  27.140  1.00  0.00     0.163 HD
ATOM     45  O   UNL A   1      32.725  35.924  28.981  1.00  0.00    -0.269 OA
BRANCH  43  46
ATOM     46  C   UNL A   1      34.271  34.183  29.274  1.00  0.00     0.039 A 
ATOM     47  C   UNL A   1      34.058  33.357  30.379  1.00  0.00     0.014 A 
ATOM     48  C   UNL A   1      35.564  34.395  28.788  1.00  0.00     0.014 A 
ATOM     49  C   UNL A   1      35.140  32.696  30.962  1.00  0.00     0.010 A 
ATOM     50  C   UNL A   1      36.629  33.675  29.319  1.00  0.00     0.010 A 
ATOM     51  C   UNL A   1      36.428  32.822  30.415  1.00  0.00    -0.014 A 
BRANCH  51  52
ATOM     52  C   UNL A   1      37.576  32.070  30.979  1.00  0.00     0.031 A 
ATOM     53  C   UNL A   1      38.093  32.398  32.352  1.00  0.00     0.074 A 
ATOM     54  C   UNL A   1      38.190  31.134  30.230  1.00  0.00     0.049 A 
ATOM     55  N   UNL A   1      39.117  31.893  32.991  1.00  0.00    -0.248 NA
ATOM     56  C   UNL A   1      37.382  33.452  33.094  1.00  0.00     0.031 C 
ATOM     57  C   UNL A   1      37.811  30.758  28.866  1.00  0.00     0.029 A 
ATOM     58  N   UNL A   1      39.268  30.332  30.507  1.00  0.00    -0.354 N 
ATOM     59  C   UNL A   1      39.180  32.575  34.201  1.00  0.00     0.074 A 
ATOM     60  C   UNL A   1      38.128  33.567  34.183  1.00  0.00     0.031 C 
ATOM     61  C   UNL A   1      38.627  29.783  28.435  1.00  0.00     0.029 A 
ATOM     62  C   UNL A   1      39.612  29.494  29.473  1.00  0.00     0.049 A 
ATOM     63  H   UNL A   1      39.751  30.354  31.364  1.00  0.00     0.167 HD
ATOM     64  C   UNL A   1      40.024  32.375  35.241  1.00  0.00     0.037 A 
ATOM     65  C   UNL A   1      40.613  28.599  29.370  1.00  0.00     0.037 A 
ATOM     66  C   UNL A   1      41.056  31.371  35.261  1.00  0.00     0.049 A 
ATOM     67  C   UNL A   1      41.546  28.408  30.535  1.00  0.00     0.074 A 
ATOM     68  C   UNL A   1      41.921  31.047  36.292  1.00  0.00     0.029 A 
ATOM     69  N   UNL A   1      41.366  30.535  34.200  1.00  0.00    -0.354 N 
ATOM     70  N   UNL A   1      41.545  29.006  31.702  1.00  0.00    -0.248 NA
ATOM     71  C   UNL A   1      42.615  27.414  30.370  1.00  0.00     0.031 C 
ATOM     72  C   UNL A   1      42.791  30.054  35.834  1.00  0.00     0.029 A 
ATOM     73  C   UNL A   1      42.429  29.715  34.540  1.00  0.00     0.049 A 
ATOM     74  H   UNL A   1      40.900  30.525  33.333  1.00  0.00     0.167 HD
ATOM     75  C   UNL A   1      42.590  28.438  32.421  1.00  0.00     0.074 A 
ATOM     76  C   UNL A   1      43.193  27.438  31.563  1.00  0.00     0.031 C 
ATOM     77  C   UNL A   1      43.013  28.718  33.678  1.00  0.00     0.037 A 
BRANCH  64  78
ATOM     78  C   UNL A   1      39.868  33.262  36.443  1.00  0.00     0.057 A 
ATOM     79  C   UNL A   1      40.624  34.431  36.605  1.00  0.00     0.134 A 
ATOM     80  C   UNL A   1      38.922  32.965  37.432  1.00  0.00     0.134 A 
ATOM     81  F   UNL A   1      41.555  34.770  35.702  1.00  0.00    -0.206 F 
ATOM     82  C   UNL A   1      40.463  35.256  37.719  1.00  0.00     0.040 A 
ATOM     83  C   UNL A   1      38.730  33.798  38.535  1.00  0.00     0.040 A 
ATOM     84  F   UNL A   1      38.159  31.864  37.337  1.00  0.00    -0.206 F 
ATOM     85  C   UNL A   1      39.508  34.944  38.684  1.00  0.00     0.006 A 
ENDBRANCH  64  78
BRANCH  65  86
ATOM     86  C   UNL A   1      40.780  27.804  28.127  1.00  0.00     0.057 A 
ATOM     87  C   UNL A   1      40.199  26.537  27.994  1.00  0.00     0.134 A 
ATOM     88  C   UNL A   1      41.537  28.281  27.050  1.00  0.00     0.134 A 
ATOM     89  F   UNL A   1      39.476  26.019  28.997  1.00  0.00    -0.206 F 
ATOM     90  C   UNL A   1      40.385  25.762  26.848  1.00  0.00     0.040 A 
ATOM     91  C   UNL A   1      41.708  27.529  25.886  1.00  0.00     0.040 A 
ATOM     92  F   UNL A   1      42.112  29.491  27.108  1.00  0.00    -0.206 F 
ATOM     93  C   UNL A   1      41.140  26.261  25.788  1.00  0.00     0.006 A 
ENDBRANCH  65  86
BRANCH  77  94
ATOM     94  C   UNL A   1      44.156  27.906  34.217  1.00  0.00     0.057 A 
ATOM     95  C   UNL A   1      45.482  28.347  34.141  1.00  0.00     0.134 A 
ATOM     96  C   UNL A   1      43.917  26.682  34.857  1.00  0.00     0.134 A 
ATOM     97  F   UNL A   1      45.781  29.505  33.531  1.00  0.00    -0.206 F 
ATOM     98  C   UNL A   1      46.533  27.589  34.659  1.00  0.00     0.040 A 
ATOM     99  C   UNL A   1      44.956  25.930  35.405  1.00  0.00     0.040 A 
ATOM    100  F   UNL A   1      42.668  26.206  34.973  1.00  0.00    -0.206 F 
ATOM    101  C   UNL A   1      46.270  26.380  35.300  1.00  0.00     0.006 A 
ENDBRANCH  77  94
ENDBRANCH  51  52
ENDBRANCH  43  46
ENDBRANCH  41  42
ENDBRANCH  40  41
ENDBRANCH  39  40
ENDBRANCH  38  39
ENDBRANCH  37  38
ENDBRANCH   1  37
TORSDOF 24
ENDMDL
