MODEL 1
REMARK VINA RESULT:     -11.5      0.000      0.000
REMARK SMILES Cc1noc(-c2ccc(CCl)cc2)c1C(=O)NCCCCCCNC(=O)c1ccc(-c2c3nc(c(-c4c(F)cccc4F)c4ccc([nH]4)c(-c4c(F)cccc4F)c4nc(c(-c5c(F)cccc5F)c5ccc2[nH]5)C=C4)C=C3)cc1
REMARK SMILES IDX 20 1 19 2 18 3 17 4 15 5 16 6 14 8 1 9 2 10 3 11 4 12 5 13
REMARK SMILES IDX 6 14 7 15 13 16 8 17 12 18 9 19 10 20 11 21 21 22 22 23
REMARK SMILES IDX 23 24 24 25 25 26 26 28 27 29 28 30 80 31 29 32 79 33 30 34
REMARK SMILES IDX 31 35 32 36 73 37 33 38 78 39 72 40 74 41 34 42 77 43 71 44
REMARK SMILES IDX 70 45 35 47 61 48 44 49 60 50 45 51 48 52 59 53 75 54 46 55
REMARK SMILES IDX 47 56 58 58 76 59 49 60 36 61 37 62 42 63 38 64 39 65 41 66
REMARK SMILES IDX 43 67 40 68 62 69 63 70 68 71 64 72 65 73 67 74 69 75 66 76
REMARK SMILES IDX 50 77 51 78 56 79 52 80 53 81 55 82 57 83 54 84
REMARK H PARENT 17 7 24 27 74 46 48 57
REMARK Flexibility Score: inf
ROOT
ATOM      1  C   UNL A   1      31.743  29.388  27.028  1.00  0.00     0.002 C 
ENDROOT
BRANCH   1   2
ATOM      2  C   UNL A   1      33.009  28.557  26.822  1.00  0.00     0.021 C 
BRANCH   2   3
ATOM      3  C   UNL A   1      32.824  27.105  26.404  1.00  0.00     0.116 C 
BRANCH   3   4
ATOM      4  N   UNL A   1      31.550  26.539  26.755  1.00  0.00    -0.352 N 
ATOM      5  C   UNL A   1      30.745  25.630  26.116  1.00  0.00     0.257 C 
ATOM      6  O   UNL A   1      29.709  25.350  26.724  1.00  0.00    -0.269 OA
ATOM      7  H   UNL A   1      31.187  26.863  27.611  1.00  0.00     0.163 HD
BRANCH   5   8
ATOM      8  C   UNL A   1      31.036  25.052  24.806  1.00  0.00     0.110 A 
ATOM      9  C   UNL A   1      31.758  22.476  24.957  1.00  0.00     0.071 C 
ATOM     10  C   UNL A   1      31.459  23.774  24.304  1.00  0.00     0.094 A 
ATOM     11  N   UNL A   1      31.557  23.774  22.967  1.00  0.00    -0.084 NA
ATOM     12  O   UNL A   1      31.131  25.007  22.554  1.00  0.00    -0.355 OA
ATOM     13  C   UNL A   1      30.805  25.762  23.630  1.00  0.00     0.179 A 
BRANCH  13  14
ATOM     14  C   UNL A   1      30.294  27.078  23.284  1.00  0.00     0.021 A 
ATOM     15  C   UNL A   1      31.166  28.046  22.771  1.00  0.00     0.012 A 
ATOM     16  C   UNL A   1      28.945  27.401  23.454  1.00  0.00     0.012 A 
ATOM     17  C   UNL A   1      30.694  29.310  22.412  1.00  0.00     0.006 A 
ATOM     18  C   UNL A   1      28.472  28.670  23.106  1.00  0.00     0.006 A 
ATOM     19  C   UNL A   1      29.340  29.635  22.574  1.00  0.00    -0.033 A 
BRANCH  19  20
ATOM     20  C   UNL A   1      28.825  30.987  22.162  1.00  0.00     0.145 C 
ATOM     21  Cl  UNL A   1      27.651  31.615  23.337  1.00  0.00    -0.122 Cl
ENDBRANCH  19  20
ENDBRANCH  13  14
ENDBRANCH   5   8
ENDBRANCH   3   4
ENDBRANCH   2   3
ENDBRANCH   1   2
BRANCH   1  22
ATOM     22  C   UNL A   1      31.409  30.412  25.941  1.00  0.00     0.002 C 
BRANCH  22  23
ATOM     23  C   UNL A   1      31.334  31.875  26.384  1.00  0.00     0.021 C 
BRANCH  23  24
ATOM     24  C   UNL A   1      32.633  32.474  26.914  1.00  0.00     0.116 C 
BRANCH  24  25
ATOM     25  N   UNL A   1      32.462  33.826  27.415  1.00  0.00    -0.352 N 
ATOM     26  C   UNL A   1      33.116  34.468  28.435  1.00  0.00     0.251 C 
ATOM     27  H   UNL A   1      31.776  34.360  26.954  1.00  0.00     0.163 HD
ATOM     28  O   UNL A   1      32.717  35.563  28.827  1.00  0.00    -0.269 OA
BRANCH  26  29
ATOM     29  C   UNL A   1      34.286  33.840  29.083  1.00  0.00     0.039 A 
ATOM     30  C   UNL A   1      34.072  32.868  30.064  1.00  0.00     0.014 A 
ATOM     31  C   UNL A   1      35.589  34.213  28.739  1.00  0.00     0.014 A 
ATOM     32  C   UNL A   1      35.163  32.229  30.656  1.00  0.00     0.010 A 
ATOM     33  C   UNL A   1      36.672  33.521  29.275  1.00  0.00     0.010 A 
ATOM     34  C   UNL A   1      36.471  32.525  30.242  1.00  0.00    -0.014 A 
BRANCH  34  35
ATOM     35  C   UNL A   1      37.637  31.802  30.809  1.00  0.00     0.031 A 
ATOM     36  C   UNL A   1      38.142  32.135  32.186  1.00  0.00     0.074 A 
ATOM     37  C   UNL A   1      38.276  30.882  30.060  1.00  0.00     0.049 A 
ATOM     38  N   UNL A   1      39.175  31.651  32.828  1.00  0.00    -0.248 NA
ATOM     39  C   UNL A   1      37.403  33.167  32.930  1.00  0.00     0.031 C 
ATOM     40  C   UNL A   1      37.911  30.500  28.695  1.00  0.00     0.029 A 
ATOM     41  N   UNL A   1      39.374  30.106  30.340  1.00  0.00    -0.354 N 
ATOM     42  C   UNL A   1      39.216  32.325  34.042  1.00  0.00     0.074 A 
ATOM     43  C   UNL A   1      38.141  33.292  34.024  1.00  0.00     0.031 C 
ATOM     44  C   UNL A   1      38.753  29.546  28.266  1.00  0.00     0.029 A 
ATOM     45  C   UNL A   1      39.740  29.279  29.305  1.00  0.00     0.049 A 
ATOM     46  H   UNL A   1      39.853  30.140  31.199  1.00  0.00     0.167 HD
ATOM     47  C   UNL A   1      40.058  32.139  35.086  1.00  0.00     0.037 A 
ATOM     48  C   UNL A   1      40.763  28.409  29.204  1.00  0.00     0.037 A 
ATOM     49  C   UNL A   1      41.120  31.165  35.105  1.00  0.00     0.049 A 
ATOM     50  C   UNL A   1      41.699  28.237  30.368  1.00  0.00     0.074 A 
ATOM     51  C   UNL A   1      41.991  30.861  36.135  1.00  0.00     0.029 A 
ATOM     52  N   UNL A   1      41.457  30.343  34.040  1.00  0.00    -0.354 N 
ATOM     53  N   UNL A   1      41.683  28.831  31.538  1.00  0.00    -0.248 NA
ATOM     54  C   UNL A   1      42.794  27.271  30.200  1.00  0.00     0.031 C 
ATOM     55  C   UNL A   1      42.892  29.895  35.675  1.00  0.00     0.029 A 
ATOM     56  C   UNL A   1      42.544  29.553  34.379  1.00  0.00     0.049 A 
ATOM     57  H   UNL A   1      40.994  30.325  33.172  1.00  0.00     0.167 HD
ATOM     58  C   UNL A   1      42.742  28.289  32.254  1.00  0.00     0.074 A 
ATOM     59  C   UNL A   1      43.371  27.309  31.393  1.00  0.00     0.031 C 
ATOM     60  C   UNL A   1      43.158  28.578  33.512  1.00  0.00     0.037 A 
BRANCH  47  61
ATOM     61  C   UNL A   1      39.867  33.012  36.294  1.00  0.00     0.057 A 
ATOM     62  C   UNL A   1      40.562  34.219  36.454  1.00  0.00     0.134 A 
ATOM     63  C   UNL A   1      38.953  32.658  37.296  1.00  0.00     0.134 A 
ATOM     64  F   UNL A   1      41.459  34.613  35.538  1.00  0.00    -0.206 F 
ATOM     65  C   UNL A   1      40.381  35.024  37.580  1.00  0.00     0.040 A 
ATOM     66  C   UNL A   1      38.741  33.470  38.411  1.00  0.00     0.040 A 
ATOM     67  F   UNL A   1      38.248  31.520  37.204  1.00  0.00    -0.206 F 
ATOM     68  C   UNL A   1      39.462  34.654  38.560  1.00  0.00     0.006 A 
ENDBRANCH  47  61
BRANCH  48  69
ATOM     69  C   UNL A   1      40.947  27.620  27.959  1.00  0.00     0.057 A 
ATOM     70  C   UNL A   1      40.361  26.357  27.811  1.00  0.00     0.134 A 
ATOM     71  C   UNL A   1      41.715  28.102  26.893  1.00  0.00     0.134 A 
ATOM     72  F   UNL A   1      39.628  25.833  28.803  1.00  0.00    -0.206 F 
ATOM     73  C   UNL A   1      40.550  25.593  26.658  1.00  0.00     0.040 A 
ATOM     74  C   UNL A   1      41.889  27.362  25.722  1.00  0.00     0.040 A 
ATOM     75  F   UNL A   1      42.296  29.309  26.967  1.00  0.00    -0.206 F 
ATOM     76  C   UNL A   1      41.313  26.098  25.606  1.00  0.00     0.006 A 
ENDBRANCH  48  69
BRANCH  60  77
ATOM     77  C   UNL A   1      44.325  27.799  34.047  1.00  0.00     0.057 A 
ATOM     78  C   UNL A   1      45.638  28.280  33.967  1.00  0.00     0.134 A 
ATOM     79  C   UNL A   1      44.127  26.567  34.684  1.00  0.00     0.134 A 
ATOM     80  F   UNL A   1      45.900  29.447  33.360  1.00  0.00    -0.206 F 
ATOM     81  C   UNL A   1      46.714  27.552  34.479  1.00  0.00     0.040 A 
ATOM     82  C   UNL A   1      45.190  25.844  35.225  1.00  0.00     0.040 A 
ATOM     83  F   UNL A   1      42.893  26.052  34.803  1.00  0.00    -0.206 F 
ATOM     84  C   UNL A   1      46.490  26.333  35.117  1.00  0.00     0.006 A 
ENDBRANCH  60  77
ENDBRANCH  34  35
ENDBRANCH  26  29
ENDBRANCH  24  25
ENDBRANCH  23  24
ENDBRANCH  22  23
ENDBRANCH   1  22
TORSDOF 15
ENDMDL
MODEL 2
REMARK VINA RESULT:     -11.5      0.597      6.257
REMARK SMILES Cc1noc(-c2ccc(CCl)cc2)c1C(=O)NCCCCCCNC(=O)c1ccc(-c2c3nc(c(-c4c(F)cccc4F)c4ccc([nH]4)c(-c4c(F)cccc4F)c4nc(c(-c5c(F)cccc5F)c5ccc2[nH]5)C=C4)C=C3)cc1
REMARK SMILES IDX 20 1 19 2 18 3 17 4 15 5 16 6 14 8 1 9 2 10 3 11 4 12 5 13
REMARK SMILES IDX 6 14 7 15 13 16 8 17 12 18 9 19 10 20 11 21 21 22 22 23
REMARK SMILES IDX 23 24 24 25 25 26 26 28 27 29 28 30 80 31 29 32 79 33 30 34
REMARK SMILES IDX 31 35 32 36 73 37 33 38 78 39 72 40 74 41 34 42 77 43 71 44
REMARK SMILES IDX 70 45 35 47 61 48 44 49 60 50 45 51 48 52 59 53 75 54 46 55
REMARK SMILES IDX 47 56 58 58 76 59 49 60 36 61 37 62 42 63 38 64 39 65 41 66
REMARK SMILES IDX 43 67 40 68 62 69 63 70 68 71 64 72 65 73 67 74 69 75 66 76
REMARK SMILES IDX 50 77 51 78 56 79 52 80 53 81 55 82 57 83 54 84
REMARK H PARENT 17 7 24 27 74 46 48 57
REMARK Flexibility Score: inf
ROOT
ATOM      1  C   UNL A   1      32.819  29.675  26.256  1.00  0.00     0.002 C 
ENDROOT
BRANCH   1   2
ATOM      2  C   UNL A   1      32.588  28.484  27.185  1.00  0.00     0.021 C 
BRANCH   2   3
ATOM      3  C   UNL A   1      32.337  27.133  26.529  1.00  0.00     0.116 C 
BRANCH   3   4
ATOM      4  N   UNL A   1      31.083  26.523  26.876  1.00  0.00    -0.352 N 
ATOM      5  C   UNL A   1      30.339  25.546  26.264  1.00  0.00     0.257 C 
ATOM      6  O   UNL A   1      29.302  25.245  26.860  1.00  0.00    -0.269 OA
ATOM      7  H   UNL A   1      30.682  26.870  27.707  1.00  0.00     0.163 HD
BRANCH   5   8
ATOM      8  C   UNL A   1      30.692  24.921  24.991  1.00  0.00     0.110 A 
ATOM      9  C   UNL A   1      31.392  22.349  25.270  1.00  0.00     0.071 C 
ATOM     10  C   UNL A   1      31.133  23.624  24.556  1.00  0.00     0.094 A 
ATOM     11  N   UNL A   1      31.297  23.577  23.227  1.00  0.00    -0.084 NA
ATOM     12  O   UNL A   1      30.899  24.795  22.750  1.00  0.00    -0.355 OA
ATOM     13  C   UNL A   1      30.524  25.589  23.781  1.00  0.00     0.179 A 
BRANCH  13  14
ATOM     14  C   UNL A   1      30.037  26.894  23.363  1.00  0.00     0.021 A 
ATOM     15  C   UNL A   1      28.677  27.200  23.501  1.00  0.00     0.012 A 
ATOM     16  C   UNL A   1      30.899  27.852  22.824  1.00  0.00     0.012 A 
ATOM     17  C   UNL A   1      28.190  28.454  23.126  1.00  0.00     0.006 A 
ATOM     18  C   UNL A   1      30.410  29.104  22.437  1.00  0.00     0.006 A 
ATOM     19  C   UNL A   1      29.053  29.421  22.592  1.00  0.00    -0.033 A 
BRANCH  19  20
ATOM     20  C   UNL A   1      28.534  30.781  22.214  1.00  0.00     0.145 C 
ATOM     21  Cl  UNL A   1      27.655  31.533  23.561  1.00  0.00    -0.122 Cl
ENDBRANCH  19  20
ENDBRANCH  13  14
ENDBRANCH   5   8
ENDBRANCH   3   4
ENDBRANCH   2   3
ENDBRANCH   1   2
BRANCH   1  22
ATOM     22  C   UNL A   1      31.578  30.458  25.821  1.00  0.00     0.002 C 
BRANCH  22  23
ATOM     23  C   UNL A   1      31.384  31.835  26.458  1.00  0.00     0.021 C 
BRANCH  23  24
ATOM     24  C   UNL A   1      32.618  32.437  27.123  1.00  0.00     0.116 C 
BRANCH  24  25
ATOM     25  N   UNL A   1      32.429  33.827  27.498  1.00  0.00    -0.352 N 
ATOM     26  C   UNL A   1      33.067  34.566  28.462  1.00  0.00     0.251 C 
ATOM     27  H   UNL A   1      31.742  34.311  26.986  1.00  0.00     0.163 HD
ATOM     28  O   UNL A   1      32.653  35.688  28.749  1.00  0.00    -0.269 OA
BRANCH  26  29
ATOM     29  C   UNL A   1      34.238  34.011  29.172  1.00  0.00     0.039 A 
ATOM     30  C   UNL A   1      34.027  33.246  30.322  1.00  0.00     0.014 A 
ATOM     31  C   UNL A   1      35.538  34.253  28.721  1.00  0.00     0.014 A 
ATOM     32  C   UNL A   1      35.115  32.675  30.984  1.00  0.00     0.010 A 
ATOM     33  C   UNL A   1      36.615  33.620  29.336  1.00  0.00     0.010 A 
ATOM     34  C   UNL A   1      36.415  32.828  30.477  1.00  0.00    -0.014 A 
BRANCH  34  35
ATOM     35  C   UNL A   1      37.575  32.165  31.127  1.00  0.00     0.031 A 
ATOM     36  C   UNL A   1      38.313  31.063  30.419  1.00  0.00     0.074 A 
ATOM     37  C   UNL A   1      37.928  32.520  32.378  1.00  0.00     0.049 A 
ATOM     38  N   UNL A   1      39.313  30.331  30.844  1.00  0.00    -0.248 NA
ATOM     39  C   UNL A   1      37.852  30.719  29.065  1.00  0.00     0.031 C 
ATOM     40  C   UNL A   1      37.264  33.544  33.186  1.00  0.00     0.029 A 
ATOM     41  N   UNL A   1      38.928  32.051  33.192  1.00  0.00    -0.354 N 
ATOM     42  C   UNL A   1      39.591  29.438  29.818  1.00  0.00     0.074 A 
ATOM     43  C   UNL A   1      38.618  29.679  28.774  1.00  0.00     0.031 C 
ATOM     44  C   UNL A   1      37.890  33.643  34.369  1.00  0.00     0.029 A 
ATOM     45  C   UNL A   1      38.970  32.665  34.421  1.00  0.00     0.049 A 
ATOM     46  H   UNL A   1      39.556  31.342  32.922  1.00  0.00     0.167 HD
ATOM     47  C   UNL A   1      40.580  28.516  29.741  1.00  0.00     0.037 A 
ATOM     48  C   UNL A   1      39.783  32.454  35.474  1.00  0.00     0.037 A 
ATOM     49  C   UNL A   1      41.555  28.289  30.778  1.00  0.00     0.049 A 
ATOM     50  C   UNL A   1      40.859  31.409  35.374  1.00  0.00     0.074 A 
ATOM     51  C   UNL A   1      42.630  27.418  30.774  1.00  0.00     0.029 A 
ATOM     52  N   UNL A   1      41.567  28.933  32.006  1.00  0.00    -0.354 N 
ATOM     53  N   UNL A   1      41.156  30.620  34.369  1.00  0.00    -0.248 NA
ATOM     54  C   UNL A   1      41.717  31.229  36.553  1.00  0.00     0.031 C 
ATOM     55  C   UNL A   1      43.259  27.494  32.021  1.00  0.00     0.029 A 
ATOM     56  C   UNL A   1      42.613  28.456  32.780  1.00  0.00     0.049 A 
ATOM     57  H   UNL A   1      40.926  29.625  32.287  1.00  0.00     0.167 HD
ATOM     58  C   UNL A   1      42.250  29.873  34.783  1.00  0.00     0.074 A 
ATOM     59  C   UNL A   1      42.575  30.313  36.124  1.00  0.00     0.031 C 
ATOM     60  C   UNL A   1      42.926  28.907  34.113  1.00  0.00     0.037 A 
BRANCH  47  61
ATOM     61  C   UNL A   1      40.655  27.681  28.495  1.00  0.00     0.057 A 
ATOM     62  C   UNL A   1      39.970  26.463  28.377  1.00  0.00     0.134 A 
ATOM     63  C   UNL A   1      41.394  28.113  27.386  1.00  0.00     0.134 A 
ATOM     64  F   UNL A   1      39.251  25.985  29.403  1.00  0.00    -0.206 F 
ATOM     65  C   UNL A   1      40.044  25.691  27.215  1.00  0.00     0.040 A 
ATOM     66  C   UNL A   1      41.451  27.365  26.209  1.00  0.00     0.040 A 
ATOM     67  F   UNL A   1      42.068  29.273  27.426  1.00  0.00    -0.206 F 
ATOM     68  C   UNL A   1      40.782  26.146  26.124  1.00  0.00     0.006 A 
ENDBRANCH  47  61
BRANCH  48  69
ATOM     69  C   UNL A   1      39.621  33.263  36.710  1.00  0.00     0.057 A 
ATOM     70  C   UNL A   1      38.726  32.876  37.715  1.00  0.00     0.134 A 
ATOM     71  C   UNL A   1      40.349  34.441  36.915  1.00  0.00     0.134 A 
ATOM     72  F   UNL A   1      37.988  31.767  37.570  1.00  0.00    -0.206 F 
ATOM     73  C   UNL A   1      38.545  33.642  38.868  1.00  0.00     0.040 A 
ATOM     74  C   UNL A   1      40.199  35.202  38.076  1.00  0.00     0.040 A 
ATOM     75  F   UNL A   1      41.230  34.861  35.995  1.00  0.00    -0.206 F 
ATOM     76  C   UNL A   1      39.287  34.807  39.053  1.00  0.00     0.006 A 
ENDBRANCH  48  69
BRANCH  60  77
ATOM     77  C   UNL A   1      44.107  28.287  34.804  1.00  0.00     0.057 A 
ATOM     78  C   UNL A   1      45.391  28.840  34.722  1.00  0.00     0.134 A 
ATOM     79  C   UNL A   1      43.947  27.141  35.594  1.00  0.00     0.134 A 
ATOM     80  F   UNL A   1      45.616  29.929  33.973  1.00  0.00    -0.206 F 
ATOM     81  C   UNL A   1      46.478  28.260  35.380  1.00  0.00     0.040 A 
ATOM     82  C   UNL A   1      45.019  26.570  36.280  1.00  0.00     0.040 A 
ATOM     83  F   UNL A   1      42.741  26.565  35.724  1.00  0.00    -0.206 F 
ATOM     84  C   UNL A   1      46.292  27.126  36.168  1.00  0.00     0.006 A 
ENDBRANCH  60  77
ENDBRANCH  34  35
ENDBRANCH  26  29
ENDBRANCH  24  25
ENDBRANCH  23  24
ENDBRANCH  22  23
ENDBRANCH   1  22
TORSDOF 15
ENDMDL
MODEL 3
REMARK VINA RESULT:     -11.4      5.041      9.877
REMARK SMILES Cc1noc(-c2ccc(CCl)cc2)c1C(=O)NCCCCCCNC(=O)c1ccc(-c2c3nc(c(-c4c(F)cccc4F)c4ccc([nH]4)c(-c4c(F)cccc4F)c4nc(c(-c5c(F)cccc5F)c5ccc2[nH]5)C=C4)C=C3)cc1
REMARK SMILES IDX 20 1 19 2 18 3 17 4 15 5 16 6 14 8 1 9 2 10 3 11 4 12 5 13
REMARK SMILES IDX 6 14 7 15 13 16 8 17 12 18 9 19 10 20 11 21 21 22 22 23
REMARK SMILES IDX 23 24 24 25 25 26 26 28 27 29 28 30 80 31 29 32 79 33 30 34
REMARK SMILES IDX 31 35 32 36 73 37 33 38 78 39 72 40 74 41 34 42 77 43 71 44
REMARK SMILES IDX 70 45 35 47 61 48 44 49 60 50 45 51 48 52 59 53 75 54 46 55
REMARK SMILES IDX 47 56 58 58 76 59 49 60 36 61 37 62 42 63 38 64 39 65 41 66
REMARK SMILES IDX 43 67 40 68 62 69 63 70 68 71 64 72 65 73 67 74 69 75 66 76
REMARK SMILES IDX 50 77 51 78 56 79 52 80 53 81 55 82 57 83 54 84
REMARK H PARENT 17 7 24 27 74 46 48 57
REMARK Flexibility Score: inf
ROOT
ATOM      1  C   UNL A   1      37.054  22.080  24.340  1.00  0.00     0.002 C 
ENDROOT
BRANCH   1   2
ATOM      2  C   UNL A   1      37.115  23.137  25.443  1.00  0.00     0.021 C 
BRANCH   2   3
ATOM      3  C   UNL A   1      35.811  23.834  25.806  1.00  0.00     0.116 C 
BRANCH   3   4
ATOM      4  N   UNL A   1      35.109  24.411  24.692  1.00  0.00    -0.352 N 
ATOM      5  C   UNL A   1      33.790  24.740  24.512  1.00  0.00     0.257 C 
ATOM      6  O   UNL A   1      33.535  25.243  23.415  1.00  0.00    -0.269 OA
ATOM      7  H   UNL A   1      35.681  24.604  23.913  1.00  0.00     0.163 HD
BRANCH   5   8
ATOM      8  C   UNL A   1      32.739  24.492  25.496  1.00  0.00     0.110 A 
ATOM      9  C   UNL A   1      31.797  26.753  26.584  1.00  0.00     0.071 C 
ATOM     10  C   UNL A   1      31.916  25.291  26.362  1.00  0.00     0.094 A 
ATOM     11  N   UNL A   1      31.066  24.535  27.073  1.00  0.00    -0.084 NA
ATOM     12  O   UNL A   1      31.247  23.250  26.643  1.00  0.00    -0.355 OA
ATOM     13  C   UNL A   1      32.220  23.216  25.701  1.00  0.00     0.179 A 
BRANCH  13  14
ATOM     14  C   UNL A   1      32.449  21.891  25.148  1.00  0.00     0.021 A 
ATOM     15  C   UNL A   1      32.075  21.619  23.826  1.00  0.00     0.012 A 
ATOM     16  C   UNL A   1      33.034  20.877  25.911  1.00  0.00     0.012 A 
ATOM     17  C   UNL A   1      32.304  20.360  23.267  1.00  0.00     0.006 A 
ATOM     18  C   UNL A   1      33.253  19.612  25.356  1.00  0.00     0.006 A 
ATOM     19  C   UNL A   1      32.898  19.343  24.027  1.00  0.00    -0.033 A 
BRANCH  19  20
ATOM     20  C   UNL A   1      33.171  17.995  23.417  1.00  0.00     0.145 C 
ATOM     21  Cl  UNL A   1      34.639  17.265  24.098  1.00  0.00    -0.122 Cl
ENDBRANCH  19  20
ENDBRANCH  13  14
ENDBRANCH   5   8
ENDBRANCH   3   4
ENDBRANCH   2   3
ENDBRANCH   1   2
BRANCH   1  22
ATOM     22  C   UNL A   1      36.722  20.651  24.776  1.00  0.00     0.002 C 
BRANCH  22  23
ATOM     23  C   UNL A   1      37.903  19.687  24.905  1.00  0.00     0.021 C 
BRANCH  23  24
ATOM     24  C   UNL A   1      39.004  20.115  25.870  1.00  0.00     0.116 C 
BRANCH  24  25
ATOM     25  N   UNL A   1      40.123  19.189  25.888  1.00  0.00    -0.352 N 
ATOM     26  C   UNL A   1      41.456  19.434  26.099  1.00  0.00     0.251 C 
ATOM     27  H   UNL A   1      39.890  18.247  25.725  1.00  0.00     0.163 HD
ATOM     28  O   UNL A   1      42.281  18.543  25.909  1.00  0.00    -0.269 OA
BRANCH  26  29
ATOM     29  C   UNL A   1      41.908  20.773  26.532  1.00  0.00     0.039 A 
ATOM     30  C   UNL A   1      42.303  21.697  25.562  1.00  0.00     0.014 A 
ATOM     31  C   UNL A   1      41.958  21.114  27.887  1.00  0.00     0.014 A 
ATOM     32  C   UNL A   1      42.691  22.982  25.945  1.00  0.00     0.010 A 
ATOM     33  C   UNL A   1      42.271  22.418  28.261  1.00  0.00     0.010 A 
ATOM     34  C   UNL A   1      42.645  23.365  27.295  1.00  0.00    -0.014 A 
BRANCH  34  35
ATOM     35  C   UNL A   1      42.983  24.749  27.712  1.00  0.00     0.031 A 
ATOM     36  C   UNL A   1      44.419  25.174  27.842  1.00  0.00     0.074 A 
ATOM     37  C   UNL A   1      41.994  25.608  28.027  1.00  0.00     0.049 A 
ATOM     38  N   UNL A   1      44.910  26.320  28.242  1.00  0.00    -0.248 NA
ATOM     39  C   UNL A   1      45.440  24.171  27.501  1.00  0.00     0.031 C 
ATOM     40  C   UNL A   1      40.563  25.304  27.983  1.00  0.00     0.029 A 
ATOM     41  N   UNL A   1      42.043  26.912  28.454  1.00  0.00    -0.354 N 
ATOM     42  C   UNL A   1      46.291  26.171  28.212  1.00  0.00     0.074 A 
ATOM     43  C   UNL A   1      46.560  24.808  27.811  1.00  0.00     0.031 C 
ATOM     44  C   UNL A   1      39.871  26.395  28.343  1.00  0.00     0.029 A 
ATOM     45  C   UNL A   1      40.805  27.462  28.683  1.00  0.00     0.049 A 
ATOM     46  H   UNL A   1      42.885  27.405  28.584  1.00  0.00     0.167 HD
ATOM     47  C   UNL A   1      47.248  27.094  28.471  1.00  0.00     0.037 A 
ATOM     48  C   UNL A   1      40.463  28.687  29.127  1.00  0.00     0.037 A 
ATOM     49  C   UNL A   1      46.976  28.455  28.857  1.00  0.00     0.049 A 
ATOM     50  C   UNL A   1      41.544  29.686  29.431  1.00  0.00     0.074 A 
ATOM     51  C   UNL A   1      47.875  29.481  29.088  1.00  0.00     0.029 A 
ATOM     52  N   UNL A   1      45.709  28.976  29.075  1.00  0.00    -0.354 N 
ATOM     53  N   UNL A   1      42.846  29.554  29.330  1.00  0.00    -0.248 NA
ATOM     54  C   UNL A   1      41.110  31.007  29.908  1.00  0.00     0.031 C 
ATOM     55  C   UNL A   1      47.155  30.608  29.501  1.00  0.00     0.029 A 
ATOM     56  C   UNL A   1      45.805  30.302  29.468  1.00  0.00     0.049 A 
ATOM     57  H   UNL A   1      44.867  28.477  28.968  1.00  0.00     0.167 HD
ATOM     58  C   UNL A   1      43.382  30.780  29.700  1.00  0.00     0.074 A 
ATOM     59  C   UNL A   1      42.266  31.648  30.013  1.00  0.00     0.031 C 
ATOM     60  C   UNL A   1      44.683  31.155  29.774  1.00  0.00     0.037 A 
BRANCH  47  61
ATOM     61  C   UNL A   1      48.682  26.658  28.351  1.00  0.00     0.057 A 
ATOM     62  C   UNL A   1      49.395  26.148  29.444  1.00  0.00     0.134 A 
ATOM     63  C   UNL A   1      49.347  26.720  27.120  1.00  0.00     0.134 A 
ATOM     64  F   UNL A   1      48.822  26.070  30.654  1.00  0.00    -0.206 F 
ATOM     65  C   UNL A   1      50.727  25.746  29.325  1.00  0.00     0.040 A 
ATOM     66  C   UNL A   1      50.669  26.293  26.981  1.00  0.00     0.040 A 
ATOM     67  F   UNL A   1      48.723  27.191  26.029  1.00  0.00    -0.206 F 
ATOM     68  C   UNL A   1      51.366  25.811  28.088  1.00  0.00     0.006 A 
ENDBRANCH  47  61
BRANCH  48  69
ATOM     69  C   UNL A   1      39.031  29.044  29.294  1.00  0.00     0.057 A 
ATOM     70  C   UNL A   1      38.378  28.860  30.520  1.00  0.00     0.134 A 
ATOM     71  C   UNL A   1      38.278  29.568  28.237  1.00  0.00     0.134 A 
ATOM     72  F   UNL A   1      39.040  28.345  31.566  1.00  0.00    -0.206 F 
ATOM     73  C   UNL A   1      37.025  29.164  30.682  1.00  0.00     0.040 A 
ATOM     74  C   UNL A   1      36.932  29.904  28.393  1.00  0.00     0.040 A 
ATOM     75  F   UNL A   1      38.846  29.778  27.040  1.00  0.00    -0.206 F 
ATOM     76  C   UNL A   1      36.299  29.693  29.616  1.00  0.00     0.006 A 
ENDBRANCH  48  69
BRANCH  60  77
ATOM     77  C   UNL A   1      44.969  32.573  30.175  1.00  0.00     0.057 A 
ATOM     78  C   UNL A   1      45.025  33.613  29.238  1.00  0.00     0.134 A 
ATOM     79  C   UNL A   1      45.155  32.908  31.523  1.00  0.00     0.134 A 
ATOM     80  F   UNL A   1      44.869  33.361  27.931  1.00  0.00    -0.206 F 
ATOM     81  C   UNL A   1      45.280  34.931  29.626  1.00  0.00     0.040 A 
ATOM     82  C   UNL A   1      45.381  34.225  31.925  1.00  0.00     0.040 A 
ATOM     83  F   UNL A   1      45.105  31.961  32.473  1.00  0.00    -0.206 F 
ATOM     84  C   UNL A   1      45.451  35.240  30.974  1.00  0.00     0.006 A 
ENDBRANCH  60  77
ENDBRANCH  34  35
ENDBRANCH  26  29
ENDBRANCH  24  25
ENDBRANCH  23  24
ENDBRANCH  22  23
ENDBRANCH   1  22
TORSDOF 15
ENDMDL
