MODEL 1
REMARK VINA RESULT:     -11.2      0.000      0.000
REMARK SMILES Cn1cncc1COc1c(F)cc(C(=O)NCCCCCCNC(=O)c2ccc(-c3c4nc(c(-c5c(F)cccc5F)c5ccc([nH]5)c(-c5c(F)cccc5F)c5nc(c(-c6c(F)cccc6F)c6ccc3[nH]6)C=C5)C=C4)cc2)cc1F
REMARK SMILES IDX 19 1 18 2 17 3 16 4 14 5 15 6 13 8 9 9 10 10 81 11 11 12
REMARK SMILES IDX 12 13 80 14 82 15 8 16 7 17 6 18 1 19 2 20 3 21 4 22 5 23
REMARK SMILES IDX 20 24 21 25 22 26 23 27 24 28 25 30 26 31 27 32 79 33 28 34
REMARK SMILES IDX 78 35 29 36 30 37 31 38 72 39 32 40 77 41 71 42 73 43 33 44
REMARK SMILES IDX 76 45 70 46 69 47 34 49 60 50 43 51 59 52 44 53 47 54 58 55
REMARK SMILES IDX 74 56 45 57 46 58 57 60 75 61 48 62 35 63 36 64 41 65 37 66
REMARK SMILES IDX 38 67 40 68 42 69 39 70 61 71 62 72 67 73 63 74 64 75 66 76
REMARK SMILES IDX 68 77 65 78 49 79 50 80 55 81 51 82 52 83 54 84 56 85 53 86
REMARK H PARENT 16 7 23 29 73 48 47 59
REMARK Flexibility Score: inf
ROOT
ATOM      1  C   UNL A   1      37.711  22.642  25.561  1.00  0.00     0.002 C 
ENDROOT
BRANCH   1   2
ATOM      2  C   UNL A   1      36.537  23.608  25.754  1.00  0.00     0.021 C 
BRANCH   2   3
ATOM      3  C   UNL A   1      35.723  23.849  24.478  1.00  0.00     0.116 C 
BRANCH   3   4
ATOM      4  N   UNL A   1      34.425  24.424  24.786  1.00  0.00    -0.352 N 
ATOM      5  C   UNL A   1      33.160  23.892  24.814  1.00  0.00     0.251 C 
ATOM      6  O   UNL A   1      32.242  24.602  25.224  1.00  0.00    -0.269 OA
ATOM      7  H   UNL A   1      34.459  25.379  25.019  1.00  0.00     0.163 HD
BRANCH   5   8
ATOM      8  C   UNL A   1      32.853  22.495  24.401  1.00  0.00     0.045 A 
ATOM      9  C   UNL A   1      32.309  19.806  23.719  1.00  0.00     0.191 A 
ATOM     10  C   UNL A   1      32.192  20.829  22.784  1.00  0.00     0.168 A 
ATOM     11  C   UNL A   1      32.614  20.157  25.030  1.00  0.00     0.168 A 
ATOM     12  F   UNL A   1      31.779  20.589  21.536  1.00  0.00    -0.203 F 
ATOM     13  C   UNL A   1      32.453  22.153  23.114  1.00  0.00     0.057 A 
ATOM     14  C   UNL A   1      32.890  21.484  25.376  1.00  0.00     0.057 A 
ATOM     15  F   UNL A   1      32.639  19.221  25.990  1.00  0.00    -0.203 F 
BRANCH   9  16
ATOM     16  O   UNL A   1      31.982  18.515  23.401  1.00  0.00    -0.481 OA
BRANCH  16  17
ATOM     17  C   UNL A   1      33.089  17.751  22.888  1.00  0.00     0.285 C 
BRANCH  17  18
ATOM     18  C   UNL A   1      33.596  16.835  23.946  1.00  0.00     0.075 A 
ATOM     19  C   UNL A   1      35.674  18.117  24.587  1.00  0.00     0.151 C 
ATOM     20  N   UNL A   1      34.770  16.997  24.644  1.00  0.00    -0.335 N 
ATOM     21  C   UNL A   1      34.951  15.888  25.422  1.00  0.00     0.199 A 
ATOM     22  N   UNL A   1      33.934  15.064  25.330  1.00  0.00    -0.245 NA
ATOM     23  C   UNL A   1      33.085  15.642  24.422  1.00  0.00     0.138 A 
ENDBRANCH  17  18
ENDBRANCH  16  17
ENDBRANCH   9  16
ENDBRANCH   5   8
ENDBRANCH   3   4
ENDBRANCH   2   3
ENDBRANCH   1   2
BRANCH   1  24
ATOM     24  C   UNL A   1      37.434  21.475  24.605  1.00  0.00     0.002 C 
BRANCH  24  25
ATOM     25  C   UNL A   1      38.217  20.195  24.904  1.00  0.00     0.021 C 
BRANCH  25  26
ATOM     26  C   UNL A   1      39.188  20.318  26.074  1.00  0.00     0.116 C 
BRANCH  26  27
ATOM     27  N   UNL A   1      40.185  19.258  26.054  1.00  0.00    -0.352 N 
ATOM     28  C   UNL A   1      41.555  19.348  26.080  1.00  0.00     0.251 C 
ATOM     29  H   UNL A   1      39.825  18.342  26.017  1.00  0.00     0.163 HD
ATOM     30  O   UNL A   1      42.249  18.382  25.792  1.00  0.00    -0.269 OA
BRANCH  28  31
ATOM     31  C   UNL A   1      42.190  20.631  26.447  1.00  0.00     0.039 A 
ATOM     32  C   UNL A   1      42.618  21.494  25.437  1.00  0.00     0.014 A 
ATOM     33  C   UNL A   1      42.354  20.976  27.791  1.00  0.00     0.014 A 
ATOM     34  C   UNL A   1      43.145  22.741  25.776  1.00  0.00     0.010 A 
ATOM     35  C   UNL A   1      42.811  22.246  28.125  1.00  0.00     0.010 A 
ATOM     36  C   UNL A   1      43.205  23.143  27.121  1.00  0.00    -0.014 A 
BRANCH  36  37
ATOM     37  C   UNL A   1      43.648  24.507  27.502  1.00  0.00     0.031 A 
ATOM     38  C   UNL A   1      42.641  25.536  27.929  1.00  0.00     0.074 A 
ATOM     39  C   UNL A   1      44.949  24.836  27.386  1.00  0.00     0.049 A 
ATOM     40  N   UNL A   1      42.823  26.801  28.205  1.00  0.00    -0.248 NA
ATOM     41  C   UNL A   1      41.242  25.090  28.040  1.00  0.00     0.031 C 
ATOM     42  C   UNL A   1      46.013  23.929  26.950  1.00  0.00     0.029 A 
ATOM     43  N   UNL A   1      45.597  26.023  27.613  1.00  0.00    -0.354 N 
ATOM     44  C   UNL A   1      41.566  27.303  28.515  1.00  0.00     0.074 A 
ATOM     45  C   UNL A   1      40.622  26.221  28.341  1.00  0.00     0.031 C 
ATOM     46  C   UNL A   1      47.183  24.586  26.967  1.00  0.00     0.029 A 
ATOM     47  C   UNL A   1      46.948  25.970  27.364  1.00  0.00     0.049 A 
ATOM     48  H   UNL A   1      45.138  26.837  27.925  1.00  0.00     0.167 HD
ATOM     49  C   UNL A   1      41.235  28.549  28.929  1.00  0.00     0.037 A 
ATOM     50  C   UNL A   1      47.888  26.932  27.433  1.00  0.00     0.037 A 
ATOM     51  C   UNL A   1      42.184  29.614  29.115  1.00  0.00     0.049 A 
ATOM     52  C   UNL A   1      47.487  28.319  27.853  1.00  0.00     0.074 A 
ATOM     53  C   UNL A   1      41.953  30.898  29.578  1.00  0.00     0.029 A 
ATOM     54  N   UNL A   1      43.540  29.524  28.841  1.00  0.00    -0.354 N 
ATOM     55  N   UNL A   1      46.305  28.766  28.198  1.00  0.00    -0.248 NA
ATOM     56  C   UNL A   1      48.547  29.338  27.888  1.00  0.00     0.031 C 
ATOM     57  C   UNL A   1      43.159  31.600  29.534  1.00  0.00     0.029 A 
ATOM     58  C   UNL A   1      44.154  30.739  29.097  1.00  0.00     0.049 A 
ATOM     59  H   UNL A   1      43.998  28.716  28.513  1.00  0.00     0.167 HD
ATOM     60  C   UNL A   1      46.481  30.106  28.515  1.00  0.00     0.074 A 
ATOM     61  C   UNL A   1      47.887  30.398  28.332  1.00  0.00     0.031 C 
ATOM     62  C   UNL A   1      45.558  31.012  28.918  1.00  0.00     0.037 A 
BRANCH  49  63
ATOM     63  C   UNL A   1      39.790  28.830  29.223  1.00  0.00     0.057 A 
ATOM     64  C   UNL A   1      39.271  28.643  30.511  1.00  0.00     0.134 A 
ATOM     65  C   UNL A   1      38.896  29.216  28.216  1.00  0.00     0.134 A 
ATOM     66  F   UNL A   1      40.068  28.266  31.520  1.00  0.00    -0.206 F 
ATOM     67  C   UNL A   1      37.912  28.820  30.782  1.00  0.00     0.040 A 
ATOM     68  C   UNL A   1      37.541  29.422  28.481  1.00  0.00     0.040 A 
ATOM     69  F   UNL A   1      39.330  29.420  26.963  1.00  0.00    -0.206 F 
ATOM     70  C   UNL A   1      37.044  29.214  29.766  1.00  0.00     0.006 A 
ENDBRANCH  49  63
BRANCH  50  71
ATOM     71  C   UNL A   1      49.302  26.605  27.117  1.00  0.00     0.057 A 
ATOM     72  C   UNL A   1      49.837  26.808  25.838  1.00  0.00     0.134 A 
ATOM     73  C   UNL A   1      50.147  26.054  28.087  1.00  0.00     0.134 A 
ATOM     74  F   UNL A   1      49.078  27.323  24.860  1.00  0.00    -0.206 F 
ATOM     75  C   UNL A   1      51.153  26.458  25.531  1.00  0.00     0.040 A 
ATOM     76  C   UNL A   1      51.473  25.724  27.801  1.00  0.00     0.040 A 
ATOM     77  F   UNL A   1      49.699  25.851  29.335  1.00  0.00    -0.206 F 
ATOM     78  C   UNL A   1      51.977  25.918  26.517  1.00  0.00     0.006 A 
ENDBRANCH  50  71
BRANCH  62  79
ATOM     79  C   UNL A   1      46.027  32.407  29.214  1.00  0.00     0.057 A 
ATOM     80  C   UNL A   1      46.404  32.772  30.513  1.00  0.00     0.134 A 
ATOM     81  C   UNL A   1      46.006  33.410  28.238  1.00  0.00     0.134 A 
ATOM     82  F   UNL A   1      46.435  31.859  31.495  1.00  0.00    -0.206 F 
ATOM     83  C   UNL A   1      46.720  34.092  30.837  1.00  0.00     0.040 A 
ATOM     84  C   UNL A   1      46.345  34.730  28.545  1.00  0.00     0.040 A 
ATOM     85  F   UNL A   1      45.666  33.124  26.973  1.00  0.00    -0.206 F 
ATOM     86  C   UNL A   1      46.689  35.075  29.851  1.00  0.00     0.006 A 
ENDBRANCH  62  79
ENDBRANCH  36  37
ENDBRANCH  28  31
ENDBRANCH  26  27
ENDBRANCH  25  26
ENDBRANCH  24  25
ENDBRANCH   1  24
TORSDOF 16
ENDMDL
MODEL 2
REMARK VINA RESULT:     -11.1      5.297      9.953
REMARK SMILES Cn1cncc1COc1c(F)cc(C(=O)NCCCCCCNC(=O)c2ccc(-c3c4nc(c(-c5c(F)cccc5F)c5ccc([nH]5)c(-c5c(F)cccc5F)c5nc(c(-c6c(F)cccc6F)c6ccc3[nH]6)C=C5)C=C4)cc2)cc1F
REMARK SMILES IDX 19 1 18 2 17 3 16 4 14 5 15 6 13 8 9 9 10 10 81 11 11 12
REMARK SMILES IDX 12 13 80 14 82 15 8 16 7 17 6 18 1 19 2 20 3 21 4 22 5 23
REMARK SMILES IDX 20 24 21 25 22 26 23 27 24 28 25 30 26 31 27 32 79 33 28 34
REMARK SMILES IDX 78 35 29 36 30 37 31 38 72 39 32 40 77 41 71 42 73 43 33 44
REMARK SMILES IDX 76 45 70 46 69 47 34 49 60 50 43 51 59 52 44 53 47 54 58 55
REMARK SMILES IDX 74 56 45 57 46 58 57 60 75 61 48 62 35 63 36 64 41 65 37 66
REMARK SMILES IDX 38 67 40 68 42 69 39 70 61 71 62 72 67 73 63 74 64 75 66 76
REMARK SMILES IDX 68 77 65 78 49 79 50 80 55 81 51 82 52 83 54 84 56 85 53 86
REMARK H PARENT 16 7 23 29 73 48 47 59
REMARK Flexibility Score: inf
ROOT
ATOM      1  C   UNL A   1      31.968  29.283  27.239  1.00  0.00     0.002 C 
ENDROOT
BRANCH   1   2
ATOM      2  C   UNL A   1      32.766  28.041  26.830  1.00  0.00     0.021 C 
BRANCH   2   3
ATOM      3  C   UNL A   1      32.154  27.278  25.650  1.00  0.00     0.116 C 
BRANCH   3   4
ATOM      4  N   UNL A   1      30.873  26.697  26.012  1.00  0.00    -0.352 N 
ATOM      5  C   UNL A   1      30.444  25.398  26.126  1.00  0.00     0.251 C 
ATOM      6  O   UNL A   1      29.311  25.197  26.563  1.00  0.00    -0.269 OA
ATOM      7  H   UNL A   1      30.177  27.363  26.213  1.00  0.00     0.163 HD
BRANCH   5   8
ATOM      8  C   UNL A   1      31.292  24.225  25.774  1.00  0.00     0.045 A 
ATOM      9  C   UNL A   1      32.957  22.012  25.207  1.00  0.00     0.191 A 
ATOM     10  C   UNL A   1      32.078  22.521  24.257  1.00  0.00     0.168 A 
ATOM     11  C   UNL A   1      32.928  22.569  26.481  1.00  0.00     0.168 A 
ATOM     12  F   UNL A   1      31.954  21.960  23.050  1.00  0.00    -0.203 F 
ATOM     13  C   UNL A   1      31.253  23.605  24.531  1.00  0.00     0.057 A 
ATOM     14  C   UNL A   1      32.111  23.668  26.770  1.00  0.00     0.057 A 
ATOM     15  F   UNL A   1      33.681  22.049  27.461  1.00  0.00    -0.203 F 
BRANCH   9  16
ATOM     16  O   UNL A   1      33.714  20.901  24.949  1.00  0.00    -0.481 OA
BRANCH  16  17
ATOM     17  C   UNL A   1      33.091  19.672  25.364  1.00  0.00     0.285 C 
BRANCH  17  18
ATOM     18  C   UNL A   1      33.032  18.729  24.213  1.00  0.00     0.075 A 
ATOM     19  C   UNL A   1      35.031  17.302  24.796  1.00  0.00     0.151 C 
ATOM     20  N   UNL A   1      33.935  17.723  23.961  1.00  0.00    -0.335 N 
ATOM     21  C   UNL A   1      33.621  17.171  22.751  1.00  0.00     0.199 A 
ATOM     22  N   UNL A   1      32.530  17.702  22.249  1.00  0.00    -0.245 NA
ATOM     23  C   UNL A   1      32.153  18.665  23.148  1.00  0.00     0.138 A 
ENDBRANCH  17  18
ENDBRANCH  16  17
ENDBRANCH   9  16
ENDBRANCH   5   8
ENDBRANCH   3   4
ENDBRANCH   2   3
ENDBRANCH   1   2
BRANCH   1  24
ATOM     24  C   UNL A   1      31.794  30.330  26.132  1.00  0.00     0.002 C 
BRANCH  24  25
ATOM     25  C   UNL A   1      31.536  31.755  26.625  1.00  0.00     0.021 C 
BRANCH  25  26
ATOM     26  C   UNL A   1      32.754  32.429  27.249  1.00  0.00     0.116 C 
BRANCH  26  27
ATOM     27  N   UNL A   1      32.509  33.839  27.512  1.00  0.00    -0.352 N 
ATOM     28  C   UNL A   1      33.035  34.649  28.488  1.00  0.00     0.251 C 
ATOM     29  H   UNL A   1      31.873  34.276  26.900  1.00  0.00     0.163 HD
ATOM     30  O   UNL A   1      32.529  35.736  28.735  1.00  0.00    -0.269 OA
BRANCH  28  31
ATOM     31  C   UNL A   1      34.214  34.191  29.252  1.00  0.00     0.039 A 
ATOM     32  C   UNL A   1      34.026  33.549  30.477  1.00  0.00     0.014 A 
ATOM     33  C   UNL A   1      35.501  34.397  28.749  1.00  0.00     0.014 A 
ATOM     34  C   UNL A   1      35.131  33.044  31.165  1.00  0.00     0.010 A 
ATOM     35  C   UNL A   1      36.593  33.830  29.399  1.00  0.00     0.010 A 
ATOM     36  C   UNL A   1      36.417  33.143  30.608  1.00  0.00    -0.014 A 
BRANCH  36  37
ATOM     37  C   UNL A   1      37.591  32.511  31.259  1.00  0.00     0.031 A 
ATOM     38  C   UNL A   1      38.264  31.331  30.618  1.00  0.00     0.074 A 
ATOM     39  C   UNL A   1      37.998  32.954  32.464  1.00  0.00     0.049 A 
ATOM     40  N   UNL A   1      39.238  30.588  31.078  1.00  0.00    -0.248 NA
ATOM     41  C   UNL A   1      37.765  30.918  29.297  1.00  0.00     0.031 C 
ATOM     42  C   UNL A   1      37.401  34.071  33.198  1.00  0.00     0.029 A 
ATOM     43  N   UNL A   1      39.001  32.514  33.289  1.00  0.00    -0.354 N 
ATOM     44  C   UNL A   1      39.462  29.619  30.109  1.00  0.00     0.074 A 
ATOM     45  C   UNL A   1      38.489  29.834  29.061  1.00  0.00     0.031 C 
ATOM     46  C   UNL A   1      38.065  34.244  34.351  1.00  0.00     0.029 A 
ATOM     47  C   UNL A   1      39.100  33.222  34.464  1.00  0.00     0.049 A 
ATOM     48  H   UNL A   1      39.595  31.761  33.063  1.00  0.00     0.167 HD
ATOM     49  C   UNL A   1      40.409  28.653  30.088  1.00  0.00     0.037 A 
ATOM     50  C   UNL A   1      39.922  33.057  35.518  1.00  0.00     0.037 A 
ATOM     51  C   UNL A   1      41.383  28.456  31.128  1.00  0.00     0.049 A 
ATOM     52  C   UNL A   1      40.936  31.947  35.489  1.00  0.00     0.074 A 
ATOM     53  C   UNL A   1      42.416  27.535  31.176  1.00  0.00     0.029 A 
ATOM     54  N   UNL A   1      41.443  29.187  32.305  1.00  0.00    -0.354 N 
ATOM     55  N   UNL A   1      41.175  31.074  34.542  1.00  0.00    -0.248 NA
ATOM     56  C   UNL A   1      41.791  31.795  36.675  1.00  0.00     0.031 C 
ATOM     57  C   UNL A   1      43.066  27.673  32.404  1.00  0.00     0.029 A 
ATOM     58  C   UNL A   1      42.476  28.717  33.099  1.00  0.00     0.049 A 
ATOM     59  H   UNL A   1      40.840  29.929  32.541  1.00  0.00     0.167 HD
ATOM     60  C   UNL A   1      42.221  30.287  35.003  1.00  0.00     0.074 A 
ATOM     61  C   UNL A   1      42.579  30.792  36.312  1.00  0.00     0.031 C 
ATOM     62  C   UNL A   1      42.827  29.237  34.397  1.00  0.00     0.037 A 
BRANCH  49  63
ATOM     63  C   UNL A   1      40.451  27.737  28.899  1.00  0.00     0.057 A 
ATOM     64  C   UNL A   1      41.230  28.052  27.778  1.00  0.00     0.134 A 
ATOM     65  C   UNL A   1      39.665  26.579  28.833  1.00  0.00     0.134 A 
ATOM     66  F   UNL A   1      42.000  29.150  27.770  1.00  0.00    -0.206 F 
ATOM     67  C   UNL A   1      41.216  27.255  26.632  1.00  0.00     0.040 A 
ATOM     68  C   UNL A   1      39.664  25.760  27.704  1.00  0.00     0.040 A 
ATOM     69  F   UNL A   1      38.903  26.215  29.876  1.00  0.00    -0.206 F 
ATOM     70  C   UNL A   1      40.433  26.103  26.594  1.00  0.00     0.006 A 
ENDBRANCH  49  63
BRANCH  50  71
ATOM     71  C   UNL A   1      39.828  33.981  36.677  1.00  0.00     0.057 A 
ATOM     72  C   UNL A   1      39.029  33.689  37.790  1.00  0.00     0.134 A 
ATOM     73  C   UNL A   1      40.521  35.197  36.684  1.00  0.00     0.134 A 
ATOM     74  F   UNL A   1      38.332  32.544  37.842  1.00  0.00    -0.206 F 
ATOM     75  C   UNL A   1      38.908  34.580  38.858  1.00  0.00     0.040 A 
ATOM     76  C   UNL A   1      40.430  36.086  37.757  1.00  0.00     0.040 A 
ATOM     77  F   UNL A   1      41.316  35.527  35.655  1.00  0.00    -0.206 F 
ATOM     78  C   UNL A   1      39.614  35.781  38.845  1.00  0.00     0.006 A 
ENDBRANCH  50  71
BRANCH  62  79
ATOM     79  C   UNL A   1      43.957  28.566  35.121  1.00  0.00     0.057 A 
ATOM     80  C   UNL A   1      43.705  27.528  36.029  1.00  0.00     0.134 A 
ATOM     81  C   UNL A   1      45.277  29.014  34.999  1.00  0.00     0.134 A 
ATOM     82  F   UNL A   1      42.460  27.060  36.200  1.00  0.00    -0.206 F 
ATOM     83  C   UNL A   1      44.723  26.978  36.808  1.00  0.00     0.040 A 
ATOM     84  C   UNL A   1      46.308  28.454  35.755  1.00  0.00     0.040 A 
ATOM     85  F   UNL A   1      45.586  29.997  34.139  1.00  0.00    -0.206 F 
ATOM     86  C   UNL A   1      46.029  27.442  36.672  1.00  0.00     0.006 A 
ENDBRANCH  62  79
ENDBRANCH  36  37
ENDBRANCH  28  31
ENDBRANCH  26  27
ENDBRANCH  25  26
ENDBRANCH  24  25
ENDBRANCH   1  24
TORSDOF 16
ENDMDL
MODEL 3
REMARK VINA RESULT:     -11.1      5.606     10.283
REMARK SMILES Cn1cncc1COc1c(F)cc(C(=O)NCCCCCCNC(=O)c2ccc(-c3c4nc(c(-c5c(F)cccc5F)c5ccc([nH]5)c(-c5c(F)cccc5F)c5nc(c(-c6c(F)cccc6F)c6ccc3[nH]6)C=C5)C=C4)cc2)cc1F
REMARK SMILES IDX 19 1 18 2 17 3 16 4 14 5 15 6 13 8 9 9 10 10 81 11 11 12
REMARK SMILES IDX 12 13 80 14 82 15 8 16 7 17 6 18 1 19 2 20 3 21 4 22 5 23
REMARK SMILES IDX 20 24 21 25 22 26 23 27 24 28 25 30 26 31 27 32 79 33 28 34
REMARK SMILES IDX 78 35 29 36 30 37 31 38 72 39 32 40 77 41 71 42 73 43 33 44
REMARK SMILES IDX 76 45 70 46 69 47 34 49 60 50 43 51 59 52 44 53 47 54 58 55
REMARK SMILES IDX 74 56 45 57 46 58 57 60 75 61 48 62 35 63 36 64 41 65 37 66
REMARK SMILES IDX 38 67 40 68 42 69 39 70 61 71 62 72 67 73 63 74 64 75 66 76
REMARK SMILES IDX 68 77 65 78 49 79 50 80 55 81 51 82 52 83 54 84 56 85 53 86
REMARK H PARENT 16 7 23 29 73 48 47 59
REMARK Flexibility Score: inf
ROOT
ATOM      1  C   UNL A   1      31.747  29.956  25.184  1.00  0.00     0.002 C 
ENDROOT
BRANCH   1   2
ATOM      2  C   UNL A   1      33.035  29.227  24.784  1.00  0.00     0.021 C 
BRANCH   2   3
ATOM      3  C   UNL A   1      33.232  29.114  23.268  1.00  0.00     0.116 C 
BRANCH   3   4
ATOM      4  N   UNL A   1      31.957  29.140  22.572  1.00  0.00    -0.352 N 
ATOM      5  C   UNL A   1      30.918  28.244  22.508  1.00  0.00     0.251 C 
ATOM      6  O   UNL A   1      29.895  28.584  21.915  1.00  0.00    -0.269 OA
ATOM      7  H   UNL A   1      31.809  29.956  22.043  1.00  0.00     0.163 HD
BRANCH   5   8
ATOM      8  C   UNL A   1      30.961  26.899  23.145  1.00  0.00     0.045 A 
ATOM      9  C   UNL A   1      30.991  24.389  24.446  1.00  0.00     0.191 A 
ATOM     10  C   UNL A   1      31.655  24.589  23.240  1.00  0.00     0.168 A 
ATOM     11  C   UNL A   1      30.232  25.440  24.950  1.00  0.00     0.168 A 
ATOM     12  F   UNL A   1      32.301  23.593  22.626  1.00  0.00    -0.203 F 
ATOM     13  C   UNL A   1      31.640  25.818  22.593  1.00  0.00     0.057 A 
ATOM     14  C   UNL A   1      30.215  26.687  24.316  1.00  0.00     0.057 A 
ATOM     15  F   UNL A   1      29.491  25.267  26.054  1.00  0.00    -0.203 F 
BRANCH   9  16
ATOM     16  O   UNL A   1      30.955  23.156  25.039  1.00  0.00    -0.481 OA
BRANCH  16  17
ATOM     17  C   UNL A   1      32.139  22.846  25.796  1.00  0.00     0.285 C 
BRANCH  17  18
ATOM     18  C   UNL A   1      32.724  21.568  25.307  1.00  0.00     0.075 A 
ATOM     19  C   UNL A   1      34.988  21.746  26.411  1.00  0.00     0.151 C 
ATOM     20  N   UNL A   1      34.006  21.133  25.553  1.00  0.00    -0.335 N 
ATOM     21  C   UNL A   1      34.208  19.992  24.828  1.00  0.00     0.199 A 
ATOM     22  N   UNL A   1      33.118  19.624  24.197  1.00  0.00    -0.245 NA
ATOM     23  C   UNL A   1      32.190  20.589  24.490  1.00  0.00     0.138 A 
ENDBRANCH  17  18
ENDBRANCH  16  17
ENDBRANCH   9  16
ENDBRANCH   5   8
ENDBRANCH   3   4
ENDBRANCH   2   3
ENDBRANCH   1   2
BRANCH   1  24
ATOM     24  C   UNL A   1      31.717  30.462  26.631  1.00  0.00     0.002 C 
BRANCH  24  25
ATOM     25  C   UNL A   1      31.528  31.973  26.783  1.00  0.00     0.021 C 
BRANCH  25  26
ATOM     26  C   UNL A   1      32.770  32.710  27.272  1.00  0.00     0.116 C 
BRANCH  26  27
ATOM     27  N   UNL A   1      32.480  34.106  27.568  1.00  0.00    -0.352 N 
ATOM     28  C   UNL A   1      32.976  34.906  28.567  1.00  0.00     0.251 C 
ATOM     29  H   UNL A   1      31.836  34.539  26.963  1.00  0.00     0.163 HD
ATOM     30  O   UNL A   1      32.437  35.971  28.837  1.00  0.00    -0.269 OA
BRANCH  28  31
ATOM     31  C   UNL A   1      34.164  34.465  29.327  1.00  0.00     0.039 A 
ATOM     32  C   UNL A   1      33.996  33.927  30.604  1.00  0.00     0.014 A 
ATOM     33  C   UNL A   1      35.440  34.583  28.770  1.00  0.00     0.014 A 
ATOM     34  C   UNL A   1      35.105  33.436  31.295  1.00  0.00     0.010 A 
ATOM     35  C   UNL A   1      36.532  34.027  29.427  1.00  0.00     0.010 A 
ATOM     36  C   UNL A   1      36.374  33.443  30.692  1.00  0.00    -0.014 A 
BRANCH  36  37
ATOM     37  C   UNL A   1      37.547  32.820  31.353  1.00  0.00     0.031 A 
ATOM     38  C   UNL A   1      38.198  31.608  30.750  1.00  0.00     0.074 A 
ATOM     39  C   UNL A   1      37.973  33.301  32.537  1.00  0.00     0.049 A 
ATOM     40  N   UNL A   1      39.166  30.870  31.227  1.00  0.00    -0.248 NA
ATOM     41  C   UNL A   1      37.678  31.154  29.450  1.00  0.00     0.031 C 
ATOM     42  C   UNL A   1      37.398  34.453  33.236  1.00  0.00     0.029 A 
ATOM     43  N   UNL A   1      38.979  32.878  33.367  1.00  0.00    -0.354 N 
ATOM     44  C   UNL A   1      39.367  29.862  30.292  1.00  0.00     0.074 A 
ATOM     45  C   UNL A   1      38.386  30.052  29.246  1.00  0.00     0.031 C 
ATOM     46  C   UNL A   1      38.077  34.659  34.374  1.00  0.00     0.029 A 
ATOM     47  C   UNL A   1      39.100  33.628  34.514  1.00  0.00     0.049 A 
ATOM     48  H   UNL A   1      39.560  32.110  33.163  1.00  0.00     0.167 HD
ATOM     49  C   UNL A   1      40.302  28.884  30.296  1.00  0.00     0.037 A 
ATOM     50  C   UNL A   1      39.931  33.491  35.565  1.00  0.00     0.037 A 
ATOM     51  C   UNL A   1      41.285  28.713  31.333  1.00  0.00     0.049 A 
ATOM     52  C   UNL A   1      40.931  32.367  35.566  1.00  0.00     0.074 A 
ATOM     53  C   UNL A   1      42.305  27.780  31.403  1.00  0.00     0.029 A 
ATOM     54  N   UNL A   1      41.366  29.485  32.481  1.00  0.00    -0.354 N 
ATOM     55  N   UNL A   1      41.148  31.457  34.649  1.00  0.00    -0.248 NA
ATOM     56  C   UNL A   1      41.797  32.247  36.748  1.00  0.00     0.031 C 
ATOM     57  C   UNL A   1      42.970  27.954  32.619  1.00  0.00     0.029 A 
ATOM     58  C   UNL A   1      42.402  29.031  33.281  1.00  0.00     0.049 A 
ATOM     59  H   UNL A   1      40.776  30.243  32.696  1.00  0.00     0.167 HD
ATOM     60  C   UNL A   1      42.188  30.673  35.129  1.00  0.00     0.074 A 
ATOM     61  C   UNL A   1      42.567  31.221  36.414  1.00  0.00     0.031 C 
ATOM     62  C   UNL A   1      42.774  29.594  34.555  1.00  0.00     0.037 A 
BRANCH  49  63
ATOM     63  C   UNL A   1      40.318  27.924  29.141  1.00  0.00     0.057 A 
ATOM     64  C   UNL A   1      41.075  28.197  27.994  1.00  0.00     0.134 A 
ATOM     65  C   UNL A   1      39.531  26.766  29.135  1.00  0.00     0.134 A 
ATOM     66  F   UNL A   1      41.844  29.293  27.928  1.00  0.00    -0.206 F 
ATOM     67  C   UNL A   1      41.036  27.358  26.878  1.00  0.00     0.040 A 
ATOM     68  C   UNL A   1      39.506  25.905  28.037  1.00  0.00     0.040 A 
ATOM     69  F   UNL A   1      38.790  26.442  30.206  1.00  0.00    -0.206 F 
ATOM     70  C   UNL A   1      40.252  26.206  26.900  1.00  0.00     0.006 A 
ENDBRANCH  49  63
BRANCH  50  71
ATOM     71  C   UNL A   1      39.862  34.458  36.689  1.00  0.00     0.057 A 
ATOM     72  C   UNL A   1      40.598  35.650  36.683  1.00  0.00     0.134 A 
ATOM     73  C   UNL A   1      39.073  34.196  37.815  1.00  0.00     0.134 A 
ATOM     74  F   UNL A   1      41.381  35.957  35.638  1.00  0.00    -0.206 F 
ATOM     75  C   UNL A   1      40.566  36.536  37.761  1.00  0.00     0.040 A 
ATOM     76  C   UNL A   1      39.011  35.085  38.890  1.00  0.00     0.040 A 
ATOM     77  F   UNL A   1      38.333  33.079  37.875  1.00  0.00    -0.206 F 
ATOM     78  C   UNL A   1      39.766  36.256  38.867  1.00  0.00     0.006 A 
ENDBRANCH  50  71
BRANCH  62  79
ATOM     79  C   UNL A   1      43.903  28.935  35.292  1.00  0.00     0.057 A 
ATOM     80  C   UNL A   1      45.234  29.251  34.988  1.00  0.00     0.134 A 
ATOM     81  C   UNL A   1      43.675  27.916  36.225  1.00  0.00     0.134 A 
ATOM     82  F   UNL A   1      45.518  30.211  34.094  1.00  0.00    -0.206 F 
ATOM     83  C   UNL A   1      46.298  28.560  35.567  1.00  0.00     0.040 A 
ATOM     84  C   UNL A   1      44.734  27.235  36.830  1.00  0.00     0.040 A 
ATOM     85  F   UNL A   1      42.425  27.574  36.568  1.00  0.00    -0.206 F 
ATOM     86  C   UNL A   1      46.049  27.548  36.490  1.00  0.00     0.006 A 
ENDBRANCH  62  79
ENDBRANCH  36  37
ENDBRANCH  28  31
ENDBRANCH  26  27
ENDBRANCH  25  26
ENDBRANCH  24  25
ENDBRANCH   1  24
TORSDOF 16
ENDMDL
