MODEL 1
REMARK VINA RESULT:     -12.3      0.000      0.000
REMARK SMILES CS(=O)(=O)c1ccc(C2=NN(c3ccc(C(=O)NCCCCCCNC(=O)c4ccc(-c5c6nc(c(-c7c(F)cccc7F)c7ccc([nH]7)c(-c7c(F)cccc7F)c7nc(c(-c8c(F)cccc8F)c8ccc5[nH]8)C=C7)C=C6)cc4)cc3)[C@H](c3ccc(F)cc3)C2)cc1
REMARK SMILES IDX 21 1 20 2 19 3 18 4 16 5 17 6 15 8 12 9 13 10 83 11 14 12
REMARK SMILES IDX 82 13 11 14 9 15 10 16 92 17 84 18 8 19 5 20 6 21 94 22 7 23
REMARK SMILES IDX 93 24 2 25 1 26 3 27 4 28 85 29 86 30 91 31 87 32 90 33
REMARK SMILES IDX 88 34 89 35 22 36 23 37 24 38 25 39 26 40 27 42 28 43 29 44
REMARK SMILES IDX 81 45 30 46 80 47 31 48 32 49 33 50 74 51 34 52 79 53 73 54
REMARK SMILES IDX 75 55 35 56 78 57 72 58 71 59 36 61 62 62 45 63 61 64 46 65
REMARK SMILES IDX 49 66 60 67 76 68 47 69 48 70 59 72 77 73 50 74 37 75 38 76
REMARK SMILES IDX 43 77 39 78 40 79 42 80 44 81 41 82 63 83 64 84 69 85 65 86
REMARK SMILES IDX 66 87 68 88 70 89 67 90 51 91 52 92 57 93 53 94 54 95 56 96
REMARK SMILES IDX 58 97 55 98
REMARK H PARENT 18 7 25 41 75 60 49 71
REMARK Flexibility Score: inf
ROOT
ATOM      1  C   UNL A   1      35.428  33.524  28.556  1.00  0.00     0.002 C 
ENDROOT
BRANCH   1   2
ATOM      2  C   UNL A   1      34.628  32.315  29.056  1.00  0.00     0.021 C 
BRANCH   2   3
ATOM      3  C   UNL A   1      34.363  31.269  27.971  1.00  0.00     0.116 C 
BRANCH   3   4
ATOM      4  N   UNL A   1      33.134  31.579  27.264  1.00  0.00    -0.352 N 
ATOM      5  C   UNL A   1      32.359  30.818  26.424  1.00  0.00     0.251 C 
ATOM      6  O   UNL A   1      31.317  31.298  25.985  1.00  0.00    -0.269 OA
ATOM      7  H   UNL A   1      32.798  32.492  27.412  1.00  0.00     0.163 HD
BRANCH   5   8
ATOM      8  C   UNL A   1      32.708  29.413  26.104  1.00  0.00     0.039 A 
ATOM      9  C   UNL A   1      33.482  26.738  25.704  1.00  0.00     0.060 A 
ATOM     10  C   UNL A   1      32.788  27.109  26.860  1.00  0.00     0.029 A 
ATOM     11  C   UNL A   1      33.705  27.703  24.717  1.00  0.00     0.029 A 
ATOM     12  C   UNL A   1      32.397  28.436  27.058  1.00  0.00     0.016 A 
ATOM     13  C   UNL A   1      33.310  29.028  24.904  1.00  0.00     0.016 A 
BRANCH   9  14
ATOM     14  N   UNL A   1      33.962  25.455  25.525  1.00  0.00    -0.257 N 
ATOM     15  C   UNL A   1      35.539  24.054  25.348  1.00  0.00     0.071 C 
ATOM     16  N   UNL A   1      35.199  25.142  25.964  1.00  0.00    -0.176 NA
ATOM     17  C   UNL A   1      34.537  23.529  24.353  1.00  0.00     0.091 C 
ATOM     18  C   UNL A   1      33.345  24.455  24.658  1.00  0.00     0.144 C 
BRANCH  15  19
ATOM     19  C   UNL A   1      36.842  23.410  25.586  1.00  0.00    -0.002 A 
ATOM     20  C   UNL A   1      39.191  22.036  26.158  1.00  0.00     0.067 A 
ATOM     21  C   UNL A   1      38.182  21.400  25.433  1.00  0.00     0.021 A 
ATOM     22  C   UNL A   1      39.034  23.357  26.598  1.00  0.00     0.021 A 
ATOM     23  C   UNL A   1      37.002  22.087  25.158  1.00  0.00     0.011 A 
ATOM     24  C   UNL A   1      37.859  24.052  26.299  1.00  0.00     0.011 A 
BRANCH  20  25
ATOM     25  S   UNL A   1      40.669  21.133  26.566  1.00  0.00     0.175 S 
ATOM     26  C   UNL A   1      41.988  22.082  25.859  1.00  0.00     0.163 C 
ATOM     27  O   UNL A   1      40.619  19.872  25.847  1.00  0.00    -0.224 OA
ATOM     28  O   UNL A   1      40.796  21.174  28.007  1.00  0.00    -0.224 OA
ENDBRANCH  20  25
ENDBRANCH  15  19
BRANCH  18  29
ATOM     29  C   UNL A   1      32.128  23.854  25.364  1.00  0.00    -0.023 A 
ATOM     30  C   UNL A   1      31.025  24.606  25.802  1.00  0.00     0.009 A 
ATOM     31  C   UNL A   1      32.070  22.450  25.510  1.00  0.00     0.009 A 
ATOM     32  C   UNL A   1      29.916  23.977  26.381  1.00  0.00     0.039 A 
ATOM     33  C   UNL A   1      30.953  21.823  26.065  1.00  0.00     0.039 A 
ATOM     34  C   UNL A   1      29.886  22.594  26.500  1.00  0.00     0.123 A 
ATOM     35  F   UNL A   1      28.811  21.997  27.030  1.00  0.00    -0.207 F 
ENDBRANCH  18  29
ENDBRANCH   9  14
ENDBRANCH   5   8
ENDBRANCH   3   4
ENDBRANCH   2   3
ENDBRANCH   1   2
BRANCH   1  36
ATOM     36  C   UNL A   1      34.575  34.691  28.042  1.00  0.00     0.002 C 
BRANCH  36  37
ATOM     37  C   UNL A   1      33.332  35.003  28.878  1.00  0.00     0.021 C 
BRANCH  37  38
ATOM     38  C   UNL A   1      33.342  36.380  29.535  1.00  0.00     0.116 C 
BRANCH  38  39
ATOM     39  N   UNL A   1      32.493  36.422  30.716  1.00  0.00    -0.352 N 
ATOM     40  C   UNL A   1      32.594  35.711  31.885  1.00  0.00     0.251 C 
ATOM     41  H   UNL A   1      31.736  37.050  30.670  1.00  0.00     0.163 HD
ATOM     42  O   UNL A   1      31.669  35.710  32.691  1.00  0.00    -0.269 OA
BRANCH  40  43
ATOM     43  C   UNL A   1      33.819  34.933  32.170  1.00  0.00     0.039 A 
ATOM     44  C   UNL A   1      35.059  35.572  32.096  1.00  0.00     0.014 A 
ATOM     45  C   UNL A   1      33.745  33.573  32.487  1.00  0.00     0.014 A 
ATOM     46  C   UNL A   1      36.222  34.860  32.396  1.00  0.00     0.010 A 
ATOM     47  C   UNL A   1      34.898  32.883  32.850  1.00  0.00     0.010 A 
ATOM     48  C   UNL A   1      36.147  33.518  32.803  1.00  0.00    -0.014 A 
BRANCH  48  49
ATOM     49  C   UNL A   1      37.367  32.761  33.181  1.00  0.00     0.031 A 
ATOM     50  C   UNL A   1      38.079  33.068  34.469  1.00  0.00     0.074 A 
ATOM     51  C   UNL A   1      37.868  31.840  32.335  1.00  0.00     0.049 A 
ATOM     52  N   UNL A   1      39.193  32.565  34.938  1.00  0.00    -0.248 NA
ATOM     53  C   UNL A   1      37.472  34.093  35.333  1.00  0.00     0.031 C 
ATOM     54  C   UNL A   1      37.293  31.482  31.037  1.00  0.00     0.029 A 
ATOM     55  N   UNL A   1      38.981  31.044  32.437  1.00  0.00    -0.354 N 
ATOM     56  C   UNL A   1      39.427  33.222  36.140  1.00  0.00     0.074 A 
ATOM     57  C   UNL A   1      38.367  34.192  36.305  1.00  0.00     0.031 C 
ATOM     58  C   UNL A   1      38.045  30.522  30.474  1.00  0.00     0.029 A 
ATOM     59  C   UNL A   1      39.172  30.223  31.351  1.00  0.00     0.049 A 
ATOM     60  H   UNL A   1      39.585  31.059  33.214  1.00  0.00     0.167 HD
ATOM     61  C   UNL A   1      40.421  33.018  37.035  1.00  0.00     0.037 A 
ATOM     62  C   UNL A   1      40.150  29.335  31.091  1.00  0.00     0.037 A 
ATOM     63  C   UNL A   1      41.461  32.033  36.882  1.00  0.00     0.049 A 
ATOM     64  C   UNL A   1      41.247  29.134  32.098  1.00  0.00     0.074 A 
ATOM     65  C   UNL A   1      42.480  31.712  37.760  1.00  0.00     0.029 A 
ATOM     66  N   UNL A   1      41.612  31.212  35.775  1.00  0.00    -0.354 N 
ATOM     67  N   UNL A   1      41.422  29.718  33.259  1.00  0.00    -0.248 NA
ATOM     68  C   UNL A   1      42.281  28.145  31.763  1.00  0.00     0.031 C 
ATOM     69  C   UNL A   1      43.274  30.725  37.167  1.00  0.00     0.029 A 
ATOM     70  C   UNL A   1      42.720  30.398  35.939  1.00  0.00     0.049 A 
ATOM     71  H   UNL A   1      41.019  31.209  34.989  1.00  0.00     0.167 HD
ATOM     72  C   UNL A   1      42.565  29.148  33.804  1.00  0.00     0.074 A 
ATOM     73  C   UNL A   1      43.036  28.163  32.851  1.00  0.00     0.031 C 
ATOM     74  C   UNL A   1      43.171  29.417  34.986  1.00  0.00     0.037 A 
BRANCH  61  75
ATOM     75  C   UNL A   1      40.430  33.875  38.268  1.00  0.00     0.057 A 
ATOM     76  C   UNL A   1      41.178  35.058  38.340  1.00  0.00     0.134 A 
ATOM     77  C   UNL A   1      39.653  33.534  39.383  1.00  0.00     0.134 A 
ATOM     78  F   UNL A   1      41.951  35.436  37.312  1.00  0.00    -0.206 F 
ATOM     79  C   UNL A   1      41.171  35.858  39.484  1.00  0.00     0.040 A 
ATOM     80  C   UNL A   1      39.618  34.339  40.522  1.00  0.00     0.040 A 
ATOM     81  F   UNL A   1      38.908  32.417  39.379  1.00  0.00    -0.206 F 
ATOM     82  C   UNL A   1      40.383  35.502  40.577  1.00  0.00     0.006 A 
ENDBRANCH  61  75
BRANCH  62  83
ATOM     83  C   UNL A   1      40.125  28.549  29.832  1.00  0.00     0.057 A 
ATOM     84  C   UNL A   1      40.848  28.966  28.709  1.00  0.00     0.134 A 
ATOM     85  C   UNL A   1      39.376  27.372  29.717  1.00  0.00     0.134 A 
ATOM     86  F   UNL A   1      41.569  30.096  28.753  1.00  0.00    -0.206 F 
ATOM     87  C   UNL A   1      40.812  28.253  27.510  1.00  0.00     0.040 A 
ATOM     88  C   UNL A   1      39.351  26.635  28.531  1.00  0.00     0.040 A 
ATOM     89  F   UNL A   1      38.667  26.916  30.760  1.00  0.00    -0.206 F 
ATOM     90  C   UNL A   1      40.065  27.080  27.422  1.00  0.00     0.006 A 
ENDBRANCH  62  83
BRANCH  74  91
ATOM     91  C   UNL A   1      44.386  28.608  35.333  1.00  0.00     0.057 A 
ATOM     92  C   UNL A   1      44.293  27.382  36.002  1.00  0.00     0.134 A 
ATOM     93  C   UNL A   1      45.662  29.045  34.956  1.00  0.00     0.134 A 
ATOM     94  F   UNL A   1      43.101  26.915  36.403  1.00  0.00    -0.206 F 
ATOM     95  C   UNL A   1      45.430  26.630  36.304  1.00  0.00     0.040 A 
ATOM     96  C   UNL A   1      46.802  28.290  35.228  1.00  0.00     0.040 A 
ATOM     97  F   UNL A   1      45.820  30.207  34.303  1.00  0.00    -0.206 F 
ATOM     98  C   UNL A   1      46.688  27.080  35.910  1.00  0.00     0.006 A 
ENDBRANCH  74  91
ENDBRANCH  48  49
ENDBRANCH  40  43
ENDBRANCH  38  39
ENDBRANCH  37  38
ENDBRANCH  36  37
ENDBRANCH   1  36
TORSDOF 17
ENDMDL
MODEL 2
REMARK VINA RESULT:     -12.1      0.459      5.824
REMARK SMILES CS(=O)(=O)c1ccc(C2=NN(c3ccc(C(=O)NCCCCCCNC(=O)c4ccc(-c5c6nc(c(-c7c(F)cccc7F)c7ccc([nH]7)c(-c7c(F)cccc7F)c7nc(c(-c8c(F)cccc8F)c8ccc5[nH]8)C=C7)C=C6)cc4)cc3)[C@H](c3ccc(F)cc3)C2)cc1
REMARK SMILES IDX 21 1 20 2 19 3 18 4 16 5 17 6 15 8 12 9 13 10 83 11 14 12
REMARK SMILES IDX 82 13 11 14 9 15 10 16 92 17 84 18 8 19 5 20 6 21 94 22 7 23
REMARK SMILES IDX 93 24 2 25 1 26 3 27 4 28 85 29 86 30 91 31 87 32 90 33
REMARK SMILES IDX 88 34 89 35 22 36 23 37 24 38 25 39 26 40 27 42 28 43 29 44
REMARK SMILES IDX 81 45 30 46 80 47 31 48 32 49 33 50 74 51 34 52 79 53 73 54
REMARK SMILES IDX 75 55 35 56 78 57 72 58 71 59 36 61 62 62 45 63 61 64 46 65
REMARK SMILES IDX 49 66 60 67 76 68 47 69 48 70 59 72 77 73 50 74 37 75 38 76
REMARK SMILES IDX 43 77 39 78 40 79 42 80 44 81 41 82 63 83 64 84 69 85 65 86
REMARK SMILES IDX 66 87 68 88 70 89 67 90 51 91 52 92 57 93 53 94 54 95 56 96
REMARK SMILES IDX 58 97 55 98
REMARK H PARENT 18 7 25 41 75 60 49 71
REMARK Flexibility Score: inf
ROOT
ATOM      1  C   UNL A   1      35.376  33.476  28.805  1.00  0.00     0.002 C 
ENDROOT
BRANCH   1   2
ATOM      2  C   UNL A   1      34.476  32.261  29.057  1.00  0.00     0.021 C 
BRANCH   2   3
ATOM      3  C   UNL A   1      34.329  31.349  27.837  1.00  0.00     0.116 C 
BRANCH   3   4
ATOM      4  N   UNL A   1      33.073  31.613  27.160  1.00  0.00    -0.352 N 
ATOM      5  C   UNL A   1      32.298  30.819  26.352  1.00  0.00     0.251 C 
ATOM      6  O   UNL A   1      31.230  31.263  25.936  1.00  0.00    -0.269 OA
ATOM      7  H   UNL A   1      32.714  32.519  27.306  1.00  0.00     0.163 HD
BRANCH   5   8
ATOM      8  C   UNL A   1      32.679  29.421  26.040  1.00  0.00     0.039 A 
ATOM      9  C   UNL A   1      33.514  26.763  25.655  1.00  0.00     0.060 A 
ATOM     10  C   UNL A   1      32.817  27.125  26.812  1.00  0.00     0.029 A 
ATOM     11  C   UNL A   1      33.710  27.725  24.660  1.00  0.00     0.029 A 
ATOM     12  C   UNL A   1      32.395  28.444  27.002  1.00  0.00     0.016 A 
ATOM     13  C   UNL A   1      33.285  29.042  24.840  1.00  0.00     0.016 A 
BRANCH   9  14
ATOM     14  N   UNL A   1      34.024  25.490  25.483  1.00  0.00    -0.257 N 
ATOM     15  C   UNL A   1      35.634  24.125  25.315  1.00  0.00     0.071 C 
ATOM     16  N   UNL A   1      35.268  25.208  25.925  1.00  0.00    -0.176 NA
ATOM     17  C   UNL A   1      34.646  23.572  24.320  1.00  0.00     0.091 C 
ATOM     18  C   UNL A   1      33.432  24.472  24.619  1.00  0.00     0.144 C 
BRANCH  15  19
ATOM     19  C   UNL A   1      36.950  23.512  25.558  1.00  0.00    -0.002 A 
ATOM     20  C   UNL A   1      39.327  22.180  26.114  1.00  0.00     0.067 A 
ATOM     21  C   UNL A   1      38.392  21.589  25.263  1.00  0.00     0.021 A 
ATOM     22  C   UNL A   1      39.084  23.435  26.688  1.00  0.00     0.021 A 
ATOM     23  C   UNL A   1      37.197  22.254  24.996  1.00  0.00     0.011 A 
ATOM     24  C   UNL A   1      37.895  24.111  26.398  1.00  0.00     0.011 A 
BRANCH  20  25
ATOM     25  S   UNL A   1      40.822  21.298  26.507  1.00  0.00     0.175 S 
ATOM     26  C   UNL A   1      41.382  22.015  28.028  1.00  0.00     0.163 C 
ATOM     27  O   UNL A   1      41.803  21.633  25.492  1.00  0.00    -0.224 OA
ATOM     28  O   UNL A   1      40.439  19.925  26.761  1.00  0.00    -0.224 OA
ENDBRANCH  20  25
ENDBRANCH  15  19
BRANCH  18  29
ATOM     29  C   UNL A   1      32.228  23.847  25.326  1.00  0.00    -0.023 A 
ATOM     30  C   UNL A   1      32.239  22.571  25.914  1.00  0.00     0.009 A 
ATOM     31  C   UNL A   1      31.060  24.629  25.469  1.00  0.00     0.009 A 
ATOM     32  C   UNL A   1      31.118  22.092  26.603  1.00  0.00     0.039 A 
ATOM     33  C   UNL A   1      29.953  24.160  26.177  1.00  0.00     0.039 A 
ATOM     34  C   UNL A   1      29.990  22.892  26.735  1.00  0.00     0.123 A 
ATOM     35  F   UNL A   1      28.931  22.438  27.417  1.00  0.00    -0.207 F 
ENDBRANCH  18  29
ENDBRANCH   9  14
ENDBRANCH   5   8
ENDBRANCH   3   4
ENDBRANCH   2   3
ENDBRANCH   1   2
BRANCH   1  36
ATOM     36  C   UNL A   1      34.668  34.682  28.176  1.00  0.00     0.002 C 
BRANCH  36  37
ATOM     37  C   UNL A   1      33.324  35.049  28.812  1.00  0.00     0.021 C 
BRANCH  37  38
ATOM     38  C   UNL A   1      33.345  36.330  29.640  1.00  0.00     0.116 C 
BRANCH  38  39
ATOM     39  N   UNL A   1      32.445  36.252  30.780  1.00  0.00    -0.352 N 
ATOM     40  C   UNL A   1      32.554  35.501  31.923  1.00  0.00     0.251 C 
ATOM     41  H   UNL A   1      31.641  36.818  30.722  1.00  0.00     0.163 HD
ATOM     42  O   UNL A   1      31.597  35.391  32.683  1.00  0.00    -0.269 OA
BRANCH  40  43
ATOM     43  C   UNL A   1      33.824  34.813  32.234  1.00  0.00     0.039 A 
ATOM     44  C   UNL A   1      35.018  35.536  32.174  1.00  0.00     0.014 A 
ATOM     45  C   UNL A   1      33.840  33.454  32.564  1.00  0.00     0.014 A 
ATOM     46  C   UNL A   1      36.223  34.910  32.498  1.00  0.00     0.010 A 
ATOM     47  C   UNL A   1      35.032  32.850  32.952  1.00  0.00     0.010 A 
ATOM     48  C   UNL A   1      36.235  33.570  32.918  1.00  0.00    -0.014 A 
BRANCH  48  49
ATOM     49  C   UNL A   1      37.499  32.903  33.322  1.00  0.00     0.031 A 
ATOM     50  C   UNL A   1      38.121  31.861  32.434  1.00  0.00     0.074 A 
ATOM     51  C   UNL A   1      38.051  33.192  34.515  1.00  0.00     0.049 A 
ATOM     52  N   UNL A   1      39.181  31.121  32.645  1.00  0.00    -0.248 NA
ATOM     53  C   UNL A   1      37.450  31.597  31.152  1.00  0.00     0.031 C 
ATOM     54  C   UNL A   1      37.521  34.153  35.484  1.00  0.00     0.029 A 
ATOM     55  N   UNL A   1      39.179  32.697  35.122  1.00  0.00    -0.354 N 
ATOM     56  C   UNL A   1      39.293  30.298  31.532  1.00  0.00     0.074 A 
ATOM     57  C   UNL A   1      38.169  30.593  30.672  1.00  0.00     0.031 C 
ATOM     58  C   UNL A   1      38.333  34.195  36.552  1.00  0.00     0.029 A 
ATOM     59  C   UNL A   1      39.420  33.239  36.362  1.00  0.00     0.049 A 
ATOM     60  H   UNL A   1      39.760  32.020  34.708  1.00  0.00     0.167 HD
ATOM     61  C   UNL A   1      40.259  29.394  31.244  1.00  0.00     0.037 A 
ATOM     62  C   UNL A   1      40.403  32.988  37.247  1.00  0.00     0.037 A 
ATOM     63  C   UNL A   1      41.391  29.120  32.090  1.00  0.00     0.049 A 
ATOM     64  C   UNL A   1      41.458  31.974  36.905  1.00  0.00     0.074 A 
ATOM     65  C   UNL A   1      42.453  28.264  31.858  1.00  0.00     0.029 A 
ATOM     66  N   UNL A   1      41.607  29.699  33.331  1.00  0.00    -0.354 N 
ATOM     67  N   UNL A   1      41.586  31.246  35.821  1.00  0.00    -0.248 NA
ATOM     68  C   UNL A   1      42.510  31.749  37.907  1.00  0.00     0.031 C 
ATOM     69  C   UNL A   1      43.290  28.293  32.978  1.00  0.00     0.029 A 
ATOM     70  C   UNL A   1      42.775  29.204  33.886  1.00  0.00     0.049 A 
ATOM     71  H   UNL A   1      41.017  30.364  33.754  1.00  0.00     0.167 HD
ATOM     72  C   UNL A   1      42.745  30.502  35.998  1.00  0.00     0.074 A 
ATOM     73  C   UNL A   1      43.289  30.874  37.288  1.00  0.00     0.031 C 
ATOM     74  C   UNL A   1      43.308  29.591  35.167  1.00  0.00     0.037 A 
BRANCH  61  75
ATOM     75  C   UNL A   1      40.136  28.637  29.953  1.00  0.00     0.057 A 
ATOM     76  C   UNL A   1      39.364  27.472  29.851  1.00  0.00     0.134 A 
ATOM     77  C   UNL A   1      40.766  29.098  28.789  1.00  0.00     0.134 A 
ATOM     78  F   UNL A   1      38.744  26.971  30.929  1.00  0.00    -0.206 F 
ATOM     79  C   UNL A   1      39.242  26.780  28.645  1.00  0.00     0.040 A 
ATOM     80  C   UNL A   1      40.629  28.429  27.572  1.00  0.00     0.040 A 
ATOM     81  F   UNL A   1      41.515  30.211  28.815  1.00  0.00    -0.206 F 
ATOM     82  C   UNL A   1      39.870  27.263  27.499  1.00  0.00     0.006 A 
ENDBRANCH  61  75
BRANCH  62  83
ATOM     83  C   UNL A   1      40.451  33.726  38.534  1.00  0.00     0.057 A 
ATOM     84  C   UNL A   1      41.270  34.850  38.688  1.00  0.00     0.134 A 
ATOM     85  C   UNL A   1      39.689  33.325  39.638  1.00  0.00     0.134 A 
ATOM     86  F   UNL A   1      42.037  35.270  37.672  1.00  0.00    -0.206 F 
ATOM     87  C   UNL A   1      41.347  35.537  39.900  1.00  0.00     0.040 A 
ATOM     88  C   UNL A   1      39.738  34.019  40.849  1.00  0.00     0.040 A 
ATOM     89  F   UNL A   1      38.879  32.261  39.552  1.00  0.00    -0.206 F 
ATOM     90  C   UNL A   1      40.575  35.124  40.983  1.00  0.00     0.006 A 
ENDBRANCH  62  83
BRANCH  74  91
ATOM     91  C   UNL A   1      44.597  28.963  35.609  1.00  0.00     0.057 A 
ATOM     92  C   UNL A   1      45.840  29.528  35.300  1.00  0.00     0.134 A 
ATOM     93  C   UNL A   1      44.589  27.799  36.389  1.00  0.00     0.134 A 
ATOM     94  F   UNL A   1      45.915  30.634  34.546  1.00  0.00    -0.206 F 
ATOM     95  C   UNL A   1      47.032  28.944  35.733  1.00  0.00     0.040 A 
ATOM     96  C   UNL A   1      45.773  27.222  36.850  1.00  0.00     0.040 A 
ATOM     97  F   UNL A   1      43.431  27.213  36.728  1.00  0.00    -0.206 F 
ATOM     98  C   UNL A   1      46.999  27.792  36.516  1.00  0.00     0.006 A 
ENDBRANCH  74  91
ENDBRANCH  48  49
ENDBRANCH  40  43
ENDBRANCH  38  39
ENDBRANCH  37  38
ENDBRANCH  36  37
ENDBRANCH   1  36
TORSDOF 17
ENDMDL
MODEL 3
REMARK VINA RESULT:     -12.1      7.268     10.603
REMARK SMILES CS(=O)(=O)c1ccc(C2=NN(c3ccc(C(=O)NCCCCCCNC(=O)c4ccc(-c5c6nc(c(-c7c(F)cccc7F)c7ccc([nH]7)c(-c7c(F)cccc7F)c7nc(c(-c8c(F)cccc8F)c8ccc5[nH]8)C=C7)C=C6)cc4)cc3)[C@H](c3ccc(F)cc3)C2)cc1
REMARK SMILES IDX 21 1 20 2 19 3 18 4 16 5 17 6 15 8 12 9 13 10 83 11 14 12
REMARK SMILES IDX 82 13 11 14 9 15 10 16 92 17 84 18 8 19 5 20 6 21 94 22 7 23
REMARK SMILES IDX 93 24 2 25 1 26 3 27 4 28 85 29 86 30 91 31 87 32 90 33
REMARK SMILES IDX 88 34 89 35 22 36 23 37 24 38 25 39 26 40 27 42 28 43 29 44
REMARK SMILES IDX 81 45 30 46 80 47 31 48 32 49 33 50 74 51 34 52 79 53 73 54
REMARK SMILES IDX 75 55 35 56 78 57 72 58 71 59 36 61 62 62 45 63 61 64 46 65
REMARK SMILES IDX 49 66 60 67 76 68 47 69 48 70 59 72 77 73 50 74 37 75 38 76
REMARK SMILES IDX 43 77 39 78 40 79 42 80 44 81 41 82 63 83 64 84 69 85 65 86
REMARK SMILES IDX 66 87 68 88 70 89 67 90 51 91 52 92 57 93 53 94 54 95 56 96
REMARK SMILES IDX 58 97 55 98
REMARK H PARENT 18 7 25 41 75 60 49 71
REMARK Flexibility Score: inf
ROOT
ATOM      1  C   UNL A   1      38.802  29.096  28.003  1.00  0.00     0.002 C 
ENDROOT
BRANCH   1   2
ATOM      2  C   UNL A   1      37.615  30.066  27.970  1.00  0.00     0.021 C 
BRANCH   2   3
ATOM      3  C   UNL A   1      36.299  29.434  28.429  1.00  0.00     0.116 C 
BRANCH   3   4
ATOM      4  N   UNL A   1      35.223  30.405  28.357  1.00  0.00    -0.352 N 
ATOM      5  C   UNL A   1      33.999  30.352  27.740  1.00  0.00     0.251 C 
ATOM      6  O   UNL A   1      33.228  31.301  27.873  1.00  0.00    -0.269 OA
ATOM      7  H   UNL A   1      35.402  31.248  28.834  1.00  0.00     0.163 HD
BRANCH   5   8
ATOM      8  C   UNL A   1      33.557  29.152  26.990  1.00  0.00     0.039 A 
ATOM      9  C   UNL A   1      32.719  27.008  25.373  1.00  0.00     0.060 A 
ATOM     10  C   UNL A   1      33.873  27.730  25.050  1.00  0.00     0.029 A 
ATOM     11  C   UNL A   1      32.043  27.317  26.557  1.00  0.00     0.029 A 
ATOM     12  C   UNL A   1      34.294  28.791  25.856  1.00  0.00     0.016 A 
ATOM     13  C   UNL A   1      32.463  28.371  27.371  1.00  0.00     0.016 A 
BRANCH   9  14
ATOM     14  N   UNL A   1      32.227  26.016  24.546  1.00  0.00    -0.257 N 
ATOM     15  C   UNL A   1      32.194  24.026  23.825  1.00  0.00     0.071 C 
ATOM     16  N   UNL A   1      32.371  24.723  24.903  1.00  0.00    -0.176 NA
ATOM     17  C   UNL A   1      31.948  24.822  22.569  1.00  0.00     0.091 C 
ATOM     18  C   UNL A   1      31.787  26.231  23.170  1.00  0.00     0.144 C 
BRANCH  15  19
ATOM     19  C   UNL A   1      32.272  22.556  23.837  1.00  0.00    -0.002 A 
ATOM     20  C   UNL A   1      32.645  19.801  23.872  1.00  0.00     0.067 A 
ATOM     21  C   UNL A   1      33.057  20.563  24.966  1.00  0.00     0.021 A 
ATOM     22  C   UNL A   1      32.047  20.406  22.759  1.00  0.00     0.021 A 
ATOM     23  C   UNL A   1      32.878  21.945  24.941  1.00  0.00     0.011 A 
ATOM     24  C   UNL A   1      31.846  21.790  22.748  1.00  0.00     0.011 A 
BRANCH  20  25
ATOM     25  S   UNL A   1      32.937  18.045  23.879  1.00  0.00     0.175 S 
ATOM     26  C   UNL A   1      34.610  17.867  24.431  1.00  0.00     0.163 C 
ATOM     27  O   UNL A   1      32.893  17.593  22.500  1.00  0.00    -0.224 OA
ATOM     28  O   UNL A   1      32.060  17.482  24.884  1.00  0.00    -0.224 OA
ENDBRANCH  20  25
ENDBRANCH  15  19
BRANCH  18  29
ATOM     29  C   UNL A   1      30.392  26.857  23.176  1.00  0.00    -0.023 A 
ATOM     30  C   UNL A   1      29.272  26.272  23.790  1.00  0.00     0.009 A 
ATOM     31  C   UNL A   1      30.235  28.139  22.603  1.00  0.00     0.009 A 
ATOM     32  C   UNL A   1      28.040  26.936  23.813  1.00  0.00     0.039 A 
ATOM     33  C   UNL A   1      29.012  28.810  22.649  1.00  0.00     0.039 A 
ATOM     34  C   UNL A   1      27.923  28.201  23.250  1.00  0.00     0.123 A 
ATOM     35  F   UNL A   1      26.749  28.842  23.298  1.00  0.00    -0.207 F 
ENDBRANCH  18  29
ENDBRANCH   9  14
ENDBRANCH   5   8
ENDBRANCH   3   4
ENDBRANCH   2   3
ENDBRANCH   1   2
BRANCH   1  36
ATOM     36  C   UNL A   1      38.532  27.773  28.732  1.00  0.00     0.002 C 
BRANCH  36  37
ATOM     37  C   UNL A   1      39.635  26.721  28.594  1.00  0.00     0.021 C 
BRANCH  37  38
ATOM     38  C   UNL A   1      39.728  26.079  27.214  1.00  0.00     0.116 C 
BRANCH  38  39
ATOM     39  N   UNL A   1      40.222  24.713  27.284  1.00  0.00    -0.352 N 
ATOM     40  C   UNL A   1      41.495  24.238  27.093  1.00  0.00     0.251 C 
ATOM     41  H   UNL A   1      39.546  24.030  27.499  1.00  0.00     0.163 HD
ATOM     42  O   UNL A   1      41.695  23.034  26.975  1.00  0.00    -0.269 OA
BRANCH  40  43
ATOM     43  C   UNL A   1      42.629  25.184  27.017  1.00  0.00     0.039 A 
ATOM     44  C   UNL A   1      43.031  25.658  25.765  1.00  0.00     0.014 A 
ATOM     45  C   UNL A   1      43.307  25.584  28.172  1.00  0.00     0.014 A 
ATOM     46  C   UNL A   1      44.078  26.578  25.678  1.00  0.00     0.010 A 
ATOM     47  C   UNL A   1      44.305  26.551  28.090  1.00  0.00     0.010 A 
ATOM     48  C   UNL A   1      44.703  27.053  26.843  1.00  0.00    -0.014 A 
BRANCH  48  49
ATOM     49  C   UNL A   1      45.779  28.073  26.775  1.00  0.00     0.031 A 
ATOM     50  C   UNL A   1      45.439  29.536  26.840  1.00  0.00     0.074 A 
ATOM     51  C   UNL A   1      47.055  27.684  26.593  1.00  0.00     0.049 A 
ATOM     52  N   UNL A   1      46.228  30.575  26.728  1.00  0.00    -0.248 NA
ATOM     53  C   UNL A   1      44.021  29.878  27.031  1.00  0.00     0.031 C 
ATOM     54  C   UNL A   1      47.509  26.297  26.472  1.00  0.00     0.029 A 
ATOM     55  N   UNL A   1      48.206  28.421  26.468  1.00  0.00    -0.354 N 
ATOM     56  C   UNL A   1      45.403  31.688  26.819  1.00  0.00     0.074 A 
ATOM     57  C   UNL A   1      44.047  31.200  26.947  1.00  0.00     0.031 C 
ATOM     58  C   UNL A   1      48.842  26.283  26.313  1.00  0.00     0.029 A 
ATOM     59  C   UNL A   1      49.333  27.656  26.284  1.00  0.00     0.049 A 
ATOM     60  H   UNL A   1      48.223  29.404  26.506  1.00  0.00     0.167 HD
ATOM     61  C   UNL A   1      45.746  32.997  26.821  1.00  0.00     0.037 A 
ATOM     62  C   UNL A   1      50.616  28.023  26.105  1.00  0.00     0.037 A 
ATOM     63  C   UNL A   1      47.099  33.481  26.720  1.00  0.00     0.049 A 
ATOM     64  C   UNL A   1      50.969  29.484  26.102  1.00  0.00     0.074 A 
ATOM     65  C   UNL A   1      47.554  34.786  26.768  1.00  0.00     0.029 A 
ATOM     66  N   UNL A   1      48.214  32.674  26.549  1.00  0.00    -0.354 N 
ATOM     67  N   UNL A   1      50.186  30.525  26.252  1.00  0.00    -0.248 NA
ATOM     68  C   UNL A   1      52.387  29.822  25.912  1.00  0.00     0.031 C 
ATOM     69  C   UNL A   1      48.940  34.773  26.585  1.00  0.00     0.029 A 
ATOM     70  C   UNL A   1      49.354  33.456  26.470  1.00  0.00     0.049 A 
ATOM     71  H   UNL A   1      48.196  31.691  26.492  1.00  0.00     0.167 HD
ATOM     72  C   UNL A   1      51.017  31.636  26.203  1.00  0.00     0.074 A 
ATOM     73  C   UNL A   1      52.366  31.142  26.022  1.00  0.00     0.031 C 
ATOM     74  C   UNL A   1      50.691  32.949  26.299  1.00  0.00     0.037 A 
BRANCH  61  75
ATOM     75  C   UNL A   1      44.639  34.004  26.941  1.00  0.00     0.057 A 
ATOM     76  C   UNL A   1      43.993  34.530  25.814  1.00  0.00     0.134 A 
ATOM     77  C   UNL A   1      44.187  34.425  28.199  1.00  0.00     0.134 A 
ATOM     78  F   UNL A   1      44.384  34.177  24.580  1.00  0.00    -0.206 F 
ATOM     79  C   UNL A   1      42.955  35.455  25.932  1.00  0.00     0.040 A 
ATOM     80  C   UNL A   1      43.132  35.329  28.330  1.00  0.00     0.040 A 
ATOM     81  F   UNL A   1      44.757  33.957  29.320  1.00  0.00    -0.206 F 
ATOM     82  C   UNL A   1      42.517  35.852  27.194  1.00  0.00     0.006 A 
ENDBRANCH  61  75
BRANCH  62  83
ATOM     83  C   UNL A   1      51.668  26.989  25.938  1.00  0.00     0.057 A 
ATOM     84  C   UNL A   1      52.393  26.516  27.037  1.00  0.00     0.134 A 
ATOM     85  C   UNL A   1      51.980  26.456  24.681  1.00  0.00     0.134 A 
ATOM     86  F   UNL A   1      52.152  27.003  28.263  1.00  0.00    -0.206 F 
ATOM     87  C   UNL A   1      53.404  25.565  26.892  1.00  0.00     0.040 A 
ATOM     88  C   UNL A   1      52.972  25.487  24.525  1.00  0.00     0.040 A 
ATOM     89  F   UNL A   1      51.316  26.863  23.589  1.00  0.00    -0.206 F 
ATOM     90  C   UNL A   1      53.692  25.044  25.632  1.00  0.00     0.006 A 
ENDBRANCH  62  83
BRANCH  74  91
ATOM     91  C   UNL A   1      51.816  33.939  26.249  1.00  0.00     0.057 A 
ATOM     92  C   UNL A   1      52.500  34.343  27.403  1.00  0.00     0.134 A 
ATOM     93  C   UNL A   1      52.246  34.466  25.024  1.00  0.00     0.134 A 
ATOM     94  F   UNL A   1      52.127  33.886  28.607  1.00  0.00    -0.206 F 
ATOM     95  C   UNL A   1      53.557  35.252  27.342  1.00  0.00     0.040 A 
ATOM     96  C   UNL A   1      53.319  35.354  24.948  1.00  0.00     0.040 A 
ATOM     97  F   UNL A   1      51.640  34.113  23.880  1.00  0.00    -0.206 F 
ATOM     98  C   UNL A   1      53.973  35.755  26.110  1.00  0.00     0.006 A 
ENDBRANCH  74  91
ENDBRANCH  48  49
ENDBRANCH  40  43
ENDBRANCH  38  39
ENDBRANCH  37  38
ENDBRANCH  36  37
ENDBRANCH   1  36
TORSDOF 17
ENDMDL
