MODEL 1
REMARK VINA RESULT:     -11.7      0.000      0.000
REMARK SMILES O=C(NCCCCCCNC(=O)c1c(-c2ccc(Cl)cc2)noc1CO[C@@H]1CCCCO1)c1ccc(-c2c3nc(c(-c4c(F)cccc4F)c4ccc([nH]4)c(-c4c(F)cccc4F)c4nc(c(-c5c(F)cccc5F)c5ccc2[nH]5)C=C4)C=C3)cc1
REMARK SMILES IDX 7 1 6 2 5 3 4 4 3 5 1 6 2 7 33 9 34 10 86 11 35 12 85 13
REMARK SMILES IDX 36 14 37 15 38 16 79 17 39 18 84 19 78 20 80 21 40 22 83 23
REMARK SMILES IDX 77 24 76 25 41 27 67 28 50 29 66 30 51 31 54 32 65 33 81 34
REMARK SMILES IDX 52 35 53 36 64 38 82 39 55 40 42 41 43 42 48 43 44 44 45 45
REMARK SMILES IDX 47 46 49 47 46 48 68 49 69 50 74 51 70 52 71 53 73 54 75 55
REMARK SMILES IDX 72 56 56 57 57 58 62 59 58 60 59 61 61 62 63 63 60 64 8 65
REMARK SMILES IDX 9 66 10 67 11 68 12 70 13 71 14 72 24 73 22 74 23 75 15 76
REMARK SMILES IDX 16 77 21 78 17 79 20 80 18 81 19 82 25 83 26 84 27 85 28 86
REMARK SMILES IDX 32 87 29 88 31 89 30 90
REMARK H PARENT 3 8 80 26 54 37 10 69
REMARK Flexibility Score: inf
ROOT
ATOM      1  C   UNL A   1      36.099  21.733  25.689  1.00  0.00     0.002 C 
ENDROOT
BRANCH   1   2
ATOM      2  C   UNL A   1      36.387  20.386  25.019  1.00  0.00     0.002 C 
BRANCH   2   3
ATOM      3  C   UNL A   1      37.838  20.131  24.613  1.00  0.00     0.021 C 
BRANCH   3   4
ATOM      4  C   UNL A   1      38.869  20.289  25.721  1.00  0.00     0.116 C 
BRANCH   4   5
ATOM      5  N   UNL A   1      39.935  19.306  25.681  1.00  0.00    -0.352 N 
ATOM      6  O   UNL A   1      42.064  18.573  25.896  1.00  0.00    -0.269 OA
ATOM      7  C   UNL A   1      41.249  19.472  26.055  1.00  0.00     0.251 C 
ATOM      8  H   UNL A   1      39.688  18.412  25.347  1.00  0.00     0.163 HD
BRANCH   7   9
ATOM      9  C   UNL A   1      41.679  20.773  26.619  1.00  0.00     0.039 A 
ATOM     10  C   UNL A   1      41.620  21.007  27.994  1.00  0.00     0.014 A 
ATOM     11  C   UNL A   1      42.115  21.780  25.752  1.00  0.00     0.014 A 
ATOM     12  C   UNL A   1      41.863  22.285  28.487  1.00  0.00     0.010 A 
ATOM     13  C   UNL A   1      42.437  23.043  26.260  1.00  0.00     0.010 A 
ATOM     14  C   UNL A   1      42.284  23.314  27.628  1.00  0.00    -0.014 A 
BRANCH  14  15
ATOM     15  C   UNL A   1      42.619  24.640  28.206  1.00  0.00     0.031 A 
ATOM     16  C   UNL A   1      44.035  25.019  28.536  1.00  0.00     0.074 A 
ATOM     17  C   UNL A   1      41.623  25.529  28.381  1.00  0.00     0.049 A 
ATOM     18  N   UNL A   1      44.496  26.157  28.989  1.00  0.00    -0.248 NA
ATOM     19  C   UNL A   1      45.068  23.990  28.340  1.00  0.00     0.031 C 
ATOM     20  C   UNL A   1      40.206  25.265  28.118  1.00  0.00     0.029 A 
ATOM     21  N   UNL A   1      41.647  26.837  28.790  1.00  0.00    -0.354 N 
ATOM     22  C   UNL A   1      45.864  25.982  29.145  1.00  0.00     0.074 A 
ATOM     23  C   UNL A   1      46.160  24.618  28.759  1.00  0.00     0.031 C 
ATOM     24  C   UNL A   1      39.504  26.389  28.318  1.00  0.00     0.029 A 
ATOM     25  C   UNL A   1      40.412  27.437  28.770  1.00  0.00     0.049 A 
ATOM     26  H   UNL A   1      42.469  27.299  29.071  1.00  0.00     0.167 HD
ATOM     27  C   UNL A   1      46.789  26.878  29.566  1.00  0.00     0.037 A 
ATOM     28  C   UNL A   1      40.048  28.694  29.083  1.00  0.00     0.037 A 
ATOM     29  C   UNL A   1      46.494  28.238  29.942  1.00  0.00     0.049 A 
ATOM     30  C   UNL A   1      41.096  29.670  29.524  1.00  0.00     0.074 A 
ATOM     31  C   UNL A   1      47.365  29.223  30.380  1.00  0.00     0.029 A 
ATOM     32  N   UNL A   1      45.230  28.808  29.917  1.00  0.00    -0.354 N 
ATOM     33  N   UNL A   1      42.386  29.488  29.657  1.00  0.00    -0.248 NA
ATOM     34  C   UNL A   1      40.637  31.024  29.861  1.00  0.00     0.031 C 
ATOM     35  C   UNL A   1      46.623  30.380  30.643  1.00  0.00     0.029 A 
ATOM     36  C   UNL A   1      45.296  30.126  30.337  1.00  0.00     0.049 A 
ATOM     37  H   UNL A   1      44.407  28.344  29.642  1.00  0.00     0.167 HD
ATOM     38  C   UNL A   1      42.896  30.702  30.096  1.00  0.00     0.074 A 
ATOM     39  C   UNL A   1      41.779  31.621  30.173  1.00  0.00     0.031 C 
ATOM     40  C   UNL A   1      44.172  31.022  30.418  1.00  0.00     0.037 A 
BRANCH  27  41
ATOM     41  C   UNL A   1      48.215  26.419  29.650  1.00  0.00     0.057 A 
ATOM     42  C   UNL A   1      49.110  26.606  28.589  1.00  0.00     0.134 A 
ATOM     43  C   UNL A   1      48.714  25.836  30.821  1.00  0.00     0.134 A 
ATOM     44  F   UNL A   1      48.692  27.148  27.435  1.00  0.00    -0.206 F 
ATOM     45  C   UNL A   1      50.448  26.219  28.686  1.00  0.00     0.040 A 
ATOM     46  C   UNL A   1      50.053  25.462  30.938  1.00  0.00     0.040 A 
ATOM     47  F   UNL A   1      47.910  25.635  31.876  1.00  0.00    -0.206 F 
ATOM     48  C   UNL A   1      50.925  25.651  29.867  1.00  0.00     0.006 A 
ENDBRANCH  27  41
BRANCH  28  49
ATOM     49  C   UNL A   1      38.623  29.089  28.984  1.00  0.00     0.057 A 
ATOM     50  C   UNL A   1      37.772  29.015  30.093  1.00  0.00     0.134 A 
ATOM     51  C   UNL A   1      38.086  29.575  27.785  1.00  0.00     0.134 A 
ATOM     52  F   UNL A   1      38.227  28.545  31.263  1.00  0.00    -0.206 F 
ATOM     53  C   UNL A   1      36.433  29.400  30.009  1.00  0.00     0.040 A 
ATOM     54  C   UNL A   1      36.756  29.986  27.695  1.00  0.00     0.040 A 
ATOM     55  F   UNL A   1      38.856  29.679  26.694  1.00  0.00    -0.206 F 
ATOM     56  C   UNL A   1      35.925  29.894  28.809  1.00  0.00     0.006 A 
ENDBRANCH  28  49
BRANCH  40  57
ATOM     57  C   UNL A   1      44.414  32.425  30.883  1.00  0.00     0.057 A 
ATOM     58  C   UNL A   1      44.358  32.766  32.239  1.00  0.00     0.134 A 
ATOM     59  C   UNL A   1      44.709  33.442  29.968  1.00  0.00     0.134 A 
ATOM     60  F   UNL A   1      44.064  31.837  33.162  1.00  0.00    -0.206 F 
ATOM     61  C   UNL A   1      44.561  34.077  32.669  1.00  0.00     0.040 A 
ATOM     62  C   UNL A   1      44.933  34.754  30.387  1.00  0.00     0.040 A 
ATOM     63  F   UNL A   1      44.780  33.179  28.654  1.00  0.00    -0.206 F 
ATOM     64  C   UNL A   1      44.853  35.075  31.742  1.00  0.00     0.006 A 
ENDBRANCH  40  57
ENDBRANCH  14  15
ENDBRANCH   7   9
ENDBRANCH   4   5
ENDBRANCH   3   4
ENDBRANCH   2   3
ENDBRANCH   1   2
BRANCH   1  65
ATOM     65  C   UNL A   1      34.854  21.803  26.585  1.00  0.00     0.021 C 
BRANCH  65  66
ATOM     66  C   UNL A   1      34.336  23.206  26.891  1.00  0.00     0.116 C 
BRANCH  66  67
ATOM     67  N   UNL A   1      32.917  23.317  26.617  1.00  0.00    -0.352 N 
ATOM     68  C   UNL A   1      32.266  23.820  25.529  1.00  0.00     0.257 C 
ATOM     69  H   UNL A   1      32.330  22.976  27.330  1.00  0.00     0.163 HD
ATOM     70  O   UNL A   1      31.061  24.064  25.650  1.00  0.00    -0.269 OA
BRANCH  68  71
ATOM     71  C   UNL A   1      32.959  24.014  24.281  1.00  0.00     0.113 A 
ATOM     72  C   UNL A   1      33.502  25.231  23.771  1.00  0.00     0.127 A 
ATOM     73  C   UNL A   1      33.060  23.139  23.214  1.00  0.00     0.175 A 
ATOM     74  N   UNL A   1      34.016  25.052  22.547  1.00  0.00    -0.079 NA
ATOM     75  O   UNL A   1      33.745  23.743  22.207  1.00  0.00    -0.357 OA
BRANCH  72  76
ATOM     76  C   UNL A   1      33.470  26.546  24.401  1.00  0.00     0.005 A 
ATOM     77  C   UNL A   1      34.017  26.747  25.674  1.00  0.00     0.012 A 
ATOM     78  C   UNL A   1      32.792  27.596  23.766  1.00  0.00     0.012 A 
ATOM     79  C   UNL A   1      33.854  27.975  26.322  1.00  0.00     0.021 A 
ATOM     80  C   UNL A   1      32.627  28.822  24.415  1.00  0.00     0.021 A 
ATOM     81  C   UNL A   1      33.151  29.002  25.694  1.00  0.00     0.041 A 
ATOM     82  Cl  UNL A   1      32.912  30.497  26.512  1.00  0.00    -0.084 Cl
ENDBRANCH  72  76
BRANCH  73  83
ATOM     83  C   UNL A   1      32.560  21.772  22.938  1.00  0.00     0.242 C 
BRANCH  83  84
ATOM     84  O   UNL A   1      33.093  20.871  23.891  1.00  0.00    -0.345 OA
BRANCH  84  85
ATOM     85  C   UNL A   1      32.442  19.620  24.099  1.00  0.00     0.250 C 
ATOM     86  C   UNL A   1      33.048  18.739  25.197  1.00  0.00     0.062 C 
ATOM     87  O   UNL A   1      32.057  18.946  22.902  1.00  0.00    -0.353 OA
ATOM     88  C   UNL A   1      33.938  17.630  24.666  1.00  0.00     0.008 C 
ATOM     89  C   UNL A   1      32.892  17.898  22.432  1.00  0.00     0.163 C 
ATOM     90  C   UNL A   1      33.271  16.905  23.515  1.00  0.00     0.029 C 
ENDBRANCH  84  85
ENDBRANCH  83  84
ENDBRANCH  73  83
ENDBRANCH  68  71
ENDBRANCH  66  67
ENDBRANCH  65  66
ENDBRANCH   1  65
TORSDOF 17
ENDMDL
MODEL 2
REMARK VINA RESULT:     -11.7      4.482      9.629
REMARK SMILES O=C(NCCCCCCNC(=O)c1c(-c2ccc(Cl)cc2)noc1CO[C@@H]1CCCCO1)c1ccc(-c2c3nc(c(-c4c(F)cccc4F)c4ccc([nH]4)c(-c4c(F)cccc4F)c4nc(c(-c5c(F)cccc5F)c5ccc2[nH]5)C=C4)C=C3)cc1
REMARK SMILES IDX 7 1 6 2 5 3 4 4 3 5 1 6 2 7 33 9 34 10 86 11 35 12 85 13
REMARK SMILES IDX 36 14 37 15 38 16 79 17 39 18 84 19 78 20 80 21 40 22 83 23
REMARK SMILES IDX 77 24 76 25 41 27 67 28 50 29 66 30 51 31 54 32 65 33 81 34
REMARK SMILES IDX 52 35 53 36 64 38 82 39 55 40 42 41 43 42 48 43 44 44 45 45
REMARK SMILES IDX 47 46 49 47 46 48 68 49 69 50 74 51 70 52 71 53 73 54 75 55
REMARK SMILES IDX 72 56 56 57 57 58 62 59 58 60 59 61 61 62 63 63 60 64 8 65
REMARK SMILES IDX 9 66 10 67 11 68 12 70 13 71 14 72 24 73 22 74 23 75 15 76
REMARK SMILES IDX 16 77 21 78 17 79 20 80 18 81 19 82 25 83 26 84 27 85 28 86
REMARK SMILES IDX 32 87 29 88 31 89 30 90
REMARK H PARENT 3 8 80 26 54 37 10 69
REMARK Flexibility Score: inf
ROOT
ATOM      1  C   UNL A   1      32.614  29.796  27.236  1.00  0.00     0.002 C 
ENDROOT
BRANCH   1   2
ATOM      2  C   UNL A   1      31.704  30.604  26.306  1.00  0.00     0.002 C 
BRANCH   2   3
ATOM      3  C   UNL A   1      31.415  32.044  26.729  1.00  0.00     0.021 C 
BRANCH   3   4
ATOM      4  C   UNL A   1      32.617  32.843  27.209  1.00  0.00     0.116 C 
BRANCH   4   5
ATOM      5  N   UNL A   1      32.295  34.186  27.653  1.00  0.00    -0.352 N 
ATOM      6  O   UNL A   1      32.522  36.038  28.932  1.00  0.00    -0.269 OA
ATOM      7  C   UNL A   1      32.951  34.941  28.599  1.00  0.00     0.251 C 
ATOM      8  H   UNL A   1      31.514  34.608  27.226  1.00  0.00     0.163 HD
BRANCH   7   9
ATOM      9  C   UNL A   1      34.167  34.392  29.243  1.00  0.00     0.039 A 
ATOM     10  C   UNL A   1      35.425  34.581  28.666  1.00  0.00     0.014 A 
ATOM     11  C   UNL A   1      34.038  33.650  30.421  1.00  0.00     0.014 A 
ATOM     12  C   UNL A   1      36.530  33.917  29.188  1.00  0.00     0.010 A 
ATOM     13  C   UNL A   1      35.165  33.049  30.990  1.00  0.00     0.010 A 
ATOM     14  C   UNL A   1      36.415  33.152  30.362  1.00  0.00    -0.014 A 
BRANCH  14  15
ATOM     15  C   UNL A   1      37.635  32.532  30.936  1.00  0.00     0.031 A 
ATOM     16  C   UNL A   1      38.223  33.009  32.234  1.00  0.00     0.074 A 
ATOM     17  C   UNL A   1      38.181  31.483  30.291  1.00  0.00     0.049 A 
ATOM     18  N   UNL A   1      39.248  32.533  32.896  1.00  0.00    -0.248 NA
ATOM     19  C   UNL A   1      37.587  34.172  32.872  1.00  0.00     0.031 C 
ATOM     20  C   UNL A   1      37.711  30.947  29.011  1.00  0.00     0.029 A 
ATOM     21  N   UNL A   1      39.226  30.664  30.631  1.00  0.00    -0.354 N 
ATOM     22  C   UNL A   1      39.390  33.340  34.016  1.00  0.00     0.074 A 
ATOM     23  C   UNL A   1      38.358  34.354  33.936  1.00  0.00     0.031 C 
ATOM     24  C   UNL A   1      38.427  29.857  28.701  1.00  0.00     0.029 A 
ATOM     25  C   UNL A   1      39.436  29.647  29.733  1.00  0.00     0.049 A 
ATOM     26  H   UNL A   1      39.772  30.793  31.440  1.00  0.00     0.167 HD
ATOM     27  C   UNL A   1      40.293  33.240  35.021  1.00  0.00     0.037 A 
ATOM     28  C   UNL A   1      40.343  28.653  29.737  1.00  0.00     0.037 A 
ATOM     29  C   UNL A   1      41.313  32.225  35.103  1.00  0.00     0.049 A 
ATOM     30  C   UNL A   1      41.315  28.555  30.873  1.00  0.00     0.074 A 
ATOM     31  C   UNL A   1      42.273  32.041  36.084  1.00  0.00     0.029 A 
ATOM     32  N   UNL A   1      41.500  31.217  34.169  1.00  0.00    -0.354 N 
ATOM     33  N   UNL A   1      41.428  29.323  31.928  1.00  0.00    -0.248 NA
ATOM     34  C   UNL A   1      42.287  27.455  30.817  1.00  0.00     0.031 C 
ATOM     35  C   UNL A   1      43.056  30.937  35.730  1.00  0.00     0.029 A 
ATOM     36  C   UNL A   1      42.563  30.413  34.547  1.00  0.00     0.049 A 
ATOM     37  H   UNL A   1      40.958  31.092  33.357  1.00  0.00     0.167 HD
ATOM     38  C   UNL A   1      42.484  28.803  32.662  1.00  0.00     0.074 A 
ATOM     39  C   UNL A   1      42.956  27.634  31.948  1.00  0.00     0.031 C 
ATOM     40  C   UNL A   1      43.023  29.261  33.818  1.00  0.00     0.037 A 
BRANCH  27  41
ATOM     41  C   UNL A   1      40.226  34.261  36.119  1.00  0.00     0.057 A 
ATOM     42  C   UNL A   1      40.900  35.484  36.026  1.00  0.00     0.134 A 
ATOM     43  C   UNL A   1      39.436  34.042  37.255  1.00  0.00     0.134 A 
ATOM     44  F   UNL A   1      41.683  35.751  34.970  1.00  0.00    -0.206 F 
ATOM     45  C   UNL A   1      40.799  36.451  37.030  1.00  0.00     0.040 A 
ATOM     46  C   UNL A   1      39.312  35.007  38.255  1.00  0.00     0.040 A 
ATOM     47  F   UNL A   1      38.759  32.893  37.401  1.00  0.00    -0.206 F 
ATOM     48  C   UNL A   1      39.997  36.216  38.145  1.00  0.00     0.006 A 
ENDBRANCH  27  41
BRANCH  28  49
ATOM     49  C   UNL A   1      40.363  27.676  28.622  1.00  0.00     0.057 A 
ATOM     50  C   UNL A   1      41.125  27.905  27.471  1.00  0.00     0.134 A 
ATOM     51  C   UNL A   1      39.640  26.479  28.695  1.00  0.00     0.134 A 
ATOM     52  F   UNL A   1      41.826  29.040  27.340  1.00  0.00    -0.206 F 
ATOM     53  C   UNL A   1      41.158  26.982  26.426  1.00  0.00     0.040 A 
ATOM     54  C   UNL A   1      39.685  25.537  27.667  1.00  0.00     0.040 A 
ATOM     55  F   UNL A   1      38.902  26.200  29.778  1.00  0.00    -0.206 F 
ATOM     56  C   UNL A   1      40.442  25.790  26.526  1.00  0.00     0.006 A 
ENDBRANCH  28  49
BRANCH  40  57
ATOM     57  C   UNL A   1      44.182  28.488  34.369  1.00  0.00     0.057 A 
ATOM     58  C   UNL A   1      45.504  28.843  34.073  1.00  0.00     0.134 A 
ATOM     59  C   UNL A   1      43.976  27.384  35.203  1.00  0.00     0.134 A 
ATOM     60  F   UNL A   1      45.764  29.883  33.266  1.00  0.00    -0.206 F 
ATOM     61  C   UNL A   1      46.582  28.110  34.568  1.00  0.00     0.040 A 
ATOM     62  C   UNL A   1      45.046  26.653  35.720  1.00  0.00     0.040 A 
ATOM     63  F   UNL A   1      42.732  26.995  35.525  1.00  0.00    -0.206 F 
ATOM     64  C   UNL A   1      46.355  27.013  35.397  1.00  0.00     0.006 A 
ENDBRANCH  40  57
ENDBRANCH  14  15
ENDBRANCH   7   9
ENDBRANCH   4   5
ENDBRANCH   3   4
ENDBRANCH   2   3
ENDBRANCH   1   2
BRANCH   1  65
ATOM     65  C   UNL A   1      32.367  28.281  27.294  1.00  0.00     0.021 C 
BRANCH  65  66
ATOM     66  C   UNL A   1      31.391  27.729  26.258  1.00  0.00     0.116 C 
BRANCH  66  67
ATOM     67  N   UNL A   1      31.295  26.285  26.338  1.00  0.00    -0.352 N 
ATOM     68  C   UNL A   1      31.265  25.346  25.348  1.00  0.00     0.257 C 
ATOM     69  H   UNL A   1      31.243  25.924  27.253  1.00  0.00     0.163 HD
ATOM     70  O   UNL A   1      30.895  24.208  25.656  1.00  0.00    -0.269 OA
BRANCH  68  71
ATOM     71  C   UNL A   1      31.690  25.672  24.011  1.00  0.00     0.113 A 
ATOM     72  C   UNL A   1      32.925  25.326  23.386  1.00  0.00     0.127 A 
ATOM     73  C   UNL A   1      31.112  26.561  23.123  1.00  0.00     0.175 A 
ATOM     74  N   UNL A   1      33.007  25.856  22.158  1.00  0.00    -0.079 NA
ATOM     75  O   UNL A   1      31.869  26.619  21.996  1.00  0.00    -0.357 OA
BRANCH  72  76
ATOM     76  C   UNL A   1      34.029  24.571  23.966  1.00  0.00     0.005 A 
ATOM     77  C   UNL A   1      34.546  24.904  25.225  1.00  0.00     0.012 A 
ATOM     78  C   UNL A   1      34.647  23.564  23.211  1.00  0.00     0.012 A 
ATOM     79  C   UNL A   1      35.692  24.264  25.705  1.00  0.00     0.021 A 
ATOM     80  C   UNL A   1      35.793  22.926  23.690  1.00  0.00     0.021 A 
ATOM     81  C   UNL A   1      36.315  23.287  24.931  1.00  0.00     0.041 A 
ATOM     82  Cl  UNL A   1      37.752  22.533  25.504  1.00  0.00    -0.084 Cl
ENDBRANCH  72  76
BRANCH  73  83
ATOM     83  C   UNL A   1      29.929  27.452  23.164  1.00  0.00     0.242 C 
BRANCH  83  84
ATOM     84  O   UNL A   1      29.900  28.256  21.999  1.00  0.00    -0.345 OA
BRANCH  84  85
ATOM     85  C   UNL A   1      29.889  29.675  22.140  1.00  0.00     0.250 C 
ATOM     86  C   UNL A   1      29.413  30.195  23.501  1.00  0.00     0.062 C 
ATOM     87  O   UNL A   1      29.400  30.380  21.000  1.00  0.00    -0.353 OA
ATOM     88  C   UNL A   1      27.973  30.675  23.502  1.00  0.00     0.008 C 
ATOM     89  C   UNL A   1      28.057  30.838  21.027  1.00  0.00     0.163 C 
ATOM     90  C   UNL A   1      27.701  31.568  22.309  1.00  0.00     0.029 C 
ENDBRANCH  84  85
ENDBRANCH  83  84
ENDBRANCH  73  83
ENDBRANCH  68  71
ENDBRANCH  66  67
ENDBRANCH  65  66
ENDBRANCH   1  65
TORSDOF 17
ENDMDL
MODEL 3
REMARK VINA RESULT:     -11.6      4.199      8.955
REMARK SMILES O=C(NCCCCCCNC(=O)c1c(-c2ccc(Cl)cc2)noc1CO[C@@H]1CCCCO1)c1ccc(-c2c3nc(c(-c4c(F)cccc4F)c4ccc([nH]4)c(-c4c(F)cccc4F)c4nc(c(-c5c(F)cccc5F)c5ccc2[nH]5)C=C4)C=C3)cc1
REMARK SMILES IDX 7 1 6 2 5 3 4 4 3 5 1 6 2 7 33 9 34 10 86 11 35 12 85 13
REMARK SMILES IDX 36 14 37 15 38 16 79 17 39 18 84 19 78 20 80 21 40 22 83 23
REMARK SMILES IDX 77 24 76 25 41 27 67 28 50 29 66 30 51 31 54 32 65 33 81 34
REMARK SMILES IDX 52 35 53 36 64 38 82 39 55 40 42 41 43 42 48 43 44 44 45 45
REMARK SMILES IDX 47 46 49 47 46 48 68 49 69 50 74 51 70 52 71 53 73 54 75 55
REMARK SMILES IDX 72 56 56 57 57 58 62 59 58 60 59 61 61 62 63 63 60 64 8 65
REMARK SMILES IDX 9 66 10 67 11 68 12 70 13 71 14 72 24 73 22 74 23 75 15 76
REMARK SMILES IDX 16 77 21 78 17 79 20 80 18 81 19 82 25 83 26 84 27 85 28 86
REMARK SMILES IDX 32 87 29 88 31 89 30 90
REMARK H PARENT 3 8 80 26 54 37 10 69
REMARK Flexibility Score: inf
ROOT
ATOM      1  C   UNL A   1      32.505  29.766  26.914  1.00  0.00     0.002 C 
ENDROOT
BRANCH   1   2
ATOM      2  C   UNL A   1      31.726  30.740  26.025  1.00  0.00     0.002 C 
BRANCH   2   3
ATOM      3  C   UNL A   1      31.405  32.103  26.638  1.00  0.00     0.021 C 
BRANCH   3   4
ATOM      4  C   UNL A   1      32.587  32.853  27.232  1.00  0.00     0.116 C 
BRANCH   4   5
ATOM      5  N   UNL A   1      32.273  34.199  27.673  1.00  0.00    -0.352 N 
ATOM      6  O   UNL A   1      32.515  36.056  28.943  1.00  0.00    -0.269 OA
ATOM      7  C   UNL A   1      32.939  34.956  28.610  1.00  0.00     0.251 C 
ATOM      8  H   UNL A   1      31.490  34.622  27.250  1.00  0.00     0.163 HD
BRANCH   7   9
ATOM      9  C   UNL A   1      34.158  34.406  29.248  1.00  0.00     0.039 A 
ATOM     10  C   UNL A   1      35.415  34.618  28.679  1.00  0.00     0.014 A 
ATOM     11  C   UNL A   1      34.032  33.640  30.411  1.00  0.00     0.014 A 
ATOM     12  C   UNL A   1      36.525  33.955  29.192  1.00  0.00     0.010 A 
ATOM     13  C   UNL A   1      35.163  33.039  30.972  1.00  0.00     0.010 A 
ATOM     14  C   UNL A   1      36.413  33.166  30.350  1.00  0.00    -0.014 A 
BRANCH  14  15
ATOM     15  C   UNL A   1      37.638  32.547  30.917  1.00  0.00     0.031 A 
ATOM     16  C   UNL A   1      38.236  33.027  32.208  1.00  0.00     0.074 A 
ATOM     17  C   UNL A   1      38.178  31.496  30.270  1.00  0.00     0.049 A 
ATOM     18  N   UNL A   1      39.266  32.551  32.863  1.00  0.00    -0.248 NA
ATOM     19  C   UNL A   1      37.607  34.192  32.847  1.00  0.00     0.031 C 
ATOM     20  C   UNL A   1      37.697  30.956  28.996  1.00  0.00     0.029 A 
ATOM     21  N   UNL A   1      39.225  30.676  30.604  1.00  0.00    -0.354 N 
ATOM     22  C   UNL A   1      39.418  33.362  33.980  1.00  0.00     0.074 A 
ATOM     23  C   UNL A   1      38.387  34.376  33.905  1.00  0.00     0.031 C 
ATOM     24  C   UNL A   1      38.409  29.864  28.683  1.00  0.00     0.029 A 
ATOM     25  C   UNL A   1      39.426  29.656  29.707  1.00  0.00     0.049 A 
ATOM     26  H   UNL A   1      39.777  30.807  31.408  1.00  0.00     0.167 HD
ATOM     27  C   UNL A   1      40.329  33.264  34.977  1.00  0.00     0.037 A 
ATOM     28  C   UNL A   1      40.332  28.662  29.706  1.00  0.00     0.037 A 
ATOM     29  C   UNL A   1      41.349  32.249  35.054  1.00  0.00     0.049 A 
ATOM     30  C   UNL A   1      41.313  28.566  30.835  1.00  0.00     0.074 A 
ATOM     31  C   UNL A   1      42.317  32.066  36.028  1.00  0.00     0.029 A 
ATOM     32  N   UNL A   1      41.528  31.237  34.122  1.00  0.00    -0.354 N 
ATOM     33  N   UNL A   1      41.435  29.337  31.887  1.00  0.00    -0.248 NA
ATOM     34  C   UNL A   1      42.283  27.465  30.775  1.00  0.00     0.031 C 
ATOM     35  C   UNL A   1      43.096  30.960  35.671  1.00  0.00     0.029 A 
ATOM     36  C   UNL A   1      42.592  30.433  34.494  1.00  0.00     0.049 A 
ATOM     37  H   UNL A   1      40.978  31.110  33.315  1.00  0.00     0.167 HD
ATOM     38  C   UNL A   1      42.497  28.818  32.614  1.00  0.00     0.074 A 
ATOM     39  C   UNL A   1      42.962  27.646  31.899  1.00  0.00     0.031 C 
ATOM     40  C   UNL A   1      43.046  29.279  33.764  1.00  0.00     0.037 A 
BRANCH  27  41
ATOM     41  C   UNL A   1      40.272  34.288  36.073  1.00  0.00     0.057 A 
ATOM     42  C   UNL A   1      41.017  35.472  36.011  1.00  0.00     0.134 A 
ATOM     43  C   UNL A   1      39.422  34.115  37.173  1.00  0.00     0.134 A 
ATOM     44  F   UNL A   1      41.859  35.693  34.990  1.00  0.00    -0.206 F 
ATOM     45  C   UNL A   1      40.927  36.444  37.010  1.00  0.00     0.040 A 
ATOM     46  C   UNL A   1      39.310  35.087  38.168  1.00  0.00     0.040 A 
ATOM     47  F   UNL A   1      38.677  33.006  37.289  1.00  0.00    -0.206 F 
ATOM     48  C   UNL A   1      40.066  36.256  38.090  1.00  0.00     0.006 A 
ENDBRANCH  27  41
BRANCH  28  49
ATOM     49  C   UNL A   1      40.342  27.681  28.595  1.00  0.00     0.057 A 
ATOM     50  C   UNL A   1      41.070  27.920  27.424  1.00  0.00     0.134 A 
ATOM     51  C   UNL A   1      39.643  26.471  28.689  1.00  0.00     0.134 A 
ATOM     52  F   UNL A   1      41.746  29.068  27.272  1.00  0.00    -0.206 F 
ATOM     53  C   UNL A   1      41.095  26.994  26.381  1.00  0.00     0.040 A 
ATOM     54  C   UNL A   1      39.680  25.526  27.663  1.00  0.00     0.040 A 
ATOM     55  F   UNL A   1      38.938  26.182  29.791  1.00  0.00    -0.206 F 
ATOM     56  C   UNL A   1      40.403  25.789  26.503  1.00  0.00     0.006 A 
ENDBRANCH  28  49
BRANCH  40  57
ATOM     57  C   UNL A   1      44.209  28.506  34.308  1.00  0.00     0.057 A 
ATOM     58  C   UNL A   1      44.025  27.422  35.174  1.00  0.00     0.134 A 
ATOM     59  C   UNL A   1      45.521  28.847  33.960  1.00  0.00     0.134 A 
ATOM     60  F   UNL A   1      42.790  27.059  35.555  1.00  0.00    -0.206 F 
ATOM     61  C   UNL A   1      45.108  26.717  35.697  1.00  0.00     0.040 A 
ATOM     62  C   UNL A   1      46.613  28.138  34.462  1.00  0.00     0.040 A 
ATOM     63  F   UNL A   1      45.763  29.874  33.132  1.00  0.00    -0.206 F 
ATOM     64  C   UNL A   1      46.407  27.072  35.340  1.00  0.00     0.006 A 
ENDBRANCH  40  57
ENDBRANCH  14  15
ENDBRANCH   7   9
ENDBRANCH   4   5
ENDBRANCH   3   4
ENDBRANCH   2   3
ENDBRANCH   1   2
BRANCH   1  65
ATOM     65  C   UNL A   1      31.786  28.464  27.300  1.00  0.00     0.021 C 
BRANCH  65  66
ATOM     66  C   UNL A   1      32.296  27.199  26.615  1.00  0.00     0.116 C 
BRANCH  66  67
ATOM     67  N   UNL A   1      31.435  26.066  26.890  1.00  0.00    -0.352 N 
ATOM     68  C   UNL A   1      30.886  25.148  26.042  1.00  0.00     0.257 C 
ATOM     69  H   UNL A   1      31.209  25.939  27.840  1.00  0.00     0.163 HD
ATOM     70  O   UNL A   1      29.963  24.452  26.478  1.00  0.00    -0.269 OA
BRANCH  68  71
ATOM     71  C   UNL A   1      31.401  24.980  24.707  1.00  0.00     0.113 A 
ATOM     72  C   UNL A   1      31.131  25.792  23.565  1.00  0.00     0.127 A 
ATOM     73  C   UNL A   1      32.079  23.894  24.183  1.00  0.00     0.175 A 
ATOM     74  N   UNL A   1      31.727  25.297  22.472  1.00  0.00    -0.079 NA
ATOM     75  O   UNL A   1      32.324  24.117  22.865  1.00  0.00    -0.357 OA
BRANCH  72  76
ATOM     76  C   UNL A   1      30.270  26.967  23.500  1.00  0.00     0.005 A 
ATOM     77  C   UNL A   1      28.876  26.842  23.544  1.00  0.00     0.012 A 
ATOM     78  C   UNL A   1      30.843  28.229  23.287  1.00  0.00     0.012 A 
ATOM     79  C   UNL A   1      28.063  27.960  23.339  1.00  0.00     0.021 A 
ATOM     80  C   UNL A   1      30.032  29.346  23.079  1.00  0.00     0.021 A 
ATOM     81  C   UNL A   1      28.645  29.204  23.097  1.00  0.00     0.041 A 
ATOM     82  Cl  UNL A   1      27.643  30.571  22.798  1.00  0.00    -0.084 Cl
ENDBRANCH  72  76
BRANCH  73  83
ATOM     83  C   UNL A   1      32.526  22.587  24.720  1.00  0.00     0.242 C 
BRANCH  83  84
ATOM     84  O   UNL A   1      33.907  22.416  24.463  1.00  0.00    -0.345 OA
BRANCH  84  85
ATOM     85  C   UNL A   1      34.815  22.379  25.562  1.00  0.00     0.250 C 
ATOM     86  C   UNL A   1      35.571  23.685  25.832  1.00  0.00     0.062 C 
ATOM     87  O   UNL A   1      35.587  21.183  25.653  1.00  0.00    -0.353 OA
ATOM     88  C   UNL A   1      36.990  23.690  25.294  1.00  0.00     0.008 C 
ATOM     89  C   UNL A   1      36.919  21.213  25.162  1.00  0.00     0.163 C 
ATOM     90  C   UNL A   1      37.711  22.409  25.659  1.00  0.00     0.029 C 
ENDBRANCH  84  85
ENDBRANCH  83  84
ENDBRANCH  73  83
ENDBRANCH  68  71
ENDBRANCH  66  67
ENDBRANCH  65  66
ENDBRANCH   1  65
TORSDOF 17
ENDMDL
