MODEL 1
REMARK VINA RESULT:     -12.4      0.000      0.000
REMARK SMILES Cc1ccc(C(=O)C[C@@H](C(=O)NCCCCCCNC(=O)c2ccc(-c3c4nc(c(-c5c(F)cccc5F)c5ccc([nH]5)c(-c5c(F)cccc5F)c5nc(c(-c6c(F)cccc6F)c6ccc3[nH]6)C=C5)C=C4)cc2)[NH+]2CC[NH+](Cc3ccccc3)CC2)cc1
REMARK SMILES IDX 15 1 14 2 13 3 12 4 10 5 11 6 9 8 8 9 6 10 7 11 5 12 1 13
REMARK SMILES IDX 2 14 3 15 90 16 4 17 89 18 76 19 77 20 88 21 78 23 87 24
REMARK SMILES IDX 79 25 80 27 81 28 82 29 86 30 83 31 85 32 84 33 16 34 17 35
REMARK SMILES IDX 18 36 19 37 20 38 21 40 22 41 23 42 75 43 24 44 74 45 25 46
REMARK SMILES IDX 26 47 27 48 68 49 28 50 73 51 67 52 69 53 29 54 72 55 66 56
REMARK SMILES IDX 65 57 30 59 56 60 39 61 55 62 40 63 43 64 54 65 70 66 41 67
REMARK SMILES IDX 42 68 53 70 71 71 44 72 31 73 32 74 37 75 33 76 34 77 36 78
REMARK SMILES IDX 38 79 35 80 57 81 58 82 63 83 59 84 60 85 62 86 64 87 61 88
REMARK SMILES IDX 45 89 46 90 51 91 47 92 48 93 50 94 52 95 49 96
REMARK H PARENT 12 7 76 22 79 26 19 39 69 58 43 69
REMARK Flexibility Score: inf
ROOT
ATOM      1  C   UNL A   1      36.734  21.457  25.717  1.00  0.00     0.002 C 
ENDROOT
BRANCH   1   2
ATOM      2  C   UNL A   1      35.778  21.765  24.556  1.00  0.00     0.021 C 
BRANCH   2   3
ATOM      3  C   UNL A   1      35.883  23.197  24.040  1.00  0.00     0.116 C 
BRANCH   3   4
ATOM      4  N   UNL A   1      35.100  23.354  22.831  1.00  0.00    -0.351 N 
ATOM      5  C   UNL A   1      33.748  23.466  22.693  1.00  0.00     0.278 C 
ATOM      6  O   UNL A   1      33.281  23.239  21.572  1.00  0.00    -0.268 OA
ATOM      7  H   UNL A   1      35.616  23.384  21.994  1.00  0.00     0.163 HD
BRANCH   5   8
ATOM      8  C   UNL A   1      32.866  23.970  23.869  1.00  0.00     0.282 C 
BRANCH   8   9
ATOM      9  C   UNL A   1      31.725  22.984  24.196  1.00  0.00     0.156 C 
BRANCH   9  10
ATOM     10  C   UNL A   1      32.200  21.893  25.147  1.00  0.00     0.169 C 
ATOM     11  O   UNL A   1      32.581  22.170  26.285  1.00  0.00    -0.294 OA
BRANCH  10  12
ATOM     12  C   UNL A   1      32.354  20.490  24.657  1.00  0.00     0.018 A 
ATOM     13  C   UNL A   1      33.992  16.842  23.105  1.00  0.00     0.044 C 
ATOM     14  C   UNL A   1      33.310  18.051  23.670  1.00  0.00    -0.051 A 
ATOM     15  C   UNL A   1      33.365  18.322  25.041  1.00  0.00     0.004 A 
ATOM     16  C   UNL A   1      32.638  18.938  22.828  1.00  0.00     0.004 A 
ATOM     17  C   UNL A   1      32.884  19.535  25.535  1.00  0.00     0.012 A 
ATOM     18  C   UNL A   1      32.146  20.145  23.322  1.00  0.00     0.012 A 
ENDBRANCH  10  12
ENDBRANCH   9  10
ENDBRANCH   8   9
BRANCH   8  19
ATOM     19  N   UNL A   1      32.287  25.306  23.520  1.00  0.00    -0.315 N 
ATOM     20  C   UNL A   1      31.123  25.659  24.344  1.00  0.00     0.325 C 
ATOM     21  C   UNL A   1      33.260  26.408  23.395  1.00  0.00     0.325 C 
ATOM     22  H   UNL A   1      31.946  25.179  22.567  1.00  0.00     0.349 HD
ATOM     23  C   UNL A   1      30.898  27.165  24.589  1.00  0.00     0.324 C 
ATOM     24  C   UNL A   1      32.675  27.802  23.048  1.00  0.00     0.324 C 
ATOM     25  N   UNL A   1      31.318  28.061  23.519  1.00  0.00    -0.322 N 
ATOM     26  H   UNL A   1      31.378  28.970  23.977  1.00  0.00     0.348 HD
BRANCH  25  27
ATOM     27  C   UNL A   1      30.325  28.374  22.494  1.00  0.00     0.299 C 
BRANCH  27  28
ATOM     28  C   UNL A   1      29.453  29.610  22.610  1.00  0.00     0.006 A 
ATOM     29  C   UNL A   1      29.579  30.418  23.753  1.00  0.00     0.009 A 
ATOM     30  C   UNL A   1      28.622  30.077  21.582  1.00  0.00     0.009 A 
ATOM     31  C   UNL A   1      28.875  31.620  23.875  1.00  0.00     0.001 A 
ATOM     32  C   UNL A   1      27.896  31.264  21.710  1.00  0.00     0.001 A 
ATOM     33  C   UNL A   1      28.025  32.037  22.856  1.00  0.00     0.000 A 
ENDBRANCH  27  28
ENDBRANCH  25  27
ENDBRANCH   8  19
ENDBRANCH   5   8
ENDBRANCH   3   4
ENDBRANCH   2   3
ENDBRANCH   1   2
BRANCH   1  34
ATOM     34  C   UNL A   1      38.023  22.287  25.740  1.00  0.00     0.002 C 
BRANCH  34  35
ATOM     35  C   UNL A   1      39.306  21.492  25.995  1.00  0.00     0.021 C 
BRANCH  35  36
ATOM     36  C   UNL A   1      40.276  22.151  26.968  1.00  0.00     0.116 C 
BRANCH  36  37
ATOM     37  N   UNL A   1      41.462  22.702  26.335  1.00  0.00    -0.352 N 
ATOM     38  C   UNL A   1      41.848  24.005  26.124  1.00  0.00     0.251 C 
ATOM     39  H   UNL A   1      42.098  22.028  26.002  1.00  0.00     0.163 HD
ATOM     40  O   UNL A   1      42.858  24.204  25.445  1.00  0.00    -0.269 OA
BRANCH  38  41
ATOM     41  C   UNL A   1      41.177  25.164  26.783  1.00  0.00     0.039 A 
ATOM     42  C   UNL A   1      41.044  26.347  26.034  1.00  0.00     0.014 A 
ATOM     43  C   UNL A   1      40.809  25.181  28.126  1.00  0.00     0.014 A 
ATOM     44  C   UNL A   1      40.766  27.559  26.667  1.00  0.00     0.010 A 
ATOM     45  C   UNL A   1      40.601  26.385  28.772  1.00  0.00     0.010 A 
ATOM     46  C   UNL A   1      40.649  27.577  28.054  1.00  0.00    -0.014 A 
BRANCH  46  47
ATOM     47  C   UNL A   1      40.732  28.788  28.856  1.00  0.00     0.031 A 
ATOM     48  C   UNL A   1      39.593  29.704  29.006  1.00  0.00     0.074 A 
ATOM     49  C   UNL A   1      41.852  29.001  29.579  1.00  0.00     0.049 A 
ATOM     50  N   UNL A   1      39.725  30.955  29.299  1.00  0.00    -0.248 NA
ATOM     51  C   UNL A   1      38.206  29.286  28.825  1.00  0.00     0.031 C 
ATOM     52  C   UNL A   1      42.043  29.952  30.670  1.00  0.00     0.029 A 
ATOM     53  N   UNL A   1      43.135  28.509  29.315  1.00  0.00    -0.354 N 
ATOM     54  C   UNL A   1      38.479  31.427  29.621  1.00  0.00     0.074 A 
ATOM     55  C   UNL A   1      37.556  30.381  29.233  1.00  0.00     0.031 C 
ATOM     56  C   UNL A   1      43.356  30.192  30.803  1.00  0.00     0.029 A 
ATOM     57  C   UNL A   1      44.030  29.530  29.700  1.00  0.00     0.049 A 
ATOM     58  H   UNL A   1      43.365  27.630  28.938  1.00  0.00     0.167 HD
ATOM     59  C   UNL A   1      38.344  32.588  30.317  1.00  0.00     0.037 A 
ATOM     60  C   UNL A   1      44.818  30.143  28.770  1.00  0.00     0.037 A 
ATOM     61  C   UNL A   1      39.623  33.201  30.655  1.00  0.00     0.049 A 
ATOM     62  C   UNL A   1      44.595  31.633  28.634  1.00  0.00     0.074 A 
ATOM     63  C   UNL A   1      40.404  33.238  31.799  1.00  0.00     0.029 A 
ATOM     64  N   UNL A   1      40.437  33.657  29.632  1.00  0.00    -0.354 N 
ATOM     65  N   UNL A   1      43.658  32.302  29.246  1.00  0.00    -0.248 NA
ATOM     66  C   UNL A   1      45.352  32.466  27.700  1.00  0.00     0.031 C 
ATOM     67  C   UNL A   1      41.688  33.743  31.454  1.00  0.00     0.029 A 
ATOM     68  C   UNL A   1      41.688  34.013  30.099  1.00  0.00     0.049 A 
ATOM     69  H   UNL A   1      40.161  33.720  28.690  1.00  0.00     0.167 HD
ATOM     70  C   UNL A   1      43.627  33.583  28.766  1.00  0.00     0.074 A 
ATOM     71  C   UNL A   1      44.710  33.642  27.803  1.00  0.00     0.031 C 
ATOM     72  C   UNL A   1      42.684  34.489  29.155  1.00  0.00     0.037 A 
BRANCH  59  73
ATOM     73  C   UNL A   1      37.019  32.986  30.896  1.00  0.00     0.057 A 
ATOM     74  C   UNL A   1      36.648  32.634  32.203  1.00  0.00     0.134 A 
ATOM     75  C   UNL A   1      36.045  33.686  30.162  1.00  0.00     0.134 A 
ATOM     76  F   UNL A   1      37.498  32.020  33.035  1.00  0.00    -0.206 F 
ATOM     77  C   UNL A   1      35.366  32.871  32.711  1.00  0.00     0.040 A 
ATOM     78  C   UNL A   1      34.743  33.888  30.640  1.00  0.00     0.040 A 
ATOM     79  F   UNL A   1      36.323  34.184  28.946  1.00  0.00    -0.206 F 
ATOM     80  C   UNL A   1      34.397  33.468  31.916  1.00  0.00     0.006 A 
ENDBRANCH  59  73
BRANCH  60  81
ATOM     81  C   UNL A   1      45.189  29.247  27.640  1.00  0.00     0.057 A 
ATOM     82  C   UNL A   1      46.270  28.363  27.799  1.00  0.00     0.134 A 
ATOM     83  C   UNL A   1      44.299  28.985  26.596  1.00  0.00     0.134 A 
ATOM     84  F   UNL A   1      47.174  28.575  28.769  1.00  0.00    -0.206 F 
ATOM     85  C   UNL A   1      46.384  27.196  27.042  1.00  0.00     0.040 A 
ATOM     86  C   UNL A   1      44.421  27.834  25.810  1.00  0.00     0.040 A 
ATOM     87  F   UNL A   1      43.238  29.777  26.386  1.00  0.00    -0.206 F 
ATOM     88  C   UNL A   1      45.438  26.914  26.063  1.00  0.00     0.006 A 
ENDBRANCH  60  81
BRANCH  72  89
ATOM     89  C   UNL A   1      42.622  35.907  28.662  1.00  0.00     0.057 A 
ATOM     90  C   UNL A   1      42.256  36.242  27.351  1.00  0.00     0.134 A 
ATOM     91  C   UNL A   1      43.051  36.982  29.467  1.00  0.00     0.134 A 
ATOM     92  F   UNL A   1      41.908  35.295  26.467  1.00  0.00    -0.206 F 
ATOM     93  C   UNL A   1      42.262  37.564  26.890  1.00  0.00     0.040 A 
ATOM     94  C   UNL A   1      43.111  38.298  29.001  1.00  0.00     0.040 A 
ATOM     95  F   UNL A   1      43.415  36.806  30.745  1.00  0.00    -0.206 F 
ATOM     96  C   UNL A   1      42.701  38.596  27.712  1.00  0.00     0.006 A 
ENDBRANCH  72  89
ENDBRANCH  46  47
ENDBRANCH  38  41
ENDBRANCH  36  37
ENDBRANCH  35  36
ENDBRANCH  34  35
ENDBRANCH   1  34
TORSDOF 19
ENDMDL
MODEL 2
REMARK VINA RESULT:     -12.3      2.266      3.573
REMARK SMILES Cc1ccc(C(=O)C[C@@H](C(=O)NCCCCCCNC(=O)c2ccc(-c3c4nc(c(-c5c(F)cccc5F)c5ccc([nH]5)c(-c5c(F)cccc5F)c5nc(c(-c6c(F)cccc6F)c6ccc3[nH]6)C=C5)C=C4)cc2)[NH+]2CC[NH+](Cc3ccccc3)CC2)cc1
REMARK SMILES IDX 15 1 14 2 13 3 12 4 10 5 11 6 9 8 8 9 6 10 7 11 5 12 1 13
REMARK SMILES IDX 2 14 3 15 90 16 4 17 89 18 76 19 77 20 88 21 78 23 87 24
REMARK SMILES IDX 79 25 80 27 81 28 82 29 86 30 83 31 85 32 84 33 16 34 17 35
REMARK SMILES IDX 18 36 19 37 20 38 21 40 22 41 23 42 75 43 24 44 74 45 25 46
REMARK SMILES IDX 26 47 27 48 68 49 28 50 73 51 67 52 69 53 29 54 72 55 66 56
REMARK SMILES IDX 65 57 30 59 56 60 39 61 55 62 40 63 43 64 54 65 70 66 41 67
REMARK SMILES IDX 42 68 53 70 71 71 44 72 31 73 32 74 37 75 33 76 34 77 36 78
REMARK SMILES IDX 38 79 35 80 57 81 58 82 63 83 59 84 60 85 62 86 64 87 61 88
REMARK SMILES IDX 45 89 46 90 51 91 47 92 48 93 50 94 52 95 49 96
REMARK H PARENT 12 7 76 22 79 26 19 39 69 58 43 69
REMARK Flexibility Score: inf
ROOT
ATOM      1  C   UNL A   1      37.783  21.368  25.171  1.00  0.00     0.002 C 
ENDROOT
BRANCH   1   2
ATOM      2  C   UNL A   1      37.040  21.862  23.920  1.00  0.00     0.021 C 
BRANCH   2   3
ATOM      3  C   UNL A   1      36.227  23.131  24.153  1.00  0.00     0.116 C 
BRANCH   3   4
ATOM      4  N   UNL A   1      35.395  23.413  23.002  1.00  0.00    -0.351 N 
ATOM      5  C   UNL A   1      34.036  23.501  22.926  1.00  0.00     0.278 C 
ATOM      6  O   UNL A   1      33.532  23.401  21.803  1.00  0.00    -0.268 OA
ATOM      7  H   UNL A   1      35.877  23.561  22.157  1.00  0.00     0.163 HD
BRANCH   5   8
ATOM      8  C   UNL A   1      33.187  23.831  24.185  1.00  0.00     0.282 C 
BRANCH   8   9
ATOM      9  C   UNL A   1      32.173  22.714  24.503  1.00  0.00     0.156 C 
BRANCH   9  10
ATOM     10  C   UNL A   1      32.828  21.585  25.290  1.00  0.00     0.169 C 
ATOM     11  O   UNL A   1      33.106  21.727  26.481  1.00  0.00    -0.294 OA
BRANCH  10  12
ATOM     12  C   UNL A   1      33.281  20.349  24.586  1.00  0.00     0.018 A 
ATOM     13  C   UNL A   1      33.870  16.254  23.453  1.00  0.00     0.044 C 
ATOM     14  C   UNL A   1      33.727  17.717  23.739  1.00  0.00    -0.051 A 
ATOM     15  C   UNL A   1      32.624  18.431  23.260  1.00  0.00     0.004 A 
ATOM     16  C   UNL A   1      34.679  18.379  24.517  1.00  0.00     0.004 A 
ATOM     17  C   UNL A   1      32.403  19.744  23.676  1.00  0.00     0.012 A 
ATOM     18  C   UNL A   1      34.466  19.695  24.924  1.00  0.00     0.012 A 
ENDBRANCH  10  12
ENDBRANCH   9  10
ENDBRANCH   8   9
BRANCH   8  19
ATOM     19  N   UNL A   1      32.460  25.122  23.972  1.00  0.00    -0.315 N 
ATOM     20  C   UNL A   1      31.153  25.161  24.642  1.00  0.00     0.325 C 
ATOM     21  C   UNL A   1      33.255  26.344  24.188  1.00  0.00     0.325 C 
ATOM     22  H   UNL A   1      32.277  25.131  22.968  1.00  0.00     0.349 HD
ATOM     23  C   UNL A   1      30.662  26.552  25.091  1.00  0.00     0.324 C 
ATOM     24  C   UNL A   1      32.511  27.691  23.985  1.00  0.00     0.324 C 
ATOM     25  N   UNL A   1      31.079  27.678  24.265  1.00  0.00    -0.322 N 
ATOM     26  H   UNL A   1      30.933  28.486  24.870  1.00  0.00     0.348 HD
BRANCH  25  27
ATOM     27  C   UNL A   1      30.200  28.044  23.158  1.00  0.00     0.299 C 
BRANCH  27  28
ATOM     28  C   UNL A   1      29.319  29.277  23.241  1.00  0.00     0.006 A 
ATOM     29  C   UNL A   1      29.836  30.433  23.853  1.00  0.00     0.009 A 
ATOM     30  C   UNL A   1      28.065  29.383  22.624  1.00  0.00     0.009 A 
ATOM     31  C   UNL A   1      29.111  31.628  23.876  1.00  0.00     0.001 A 
ATOM     32  C   UNL A   1      27.326  30.568  22.667  1.00  0.00     0.001 A 
ATOM     33  C   UNL A   1      27.850  31.692  23.291  1.00  0.00     0.000 A 
ENDBRANCH  27  28
ENDBRANCH  25  27
ENDBRANCH   8  19
ENDBRANCH   5   8
ENDBRANCH   3   4
ENDBRANCH   2   3
ENDBRANCH   1   2
BRANCH   1  34
ATOM     34  C   UNL A   1      38.553  22.446  25.942  1.00  0.00     0.002 C 
BRANCH  34  35
ATOM     35  C   UNL A   1      39.988  22.075  26.324  1.00  0.00     0.021 C 
BRANCH  35  36
ATOM     36  C   UNL A   1      40.226  20.582  26.514  1.00  0.00     0.116 C 
BRANCH  36  37
ATOM     37  N   UNL A   1      41.422  20.087  25.851  1.00  0.00    -0.352 N 
ATOM     38  C   UNL A   1      42.690  20.614  25.770  1.00  0.00     0.251 C 
ATOM     39  H   UNL A   1      41.304  19.230  25.382  1.00  0.00     0.163 HD
ATOM     40  O   UNL A   1      43.502  20.048  25.035  1.00  0.00    -0.269 OA
BRANCH  38  41
ATOM     41  C   UNL A   1      43.152  21.746  26.624  1.00  0.00     0.039 A 
ATOM     42  C   UNL A   1      42.906  21.656  28.007  1.00  0.00     0.014 A 
ATOM     43  C   UNL A   1      43.676  22.932  26.117  1.00  0.00     0.014 A 
ATOM     44  C   UNL A   1      42.972  22.793  28.813  1.00  0.00     0.010 A 
ATOM     45  C   UNL A   1      43.679  24.076  26.892  1.00  0.00     0.010 A 
ATOM     46  C   UNL A   1      43.261  24.018  28.220  1.00  0.00    -0.014 A 
BRANCH  46  47
ATOM     47  C   UNL A   1      43.002  25.303  28.851  1.00  0.00     0.031 A 
ATOM     48  C   UNL A   1      41.825  26.116  28.512  1.00  0.00     0.074 A 
ATOM     49  C   UNL A   1      43.805  25.693  29.864  1.00  0.00     0.049 A 
ATOM     50  N   UNL A   1      41.779  27.396  28.675  1.00  0.00    -0.248 NA
ATOM     51  C   UNL A   1      40.604  25.550  27.947  1.00  0.00     0.031 C 
ATOM     52  C   UNL A   1      43.567  26.759  30.831  1.00  0.00     0.029 A 
ATOM     53  N   UNL A   1      45.129  25.303  30.090  1.00  0.00    -0.354 N 
ATOM     54  C   UNL A   1      40.471  27.774  28.517  1.00  0.00     0.074 A 
ATOM     55  C   UNL A   1      39.792  26.612  27.984  1.00  0.00     0.031 C 
ATOM     56  C   UNL A   1      44.746  27.136  31.350  1.00  0.00     0.029 A 
ATOM     57  C   UNL A   1      45.785  26.438  30.614  1.00  0.00     0.049 A 
ATOM     58  H   UNL A   1      45.524  24.418  29.918  1.00  0.00     0.167 HD
ATOM     59  C   UNL A   1      40.045  28.980  28.984  1.00  0.00     0.037 A 
ATOM     60  C   UNL A   1      46.799  27.032  29.919  1.00  0.00     0.037 A 
ATOM     61  C   UNL A   1      41.101  29.743  29.637  1.00  0.00     0.049 A 
ATOM     62  C   UNL A   1      46.545  28.473  29.535  1.00  0.00     0.074 A 
ATOM     63  C   UNL A   1      41.455  29.966  30.958  1.00  0.00     0.029 A 
ATOM     64  N   UNL A   1      42.179  30.174  28.883  1.00  0.00    -0.354 N 
ATOM     65  N   UNL A   1      45.420  29.104  29.726  1.00  0.00    -0.248 NA
ATOM     66  C   UNL A   1      47.518  29.280  28.800  1.00  0.00     0.031 C 
ATOM     67  C   UNL A   1      42.750  30.557  30.986  1.00  0.00     0.029 A 
ATOM     68  C   UNL A   1      43.181  30.692  29.681  1.00  0.00     0.049 A 
ATOM     69  H   UNL A   1      42.227  30.118  27.902  1.00  0.00     0.167 HD
ATOM     70  C   UNL A   1      45.474  30.324  29.107  1.00  0.00     0.074 A 
ATOM     71  C   UNL A   1      46.809  30.393  28.545  1.00  0.00     0.031 C 
ATOM     72  C   UNL A   1      44.404  31.168  29.057  1.00  0.00     0.037 A 
BRANCH  59  73
ATOM     73  C   UNL A   1      38.581  29.302  29.051  1.00  0.00     0.057 A 
ATOM     74  C   UNL A   1      37.882  29.795  27.938  1.00  0.00     0.134 A 
ATOM     75  C   UNL A   1      37.827  29.185  30.232  1.00  0.00     0.134 A 
ATOM     76  F   UNL A   1      38.459  29.901  26.735  1.00  0.00    -0.206 F 
ATOM     77  C   UNL A   1      36.556  30.235  28.017  1.00  0.00     0.040 A 
ATOM     78  C   UNL A   1      36.515  29.663  30.338  1.00  0.00     0.040 A 
ATOM     79  F   UNL A   1      38.348  28.611  31.329  1.00  0.00    -0.206 F 
ATOM     80  C   UNL A   1      35.879  30.204  29.228  1.00  0.00     0.006 A 
ENDBRANCH  59  73
BRANCH  60  81
ATOM     81  C   UNL A   1      47.575  26.070  29.088  1.00  0.00     0.057 A 
ATOM     82  C   UNL A   1      47.266  25.948  27.723  1.00  0.00     0.134 A 
ATOM     83  C   UNL A   1      48.811  25.576  29.509  1.00  0.00     0.134 A 
ATOM     84  F   UNL A   1      46.083  26.381  27.259  1.00  0.00    -0.206 F 
ATOM     85  C   UNL A   1      48.200  25.480  26.796  1.00  0.00     0.040 A 
ATOM     86  C   UNL A   1      49.743  25.076  28.594  1.00  0.00     0.040 A 
ATOM     87  F   UNL A   1      49.182  25.664  30.795  1.00  0.00    -0.206 F 
ATOM     88  C   UNL A   1      49.456  25.070  27.229  1.00  0.00     0.006 A 
ENDBRANCH  60  81
BRANCH  72  89
ATOM     89  C   UNL A   1      44.424  32.518  28.399  1.00  0.00     0.057 A 
ATOM     90  C   UNL A   1      44.221  32.699  27.024  1.00  0.00     0.134 A 
ATOM     91  C   UNL A   1      44.775  33.679  29.119  1.00  0.00     0.134 A 
ATOM     92  F   UNL A   1      43.962  31.657  26.221  1.00  0.00    -0.206 F 
ATOM     93  C   UNL A   1      44.304  33.958  26.417  1.00  0.00     0.040 A 
ATOM     94  C   UNL A   1      44.912  34.931  28.515  1.00  0.00     0.040 A 
ATOM     95  F   UNL A   1      44.984  33.652  30.443  1.00  0.00    -0.206 F 
ATOM     96  C   UNL A   1      44.661  35.078  27.160  1.00  0.00     0.006 A 
ENDBRANCH  72  89
ENDBRANCH  46  47
ENDBRANCH  38  41
ENDBRANCH  36  37
ENDBRANCH  35  36
ENDBRANCH  34  35
ENDBRANCH   1  34
TORSDOF 19
ENDMDL
MODEL 3
REMARK VINA RESULT:     -12.3      1.783      5.379
REMARK SMILES Cc1ccc(C(=O)C[C@@H](C(=O)NCCCCCCNC(=O)c2ccc(-c3c4nc(c(-c5c(F)cccc5F)c5ccc([nH]5)c(-c5c(F)cccc5F)c5nc(c(-c6c(F)cccc6F)c6ccc3[nH]6)C=C5)C=C4)cc2)[NH+]2CC[NH+](Cc3ccccc3)CC2)cc1
REMARK SMILES IDX 15 1 14 2 13 3 12 4 10 5 11 6 9 8 8 9 6 10 7 11 5 12 1 13
REMARK SMILES IDX 2 14 3 15 90 16 4 17 89 18 76 19 77 20 88 21 78 23 87 24
REMARK SMILES IDX 79 25 80 27 81 28 82 29 86 30 83 31 85 32 84 33 16 34 17 35
REMARK SMILES IDX 18 36 19 37 20 38 21 40 22 41 23 42 75 43 24 44 74 45 25 46
REMARK SMILES IDX 26 47 27 48 68 49 28 50 73 51 67 52 69 53 29 54 72 55 66 56
REMARK SMILES IDX 65 57 30 59 56 60 39 61 55 62 40 63 43 64 54 65 70 66 41 67
REMARK SMILES IDX 42 68 53 70 71 71 44 72 31 73 32 74 37 75 33 76 34 77 36 78
REMARK SMILES IDX 38 79 35 80 57 81 58 82 63 83 59 84 60 85 62 86 64 87 61 88
REMARK SMILES IDX 45 89 46 90 51 91 47 92 48 93 50 94 52 95 49 96
REMARK H PARENT 12 7 76 22 79 26 19 39 69 58 43 69
REMARK Flexibility Score: inf
ROOT
ATOM      1  C   UNL A   1      36.573  22.487  24.980  1.00  0.00     0.002 C 
ENDROOT
BRANCH   1   2
ATOM      2  C   UNL A   1      35.931  23.600  24.139  1.00  0.00     0.021 C 
BRANCH   2   3
ATOM      3  C   UNL A   1      35.097  24.581  24.958  1.00  0.00     0.116 C 
BRANCH   3   4
ATOM      4  N   UNL A   1      34.612  25.654  24.114  1.00  0.00    -0.351 N 
ATOM      5  C   UNL A   1      33.367  25.834  23.585  1.00  0.00     0.278 C 
ATOM      6  O   UNL A   1      33.274  26.610  22.629  1.00  0.00    -0.268 OA
ATOM      7  H   UNL A   1      35.272  26.349  23.890  1.00  0.00     0.163 HD
BRANCH   5   8
ATOM      8  C   UNL A   1      32.120  25.179  24.242  1.00  0.00     0.282 C 
BRANCH   8   9
ATOM      9  C   UNL A   1      31.826  25.772  25.634  1.00  0.00     0.156 C 
BRANCH   9  10
ATOM     10  C   UNL A   1      31.517  27.261  25.542  1.00  0.00     0.169 C 
ATOM     11  O   UNL A   1      30.736  27.692  24.692  1.00  0.00    -0.294 OA
BRANCH  10  12
ATOM     12  C   UNL A   1      32.275  28.235  26.383  1.00  0.00     0.018 A 
ATOM     13  C   UNL A   1      34.748  31.498  27.661  1.00  0.00     0.044 C 
ATOM     14  C   UNL A   1      33.854  30.340  27.339  1.00  0.00    -0.051 A 
ATOM     15  C   UNL A   1      32.492  30.540  27.095  1.00  0.00     0.004 A 
ATOM     16  C   UNL A   1      34.378  29.049  27.249  1.00  0.00     0.004 A 
ATOM     17  C   UNL A   1      31.702  29.491  26.623  1.00  0.00     0.012 A 
ATOM     18  C   UNL A   1      33.588  27.997  26.790  1.00  0.00     0.012 A 
ENDBRANCH  10  12
ENDBRANCH   9  10
ENDBRANCH   8   9
BRANCH   8  19
ATOM     19  N   UNL A   1      32.338  23.703  24.362  1.00  0.00    -0.315 N 
ATOM     20  C   UNL A   1      31.834  23.150  25.627  1.00  0.00     0.325 C 
ATOM     21  C   UNL A   1      31.946  22.903  23.187  1.00  0.00     0.325 C 
ATOM     22  H   UNL A   1      33.354  23.612  24.385  1.00  0.00     0.349 HD
ATOM     23  C   UNL A   1      31.360  21.683  25.585  1.00  0.00     0.324 C 
ATOM     24  C   UNL A   1      32.153  21.369  23.302  1.00  0.00     0.324 C 
ATOM     25  N   UNL A   1      32.053  20.810  24.647  1.00  0.00    -0.322 N 
ATOM     26  H   UNL A   1      31.420  20.017  24.544  1.00  0.00     0.348 HD
BRANCH  25  27
ATOM     27  C   UNL A   1      33.235  20.112  25.146  1.00  0.00     0.299 C 
BRANCH  27  28
ATOM     28  C   UNL A   1      33.346  18.602  25.042  1.00  0.00     0.006 A 
ATOM     29  C   UNL A   1      34.385  18.056  24.270  1.00  0.00     0.009 A 
ATOM     30  C   UNL A   1      32.557  17.709  25.780  1.00  0.00     0.009 A 
ATOM     31  C   UNL A   1      34.599  16.675  24.212  1.00  0.00     0.001 A 
ATOM     32  C   UNL A   1      32.750  16.328  25.705  1.00  0.00     0.001 A 
ATOM     33  C   UNL A   1      33.773  15.811  24.923  1.00  0.00     0.000 A 
ENDBRANCH  27  28
ENDBRANCH  25  27
ENDBRANCH   8  19
ENDBRANCH   5   8
ENDBRANCH   3   4
ENDBRANCH   2   3
ENDBRANCH   1   2
BRANCH   1  34
ATOM     34  C   UNL A   1      37.842  22.892  25.740  1.00  0.00     0.002 C 
BRANCH  34  35
ATOM     35  C   UNL A   1      38.948  21.834  25.772  1.00  0.00     0.021 C 
BRANCH  35  36
ATOM     36  C   UNL A   1      40.042  22.093  26.801  1.00  0.00     0.116 C 
BRANCH  36  37
ATOM     37  N   UNL A   1      41.269  22.627  26.233  1.00  0.00    -0.352 N 
ATOM     38  C   UNL A   1      41.707  23.923  26.091  1.00  0.00     0.251 C 
ATOM     39  H   UNL A   1      41.893  21.945  25.894  1.00  0.00     0.163 HD
ATOM     40  O   UNL A   1      42.747  24.113  25.457  1.00  0.00    -0.269 OA
BRANCH  38  41
ATOM     41  C   UNL A   1      41.053  25.077  26.775  1.00  0.00     0.039 A 
ATOM     42  C   UNL A   1      40.979  26.291  26.068  1.00  0.00     0.014 A 
ATOM     43  C   UNL A   1      40.645  25.054  28.107  1.00  0.00     0.014 A 
ATOM     44  C   UNL A   1      40.720  27.486  26.740  1.00  0.00     0.010 A 
ATOM     45  C   UNL A   1      40.455  26.239  28.792  1.00  0.00     0.010 A 
ATOM     46  C   UNL A   1      40.562  27.456  28.122  1.00  0.00    -0.014 A 
BRANCH  46  47
ATOM     47  C   UNL A   1      40.659  28.632  28.973  1.00  0.00     0.031 A 
ATOM     48  C   UNL A   1      39.532  29.558  29.155  1.00  0.00     0.074 A 
ATOM     49  C   UNL A   1      41.778  28.800  29.710  1.00  0.00     0.049 A 
ATOM     50  N   UNL A   1      39.681  30.794  29.499  1.00  0.00    -0.248 NA
ATOM     51  C   UNL A   1      38.140  29.168  28.951  1.00  0.00     0.031 C 
ATOM     52  C   UNL A   1      41.977  29.703  30.838  1.00  0.00     0.029 A 
ATOM     53  N   UNL A   1      43.055  28.300  29.432  1.00  0.00    -0.354 N 
ATOM     54  C   UNL A   1      38.441  31.271  29.834  1.00  0.00     0.074 A 
ATOM     55  C   UNL A   1      37.504  30.255  29.399  1.00  0.00     0.031 C 
ATOM     56  C   UNL A   1      43.293  29.918  30.987  1.00  0.00     0.029 A 
ATOM     57  C   UNL A   1      43.963  29.291  29.861  1.00  0.00     0.049 A 
ATOM     58  H   UNL A   1      43.274  27.433  29.020  1.00  0.00     0.167 HD
ATOM     59  C   UNL A   1      38.319  32.405  30.576  1.00  0.00     0.037 A 
ATOM     60  C   UNL A   1      44.764  29.930  28.960  1.00  0.00     0.037 A 
ATOM     61  C   UNL A   1      39.605  32.986  30.943  1.00  0.00     0.049 A 
ATOM     62  C   UNL A   1      44.563  31.427  28.883  1.00  0.00     0.074 A 
ATOM     63  C   UNL A   1      40.380  32.965  32.091  1.00  0.00     0.029 A 
ATOM     64  N   UNL A   1      40.431  33.470  29.943  1.00  0.00    -0.354 N 
ATOM     65  N   UNL A   1      43.633  32.084  29.517  1.00  0.00    -0.248 NA
ATOM     66  C   UNL A   1      45.337  32.286  27.987  1.00  0.00     0.031 C 
ATOM     67  C   UNL A   1      41.674  33.465  31.772  1.00  0.00     0.029 A 
ATOM     68  C   UNL A   1      41.684  33.788  30.430  1.00  0.00     0.049 A 
ATOM     69  H   UNL A   1      40.160  33.575  29.003  1.00  0.00     0.167 HD
ATOM     70  C   UNL A   1      43.623  33.385  29.089  1.00  0.00     0.074 A 
ATOM     71  C   UNL A   1      44.712  33.466  28.134  1.00  0.00     0.031 C 
ATOM     72  C   UNL A   1      42.692  34.287  29.510  1.00  0.00     0.037 A 
BRANCH  59  73
ATOM     73  C   UNL A   1      36.996  32.799  31.163  1.00  0.00     0.057 A 
ATOM     74  C   UNL A   1      36.584  32.342  32.425  1.00  0.00     0.134 A 
ATOM     75  C   UNL A   1      36.065  33.601  30.480  1.00  0.00     0.134 A 
ATOM     76  F   UNL A   1      37.391  31.620  33.211  1.00  0.00    -0.206 F 
ATOM     77  C   UNL A   1      35.300  32.580  32.929  1.00  0.00     0.040 A 
ATOM     78  C   UNL A   1      34.762  33.809  30.950  1.00  0.00     0.040 A 
ATOM     79  F   UNL A   1      36.389  34.199  29.322  1.00  0.00    -0.206 F 
ATOM     80  C   UNL A   1      34.372  33.285  32.175  1.00  0.00     0.006 A 
ENDBRANCH  59  73
BRANCH  60  81
ATOM     81  C   UNL A   1      45.128  29.075  27.797  1.00  0.00     0.057 A 
ATOM     82  C   UNL A   1      46.175  28.148  27.935  1.00  0.00     0.134 A 
ATOM     83  C   UNL A   1      44.251  28.891  26.725  1.00  0.00     0.134 A 
ATOM     84  F   UNL A   1      47.066  28.283  28.930  1.00  0.00    -0.206 F 
ATOM     85  C   UNL A   1      46.265  27.013  27.126  1.00  0.00     0.040 A 
ATOM     86  C   UNL A   1      44.350  27.775  25.889  1.00  0.00     0.040 A 
ATOM     87  F   UNL A   1      43.222  29.728  26.532  1.00  0.00    -0.206 F 
ATOM     88  C   UNL A   1      45.330  26.810  26.117  1.00  0.00     0.006 A 
ENDBRANCH  60  81
BRANCH  72  89
ATOM     89  C   UNL A   1      42.652  35.724  29.074  1.00  0.00     0.057 A 
ATOM     90  C   UNL A   1      41.850  36.178  28.018  1.00  0.00     0.134 A 
ATOM     91  C   UNL A   1      43.523  36.683  29.631  1.00  0.00     0.134 A 
ATOM     92  F   UNL A   1      41.041  35.340  27.354  1.00  0.00    -0.206 F 
ATOM     93  C   UNL A   1      41.871  37.509  27.584  1.00  0.00     0.040 A 
ATOM     94  C   UNL A   1      43.589  38.001  29.173  1.00  0.00     0.040 A 
ATOM     95  F   UNL A   1      44.334  36.389  30.657  1.00  0.00    -0.206 F 
ATOM     96  C   UNL A   1      42.750  38.424  28.154  1.00  0.00     0.006 A 
ENDBRANCH  72  89
ENDBRANCH  46  47
ENDBRANCH  38  41
ENDBRANCH  36  37
ENDBRANCH  35  36
ENDBRANCH  34  35
ENDBRANCH   1  34
TORSDOF 19
ENDMDL
