MODEL 1
REMARK VINA RESULT:     -11.9      0.000      0.000
REMARK SMILES Cc1ccccc1OCC[NH+]1CCC(CC(=O)NCCCCCCNC(=O)c2ccc(-c3c4nc(c(-c5c(F)cccc5F)c5ccc([nH]5)c(-c5c(F)cccc5F)c5nc(c(-c6c(F)cccc6F)c6ccc3[nH]6)C=C5)C=C4)cc2)CC1
REMARK SMILES IDX 20 1 19 2 18 3 16 4 17 5 15 7 14 8 11 9 12 10 83 11 13 13
REMARK SMILES IDX 82 14 10 15 9 16 8 17 7 18 1 19 2 20 3 21 4 22 6 23 5 24
REMARK SMILES IDX 21 25 22 26 23 27 24 28 25 29 26 30 27 32 28 33 29 34 81 35
REMARK SMILES IDX 30 36 80 37 31 38 32 39 33 40 74 41 34 42 79 43 73 44 75 45
REMARK SMILES IDX 35 46 78 47 72 48 71 49 36 51 62 52 45 53 61 54 46 55 49 56
REMARK SMILES IDX 60 57 76 58 47 59 48 60 59 62 77 63 50 64 37 65 38 66 43 67
REMARK SMILES IDX 39 68 40 69 42 70 44 71 41 72 63 73 64 74 69 75 65 76 66 77
REMARK SMILES IDX 68 78 70 79 67 80 51 81 52 82 57 83 53 84 54 85 56 86 58 87
REMARK SMILES IDX 55 88
REMARK H PARENT 18 6 11 12 25 31 75 50 49 61
REMARK Flexibility Score: inf
ROOT
ATOM      1  C   UNL A   1      33.065  29.265  24.736  1.00  0.00     0.021 C 
ENDROOT
BRANCH   1   2
ATOM      2  C   UNL A   1      31.537  29.393  24.811  1.00  0.00     0.116 C 
BRANCH   2   3
ATOM      3  N   UNL A   1      30.948  29.551  23.489  1.00  0.00    -0.356 N 
ATOM      4  C   UNL A   1      30.031  28.784  22.829  1.00  0.00     0.220 C 
ATOM      5  O   UNL A   1      29.709  29.107  21.685  1.00  0.00    -0.275 OA
ATOM      6  H   UNL A   1      31.260  30.341  22.990  1.00  0.00     0.163 HD
BRANCH   4   7
ATOM      7  C   UNL A   1      29.411  27.571  23.502  1.00  0.00     0.104 C 
BRANCH   7   8
ATOM      8  C   UNL A   1      30.468  26.544  23.999  1.00  0.00     0.009 C 
ATOM      9  N   UNL A   1      31.894  23.078  25.060  1.00  0.00    -0.332 N 
ATOM     10  C   UNL A   1      31.078  24.192  26.343  1.00  0.00     0.262 C 
ATOM     11  C   UNL A   1      31.929  23.590  23.278  1.00  0.00     0.262 C 
ATOM     12  H   UNL A   1      32.830  23.317  25.391  1.00  0.00     0.348 HD
ATOM     13  C   UNL A   1      30.104  25.805  25.778  1.00  0.00     0.066 C 
ATOM     14  C   UNL A   1      31.304  25.344  22.657  1.00  0.00     0.066 C 
BRANCH   9  15
ATOM     15  C   UNL A   1      31.790  21.653  25.215  1.00  0.00     0.304 C 
BRANCH  15  16
ATOM     16  C   UNL A   1      33.067  21.123  25.786  1.00  0.00     0.290 C 
BRANCH  16  17
ATOM     17  O   UNL A   1      34.165  22.026  25.674  1.00  0.00    -0.487 OA
BRANCH  17  18
ATOM     18  C   UNL A   1      35.450  21.598  25.337  1.00  0.00     0.122 A 
ATOM     19  C   UNL A   1      35.162  18.378  24.598  1.00  0.00     0.048 C 
ATOM     20  C   UNL A   1      36.037  20.227  24.955  1.00  0.00    -0.009 A 
ATOM     21  C   UNL A   1      37.497  20.499  24.996  1.00  0.00     0.007 A 
ATOM     22  C   UNL A   1      38.227  21.674  25.352  1.00  0.00     0.001 A 
ATOM     23  C   UNL A   1      36.216  22.776  25.687  1.00  0.00     0.047 A 
ATOM     24  C   UNL A   1      37.586  22.816  25.717  1.00  0.00     0.004 A 
ENDBRANCH  17  18
ENDBRANCH  16  17
ENDBRANCH  15  16
ENDBRANCH   9  15
ENDBRANCH   7   8
ENDBRANCH   4   7
ENDBRANCH   2   3
ENDBRANCH   1   2
BRANCH   1  25
ATOM     25  C   UNL A   1      33.701  28.281  25.713  1.00  0.00     0.002 C 
BRANCH  25  26
ATOM     26  C   UNL A   1      34.150  28.879  27.047  1.00  0.00     0.002 C 
BRANCH  26  27
ATOM     27  C   UNL A   1      34.237  30.403  27.096  1.00  0.00     0.021 C 
BRANCH  27  28
ATOM     28  C   UNL A   1      34.477  30.982  28.482  1.00  0.00     0.116 C 
BRANCH  28  29
ATOM     29  N   UNL A   1      35.690  31.790  28.545  1.00  0.00    -0.352 N 
ATOM     30  C   UNL A   1      37.020  31.451  28.693  1.00  0.00     0.251 C 
ATOM     31  H   UNL A   1      35.531  32.758  28.468  1.00  0.00     0.163 HD
ATOM     32  O   UNL A   1      37.851  32.350  28.802  1.00  0.00    -0.269 OA
BRANCH  30  33
ATOM     33  C   UNL A   1      37.478  30.053  28.495  1.00  0.00     0.039 A 
ATOM     34  C   UNL A   1      37.507  29.255  29.649  1.00  0.00     0.014 A 
ATOM     35  C   UNL A   1      38.247  29.713  27.394  1.00  0.00     0.014 A 
ATOM     36  C   UNL A   1      38.558  28.370  29.827  1.00  0.00     0.010 A 
ATOM     37  C   UNL A   1      39.378  28.977  27.623  1.00  0.00     0.010 A 
ATOM     38  C   UNL A   1      39.557  28.366  28.865  1.00  0.00    -0.014 A 
BRANCH  38  39
ATOM     39  C   UNL A   1      40.820  27.686  29.005  1.00  0.00     0.031 A 
ATOM     40  C   UNL A   1      40.838  26.253  28.691  1.00  0.00     0.074 A 
ATOM     41  C   UNL A   1      41.936  28.411  29.228  1.00  0.00     0.049 A 
ATOM     42  N   UNL A   1      41.752  25.443  29.084  1.00  0.00    -0.248 NA
ATOM     43  C   UNL A   1      39.772  25.593  27.942  1.00  0.00     0.031 C 
ATOM     44  C   UNL A   1      43.322  27.999  29.049  1.00  0.00     0.029 A 
ATOM     45  N   UNL A   1      42.026  29.658  29.857  1.00  0.00    -0.354 N 
ATOM     46  C   UNL A   1      41.582  24.265  28.394  1.00  0.00     0.074 A 
ATOM     47  C   UNL A   1      40.279  24.368  27.790  1.00  0.00     0.031 C 
ATOM     48  C   UNL A   1      44.112  28.795  29.790  1.00  0.00     0.029 A 
ATOM     49  C   UNL A   1      43.239  29.643  30.583  1.00  0.00     0.049 A 
ATOM     50  H   UNL A   1      41.377  30.396  29.805  1.00  0.00     0.167 HD
ATOM     51  C   UNL A   1      42.651  23.426  28.303  1.00  0.00     0.037 A 
ATOM     52  C   UNL A   1      43.235  29.696  31.949  1.00  0.00     0.037 A 
ATOM     53  C   UNL A   1      43.766  23.965  29.080  1.00  0.00     0.049 A 
ATOM     54  C   UNL A   1      43.828  28.459  32.582  1.00  0.00     0.074 A 
ATOM     55  C   UNL A   1      44.864  24.731  28.723  1.00  0.00     0.029 A 
ATOM     56  N   UNL A   1      43.646  24.062  30.459  1.00  0.00    -0.354 N 
ATOM     57  N   UNL A   1      43.867  27.292  31.997  1.00  0.00    -0.248 NA
ATOM     58  C   UNL A   1      44.458  28.441  33.899  1.00  0.00     0.031 C 
ATOM     59  C   UNL A   1      45.391  25.314  29.903  1.00  0.00     0.029 A 
ATOM     60  C   UNL A   1      44.623  24.887  30.973  1.00  0.00     0.049 A 
ATOM     61  H   UNL A   1      42.959  23.605  30.996  1.00  0.00     0.167 HD
ATOM     62  C   UNL A   1      44.523  26.391  32.801  1.00  0.00     0.074 A 
ATOM     63  C   UNL A   1      44.871  27.162  33.980  1.00  0.00     0.031 C 
ATOM     64  C   UNL A   1      44.734  25.098  32.408  1.00  0.00     0.037 A 
BRANCH  51  65
ATOM     65  C   UNL A   1      42.812  22.293  27.316  1.00  0.00     0.057 A 
ATOM     66  C   UNL A   1      41.967  21.165  27.397  1.00  0.00     0.134 A 
ATOM     67  C   UNL A   1      43.778  22.212  26.299  1.00  0.00     0.134 A 
ATOM     68  F   UNL A   1      40.943  21.107  28.257  1.00  0.00    -0.206 F 
ATOM     69  C   UNL A   1      42.125  20.028  26.597  1.00  0.00     0.040 A 
ATOM     70  C   UNL A   1      43.968  21.067  25.511  1.00  0.00     0.040 A 
ATOM     71  F   UNL A   1      44.556  23.248  25.972  1.00  0.00    -0.206 F 
ATOM     72  C   UNL A   1      43.144  19.964  25.663  1.00  0.00     0.006 A 
ENDBRANCH  51  65
BRANCH  52  73
ATOM     73  C   UNL A   1      42.084  30.491  32.468  1.00  0.00     0.057 A 
ATOM     74  C   UNL A   1      42.175  31.894  32.374  1.00  0.00     0.134 A 
ATOM     75  C   UNL A   1      40.800  29.942  32.540  1.00  0.00     0.134 A 
ATOM     76  F   UNL A   1      43.378  32.487  32.323  1.00  0.00    -0.206 F 
ATOM     77  C   UNL A   1      41.048  32.694  32.164  1.00  0.00     0.040 A 
ATOM     78  C   UNL A   1      39.663  30.740  32.357  1.00  0.00     0.040 A 
ATOM     79  F   UNL A   1      40.628  28.616  32.641  1.00  0.00    -0.206 F 
ATOM     80  C   UNL A   1      39.789  32.106  32.106  1.00  0.00     0.006 A 
ENDBRANCH  52  73
BRANCH  64  81
ATOM     81  C   UNL A   1      45.147  23.914  33.266  1.00  0.00     0.057 A 
ATOM     82  C   UNL A   1      46.387  23.778  33.900  1.00  0.00     0.134 A 
ATOM     83  C   UNL A   1      44.202  22.911  33.612  1.00  0.00     0.134 A 
ATOM     84  F   UNL A   1      47.356  24.691  33.769  1.00  0.00    -0.206 F 
ATOM     85  C   UNL A   1      46.681  22.710  34.765  1.00  0.00     0.040 A 
ATOM     86  C   UNL A   1      44.462  21.886  34.525  1.00  0.00     0.040 A 
ATOM     87  F   UNL A   1      42.961  22.887  33.105  1.00  0.00    -0.206 F 
ATOM     88  C   UNL A   1      45.714  21.771  35.095  1.00  0.00     0.006 A 
ENDBRANCH  64  81
ENDBRANCH  38  39
ENDBRANCH  30  33
ENDBRANCH  28  29
ENDBRANCH  27  28
ENDBRANCH  26  27
ENDBRANCH  25  26
ENDBRANCH   1  25
TORSDOF 18
ENDMDL
MODEL 2
REMARK VINA RESULT:     -11.9      3.794      9.656
REMARK SMILES Cc1ccccc1OCC[NH+]1CCC(CC(=O)NCCCCCCNC(=O)c2ccc(-c3c4nc(c(-c5c(F)cccc5F)c5ccc([nH]5)c(-c5c(F)cccc5F)c5nc(c(-c6c(F)cccc6F)c6ccc3[nH]6)C=C5)C=C4)cc2)CC1
REMARK SMILES IDX 20 1 19 2 18 3 16 4 17 5 15 7 14 8 11 9 12 10 83 11 13 13
REMARK SMILES IDX 82 14 10 15 9 16 8 17 7 18 1 19 2 20 3 21 4 22 6 23 5 24
REMARK SMILES IDX 21 25 22 26 23 27 24 28 25 29 26 30 27 32 28 33 29 34 81 35
REMARK SMILES IDX 30 36 80 37 31 38 32 39 33 40 74 41 34 42 79 43 73 44 75 45
REMARK SMILES IDX 35 46 78 47 72 48 71 49 36 51 62 52 45 53 61 54 46 55 49 56
REMARK SMILES IDX 60 57 76 58 47 59 48 60 59 62 77 63 50 64 37 65 38 66 43 67
REMARK SMILES IDX 39 68 40 69 42 70 44 71 41 72 63 73 64 74 69 75 65 76 66 77
REMARK SMILES IDX 68 78 70 79 67 80 51 81 52 82 57 83 53 84 54 85 56 86 58 87
REMARK SMILES IDX 55 88
REMARK H PARENT 18 6 11 12 25 31 75 50 49 61
REMARK Flexibility Score: inf
ROOT
ATOM      1  C   UNL A   1      42.302  20.282  26.136  1.00  0.00     0.021 C 
ENDROOT
BRANCH   1   2
ATOM      2  C   UNL A   1      40.776  20.334  26.294  1.00  0.00     0.116 C 
BRANCH   2   3
ATOM      3  N   UNL A   1      40.318  21.672  26.637  1.00  0.00    -0.356 N 
ATOM      4  C   UNL A   1      39.173  22.333  26.293  1.00  0.00     0.220 C 
ATOM      5  O   UNL A   1      39.026  23.493  26.682  1.00  0.00    -0.275 OA
ATOM      6  H   UNL A   1      40.933  22.183  27.211  1.00  0.00     0.163 HD
BRANCH   4   7
ATOM      7  C   UNL A   1      38.102  21.644  25.465  1.00  0.00     0.104 C 
BRANCH   7   8
ATOM      8  C   UNL A   1      36.766  22.439  25.416  1.00  0.00     0.009 C 
ATOM      9  N   UNL A   1      33.109  23.266  24.358  1.00  0.00    -0.332 N 
ATOM     10  C   UNL A   1      34.554  23.905  23.328  1.00  0.00     0.262 C 
ATOM     11  C   UNL A   1      33.428  22.164  25.815  1.00  0.00     0.262 C 
ATOM     12  H   UNL A   1      32.958  24.181  24.785  1.00  0.00     0.348 HD
ATOM     13  C   UNL A   1      36.380  23.264  23.680  1.00  0.00     0.066 C 
ATOM     14  C   UNL A   1      35.232  21.751  26.469  1.00  0.00     0.066 C 
BRANCH   9  15
ATOM     15  C   UNL A   1      31.875  22.948  23.694  1.00  0.00     0.304 C 
BRANCH  15  16
ATOM     16  C   UNL A   1      30.995  24.159  23.681  1.00  0.00     0.290 C 
BRANCH  16  17
ATOM     17  O   UNL A   1      31.327  25.121  24.680  1.00  0.00    -0.487 OA
BRANCH  17  18
ATOM     18  C   UNL A   1      31.310  26.493  24.427  1.00  0.00     0.122 A 
ATOM     19  C   UNL A   1      31.638  27.960  27.383  1.00  0.00     0.048 C 
ATOM     20  C   UNL A   1      31.359  27.734  25.338  1.00  0.00    -0.009 A 
ATOM     21  C   UNL A   1      31.036  28.825  24.383  1.00  0.00     0.007 A 
ATOM     22  C   UNL A   1      30.695  28.794  22.997  1.00  0.00     0.001 A 
ATOM     23  C   UNL A   1      30.968  26.493  23.020  1.00  0.00     0.047 A 
ATOM     24  C   UNL A   1      30.643  27.621  22.312  1.00  0.00     0.004 A 
ENDBRANCH  17  18
ENDBRANCH  16  17
ENDBRANCH  15  16
ENDBRANCH   9  15
ENDBRANCH   7   8
ENDBRANCH   4   7
ENDBRANCH   2   3
ENDBRANCH   1   2
BRANCH   1  25
ATOM     25  C   UNL A   1      42.927  18.890  26.134  1.00  0.00     0.002 C 
BRANCH  25  26
ATOM     26  C   UNL A   1      43.959  18.637  25.034  1.00  0.00     0.002 C 
BRANCH  26  27
ATOM     27  C   UNL A   1      45.414  18.902  25.415  1.00  0.00     0.021 C 
BRANCH  27  28
ATOM     28  C   UNL A   1      46.103  19.972  24.581  1.00  0.00     0.116 C 
BRANCH  28  29
ATOM     29  N   UNL A   1      45.151  20.833  23.885  1.00  0.00    -0.352 N 
ATOM     30  C   UNL A   1      44.724  22.123  24.126  1.00  0.00     0.251 C 
ATOM     31  H   UNL A   1      44.737  20.415  23.097  1.00  0.00     0.163 HD
ATOM     32  O   UNL A   1      43.833  22.593  23.420  1.00  0.00    -0.269 OA
BRANCH  30  33
ATOM     33  C   UNL A   1      45.467  23.013  25.052  1.00  0.00     0.039 A 
ATOM     34  C   UNL A   1      45.288  22.751  26.420  1.00  0.00     0.014 A 
ATOM     35  C   UNL A   1      45.903  24.260  24.635  1.00  0.00     0.014 A 
ATOM     36  C   UNL A   1      45.180  23.816  27.299  1.00  0.00     0.010 A 
ATOM     37  C   UNL A   1      45.632  25.325  25.449  1.00  0.00     0.010 A 
ATOM     38  C   UNL A   1      45.205  25.093  26.758  1.00  0.00    -0.014 A 
BRANCH  38  39
ATOM     39  C   UNL A   1      44.879  26.293  27.487  1.00  0.00     0.031 A 
ATOM     40  C   UNL A   1      43.481  26.734  27.443  1.00  0.00     0.074 A 
ATOM     41  C   UNL A   1      45.804  26.836  28.306  1.00  0.00     0.049 A 
ATOM     42  N   UNL A   1      43.094  27.924  27.726  1.00  0.00    -0.248 NA
ATOM     43  C   UNL A   1      42.390  25.865  27.011  1.00  0.00     0.031 C 
ATOM     44  C   UNL A   1      45.593  27.799  29.380  1.00  0.00     0.029 A 
ATOM     45  N   UNL A   1      47.196  26.744  28.194  1.00  0.00    -0.354 N 
ATOM     46  C   UNL A   1      41.722  27.896  27.830  1.00  0.00     0.074 A 
ATOM     47  C   UNL A   1      41.328  26.632  27.266  1.00  0.00     0.031 C 
ATOM     48  C   UNL A   1      46.755  28.426  29.637  1.00  0.00     0.029 A 
ATOM     49  C   UNL A   1      47.706  27.988  28.630  1.00  0.00     0.049 A 
ATOM     50  H   UNL A   1      47.714  25.970  27.877  1.00  0.00     0.167 HD
ATOM     51  C   UNL A   1      41.121  28.895  28.535  1.00  0.00     0.037 A 
ATOM     52  C   UNL A   1      48.356  28.819  27.759  1.00  0.00     0.037 A 
ATOM     53  C   UNL A   1      42.126  29.866  28.964  1.00  0.00     0.049 A 
ATOM     54  C   UNL A   1      47.644  30.139  27.572  1.00  0.00     0.074 A 
ATOM     55  C   UNL A   1      42.828  30.017  30.150  1.00  0.00     0.029 A 
ATOM     56  N   UNL A   1      42.800  30.611  28.006  1.00  0.00    -0.354 N 
ATOM     57  N   UNL A   1      46.364  30.307  27.766  1.00  0.00    -0.248 NA
ATOM     58  C   UNL A   1      48.316  31.378  27.193  1.00  0.00     0.031 C 
ATOM     59  C   UNL A   1      43.951  30.842  29.890  1.00  0.00     0.029 A 
ATOM     60  C   UNL A   1      43.919  31.203  28.554  1.00  0.00     0.049 A 
ATOM     61  H   UNL A   1      42.520  30.703  27.067  1.00  0.00     0.167 HD
ATOM     62  C   UNL A   1      46.035  31.627  27.577  1.00  0.00     0.074 A 
ATOM     63  C   UNL A   1      47.294  32.254  27.218  1.00  0.00     0.031 C 
ATOM     64  C   UNL A   1      44.757  32.082  27.753  1.00  0.00     0.037 A 
BRANCH  51  65
ATOM     65  C   UNL A   1      39.714  28.876  29.084  1.00  0.00     0.057 A 
ATOM     66  C   UNL A   1      38.640  29.321  28.282  1.00  0.00     0.134 A 
ATOM     67  C   UNL A   1      39.335  28.479  30.377  1.00  0.00     0.134 A 
ATOM     68  F   UNL A   1      38.809  29.664  26.999  1.00  0.00    -0.206 F 
ATOM     69  C   UNL A   1      37.328  29.443  28.754  1.00  0.00     0.040 A 
ATOM     70  C   UNL A   1      38.031  28.624  30.873  1.00  0.00     0.040 A 
ATOM     71  F   UNL A   1      40.186  27.882  31.216  1.00  0.00    -0.206 F 
ATOM     72  C   UNL A   1      37.021  29.114  30.063  1.00  0.00     0.006 A 
ENDBRANCH  51  65
BRANCH  52  73
ATOM     73  C   UNL A   1      49.093  28.053  26.712  1.00  0.00     0.057 A 
ATOM     74  C   UNL A   1      50.248  27.356  27.116  1.00  0.00     0.134 A 
ATOM     75  C   UNL A   1      48.445  27.595  25.561  1.00  0.00     0.134 A 
ATOM     76  F   UNL A   1      50.931  27.757  28.201  1.00  0.00    -0.206 F 
ATOM     77  C   UNL A   1      50.626  26.148  26.523  1.00  0.00     0.040 A 
ATOM     78  C   UNL A   1      48.833  26.399  24.943  1.00  0.00     0.040 A 
ATOM     79  F   UNL A   1      47.345  28.210  25.104  1.00  0.00    -0.206 F 
ATOM     80  C   UNL A   1      49.883  25.642  25.461  1.00  0.00     0.006 A 
ENDBRANCH  52  73
BRANCH  64  81
ATOM     81  C   UNL A   1      44.162  33.403  27.296  1.00  0.00     0.057 A 
ATOM     82  C   UNL A   1      43.939  33.763  25.962  1.00  0.00     0.134 A 
ATOM     83  C   UNL A   1      43.635  34.322  28.243  1.00  0.00     0.134 A 
ATOM     84  F   UNL A   1      44.277  32.962  24.945  1.00  0.00    -0.206 F 
ATOM     85  C   UNL A   1      43.293  34.956  25.598  1.00  0.00     0.040 A 
ATOM     86  C   UNL A   1      42.929  35.475  27.892  1.00  0.00     0.040 A 
ATOM     87  F   UNL A   1      43.750  34.136  29.566  1.00  0.00    -0.206 F 
ATOM     88  C   UNL A   1      42.769  35.807  26.561  1.00  0.00     0.006 A 
ENDBRANCH  64  81
ENDBRANCH  38  39
ENDBRANCH  30  33
ENDBRANCH  28  29
ENDBRANCH  27  28
ENDBRANCH  26  27
ENDBRANCH  25  26
ENDBRANCH   1  25
TORSDOF 18
ENDMDL
MODEL 3
REMARK VINA RESULT:     -11.8      3.669      9.420
REMARK SMILES Cc1ccccc1OCC[NH+]1CCC(CC(=O)NCCCCCCNC(=O)c2ccc(-c3c4nc(c(-c5c(F)cccc5F)c5ccc([nH]5)c(-c5c(F)cccc5F)c5nc(c(-c6c(F)cccc6F)c6ccc3[nH]6)C=C5)C=C4)cc2)CC1
REMARK SMILES IDX 20 1 19 2 18 3 16 4 17 5 15 7 14 8 11 9 12 10 83 11 13 13
REMARK SMILES IDX 82 14 10 15 9 16 8 17 7 18 1 19 2 20 3 21 4 22 6 23 5 24
REMARK SMILES IDX 21 25 22 26 23 27 24 28 25 29 26 30 27 32 28 33 29 34 81 35
REMARK SMILES IDX 30 36 80 37 31 38 32 39 33 40 74 41 34 42 79 43 73 44 75 45
REMARK SMILES IDX 35 46 78 47 72 48 71 49 36 51 62 52 45 53 61 54 46 55 49 56
REMARK SMILES IDX 60 57 76 58 47 59 48 60 59 62 77 63 50 64 37 65 38 66 43 67
REMARK SMILES IDX 39 68 40 69 42 70 44 71 41 72 63 73 64 74 69 75 65 76 66 77
REMARK SMILES IDX 68 78 70 79 67 80 51 81 52 82 57 83 53 84 54 85 56 86 58 87
REMARK SMILES IDX 55 88
REMARK H PARENT 18 6 11 12 25 31 75 50 49 61
REMARK Flexibility Score: inf
ROOT
ATOM      1  C   UNL A   1      40.573  20.838  26.549  1.00  0.00     0.021 C 
ENDROOT
BRANCH   1   2
ATOM      2  C   UNL A   1      39.326  21.329  25.800  1.00  0.00     0.116 C 
BRANCH   2   3
ATOM      3  N   UNL A   1      38.492  20.220  25.363  1.00  0.00    -0.356 N 
ATOM      4  C   UNL A   1      37.178  20.191  24.989  1.00  0.00     0.220 C 
ATOM      5  O   UNL A   1      36.676  19.107  24.691  1.00  0.00    -0.275 OA
ATOM      6  H   UNL A   1      38.948  19.348  25.332  1.00  0.00     0.163 HD
BRANCH   4   7
ATOM      7  C   UNL A   1      36.365  21.473  24.926  1.00  0.00     0.104 C 
BRANCH   7   8
ATOM      8  C   UNL A   1      34.961  21.336  25.581  1.00  0.00     0.009 C 
ATOM      9  N   UNL A   1      31.377  22.409  26.665  1.00  0.00    -0.332 N 
ATOM     10  C   UNL A   1      32.846  22.761  27.794  1.00  0.00     0.262 C 
ATOM     11  C   UNL A   1      31.653  21.642  25.000  1.00  0.00     0.262 C 
ATOM     12  H   UNL A   1      31.075  21.621  27.239  1.00  0.00     0.348 HD
ATOM     13  C   UNL A   1      34.682  22.488  27.142  1.00  0.00     0.066 C 
ATOM     14  C   UNL A   1      33.407  21.002  24.394  1.00  0.00     0.066 C 
BRANCH   9  15
ATOM     15  C   UNL A   1      30.270  23.325  26.667  1.00  0.00     0.304 C 
BRANCH  15  16
ATOM     16  C   UNL A   1      30.626  24.532  25.857  1.00  0.00     0.290 C 
BRANCH  16  17
ATOM     17  O   UNL A   1      31.077  25.636  26.639  1.00  0.00    -0.487 OA
BRANCH  17  18
ATOM     18  C   UNL A   1      31.246  26.911  26.099  1.00  0.00     0.122 A 
ATOM     19  C   UNL A   1      29.191  27.070  23.501  1.00  0.00     0.048 C 
ATOM     20  C   UNL A   1      30.655  27.621  24.867  1.00  0.00    -0.009 A 
ATOM     21  C   UNL A   1      31.494  28.845  24.790  1.00  0.00     0.007 A 
ATOM     22  C   UNL A   1      32.606  29.276  25.573  1.00  0.00     0.001 A 
ATOM     23  C   UNL A   1      32.373  27.377  26.881  1.00  0.00     0.047 A 
ATOM     24  C   UNL A   1      33.063  28.532  26.615  1.00  0.00     0.004 A 
ENDBRANCH  17  18
ENDBRANCH  16  17
ENDBRANCH  15  16
ENDBRANCH   9  15
ENDBRANCH   7   8
ENDBRANCH   4   7
ENDBRANCH   2   3
ENDBRANCH   1   2
BRANCH   1  25
ATOM     25  C   UNL A   1      41.120  19.481  26.117  1.00  0.00     0.002 C 
BRANCH  25  26
ATOM     26  C   UNL A   1      42.289  18.951  26.950  1.00  0.00     0.002 C 
BRANCH  26  27
ATOM     27  C   UNL A   1      43.463  18.381  26.158  1.00  0.00     0.021 C 
BRANCH  27  28
ATOM     28  C   UNL A   1      43.776  19.120  24.865  1.00  0.00     0.116 C 
BRANCH  28  29
ATOM     29  N   UNL A   1      45.017  19.884  24.948  1.00  0.00    -0.352 N 
ATOM     30  C   UNL A   1      45.264  21.240  25.016  1.00  0.00     0.251 C 
ATOM     31  H   UNL A   1      45.829  19.328  24.956  1.00  0.00     0.163 HD
ATOM     32  O   UNL A   1      46.430  21.630  24.991  1.00  0.00    -0.269 OA
BRANCH  30  33
ATOM     33  C   UNL A   1      44.180  22.198  25.343  1.00  0.00     0.039 A 
ATOM     34  C   UNL A   1      44.110  23.338  24.527  1.00  0.00     0.014 A 
ATOM     35  C   UNL A   1      43.606  22.210  26.604  1.00  0.00     0.014 A 
ATOM     36  C   UNL A   1      43.815  24.561  25.106  1.00  0.00     0.010 A 
ATOM     37  C   UNL A   1      43.481  23.422  27.226  1.00  0.00     0.010 A 
ATOM     38  C   UNL A   1      43.655  24.592  26.483  1.00  0.00    -0.014 A 
BRANCH  38  39
ATOM     39  C   UNL A   1      43.574  25.799  27.268  1.00  0.00     0.031 A 
ATOM     40  C   UNL A   1      42.265  26.458  27.335  1.00  0.00     0.074 A 
ATOM     41  C   UNL A   1      44.625  26.156  28.035  1.00  0.00     0.049 A 
ATOM     42  N   UNL A   1      42.094  27.681  27.678  1.00  0.00    -0.248 NA
ATOM     43  C   UNL A   1      41.023  25.790  26.955  1.00  0.00     0.031 C 
ATOM     44  C   UNL A   1      44.642  27.096  29.147  1.00  0.00     0.029 A 
ATOM     45  N   UNL A   1      45.974  25.848  27.823  1.00  0.00    -0.354 N 
ATOM     46  C   UNL A   1      40.745  27.868  27.877  1.00  0.00     0.074 A 
ATOM     47  C   UNL A   1      40.117  26.705  27.306  1.00  0.00     0.031 C 
ATOM     48  C   UNL A   1      45.904  27.520  29.340  1.00  0.00     0.029 A 
ATOM     49  C   UNL A   1      46.705  26.978  28.257  1.00  0.00     0.049 A 
ATOM     50  H   UNL A   1      46.340  25.015  27.448  1.00  0.00     0.167 HD
ATOM     51  C   UNL A   1      40.359  28.921  28.650  1.00  0.00     0.037 A 
ATOM     52  C   UNL A   1      47.422  27.728  27.367  1.00  0.00     0.037 A 
ATOM     53  C   UNL A   1      41.533  29.702  29.036  1.00  0.00     0.049 A 
ATOM     54  C   UNL A   1      46.922  29.151  27.268  1.00  0.00     0.074 A 
ATOM     55  C   UNL A   1      42.325  29.693  30.173  1.00  0.00     0.029 A 
ATOM     56  N   UNL A   1      42.255  30.368  28.055  1.00  0.00    -0.354 N 
ATOM     57  N   UNL A   1      45.700  29.512  27.556  1.00  0.00    -0.248 NA
ATOM     58  C   UNL A   1      47.758  30.282  26.879  1.00  0.00     0.031 C 
ATOM     59  C   UNL A   1      43.547  30.339  29.859  1.00  0.00     0.029 A 
ATOM     60  C   UNL A   1      43.487  30.753  28.539  1.00  0.00     0.049 A 
ATOM     61  H   UNL A   1      41.933  30.541  27.141  1.00  0.00     0.167 HD
ATOM     62  C   UNL A   1      45.577  30.874  27.429  1.00  0.00     0.074 A 
ATOM     63  C   UNL A   1      46.894  31.307  27.000  1.00  0.00     0.031 C 
ATOM     64  C   UNL A   1      44.403  31.519  27.707  1.00  0.00     0.037 A 
BRANCH  51  65
ATOM     65  C   UNL A   1      39.006  29.103  29.296  1.00  0.00     0.057 A 
ATOM     66  C   UNL A   1      37.943  29.664  28.555  1.00  0.00     0.134 A 
ATOM     67  C   UNL A   1      38.675  28.796  30.626  1.00  0.00     0.134 A 
ATOM     68  F   UNL A   1      38.060  29.946  27.251  1.00  0.00    -0.206 F 
ATOM     69  C   UNL A   1      36.696  29.971  29.111  1.00  0.00     0.040 A 
ATOM     70  C   UNL A   1      37.441  29.126  31.205  1.00  0.00     0.040 A 
ATOM     71  F   UNL A   1      39.500  28.115  31.426  1.00  0.00    -0.206 F 
ATOM     72  C   UNL A   1      36.446  29.723  30.450  1.00  0.00     0.006 A 
ENDBRANCH  51  65
BRANCH  52  73
ATOM     73  C   UNL A   1      47.958  26.898  26.249  1.00  0.00     0.057 A 
ATOM     74  C   UNL A   1      47.292  26.978  25.011  1.00  0.00     0.134 A 
ATOM     75  C   UNL A   1      49.296  26.494  26.225  1.00  0.00     0.134 A 
ATOM     76  F   UNL A   1      45.999  27.339  24.964  1.00  0.00    -0.206 F 
ATOM     77  C   UNL A   1      47.974  26.856  23.797  1.00  0.00     0.040 A 
ATOM     78  C   UNL A   1      49.982  26.342  25.013  1.00  0.00     0.040 A 
ATOM     79  F   UNL A   1      49.997  26.382  27.362  1.00  0.00    -0.206 F 
ATOM     80  C   UNL A   1      49.339  26.585  23.800  1.00  0.00     0.006 A 
ENDBRANCH  52  73
BRANCH  64  81
ATOM     81  C   UNL A   1      44.000  32.934  27.331  1.00  0.00     0.057 A 
ATOM     82  C   UNL A   1      43.871  33.410  26.021  1.00  0.00     0.134 A 
ATOM     83  C   UNL A   1      43.564  33.849  28.328  1.00  0.00     0.134 A 
ATOM     84  F   UNL A   1      44.136  32.642  24.958  1.00  0.00    -0.206 F 
ATOM     85  C   UNL A   1      43.397  34.699  25.727  1.00  0.00     0.040 A 
ATOM     86  C   UNL A   1      43.026  35.106  28.042  1.00  0.00     0.040 A 
ATOM     87  F   UNL A   1      43.609  33.560  29.637  1.00  0.00    -0.206 F 
ATOM     88  C   UNL A   1      42.956  35.545  26.735  1.00  0.00     0.006 A 
ENDBRANCH  64  81
ENDBRANCH  38  39
ENDBRANCH  30  33
ENDBRANCH  28  29
ENDBRANCH  27  28
ENDBRANCH  26  27
ENDBRANCH  25  26
ENDBRANCH   1  25
TORSDOF 18
ENDMDL
