MODEL 1
REMARK VINA RESULT:     -11.3      0.000      0.000
REMARK SMILES O=C(NCCCCCCNC(=O)c1ccc(COc2cccc(C(F)(F)F)c2)nc1)c1ccc(-c2c3nc(c(-c4c(F)cccc4F)c4ccc([nH]4)c(-c4c(F)cccc4F)c4nc(c(-c5c(F)cccc5F)c5ccc2[nH]5)C=C4)C=C3)cc1
REMARK SMILES IDX 7 1 6 2 5 3 4 4 3 5 1 6 2 7 31 9 32 10 84 11 33 12 83 13
REMARK SMILES IDX 34 14 35 15 36 16 77 17 37 18 82 19 76 20 78 21 38 22 81 23
REMARK SMILES IDX 75 24 74 25 39 27 65 28 48 29 64 30 49 31 52 32 63 33 79 34
REMARK SMILES IDX 50 35 51 36 62 38 80 39 53 40 40 41 41 42 46 43 42 44 43 45
REMARK SMILES IDX 45 46 47 47 44 48 66 49 67 50 72 51 68 52 69 53 71 54 73 55
REMARK SMILES IDX 70 56 54 57 55 58 60 59 56 60 57 61 59 62 61 63 58 64 8 65
REMARK SMILES IDX 9 66 10 67 11 68 12 70 13 71 14 72 30 73 15 74 29 75 16 76
REMARK SMILES IDX 17 77 18 78 19 79 20 80 28 81 21 82 23 83 22 84 24 85 25 86
REMARK SMILES IDX 26 87 27 88
REMARK H PARENT 3 8 78 26 52 37 10 69
REMARK Flexibility Score: inf
ROOT
ATOM      1  C   UNL A   1      34.342  32.170  28.804  1.00  0.00     0.002 C 
ENDROOT
BRANCH   1   2
ATOM      2  C   UNL A   1      34.521  33.686  28.923  1.00  0.00     0.002 C 
BRANCH   2   3
ATOM      3  C   UNL A   1      33.221  34.488  29.014  1.00  0.00     0.021 C 
BRANCH   3   4
ATOM      4  C   UNL A   1      33.405  35.948  29.408  1.00  0.00     0.116 C 
BRANCH   4   5
ATOM      5  N   UNL A   1      32.592  36.305  30.557  1.00  0.00    -0.352 N 
ATOM      6  O   UNL A   1      31.770  36.098  32.646  1.00  0.00    -0.269 OA
ATOM      7  C   UNL A   1      32.668  35.850  31.847  1.00  0.00     0.251 C 
ATOM      8  H   UNL A   1      31.886  36.969  30.384  1.00  0.00     0.163 HD
BRANCH   7   9
ATOM      9  C   UNL A   1      33.829  35.043  32.270  1.00  0.00     0.039 A 
ATOM     10  C   UNL A   1      33.666  33.719  32.692  1.00  0.00     0.014 A 
ATOM     11  C   UNL A   1      35.101  35.613  32.212  1.00  0.00     0.014 A 
ATOM     12  C   UNL A   1      34.762  33.001  33.160  1.00  0.00     0.010 A 
ATOM     13  C   UNL A   1      36.209  34.868  32.612  1.00  0.00     0.010 A 
ATOM     14  C   UNL A   1      36.046  33.563  33.106  1.00  0.00    -0.014 A 
BRANCH  14  15
ATOM     15  C   UNL A   1      37.230  32.766  33.503  1.00  0.00     0.031 A 
ATOM     16  C   UNL A   1      37.958  33.060  34.780  1.00  0.00     0.074 A 
ATOM     17  C   UNL A   1      37.677  31.806  32.672  1.00  0.00     0.049 A 
ATOM     18  N   UNL A   1      39.074  32.546  35.233  1.00  0.00    -0.248 NA
ATOM     19  C   UNL A   1      37.362  34.076  35.660  1.00  0.00     0.031 C 
ATOM     20  C   UNL A   1      37.052  31.437  31.400  1.00  0.00     0.029 A 
ATOM     21  N   UNL A   1      38.771  30.984  32.758  1.00  0.00    -0.354 N 
ATOM     22  C   UNL A   1      39.328  33.192  36.435  1.00  0.00     0.074 A 
ATOM     23  C   UNL A   1      38.262  34.153  36.630  1.00  0.00     0.031 C 
ATOM     24  C   UNL A   1      37.774  30.465  30.824  1.00  0.00     0.029 A 
ATOM     25  C   UNL A   1      38.942  30.190  31.652  1.00  0.00     0.049 A 
ATOM     26  H   UNL A   1      39.374  30.966  33.537  1.00  0.00     0.167 HD
ATOM     27  C   UNL A   1      40.358  32.997  37.294  1.00  0.00     0.037 A 
ATOM     28  C   UNL A   1      39.950  29.363  31.318  1.00  0.00     0.037 A 
ATOM     29  C   UNL A   1      41.413  32.039  37.084  1.00  0.00     0.049 A 
ATOM     30  C   UNL A   1      41.104  29.196  32.260  1.00  0.00     0.074 A 
ATOM     31  C   UNL A   1      42.477  31.732  37.915  1.00  0.00     0.029 A 
ATOM     32  N   UNL A   1      41.549  31.247  35.952  1.00  0.00    -0.354 N 
ATOM     33  N   UNL A   1      41.313  29.776  33.417  1.00  0.00    -0.248 NA
ATOM     34  C   UNL A   1      42.163  28.261  31.856  1.00  0.00     0.031 C 
ATOM     35  C   UNL A   1      43.288  30.801  37.259  1.00  0.00     0.029 A 
ATOM     36  C   UNL A   1      42.696  30.477  36.048  1.00  0.00     0.049 A 
ATOM     37  H   UNL A   1      40.922  31.235  35.193  1.00  0.00     0.167 HD
ATOM     38  C   UNL A   1      42.509  29.258  33.893  1.00  0.00     0.074 A 
ATOM     39  C   UNL A   1      42.981  28.315  32.899  1.00  0.00     0.031 C 
ATOM     40  C   UNL A   1      43.151  29.535  35.054  1.00  0.00     0.037 A 
BRANCH  27  41
ATOM     41  C   UNL A   1      40.410  33.870  38.516  1.00  0.00     0.057 A 
ATOM     42  C   UNL A   1      41.146  35.062  38.554  1.00  0.00     0.134 A 
ATOM     43  C   UNL A   1      39.704  33.515  39.674  1.00  0.00     0.134 A 
ATOM     44  F   UNL A   1      41.853  35.459  37.484  1.00  0.00    -0.206 F 
ATOM     45  C   UNL A   1      41.213  35.846  39.707  1.00  0.00     0.040 A 
ATOM     46  C   UNL A   1      39.737  34.307  40.823  1.00  0.00     0.040 A 
ATOM     47  F   UNL A   1      38.968  32.395  39.708  1.00  0.00    -0.206 F 
ATOM     48  C   UNL A   1      40.503  35.470  40.847  1.00  0.00     0.006 A 
ENDBRANCH  27  41
BRANCH  28  49
ATOM     49  C   UNL A   1      39.897  28.655  30.016  1.00  0.00     0.057 A 
ATOM     50  C   UNL A   1      40.537  29.168  28.884  1.00  0.00     0.134 A 
ATOM     51  C   UNL A   1      39.258  27.413  29.891  1.00  0.00     0.134 A 
ATOM     52  F   UNL A   1      41.156  30.357  28.940  1.00  0.00    -0.206 F 
ATOM     53  C   UNL A   1      40.546  28.474  27.673  1.00  0.00     0.040 A 
ATOM     54  C   UNL A   1      39.281  26.697  28.694  1.00  0.00     0.040 A 
ATOM     55  F   UNL A   1      38.639  26.861  30.945  1.00  0.00    -0.206 F 
ATOM     56  C   UNL A   1      39.925  27.229  27.579  1.00  0.00     0.006 A 
ENDBRANCH  28  49
BRANCH  40  57
ATOM     57  C   UNL A   1      44.415  28.780  35.346  1.00  0.00     0.057 A 
ATOM     58  C   UNL A   1      45.675  29.271  34.988  1.00  0.00     0.134 A 
ATOM     59  C   UNL A   1      44.367  27.579  36.068  1.00  0.00     0.134 A 
ATOM     60  F   UNL A   1      45.788  30.406  34.284  1.00  0.00    -0.206 F 
ATOM     61  C   UNL A   1      46.845  28.593  35.336  1.00  0.00     0.040 A 
ATOM     62  C   UNL A   1      45.531  26.906  36.443  1.00  0.00     0.040 A 
ATOM     63  F   UNL A   1      43.190  27.057  36.446  1.00  0.00    -0.206 F 
ATOM     64  C   UNL A   1      46.774  27.413  36.076  1.00  0.00     0.006 A 
ENDBRANCH  40  57
ENDBRANCH  14  15
ENDBRANCH   7   9
ENDBRANCH   4   5
ENDBRANCH   3   4
ENDBRANCH   2   3
ENDBRANCH   1   2
BRANCH   1  65
ATOM     65  C   UNL A   1      33.807  31.686  27.455  1.00  0.00     0.021 C 
BRANCH  65  66
ATOM     66  C   UNL A   1      34.014  30.199  27.199  1.00  0.00     0.116 C 
BRANCH  66  67
ATOM     67  N   UNL A   1      33.007  29.401  27.875  1.00  0.00    -0.352 N 
ATOM     68  C   UNL A   1      32.238  28.401  27.350  1.00  0.00     0.252 C 
ATOM     69  H   UNL A   1      32.860  29.605  28.827  1.00  0.00     0.163 HD
ATOM     70  O   UNL A   1      31.252  27.980  27.956  1.00  0.00    -0.269 OA
BRANCH  68  71
ATOM     71  C   UNL A   1      32.598  27.827  26.049  1.00  0.00     0.058 A 
ATOM     72  C   UNL A   1      33.665  26.938  25.909  1.00  0.00     0.017 A 
ATOM     73  C   UNL A   1      31.830  28.127  24.939  1.00  0.00     0.125 A 
ATOM     74  C   UNL A   1      33.932  26.387  24.661  1.00  0.00     0.028 A 
ATOM     75  N   UNL A   1      32.063  27.597  23.714  1.00  0.00    -0.257 NA
ATOM     76  C   UNL A   1      33.080  26.700  23.599  1.00  0.00     0.078 A 
BRANCH  76  77
ATOM     77  C   UNL A   1      33.123  25.856  22.341  1.00  0.00     0.285 C 
BRANCH  77  78
ATOM     78  O   UNL A   1      34.189  24.881  22.319  1.00  0.00    -0.487 OA
BRANCH  78  79
ATOM     79  C   UNL A   1      33.892  23.646  22.830  1.00  0.00     0.120 A 
ATOM     80  C   UNL A   1      32.599  23.170  22.640  1.00  0.00     0.046 A 
ATOM     81  C   UNL A   1      34.762  22.927  23.649  1.00  0.00     0.059 A 
ATOM     82  C   UNL A   1      32.202  21.961  23.222  1.00  0.00     0.004 A 
ATOM     83  C   UNL A   1      34.405  21.684  24.192  1.00  0.00     0.059 A 
ATOM     84  C   UNL A   1      33.105  21.215  23.983  1.00  0.00     0.013 A 
BRANCH  83  85
ATOM     85  C   UNL A   1      35.399  20.900  25.013  1.00  0.00     0.416 C 
ATOM     86  F   UNL A   1      35.278  21.125  26.348  1.00  0.00    -0.166 F 
ATOM     87  F   UNL A   1      35.265  19.554  24.844  1.00  0.00    -0.166 F 
ATOM     88  F   UNL A   1      36.698  21.174  24.697  1.00  0.00    -0.166 F 
ENDBRANCH  83  85
ENDBRANCH  78  79
ENDBRANCH  77  78
ENDBRANCH  76  77
ENDBRANCH  68  71
ENDBRANCH  66  67
ENDBRANCH  65  66
ENDBRANCH   1  65
TORSDOF 17
ENDMDL
MODEL 2
REMARK VINA RESULT:     -11.2      5.758     10.341
REMARK SMILES O=C(NCCCCCCNC(=O)c1ccc(COc2cccc(C(F)(F)F)c2)nc1)c1ccc(-c2c3nc(c(-c4c(F)cccc4F)c4ccc([nH]4)c(-c4c(F)cccc4F)c4nc(c(-c5c(F)cccc5F)c5ccc2[nH]5)C=C4)C=C3)cc1
REMARK SMILES IDX 7 1 6 2 5 3 4 4 3 5 1 6 2 7 31 9 32 10 84 11 33 12 83 13
REMARK SMILES IDX 34 14 35 15 36 16 77 17 37 18 82 19 76 20 78 21 38 22 81 23
REMARK SMILES IDX 75 24 74 25 39 27 65 28 48 29 64 30 49 31 52 32 63 33 79 34
REMARK SMILES IDX 50 35 51 36 62 38 80 39 53 40 40 41 41 42 46 43 42 44 43 45
REMARK SMILES IDX 45 46 47 47 44 48 66 49 67 50 72 51 68 52 69 53 71 54 73 55
REMARK SMILES IDX 70 56 54 57 55 58 60 59 56 60 57 61 59 62 61 63 58 64 8 65
REMARK SMILES IDX 9 66 10 67 11 68 12 70 13 71 14 72 30 73 15 74 29 75 16 76
REMARK SMILES IDX 17 77 18 78 19 79 20 80 28 81 21 82 23 83 22 84 24 85 25 86
REMARK SMILES IDX 26 87 27 88
REMARK H PARENT 3 8 78 26 52 37 10 69
REMARK Flexibility Score: inf
ROOT
ATOM      1  C   UNL A   1      36.950  22.239  25.403  1.00  0.00     0.002 C 
ENDROOT
BRANCH   1   2
ATOM      2  C   UNL A   1      37.093  21.155  24.330  1.00  0.00     0.002 C 
BRANCH   2   3
ATOM      3  C   UNL A   1      37.923  19.939  24.744  1.00  0.00     0.021 C 
BRANCH   3   4
ATOM      4  C   UNL A   1      38.848  20.179  25.931  1.00  0.00     0.116 C 
BRANCH   4   5
ATOM      5  N   UNL A   1      39.990  19.282  25.918  1.00  0.00    -0.352 N 
ATOM      6  O   UNL A   1      42.174  18.726  25.855  1.00  0.00    -0.269 OA
ATOM      7  C   UNL A   1      41.316  19.567  26.108  1.00  0.00     0.251 C 
ATOM      8  H   UNL A   1      39.781  18.335  25.748  1.00  0.00     0.163 HD
BRANCH   7   9
ATOM      9  C   UNL A   1      41.714  20.899  26.603  1.00  0.00     0.039 A 
ATOM     10  C   UNL A   1      42.068  21.918  25.713  1.00  0.00     0.014 A 
ATOM     11  C   UNL A   1      41.702  21.136  27.978  1.00  0.00     0.014 A 
ATOM     12  C   UNL A   1      42.514  23.142  26.202  1.00  0.00     0.010 A 
ATOM     13  C   UNL A   1      42.079  22.386  28.465  1.00  0.00     0.010 A 
ATOM     14  C   UNL A   1      42.505  23.392  27.582  1.00  0.00    -0.014 A 
BRANCH  14  15
ATOM     15  C   UNL A   1      42.878  24.729  28.103  1.00  0.00     0.031 A 
ATOM     16  C   UNL A   1      41.829  25.767  28.370  1.00  0.00     0.074 A 
ATOM     17  C   UNL A   1      44.180  25.017  28.283  1.00  0.00     0.049 A 
ATOM     18  N   UNL A   1      41.976  27.020  28.717  1.00  0.00    -0.248 NA
ATOM     19  C   UNL A   1      40.429  25.344  28.213  1.00  0.00     0.031 C 
ATOM     20  C   UNL A   1      45.287  24.088  28.050  1.00  0.00     0.029 A 
ATOM     21  N   UNL A   1      44.794  26.178  28.678  1.00  0.00    -0.354 N 
ATOM     22  C   UNL A   1      40.693  27.544  28.795  1.00  0.00     0.074 A 
ATOM     23  C   UNL A   1      39.781  26.479  28.437  1.00  0.00     0.031 C 
ATOM     24  C   UNL A   1      46.445  24.716  28.303  1.00  0.00     0.029 A 
ATOM     25  C   UNL A   1      46.164  26.103  28.652  1.00  0.00     0.049 A 
ATOM     26  H   UNL A   1      44.301  26.985  28.952  1.00  0.00     0.167 HD
ATOM     27  C   UNL A   1      40.316  28.801  29.136  1.00  0.00     0.037 A 
ATOM     28  C   UNL A   1      47.095  27.055  28.844  1.00  0.00     0.037 A 
ATOM     29  C   UNL A   1      41.237  29.852  29.487  1.00  0.00     0.049 A 
ATOM     30  C   UNL A   1      46.659  28.451  29.175  1.00  0.00     0.074 A 
ATOM     31  C   UNL A   1      40.955  31.145  29.891  1.00  0.00     0.029 A 
ATOM     32  N   UNL A   1      42.620  29.736  29.455  1.00  0.00    -0.354 N 
ATOM     33  N   UNL A   1      45.443  28.926  29.293  1.00  0.00    -0.248 NA
ATOM     34  C   UNL A   1      47.718  29.444  29.400  1.00  0.00     0.031 C 
ATOM     35  C   UNL A   1      42.166  31.828  30.044  1.00  0.00     0.029 A 
ATOM     36  C   UNL A   1      43.205  30.943  29.800  1.00  0.00     0.049 A 
ATOM     37  H   UNL A   1      43.113  28.915  29.221  1.00  0.00     0.167 HD
ATOM     38  C   UNL A   1      45.588  30.264  29.633  1.00  0.00     0.074 A 
ATOM     39  C   UNL A   1      47.012  30.525  29.703  1.00  0.00     0.031 C 
ATOM     40  C   UNL A   1      44.625  31.187  29.874  1.00  0.00     0.037 A 
BRANCH  27  41
ATOM     41  C   UNL A   1      38.846  29.113  29.102  1.00  0.00     0.057 A 
ATOM     42  C   UNL A   1      38.033  29.013  30.238  1.00  0.00     0.134 A 
ATOM     43  C   UNL A   1      38.237  29.529  27.911  1.00  0.00     0.134 A 
ATOM     44  F   UNL A   1      38.549  28.612  31.411  1.00  0.00    -0.206 F 
ATOM     45  C   UNL A   1      36.663  29.274  30.184  1.00  0.00     0.040 A 
ATOM     46  C   UNL A   1      36.873  29.823  27.850  1.00  0.00     0.040 A 
ATOM     47  F   UNL A   1      38.954  29.659  26.785  1.00  0.00    -0.206 F 
ATOM     48  C   UNL A   1      36.079  29.684  28.986  1.00  0.00     0.006 A 
ENDBRANCH  27  41
BRANCH  28  49
ATOM     49  C   UNL A   1      48.528  26.699  28.705  1.00  0.00     0.057 A 
ATOM     50  C   UNL A   1      49.278  26.265  29.803  1.00  0.00     0.134 A 
ATOM     51  C   UNL A   1      49.164  26.724  27.457  1.00  0.00     0.134 A 
ATOM     52  F   UNL A   1      48.727  26.232  31.026  1.00  0.00    -0.206 F 
ATOM     53  C   UNL A   1      50.609  25.868  29.666  1.00  0.00     0.040 A 
ATOM     54  C   UNL A   1      50.486  26.304  27.301  1.00  0.00     0.040 A 
ATOM     55  F   UNL A   1      48.494  27.116  26.363  1.00  0.00    -0.206 F 
ATOM     56  C   UNL A   1      51.213  25.877  28.410  1.00  0.00     0.006 A 
ENDBRANCH  28  49
BRANCH  40  57
ATOM     57  C   UNL A   1      45.068  32.562  30.282  1.00  0.00     0.057 A 
ATOM     58  C   UNL A   1      45.333  32.892  31.616  1.00  0.00     0.134 A 
ATOM     59  C   UNL A   1      45.308  33.543  29.310  1.00  0.00     0.134 A 
ATOM     60  F   UNL A   1      45.110  32.004  32.595  1.00  0.00    -0.206 F 
ATOM     61  C   UNL A   1      45.820  34.153  31.970  1.00  0.00     0.040 A 
ATOM     62  C   UNL A   1      45.818  34.797  29.649  1.00  0.00     0.040 A 
ATOM     63  F   UNL A   1      45.079  33.288  28.013  1.00  0.00    -0.206 F 
ATOM     64  C   UNL A   1      46.074  35.105  30.982  1.00  0.00     0.006 A 
ENDBRANCH  40  57
ENDBRANCH  14  15
ENDBRANCH   7   9
ENDBRANCH   4   5
ENDBRANCH   3   4
ENDBRANCH   2   3
ENDBRANCH   1   2
BRANCH   1  65
ATOM     65  C   UNL A   1      35.522  22.740  25.629  1.00  0.00     0.021 C 
BRANCH  65  66
ATOM     66  C   UNL A   1      34.787  22.037  26.762  1.00  0.00     0.116 C 
BRANCH  66  67
ATOM     67  N   UNL A   1      34.298  20.735  26.347  1.00  0.00    -0.352 N 
ATOM     68  C   UNL A   1      33.125  20.445  25.707  1.00  0.00     0.252 C 
ATOM     69  H   UNL A   1      34.881  19.968  26.550  1.00  0.00     0.163 HD
ATOM     70  O   UNL A   1      32.715  19.286  25.639  1.00  0.00    -0.269 OA
BRANCH  68  71
ATOM     71  C   UNL A   1      32.353  21.531  25.097  1.00  0.00     0.058 A 
ATOM     72  C   UNL A   1      31.511  22.348  25.854  1.00  0.00     0.017 A 
ATOM     73  C   UNL A   1      32.498  21.793  23.747  1.00  0.00     0.125 A 
ATOM     74  C   UNL A   1      30.838  23.393  25.231  1.00  0.00     0.028 A 
ATOM     75  N   UNL A   1      31.861  22.809  23.119  1.00  0.00    -0.257 NA
ATOM     76  C   UNL A   1      31.077  23.625  23.874  1.00  0.00     0.078 A 
BRANCH  76  77
ATOM     77  C   UNL A   1      30.651  24.944  23.262  1.00  0.00     0.285 C 
BRANCH  77  78
ATOM     78  O   UNL A   1      29.846  25.768  24.133  1.00  0.00    -0.487 OA
BRANCH  78  79
ATOM     79  C   UNL A   1      30.325  27.025  24.393  1.00  0.00     0.120 A 
ATOM     80  C   UNL A   1      29.923  28.051  23.545  1.00  0.00     0.046 A 
ATOM     81  C   UNL A   1      31.301  27.288  25.355  1.00  0.00     0.059 A 
ATOM     82  C   UNL A   1      30.454  29.336  23.695  1.00  0.00     0.004 A 
ATOM     83  C   UNL A   1      31.802  28.581  25.562  1.00  0.00     0.059 A 
ATOM     84  C   UNL A   1      31.379  29.604  24.706  1.00  0.00     0.013 A 
BRANCH  83  85
ATOM     85  C   UNL A   1      32.802  28.841  26.660  1.00  0.00     0.416 C 
ATOM     86  F   UNL A   1      33.475  27.723  27.040  1.00  0.00    -0.166 F 
ATOM     87  F   UNL A   1      33.753  29.747  26.293  1.00  0.00    -0.166 F 
ATOM     88  F   UNL A   1      32.240  29.350  27.794  1.00  0.00    -0.166 F 
ENDBRANCH  83  85
ENDBRANCH  78  79
ENDBRANCH  77  78
ENDBRANCH  76  77
ENDBRANCH  68  71
ENDBRANCH  66  67
ENDBRANCH  65  66
ENDBRANCH   1  65
TORSDOF 17
ENDMDL
MODEL 3
REMARK VINA RESULT:     -11.2      2.966      7.513
REMARK SMILES O=C(NCCCCCCNC(=O)c1ccc(COc2cccc(C(F)(F)F)c2)nc1)c1ccc(-c2c3nc(c(-c4c(F)cccc4F)c4ccc([nH]4)c(-c4c(F)cccc4F)c4nc(c(-c5c(F)cccc5F)c5ccc2[nH]5)C=C4)C=C3)cc1
REMARK SMILES IDX 7 1 6 2 5 3 4 4 3 5 1 6 2 7 31 9 32 10 84 11 33 12 83 13
REMARK SMILES IDX 34 14 35 15 36 16 77 17 37 18 82 19 76 20 78 21 38 22 81 23
REMARK SMILES IDX 75 24 74 25 39 27 65 28 48 29 64 30 49 31 52 32 63 33 79 34
REMARK SMILES IDX 50 35 51 36 62 38 80 39 53 40 40 41 41 42 46 43 42 44 43 45
REMARK SMILES IDX 45 46 47 47 44 48 66 49 67 50 72 51 68 52 69 53 71 54 73 55
REMARK SMILES IDX 70 56 54 57 55 58 60 59 56 60 57 61 59 62 61 63 58 64 8 65
REMARK SMILES IDX 9 66 10 67 11 68 12 70 13 71 14 72 30 73 15 74 29 75 16 76
REMARK SMILES IDX 17 77 18 78 19 79 20 80 28 81 21 82 23 83 22 84 24 85 25 86
REMARK SMILES IDX 26 87 27 88
REMARK H PARENT 3 8 78 26 52 37 10 69
REMARK Flexibility Score: inf
ROOT
ATOM      1  C   UNL A   1      30.653  27.825  23.692  1.00  0.00     0.002 C 
ENDROOT
BRANCH   1   2
ATOM      2  C   UNL A   1      31.755  28.887  23.630  1.00  0.00     0.002 C 
BRANCH   2   3
ATOM      3  C   UNL A   1      33.160  28.384  23.963  1.00  0.00     0.021 C 
BRANCH   3   4
ATOM      4  C   UNL A   1      33.721  28.902  25.281  1.00  0.00     0.116 C 
BRANCH   4   5
ATOM      5  N   UNL A   1      33.028  30.095  25.733  1.00  0.00    -0.352 N 
ATOM      6  O   UNL A   1      32.495  31.753  27.165  1.00  0.00    -0.269 OA
ATOM      7  C   UNL A   1      33.306  30.906  26.802  1.00  0.00     0.251 C 
ATOM      8  H   UNL A   1      32.248  30.360  25.194  1.00  0.00     0.163 HD
BRANCH   7   9
ATOM      9  C   UNL A   1      34.580  30.745  27.529  1.00  0.00     0.039 A 
ATOM     10  C   UNL A   1      35.452  31.827  27.695  1.00  0.00     0.014 A 
ATOM     11  C   UNL A   1      34.889  29.500  28.078  1.00  0.00     0.014 A 
ATOM     12  C   UNL A   1      36.682  31.636  28.315  1.00  0.00     0.010 A 
ATOM     13  C   UNL A   1      36.090  29.327  28.763  1.00  0.00     0.010 A 
ATOM     14  C   UNL A   1      37.003  30.389  28.871  1.00  0.00    -0.014 A 
BRANCH  14  15
ATOM     15  C   UNL A   1      38.266  30.208  29.626  1.00  0.00     0.031 A 
ATOM     16  C   UNL A   1      39.380  29.376  29.065  1.00  0.00     0.074 A 
ATOM     17  C   UNL A   1      38.378  30.759  30.849  1.00  0.00     0.049 A 
ATOM     18  N   UNL A   1      40.506  29.015  29.628  1.00  0.00    -0.248 NA
ATOM     19  C   UNL A   1      39.202  28.872  27.696  1.00  0.00     0.031 C 
ATOM     20  C   UNL A   1      37.356  31.582  31.497  1.00  0.00     0.029 A 
ATOM     21  N   UNL A   1      39.388  30.688  31.774  1.00  0.00    -0.354 N 
ATOM     22  C   UNL A   1      41.157  28.221  28.695  1.00  0.00     0.074 A 
ATOM     23  C   UNL A   1      40.292  28.133  27.538  1.00  0.00     0.031 C 
ATOM     24  C   UNL A   1      37.789  31.938  32.715  1.00  0.00     0.029 A 
ATOM     25  C   UNL A   1      39.086  31.317  32.956  1.00  0.00     0.049 A 
ATOM     26  H   UNL A   1      40.245  30.232  31.606  1.00  0.00     0.167 HD
ATOM     27  C   UNL A   1      42.369  27.622  28.799  1.00  0.00     0.037 A 
ATOM     28  C   UNL A   1      39.757  31.355  34.122  1.00  0.00     0.037 A 
ATOM     29  C   UNL A   1      43.219  27.715  29.959  1.00  0.00     0.049 A 
ATOM     30  C   UNL A   1      41.074  30.646  34.233  1.00  0.00     0.074 A 
ATOM     31  C   UNL A   1      44.483  27.184  30.147  1.00  0.00     0.029 A 
ATOM     32  N   UNL A   1      42.880  28.367  31.137  1.00  0.00    -0.354 N 
ATOM     33  N   UNL A   1      41.705  29.937  33.329  1.00  0.00    -0.248 NA
ATOM     34  C   UNL A   1      41.775  30.743  35.520  1.00  0.00     0.031 C 
ATOM     35  C   UNL A   1      44.882  27.462  31.458  1.00  0.00     0.029 A 
ATOM     36  C   UNL A   1      43.896  28.223  32.067  1.00  0.00     0.049 A 
ATOM     37  H   UNL A   1      42.041  28.860  31.289  1.00  0.00     0.167 HD
ATOM     38  C   UNL A   1      42.888  29.524  33.926  1.00  0.00     0.074 A 
ATOM     39  C   UNL A   1      42.887  30.065  35.271  1.00  0.00     0.031 C 
ATOM     40  C   UNL A   1      43.887  28.774  33.400  1.00  0.00     0.037 A 
BRANCH  27  41
ATOM     41  C   UNL A   1      42.823  26.778  27.641  1.00  0.00     0.057 A 
ATOM     42  C   UNL A   1      43.505  27.319  26.543  1.00  0.00     0.134 A 
ATOM     43  C   UNL A   1      42.579  25.398  27.629  1.00  0.00     0.134 A 
ATOM     44  F   UNL A   1      43.765  28.635  26.484  1.00  0.00    -0.206 F 
ATOM     45  C   UNL A   1      43.891  26.529  25.458  1.00  0.00     0.040 A 
ATOM     46  C   UNL A   1      42.987  24.592  26.565  1.00  0.00     0.040 A 
ATOM     47  F   UNL A   1      41.942  24.809  28.651  1.00  0.00    -0.206 F 
ATOM     48  C   UNL A   1      43.635  25.158  25.469  1.00  0.00     0.006 A 
ENDBRANCH  27  41
BRANCH  28  49
ATOM     49  C   UNL A   1      39.163  32.081  35.270  1.00  0.00     0.057 A 
ATOM     50  C   UNL A   1      39.277  33.470  35.387  1.00  0.00     0.134 A 
ATOM     51  C   UNL A   1      38.414  31.409  36.245  1.00  0.00     0.134 A 
ATOM     52  F   UNL A   1      39.992  34.167  34.491  1.00  0.00    -0.206 F 
ATOM     53  C   UNL A   1      38.666  34.166  36.431  1.00  0.00     0.040 A 
ATOM     54  C   UNL A   1      37.776  32.095  37.279  1.00  0.00     0.040 A 
ATOM     55  F   UNL A   1      38.256  30.079  36.179  1.00  0.00    -0.206 F 
ATOM     56  C   UNL A   1      37.904  33.479  37.375  1.00  0.00     0.006 A 
ENDBRANCH  28  49
BRANCH  40  57
ATOM     57  C   UNL A   1      45.092  28.523  34.259  1.00  0.00     0.057 A 
ATOM     58  C   UNL A   1      46.173  29.410  34.301  1.00  0.00     0.134 A 
ATOM     59  C   UNL A   1      45.128  27.414  35.116  1.00  0.00     0.134 A 
ATOM     60  F   UNL A   1      46.206  30.481  33.496  1.00  0.00    -0.206 F 
ATOM     61  C   UNL A   1      47.252  29.201  35.164  1.00  0.00     0.040 A 
ATOM     62  C   UNL A   1      46.188  27.209  36.000  1.00  0.00     0.040 A 
ATOM     63  F   UNL A   1      44.120  26.529  35.129  1.00  0.00    -0.206 F 
ATOM     64  C   UNL A   1      47.254  28.104  36.025  1.00  0.00     0.006 A 
ENDBRANCH  40  57
ENDBRANCH  14  15
ENDBRANCH   7   9
ENDBRANCH   4   5
ENDBRANCH   3   4
ENDBRANCH   2   3
ENDBRANCH   1   2
BRANCH   1  65
ATOM     65  C   UNL A   1      30.627  26.994  24.976  1.00  0.00     0.021 C 
BRANCH  65  66
ATOM     66  C   UNL A   1      30.200  25.547  24.773  1.00  0.00     0.116 C 
BRANCH  66  67
ATOM     67  N   UNL A   1      29.780  24.940  26.023  1.00  0.00    -0.352 N 
ATOM     68  C   UNL A   1      30.310  23.842  26.641  1.00  0.00     0.252 C 
ATOM     69  H   UNL A   1      29.024  25.371  26.482  1.00  0.00     0.163 HD
ATOM     70  O   UNL A   1      29.707  23.283  27.558  1.00  0.00    -0.269 OA
BRANCH  68  71
ATOM     71  C   UNL A   1      31.612  23.329  26.203  1.00  0.00     0.058 A 
ATOM     72  C   UNL A   1      32.802  23.993  26.505  1.00  0.00     0.017 A 
ATOM     73  C   UNL A   1      31.673  22.130  25.518  1.00  0.00     0.125 A 
ATOM     74  C   UNL A   1      34.012  23.436  26.105  1.00  0.00     0.028 A 
ATOM     75  N   UNL A   1      32.838  21.562  25.124  1.00  0.00    -0.257 NA
ATOM     76  C   UNL A   1      33.994  22.196  25.461  1.00  0.00     0.078 A 
BRANCH  76  77
ATOM     77  C   UNL A   1      35.282  21.408  25.337  1.00  0.00     0.285 C 
BRANCH  77  78
ATOM     78  O   UNL A   1      36.354  22.125  24.685  1.00  0.00    -0.487 OA
BRANCH  78  79
ATOM     79  C   UNL A   1      37.455  22.399  25.453  1.00  0.00     0.120 A 
ATOM     80  C   UNL A   1      37.597  23.699  25.926  1.00  0.00     0.046 A 
ATOM     81  C   UNL A   1      38.498  21.493  25.646  1.00  0.00     0.059 A 
ATOM     82  C   UNL A   1      38.747  24.070  26.630  1.00  0.00     0.004 A 
ATOM     83  C   UNL A   1      39.633  21.826  26.401  1.00  0.00     0.059 A 
ATOM     84  C   UNL A   1      39.755  23.134  26.878  1.00  0.00     0.013 A 
BRANCH  83  85
ATOM     85  C   UNL A   1      40.706  20.797  26.652  1.00  0.00     0.416 C 
ATOM     86  F   UNL A   1      41.936  21.202  26.237  1.00  0.00    -0.166 F 
ATOM     87  F   UNL A   1      40.836  20.493  27.975  1.00  0.00    -0.166 F 
ATOM     88  F   UNL A   1      40.469  19.605  26.032  1.00  0.00    -0.166 F 
ENDBRANCH  83  85
ENDBRANCH  78  79
ENDBRANCH  77  78
ENDBRANCH  76  77
ENDBRANCH  68  71
ENDBRANCH  66  67
ENDBRANCH  65  66
ENDBRANCH   1  65
TORSDOF 17
ENDMDL
