MODEL 1
REMARK VINA RESULT:     -10.5      0.000      0.000
REMARK SMILES C[C@H](CN(C)C(=O)CCc1nc2ccccc2o1)C(=O)NCCCCCCNC(=O)c1ccc(-c2c3nc(c(-c4c(F)cccc4F)c4ccc([nH]4)c(-c4c(F)cccc4F)c4nc(c(-c5c(F)cccc5F)c5ccc2[nH]5)C=C4)C=C3)cc1
REMARK SMILES IDX 22 1 21 2 19 3 20 4 2 6 1 7 3 8 4 9 5 10 6 11 7 12 8 13 9 14
REMARK SMILES IDX 10 15 11 16 18 17 12 18 17 19 13 20 16 21 14 22 15 23 23 24
REMARK SMILES IDX 24 25 25 26 26 27 27 28 28 29 29 30 30 32 31 33 32 34 84 35
REMARK SMILES IDX 33 36 83 37 34 38 35 39 36 40 77 41 37 42 82 43 76 44 78 45
REMARK SMILES IDX 38 46 81 47 75 48 74 49 39 51 65 52 48 53 64 54 49 55 52 56
REMARK SMILES IDX 63 57 79 58 50 59 51 60 62 62 80 63 53 64 40 65 41 66 46 67
REMARK SMILES IDX 42 68 43 69 45 70 47 71 44 72 66 73 67 74 72 75 68 76 69 77
REMARK SMILES IDX 71 78 73 79 70 80 54 81 55 82 60 83 56 84 57 85 59 86 61 87
REMARK SMILES IDX 58 88
REMARK H PARENT 21 5 28 31 78 50 52 61
REMARK Flexibility Score: inf
ROOT
ATOM      1  C   UNL A   1      36.432  23.306  23.539  1.00  0.00     0.116 C 
ENDROOT
BRANCH   1   2
ATOM      2  N   UNL A   1      35.066  23.097  23.113  1.00  0.00    -0.356 N 
ATOM      3  C   UNL A   1      33.991  23.924  23.224  1.00  0.00     0.224 C 
ATOM      4  O   UNL A   1      32.896  23.495  22.847  1.00  0.00    -0.275 OA
ATOM      5  H   UNL A   1      34.888  22.230  22.681  1.00  0.00     0.163 HD
BRANCH   3   6
ATOM      6  C   UNL A   1      34.125  25.355  23.743  1.00  0.00     0.095 C 
ATOM      7  C   UNL A   1      34.200  25.361  25.268  1.00  0.00     0.020 C 
BRANCH   6   8
ATOM      8  C   UNL A   1      33.125  26.317  23.072  1.00  0.00     0.132 C 
BRANCH   8   9
ATOM      9  N   UNL A   1      32.609  27.401  23.919  1.00  0.00    -0.345 N 
ATOM     10  C   UNL A   1      33.154  28.716  23.642  1.00  0.00     0.146 C 
BRANCH   9  11
ATOM     11  C   UNL A   1      31.508  27.177  24.735  1.00  0.00     0.222 C 
ATOM     12  O   UNL A   1      31.246  27.924  25.683  1.00  0.00    -0.275 OA
BRANCH  11  13
ATOM     13  C   UNL A   1      30.556  26.022  24.462  1.00  0.00     0.110 C 
BRANCH  13  14
ATOM     14  C   UNL A   1      29.908  25.440  25.724  1.00  0.00     0.107 C 
BRANCH  14  15
ATOM     15  C   UNL A   1      30.630  24.231  26.194  1.00  0.00     0.195 A 
ATOM     16  N   UNL A   1      31.377  24.116  27.275  1.00  0.00    -0.214 NA
ATOM     17  O   UNL A   1      30.695  23.166  25.333  1.00  0.00    -0.441 OA
ATOM     18  C   UNL A   1      32.131  23.004  27.022  1.00  0.00     0.109 A 
ATOM     19  C   UNL A   1      31.696  22.395  25.856  1.00  0.00     0.154 A 
ATOM     20  C   UNL A   1      33.274  22.519  27.667  1.00  0.00     0.032 A 
ATOM     21  C   UNL A   1      32.278  21.268  25.294  1.00  0.00     0.049 A 
ATOM     22  C   UNL A   1      33.937  21.430  27.086  1.00  0.00     0.003 A 
ATOM     23  C   UNL A   1      33.436  20.807  25.935  1.00  0.00     0.004 A 
ENDBRANCH  14  15
ENDBRANCH  13  14
ENDBRANCH  11  13
ENDBRANCH   9  11
ENDBRANCH   8   9
ENDBRANCH   6   8
ENDBRANCH   3   6
ENDBRANCH   1   2
BRANCH   1  24
ATOM     24  C   UNL A   1      36.605  22.985  25.024  1.00  0.00     0.021 C 
BRANCH  24  25
ATOM     25  C   UNL A   1      37.664  21.915  25.279  1.00  0.00     0.002 C 
BRANCH  25  26
ATOM     26  C   UNL A   1      37.357  20.564  24.621  1.00  0.00     0.002 C 
BRANCH  26  27
ATOM     27  C   UNL A   1      38.380  19.461  24.911  1.00  0.00     0.021 C 
BRANCH  27  28
ATOM     28  C   UNL A   1      39.320  19.772  26.070  1.00  0.00     0.116 C 
BRANCH  28  29
ATOM     29  N   UNL A   1      40.585  19.064  25.934  1.00  0.00    -0.352 N 
ATOM     30  C   UNL A   1      41.866  19.545  25.968  1.00  0.00     0.251 C 
ATOM     31  H   UNL A   1      40.506  18.092  25.796  1.00  0.00     0.163 HD
ATOM     32  O   UNL A   1      42.796  18.852  25.573  1.00  0.00    -0.269 OA
BRANCH  30  33
ATOM     33  C   UNL A   1      42.125  20.902  26.488  1.00  0.00     0.039 A 
ATOM     34  C   UNL A   1      42.092  21.116  27.868  1.00  0.00     0.014 A 
ATOM     35  C   UNL A   1      42.358  21.969  25.614  1.00  0.00     0.014 A 
ATOM     36  C   UNL A   1      42.327  22.394  28.373  1.00  0.00     0.010 A 
ATOM     37  C   UNL A   1      42.666  23.226  26.122  1.00  0.00     0.010 A 
ATOM     38  C   UNL A   1      42.636  23.454  27.505  1.00  0.00    -0.014 A 
BRANCH  38  39
ATOM     39  C   UNL A   1      42.902  24.816  28.028  1.00  0.00     0.031 A 
ATOM     40  C   UNL A   1      44.300  25.216  28.410  1.00  0.00     0.074 A 
ATOM     41  C   UNL A   1      41.878  25.674  28.200  1.00  0.00     0.049 A 
ATOM     42  N   UNL A   1      44.725  26.339  28.930  1.00  0.00    -0.248 NA
ATOM     43  C   UNL A   1      45.357  24.214  28.201  1.00  0.00     0.031 C 
ATOM     44  C   UNL A   1      40.472  25.383  27.909  1.00  0.00     0.029 A 
ATOM     45  N   UNL A   1      41.862  26.963  28.667  1.00  0.00    -0.354 N 
ATOM     46  C   UNL A   1      46.093  26.176  29.113  1.00  0.00     0.074 A 
ATOM     47  C   UNL A   1      46.416  24.824  28.711  1.00  0.00     0.031 C 
ATOM     48  C   UNL A   1      39.733  26.470  28.186  1.00  0.00     0.029 A 
ATOM     49  C   UNL A   1      40.606  27.518  28.704  1.00  0.00     0.049 A 
ATOM     50  H   UNL A   1      42.672  27.444  28.949  1.00  0.00     0.167 HD
ATOM     51  C   UNL A   1      47.004  27.080  29.548  1.00  0.00     0.037 A 
ATOM     52  C   UNL A   1      40.205  28.735  29.116  1.00  0.00     0.037 A 
ATOM     53  C   UNL A   1      46.680  28.427  29.936  1.00  0.00     0.049 A 
ATOM     54  C   UNL A   1      41.236  29.716  29.606  1.00  0.00     0.074 A 
ATOM     55  C   UNL A   1      47.531  29.429  30.368  1.00  0.00     0.029 A 
ATOM     56  N   UNL A   1      45.400  28.962  29.935  1.00  0.00    -0.354 N 
ATOM     57  N   UNL A   1      42.532  29.566  29.722  1.00  0.00    -0.248 NA
ATOM     58  C   UNL A   1      40.746  31.042  30.011  1.00  0.00     0.031 C 
ATOM     59  C   UNL A   1      46.761  30.559  30.663  1.00  0.00     0.029 A 
ATOM     60  C   UNL A   1      45.438  30.277  30.368  1.00  0.00     0.049 A 
ATOM     61  H   UNL A   1      44.586  28.477  29.667  1.00  0.00     0.167 HD
ATOM     62  C   UNL A   1      43.017  30.786  30.178  1.00  0.00     0.074 A 
ATOM     63  C   UNL A   1      41.875  31.668  30.302  1.00  0.00     0.031 C 
ATOM     64  C   UNL A   1      44.292  31.144  30.469  1.00  0.00     0.037 A 
BRANCH  51  65
ATOM     65  C   UNL A   1      48.438  26.639  29.611  1.00  0.00     0.057 A 
ATOM     66  C   UNL A   1      49.315  26.835  28.534  1.00  0.00     0.134 A 
ATOM     67  C   UNL A   1      48.958  26.041  30.765  1.00  0.00     0.134 A 
ATOM     68  F   UNL A   1      48.877  27.389  27.394  1.00  0.00    -0.206 F 
ATOM     69  C   UNL A   1      50.648  26.429  28.594  1.00  0.00     0.040 A 
ATOM     70  C   UNL A   1      50.298  25.657  30.847  1.00  0.00     0.040 A 
ATOM     71  F   UNL A   1      48.177  25.829  31.835  1.00  0.00    -0.206 F 
ATOM     72  C   UNL A   1      51.145  25.844  29.757  1.00  0.00     0.006 A 
ENDBRANCH  51  65
BRANCH  52  73
ATOM     73  C   UNL A   1      38.768  29.107  29.066  1.00  0.00     0.057 A 
ATOM     74  C   UNL A   1      38.190  29.605  27.893  1.00  0.00     0.134 A 
ATOM     75  C   UNL A   1      37.947  28.999  30.194  1.00  0.00     0.134 A 
ATOM     76  F   UNL A   1      38.930  29.747  26.782  1.00  0.00    -0.206 F 
ATOM     77  C   UNL A   1      36.856  30.012  27.850  1.00  0.00     0.040 A 
ATOM     78  C   UNL A   1      36.603  29.376  30.158  1.00  0.00     0.040 A 
ATOM     79  F   UNL A   1      38.437  28.519  31.347  1.00  0.00    -0.206 F 
ATOM     80  C   UNL A   1      36.057  29.895  28.986  1.00  0.00     0.006 A 
ENDBRANCH  52  73
BRANCH  64  81
ATOM     81  C   UNL A   1      44.523  32.564  30.898  1.00  0.00     0.057 A 
ATOM     82  C   UNL A   1      44.514  32.944  32.246  1.00  0.00     0.134 A 
ATOM     83  C   UNL A   1      44.779  33.559  29.947  1.00  0.00     0.134 A 
ATOM     84  F   UNL A   1      44.262  32.041  33.206  1.00  0.00    -0.206 F 
ATOM     85  C   UNL A   1      44.723  34.269  32.630  1.00  0.00     0.040 A 
ATOM     86  C   UNL A   1      45.019  34.882  30.321  1.00  0.00     0.040 A 
ATOM     87  F   UNL A   1      44.812  33.261  28.638  1.00  0.00    -0.206 F 
ATOM     88  C   UNL A   1      44.983  35.241  31.665  1.00  0.00     0.006 A 
ENDBRANCH  64  81
ENDBRANCH  38  39
ENDBRANCH  30  33
ENDBRANCH  28  29
ENDBRANCH  27  28
ENDBRANCH  26  27
ENDBRANCH  25  26
ENDBRANCH  24  25
ENDBRANCH   1  24
TORSDOF 19
ENDMDL
MODEL 2
REMARK VINA RESULT:     -10.5      3.241      8.502
REMARK SMILES C[C@H](CN(C)C(=O)CCc1nc2ccccc2o1)C(=O)NCCCCCCNC(=O)c1ccc(-c2c3nc(c(-c4c(F)cccc4F)c4ccc([nH]4)c(-c4c(F)cccc4F)c4nc(c(-c5c(F)cccc5F)c5ccc2[nH]5)C=C4)C=C3)cc1
REMARK SMILES IDX 22 1 21 2 19 3 20 4 2 6 1 7 3 8 4 9 5 10 6 11 7 12 8 13 9 14
REMARK SMILES IDX 10 15 11 16 18 17 12 18 17 19 13 20 16 21 14 22 15 23 23 24
REMARK SMILES IDX 24 25 25 26 26 27 27 28 28 29 29 30 30 32 31 33 32 34 84 35
REMARK SMILES IDX 33 36 83 37 34 38 35 39 36 40 77 41 37 42 82 43 76 44 78 45
REMARK SMILES IDX 38 46 81 47 75 48 74 49 39 51 65 52 48 53 64 54 49 55 52 56
REMARK SMILES IDX 63 57 79 58 50 59 51 60 62 62 80 63 53 64 40 65 41 66 46 67
REMARK SMILES IDX 42 68 43 69 45 70 47 71 44 72 66 73 67 74 72 75 68 76 69 77
REMARK SMILES IDX 71 78 73 79 70 80 54 81 55 82 60 83 56 84 57 85 59 86 61 87
REMARK SMILES IDX 58 88
REMARK H PARENT 21 5 28 31 78 50 52 61
REMARK Flexibility Score: inf
ROOT
ATOM      1  C   UNL A   1      30.407  28.671  22.355  1.00  0.00     0.116 C 
ENDROOT
BRANCH   1   2
ATOM      2  N   UNL A   1      30.935  27.334  22.188  1.00  0.00    -0.356 N 
ATOM      3  C   UNL A   1      32.147  26.833  22.554  1.00  0.00     0.224 C 
ATOM      4  O   UNL A   1      32.404  25.667  22.241  1.00  0.00    -0.275 OA
ATOM      5  H   UNL A   1      30.330  26.695  21.746  1.00  0.00     0.163 HD
BRANCH   3   6
ATOM      6  C   UNL A   1      33.145  27.653  23.372  1.00  0.00     0.095 C 
ATOM      7  C   UNL A   1      34.142  28.348  22.447  1.00  0.00     0.020 C 
BRANCH   6   8
ATOM      8  C   UNL A   1      33.709  26.863  24.569  1.00  0.00     0.132 C 
BRANCH   8   9
ATOM      9  N   UNL A   1      33.233  27.279  25.896  1.00  0.00    -0.345 N 
ATOM     10  C   UNL A   1      34.003  28.334  26.525  1.00  0.00     0.146 C 
BRANCH   9  11
ATOM     11  C   UNL A   1      31.999  26.842  26.357  1.00  0.00     0.222 C 
ATOM     12  O   UNL A   1      31.370  27.472  27.213  1.00  0.00    -0.275 OA
BRANCH  11  13
ATOM     13  C   UNL A   1      31.352  25.587  25.787  1.00  0.00     0.110 C 
BRANCH  13  14
ATOM     14  C   UNL A   1      31.664  24.313  26.581  1.00  0.00     0.107 C 
BRANCH  14  15
ATOM     15  C   UNL A   1      32.909  23.665  26.097  1.00  0.00     0.195 A 
ATOM     16  N   UNL A   1      34.037  23.503  26.761  1.00  0.00    -0.214 NA
ATOM     17  O   UNL A   1      32.979  23.363  24.761  1.00  0.00    -0.441 OA
ATOM     18  C   UNL A   1      34.955  23.273  25.774  1.00  0.00     0.109 A 
ATOM     19  C   UNL A   1      34.313  23.148  24.553  1.00  0.00     0.154 A 
ATOM     20  C   UNL A   1      36.354  23.279  25.820  1.00  0.00     0.032 A 
ATOM     21  C   UNL A   1      34.960  22.954  23.341  1.00  0.00     0.049 A 
ATOM     22  C   UNL A   1      37.045  23.165  24.607  1.00  0.00     0.003 A 
ATOM     23  C   UNL A   1      36.361  22.987  23.397  1.00  0.00     0.004 A 
ENDBRANCH  14  15
ENDBRANCH  13  14
ENDBRANCH  11  13
ENDBRANCH   9  11
ENDBRANCH   8   9
ENDBRANCH   6   8
ENDBRANCH   3   6
ENDBRANCH   1   2
BRANCH   1  24
ATOM     24  C   UNL A   1      29.980  28.922  23.801  1.00  0.00     0.021 C 
BRANCH  24  25
ATOM     25  C   UNL A   1      30.198  30.368  24.241  1.00  0.00     0.002 C 
BRANCH  25  26
ATOM     26  C   UNL A   1      31.189  30.525  25.400  1.00  0.00     0.002 C 
BRANCH  26  27
ATOM     27  C   UNL A   1      31.071  31.844  26.172  1.00  0.00     0.021 C 
BRANCH  27  28
ATOM     28  C   UNL A   1      32.330  32.230  26.941  1.00  0.00     0.116 C 
BRANCH  28  29
ATOM     29  N   UNL A   1      32.277  33.614  27.387  1.00  0.00    -0.352 N 
ATOM     30  C   UNL A   1      33.056  34.269  28.303  1.00  0.00     0.251 C 
ATOM     31  H   UNL A   1      31.575  34.162  26.966  1.00  0.00     0.163 HD
ATOM     32  O   UNL A   1      32.703  35.355  28.748  1.00  0.00    -0.269 OA
BRANCH  30  33
ATOM     33  C   UNL A   1      34.326  33.666  28.751  1.00  0.00     0.039 A 
ATOM     34  C   UNL A   1      34.327  32.861  29.893  1.00  0.00     0.014 A 
ATOM     35  C   UNL A   1      35.520  33.929  28.071  1.00  0.00     0.014 A 
ATOM     36  C   UNL A   1      35.521  32.291  30.333  1.00  0.00     0.010 A 
ATOM     37  C   UNL A   1      36.695  33.299  28.468  1.00  0.00     0.010 A 
ATOM     38  C   UNL A   1      36.710  32.489  29.612  1.00  0.00    -0.014 A 
BRANCH  38  39
ATOM     39  C   UNL A   1      37.985  31.879  30.060  1.00  0.00     0.031 A 
ATOM     40  C   UNL A   1      38.840  32.583  31.077  1.00  0.00     0.074 A 
ATOM     41  C   UNL A   1      38.391  30.715  29.518  1.00  0.00     0.049 A 
ATOM     42  N   UNL A   1      40.008  32.238  31.556  1.00  0.00    -0.248 NA
ATOM     43  C   UNL A   1      38.326  33.856  31.607  1.00  0.00     0.031 C 
ATOM     44  C   UNL A   1      37.670  29.962  28.490  1.00  0.00     0.029 A 
ATOM     45  N   UNL A   1      39.515  29.965  29.753  1.00  0.00    -0.354 N 
ATOM     46  C   UNL A   1      40.366  33.250  32.439  1.00  0.00     0.074 A 
ATOM     47  C   UNL A   1      39.327  34.253  32.379  1.00  0.00     0.031 C 
ATOM     48  C   UNL A   1      38.360  28.847  28.198  1.00  0.00     0.029 A 
ATOM     49  C   UNL A   1      39.584  28.825  28.991  1.00  0.00     0.049 A 
ATOM     50  H   UNL A   1      40.206  30.220  30.406  1.00  0.00     0.167 HD
ATOM     51  C   UNL A   1      41.450  33.322  33.248  1.00  0.00     0.037 A 
ATOM     52  C   UNL A   1      40.535  27.873  28.934  1.00  0.00     0.037 A 
ATOM     53  C   UNL A   1      42.477  32.316  33.314  1.00  0.00     0.049 A 
ATOM     54  C   UNL A   1      41.734  27.984  29.836  1.00  0.00     0.074 A 
ATOM     55  C   UNL A   1      43.603  32.282  34.117  1.00  0.00     0.029 A 
ATOM     56  N   UNL A   1      42.499  31.162  32.544  1.00  0.00    -0.354 N 
ATOM     57  N   UNL A   1      42.033  28.919  30.704  1.00  0.00    -0.248 NA
ATOM     58  C   UNL A   1      42.722  26.898  29.757  1.00  0.00     0.031 C 
ATOM     59  C   UNL A   1      44.326  31.125  33.808  1.00  0.00     0.029 A 
ATOM     60  C   UNL A   1      43.624  30.413  32.848  1.00  0.00     0.049 A 
ATOM     61  H   UNL A   1      41.816  30.913  31.880  1.00  0.00     0.167 HD
ATOM     62  C   UNL A   1      43.223  28.517  31.300  1.00  0.00     0.074 A 
ATOM     63  C   UNL A   1      43.580  27.247  30.703  1.00  0.00     0.031 C 
ATOM     64  C   UNL A   1      43.954  29.143  32.255  1.00  0.00     0.037 A 
BRANCH  51  65
ATOM     65  C   UNL A   1      41.567  34.526  34.138  1.00  0.00     0.057 A 
ATOM     66  C   UNL A   1      42.217  35.694  33.712  1.00  0.00     0.134 A 
ATOM     67  C   UNL A   1      41.001  34.535  35.418  1.00  0.00     0.134 A 
ATOM     68  F   UNL A   1      42.794  35.748  32.502  1.00  0.00    -0.206 F 
ATOM     69  C   UNL A   1      42.323  36.814  34.538  1.00  0.00     0.040 A 
ATOM     70  C   UNL A   1      41.075  35.659  36.242  1.00  0.00     0.040 A 
ATOM     71  F   UNL A   1      40.358  33.454  35.887  1.00  0.00    -0.206 F 
ATOM     72  C   UNL A   1      41.744  36.801  35.804  1.00  0.00     0.006 A 
ENDBRANCH  51  65
BRANCH  52  73
ATOM     73  C   UNL A   1      40.386  26.721  28.009  1.00  0.00     0.057 A 
ATOM     74  C   UNL A   1      39.647  25.590  28.374  1.00  0.00     0.134 A 
ATOM     75  C   UNL A   1      40.999  26.711  26.751  1.00  0.00     0.134 A 
ATOM     76  F   UNL A   1      39.049  25.532  29.574  1.00  0.00    -0.206 F 
ATOM     77  C   UNL A   1      39.549  24.478  27.537  1.00  0.00     0.040 A 
ATOM     78  C   UNL A   1      40.886  25.617  25.891  1.00  0.00     0.040 A 
ATOM     79  F   UNL A   1      41.712  27.769  26.336  1.00  0.00    -0.206 F 
ATOM     80  C   UNL A   1      40.168  24.491  26.289  1.00  0.00     0.006 A 
ENDBRANCH  52  73
BRANCH  64  81
ATOM     81  C   UNL A   1      45.183  28.437  32.747  1.00  0.00     0.057 A 
ATOM     82  C   UNL A   1      46.439  28.630  32.156  1.00  0.00     0.134 A 
ATOM     83  C   UNL A   1      45.111  27.569  33.843  1.00  0.00     0.134 A 
ATOM     84  F   UNL A   1      46.575  29.439  31.095  1.00  0.00    -0.206 F 
ATOM     85  C   UNL A   1      47.573  27.961  32.621  1.00  0.00     0.040 A 
ATOM     86  C   UNL A   1      46.243  26.917  34.335  1.00  0.00     0.040 A 
ATOM     87  F   UNL A   1      43.941  27.347  34.462  1.00  0.00    -0.206 F 
ATOM     88  C   UNL A   1      47.476  27.106  33.718  1.00  0.00     0.006 A 
ENDBRANCH  64  81
ENDBRANCH  38  39
ENDBRANCH  30  33
ENDBRANCH  28  29
ENDBRANCH  27  28
ENDBRANCH  26  27
ENDBRANCH  25  26
ENDBRANCH  24  25
ENDBRANCH   1  24
TORSDOF 19
ENDMDL
MODEL 3
REMARK VINA RESULT:     -10.4      1.323      6.207
REMARK SMILES C[C@H](CN(C)C(=O)CCc1nc2ccccc2o1)C(=O)NCCCCCCNC(=O)c1ccc(-c2c3nc(c(-c4c(F)cccc4F)c4ccc([nH]4)c(-c4c(F)cccc4F)c4nc(c(-c5c(F)cccc5F)c5ccc2[nH]5)C=C4)C=C3)cc1
REMARK SMILES IDX 22 1 21 2 19 3 20 4 2 6 1 7 3 8 4 9 5 10 6 11 7 12 8 13 9 14
REMARK SMILES IDX 10 15 11 16 18 17 12 18 17 19 13 20 16 21 14 22 15 23 23 24
REMARK SMILES IDX 24 25 25 26 26 27 27 28 28 29 29 30 30 32 31 33 32 34 84 35
REMARK SMILES IDX 33 36 83 37 34 38 35 39 36 40 77 41 37 42 82 43 76 44 78 45
REMARK SMILES IDX 38 46 81 47 75 48 74 49 39 51 65 52 48 53 64 54 49 55 52 56
REMARK SMILES IDX 63 57 79 58 50 59 51 60 62 62 80 63 53 64 40 65 41 66 46 67
REMARK SMILES IDX 42 68 43 69 45 70 47 71 44 72 66 73 67 74 72 75 68 76 69 77
REMARK SMILES IDX 71 78 73 79 70 80 54 81 55 82 60 83 56 84 57 85 59 86 61 87
REMARK SMILES IDX 58 88
REMARK H PARENT 21 5 28 31 78 50 52 61
REMARK Flexibility Score: inf
ROOT
ATOM      1  C   UNL A   1      36.341  23.319  23.615  1.00  0.00     0.116 C 
ENDROOT
BRANCH   1   2
ATOM      2  N   UNL A   1      34.994  23.080  23.145  1.00  0.00    -0.356 N 
ATOM      3  C   UNL A   1      33.914  23.909  23.163  1.00  0.00     0.224 C 
ATOM      4  O   UNL A   1      32.836  23.456  22.767  1.00  0.00    -0.275 OA
ATOM      5  H   UNL A   1      34.835  22.189  22.756  1.00  0.00     0.163 HD
BRANCH   3   6
ATOM      6  C   UNL A   1      34.025  25.368  23.604  1.00  0.00     0.095 C 
ATOM      7  C   UNL A   1      34.086  25.458  25.127  1.00  0.00     0.020 C 
BRANCH   6   8
ATOM      8  C   UNL A   1      33.019  26.278  22.873  1.00  0.00     0.132 C 
BRANCH   8   9
ATOM      9  N   UNL A   1      32.490  27.408  23.651  1.00  0.00    -0.345 N 
ATOM     10  C   UNL A   1      32.971  28.715  23.248  1.00  0.00     0.146 C 
BRANCH   9  11
ATOM     11  C   UNL A   1      31.431  27.209  24.527  1.00  0.00     0.222 C 
ATOM     12  O   UNL A   1      31.180  28.015  25.428  1.00  0.00    -0.275 OA
BRANCH  11  13
ATOM     13  C   UNL A   1      30.508  26.007  24.376  1.00  0.00     0.110 C 
BRANCH  13  14
ATOM     14  C   UNL A   1      29.934  25.497  25.704  1.00  0.00     0.107 C 
BRANCH  14  15
ATOM     15  C   UNL A   1      30.650  24.284  26.172  1.00  0.00     0.195 A 
ATOM     16  N   UNL A   1      31.402  24.165  27.248  1.00  0.00    -0.214 NA
ATOM     17  O   UNL A   1      30.702  23.216  25.312  1.00  0.00    -0.441 OA
ATOM     18  C   UNL A   1      32.146  23.046  26.992  1.00  0.00     0.109 A 
ATOM     19  C   UNL A   1      31.700  22.438  25.830  1.00  0.00     0.154 A 
ATOM     20  C   UNL A   1      33.289  22.553  27.631  1.00  0.00     0.032 A 
ATOM     21  C   UNL A   1      32.269  21.306  25.266  1.00  0.00     0.049 A 
ATOM     22  C   UNL A   1      33.940  21.458  27.048  1.00  0.00     0.003 A 
ATOM     23  C   UNL A   1      33.428  20.838  25.901  1.00  0.00     0.004 A 
ENDBRANCH  14  15
ENDBRANCH  13  14
ENDBRANCH  11  13
ENDBRANCH   9  11
ENDBRANCH   8   9
ENDBRANCH   6   8
ENDBRANCH   3   6
ENDBRANCH   1   2
BRANCH   1  24
ATOM     24  C   UNL A   1      36.442  23.126  25.129  1.00  0.00     0.021 C 
BRANCH  24  25
ATOM     25  C   UNL A   1      37.352  21.963  25.518  1.00  0.00     0.002 C 
BRANCH  25  26
ATOM     26  C   UNL A   1      37.117  20.686  24.701  1.00  0.00     0.002 C 
BRANCH  26  27
ATOM     27  C   UNL A   1      38.155  19.582  24.923  1.00  0.00     0.021 C 
BRANCH  27  28
ATOM     28  C   UNL A   1      39.097  19.838  26.094  1.00  0.00     0.116 C 
BRANCH  28  29
ATOM     29  N   UNL A   1      40.236  18.931  26.068  1.00  0.00    -0.352 N 
ATOM     30  C   UNL A   1      41.576  19.211  26.049  1.00  0.00     0.251 C 
ATOM     31  H   UNL A   1      40.008  17.973  26.065  1.00  0.00     0.163 HD
ATOM     32  O   UNL A   1      42.385  18.335  25.762  1.00  0.00    -0.269 OA
BRANCH  30  33
ATOM     33  C   UNL A   1      42.048  20.570  26.381  1.00  0.00     0.039 A 
ATOM     34  C   UNL A   1      42.217  20.918  27.723  1.00  0.00     0.014 A 
ATOM     35  C   UNL A   1      42.279  21.510  25.373  1.00  0.00     0.014 A 
ATOM     36  C   UNL A   1      42.653  22.200  28.052  1.00  0.00     0.010 A 
ATOM     37  C   UNL A   1      42.786  22.764  25.699  1.00  0.00     0.010 A 
ATOM     38  C   UNL A   1      42.961  23.126  27.042  1.00  0.00    -0.014 A 
BRANCH  38  39
ATOM     39  C   UNL A   1      43.438  24.490  27.375  1.00  0.00     0.031 A 
ATOM     40  C   UNL A   1      42.457  25.547  27.801  1.00  0.00     0.074 A 
ATOM     41  C   UNL A   1      44.747  24.785  27.252  1.00  0.00     0.049 A 
ATOM     42  N   UNL A   1      42.672  26.807  28.085  1.00  0.00    -0.248 NA
ATOM     43  C   UNL A   1      41.046  25.142  27.897  1.00  0.00     0.031 C 
ATOM     44  C   UNL A   1      45.785  23.856  26.803  1.00  0.00     0.029 A 
ATOM     45  N   UNL A   1      45.424  25.954  27.487  1.00  0.00    -0.354 N 
ATOM     46  C   UNL A   1      41.426  27.342  28.389  1.00  0.00     0.074 A 
ATOM     47  C   UNL A   1      40.453  26.290  28.191  1.00  0.00     0.031 C 
ATOM     48  C   UNL A   1      46.972  24.485  26.816  1.00  0.00     0.029 A 
ATOM     49  C   UNL A   1      46.772  25.867  27.238  1.00  0.00     0.049 A 
ATOM     50  H   UNL A   1      44.986  26.777  27.804  1.00  0.00     0.167 HD
ATOM     51  C   UNL A   1      41.122  28.589  28.823  1.00  0.00     0.037 A 
ATOM     52  C   UNL A   1      47.736  26.802  27.334  1.00  0.00     0.037 A 
ATOM     53  C   UNL A   1      42.094  29.629  29.030  1.00  0.00     0.049 A 
ATOM     54  C   UNL A   1      47.370  28.182  27.807  1.00  0.00     0.074 A 
ATOM     55  C   UNL A   1      41.895  30.919  29.489  1.00  0.00     0.029 A 
ATOM     56  N   UNL A   1      43.455  29.495  28.791  1.00  0.00    -0.354 N 
ATOM     57  N   UNL A   1      46.196  28.658  28.143  1.00  0.00    -0.248 NA
ATOM     58  C   UNL A   1      48.468  29.152  27.927  1.00  0.00     0.031 C 
ATOM     59  C   UNL A   1      43.129  31.578  29.496  1.00  0.00     0.029 A 
ATOM     60  C   UNL A   1      44.104  30.683  29.087  1.00  0.00     0.049 A 
ATOM     61  H   UNL A   1      43.892  28.678  28.460  1.00  0.00     0.167 HD
ATOM     62  C   UNL A   1      46.418  29.970  28.546  1.00  0.00     0.074 A 
ATOM     63  C   UNL A   1      47.842  30.206  28.427  1.00  0.00     0.031 C 
ATOM     64  C   UNL A   1      45.525  30.894  28.977  1.00  0.00     0.037 A 
BRANCH  51  65
ATOM     65  C   UNL A   1      39.680  28.885  29.116  1.00  0.00     0.057 A 
ATOM     66  C   UNL A   1      38.801  29.320  28.112  1.00  0.00     0.134 A 
ATOM     67  C   UNL A   1      39.153  28.707  30.400  1.00  0.00     0.134 A 
ATOM     68  F   UNL A   1      39.244  29.525  26.863  1.00  0.00    -0.206 F 
ATOM     69  C   UNL A   1      37.460  29.592  28.384  1.00  0.00     0.040 A 
ATOM     70  C   UNL A   1      37.806  28.947  30.677  1.00  0.00     0.040 A 
ATOM     71  F   UNL A   1      39.935  28.286  31.406  1.00  0.00    -0.206 F 
ATOM     72  C   UNL A   1      36.957  29.399  29.668  1.00  0.00     0.006 A 
ENDBRANCH  51  65
BRANCH  52  73
ATOM     73  C   UNL A   1      49.142  26.464  26.997  1.00  0.00     0.057 A 
ATOM     74  C   UNL A   1      50.051  26.077  27.988  1.00  0.00     0.134 A 
ATOM     75  C   UNL A   1      49.617  26.546  25.683  1.00  0.00     0.134 A 
ATOM     76  F   UNL A   1      49.660  25.996  29.269  1.00  0.00    -0.206 F 
ATOM     77  C   UNL A   1      51.389  25.815  27.692  1.00  0.00     0.040 A 
ATOM     78  C   UNL A   1      50.947  26.258  25.367  1.00  0.00     0.040 A 
ATOM     79  F   UNL A   1      48.795  26.901  24.685  1.00  0.00    -0.206 F 
ATOM     80  C   UNL A   1      51.840  25.902  26.376  1.00  0.00     0.006 A 
ENDBRANCH  52  73
BRANCH  64  81
ATOM     81  C   UNL A   1      46.071  32.227  29.399  1.00  0.00     0.057 A 
ATOM     82  C   UNL A   1      46.184  33.301  28.505  1.00  0.00     0.134 A 
ATOM     83  C   UNL A   1      46.466  32.445  30.724  1.00  0.00     0.134 A 
ATOM     84  F   UNL A   1      45.836  33.155  27.218  1.00  0.00    -0.206 F 
ATOM     85  C   UNL A   1      46.700  34.533  28.910  1.00  0.00     0.040 A 
ATOM     86  C   UNL A   1      46.955  33.681  31.148  1.00  0.00     0.040 A 
ATOM     87  F   UNL A   1      46.373  31.462  31.634  1.00  0.00    -0.206 F 
ATOM     88  C   UNL A   1      47.081  34.726  30.237  1.00  0.00     0.006 A 
ENDBRANCH  64  81
ENDBRANCH  38  39
ENDBRANCH  30  33
ENDBRANCH  28  29
ENDBRANCH  27  28
ENDBRANCH  26  27
ENDBRANCH  25  26
ENDBRANCH  24  25
ENDBRANCH   1  24
TORSDOF 19
ENDMDL
