MODEL 1
REMARK VINA RESULT:     -11.3      0.000      0.000
REMARK SMILES C[C@@H](C(=O)NCCCCCCNC(=O)c1ccc(-c2c3nc(c(-c4c(F)cccc4F)c4ccc([nH]4)c(-c4c(F)cccc4F)c4nc(c(-c5c(F)cccc5F)c5ccc2[nH]5)C=C4)C=C3)cc1)c1ccc(C[C@@H]2CCC[C@@H]2O)cc1F
REMARK SMILES IDX 7 1 6 2 5 3 3 4 4 5 2 7 1 8 69 9 70 10 81 11 71 12 80 13
REMARK SMILES IDX 82 14 72 15 73 16 74 17 75 18 78 19 76 20 77 21 79 22 8 24
REMARK SMILES IDX 9 25 10 26 11 27 12 28 13 29 14 31 15 32 16 33 68 34 17 35
REMARK SMILES IDX 67 36 18 37 19 38 20 39 61 40 21 41 66 42 60 43 62 44 22 45
REMARK SMILES IDX 65 46 59 47 58 48 23 50 49 51 32 52 48 53 33 54 36 55 47 56
REMARK SMILES IDX 63 57 34 58 35 59 46 61 64 62 37 63 24 64 25 65 30 66 26 67
REMARK SMILES IDX 27 68 29 69 31 70 28 71 50 72 51 73 56 74 52 75 53 76 55 77
REMARK SMILES IDX 57 78 54 79 38 80 39 81 44 82 40 83 41 84 43 85 45 86 42 87
REMARK H PARENT 5 6 79 23 12 30 62 49 36 60
REMARK Flexibility Score: inf
ROOT
ATOM      1  C   UNL A   1      35.057  21.581  26.455  1.00  0.00     0.021 C 
ENDROOT
BRANCH   1   2
ATOM      2  C   UNL A   1      33.738  22.340  26.302  1.00  0.00     0.116 C 
BRANCH   2   3
ATOM      3  N   UNL A   1      33.976  23.764  26.212  1.00  0.00    -0.356 N 
ATOM      4  C   UNL A   1      33.695  24.647  25.212  1.00  0.00     0.227 C 
ATOM      5  O   UNL A   1      34.090  25.803  25.373  1.00  0.00    -0.274 OA
ATOM      6  H   UNL A   1      34.411  24.161  27.002  1.00  0.00     0.163 HD
BRANCH   4   7
ATOM      7  C   UNL A   1      32.855  24.197  24.008  1.00  0.00     0.108 C 
ATOM      8  C   UNL A   1      33.689  23.875  22.761  1.00  0.00     0.023 C 
BRANCH   7   9
ATOM      9  C   UNL A   1      31.773  25.211  23.673  1.00  0.00    -0.000 A 
ATOM     10  C   UNL A   1      31.941  26.102  22.604  1.00  0.00     0.008 A 
ATOM     11  C   UNL A   1      30.591  25.285  24.417  1.00  0.00     0.127 A 
ATOM     12  C   UNL A   1      30.984  27.086  22.345  1.00  0.00     0.004 A 
ATOM     13  C   UNL A   1      29.644  26.271  24.172  1.00  0.00     0.043 A 
ATOM     14  F   UNL A   1      30.364  24.425  25.420  1.00  0.00    -0.207 F 
ATOM     15  C   UNL A   1      29.852  27.213  23.159  1.00  0.00    -0.045 A 
BRANCH  15  16
ATOM     16  C   UNL A   1      28.889  28.360  22.996  1.00  0.00     0.041 C 
BRANCH  16  17
ATOM     17  C   UNL A   1      29.482  29.737  22.617  1.00  0.00     0.022 C 
ATOM     18  C   UNL A   1      29.843  30.627  23.813  1.00  0.00     0.007 C 
ATOM     19  C   UNL A   1      28.631  30.674  21.749  1.00  0.00     0.117 C 
ATOM     20  C   UNL A   1      28.716  31.654  23.958  1.00  0.00     0.003 C 
ATOM     21  C   UNL A   1      27.818  31.499  22.736  1.00  0.00     0.032 C 
BRANCH  19  22
ATOM     22  O   UNL A   1      27.808  30.012  20.812  1.00  0.00    -0.393 OA
ATOM     23  H   UNL A   1      26.881  30.087  21.087  1.00  0.00     0.210 HD
ENDBRANCH  19  22
ENDBRANCH  16  17
ENDBRANCH  15  16
ENDBRANCH   7   9
ENDBRANCH   4   7
ENDBRANCH   2   3
ENDBRANCH   1   2
BRANCH   1  24
ATOM     24  C   UNL A   1      35.752  21.259  25.124  1.00  0.00     0.002 C 
BRANCH  24  25
ATOM     25  C   UNL A   1      36.252  19.819  24.981  1.00  0.00     0.002 C 
BRANCH  25  26
ATOM     26  C   UNL A   1      37.729  19.680  24.605  1.00  0.00     0.021 C 
BRANCH  26  27
ATOM     27  C   UNL A   1      38.706  20.099  25.697  1.00  0.00     0.116 C 
BRANCH  27  28
ATOM     28  N   UNL A   1      39.875  19.238  25.748  1.00  0.00    -0.352 N 
ATOM     29  C   UNL A   1      41.172  19.558  26.049  1.00  0.00     0.251 C 
ATOM     30  H   UNL A   1      39.712  18.291  25.535  1.00  0.00     0.163 HD
ATOM     31  O   UNL A   1      42.067  18.729  25.873  1.00  0.00    -0.269 OA
BRANCH  29  32
ATOM     32  C   UNL A   1      41.511  20.897  26.573  1.00  0.00     0.039 A 
ATOM     33  C   UNL A   1      41.357  21.142  27.941  1.00  0.00     0.014 A 
ATOM     34  C   UNL A   1      41.939  21.921  25.721  1.00  0.00     0.014 A 
ATOM     35  C   UNL A   1      41.662  22.402  28.459  1.00  0.00     0.010 A 
ATOM     36  C   UNL A   1      42.303  23.157  26.249  1.00  0.00     0.010 A 
ATOM     37  C   UNL A   1      42.151  23.415  27.619  1.00  0.00    -0.014 A 
BRANCH  37  38
ATOM     38  C   UNL A   1      42.466  24.763  28.155  1.00  0.00     0.031 A 
ATOM     39  C   UNL A   1      43.878  25.109  28.539  1.00  0.00     0.074 A 
ATOM     40  C   UNL A   1      41.477  25.660  28.335  1.00  0.00     0.049 A 
ATOM     41  N   UNL A   1      44.348  26.218  29.053  1.00  0.00    -0.248 NA
ATOM     42  C   UNL A   1      44.892  24.061  28.348  1.00  0.00     0.031 C 
ATOM     43  C   UNL A   1      40.062  25.431  28.042  1.00  0.00     0.029 A 
ATOM     44  N   UNL A   1      41.516  26.945  28.810  1.00  0.00    -0.354 N 
ATOM     45  C   UNL A   1      45.702  25.992  29.266  1.00  0.00     0.074 A 
ATOM     46  C   UNL A   1      45.970  24.627  28.869  1.00  0.00     0.031 C 
ATOM     47  C   UNL A   1      39.371  26.549  28.318  1.00  0.00     0.029 A 
ATOM     48  C   UNL A   1      40.289  27.562  28.829  1.00  0.00     0.049 A 
ATOM     49  H   UNL A   1      42.345  27.385  29.110  1.00  0.00     0.167 HD
ATOM     50  C   UNL A   1      46.641  26.850  29.729  1.00  0.00     0.037 A 
ATOM     51  C   UNL A   1      39.946  28.806  29.210  1.00  0.00     0.037 A 
ATOM     52  C   UNL A   1      46.383  28.221  30.081  1.00  0.00     0.049 A 
ATOM     53  C   UNL A   1      41.012  29.748  29.695  1.00  0.00     0.074 A 
ATOM     54  C   UNL A   1      47.280  29.191  30.488  1.00  0.00     0.029 A 
ATOM     55  N   UNL A   1      45.130  28.815  30.064  1.00  0.00    -0.354 N 
ATOM     56  N   UNL A   1      42.300  29.543  29.826  1.00  0.00    -0.248 NA
ATOM     57  C   UNL A   1      40.576  31.098  30.079  1.00  0.00     0.031 C 
ATOM     58  C   UNL A   1      46.566  30.366  30.749  1.00  0.00     0.029 A 
ATOM     59  C   UNL A   1      45.228  30.136  30.468  1.00  0.00     0.049 A 
ATOM     60  H   UNL A   1      44.294  28.365  29.802  1.00  0.00     0.167 HD
ATOM     61  C   UNL A   1      42.833  30.746  30.272  1.00  0.00     0.074 A 
ATOM     62  C   UNL A   1      41.729  31.676  30.386  1.00  0.00     0.031 C 
ATOM     63  C   UNL A   1      44.122  31.052  30.561  1.00  0.00     0.037 A 
BRANCH  50  64
ATOM     64  C   UNL A   1      48.040  26.326  29.877  1.00  0.00     0.057 A 
ATOM     65  C   UNL A   1      48.492  25.752  31.073  1.00  0.00     0.134 A 
ATOM     66  C   UNL A   1      48.938  26.377  28.804  1.00  0.00     0.134 A 
ATOM     67  F   UNL A   1      47.685  25.685  32.142  1.00  0.00    -0.206 F 
ATOM     68  C   UNL A   1      49.797  25.275  31.205  1.00  0.00     0.040 A 
ATOM     69  C   UNL A   1      50.238  25.879  28.916  1.00  0.00     0.040 A 
ATOM     70  F   UNL A   1      48.567  26.908  27.629  1.00  0.00    -0.206 F 
ATOM     71  C   UNL A   1      50.672  25.333  30.122  1.00  0.00     0.006 A 
ENDBRANCH  50  64
BRANCH  51  72
ATOM     72  C   UNL A   1      38.536  29.254  29.101  1.00  0.00     0.057 A 
ATOM     73  C   UNL A   1      38.019  29.702  27.879  1.00  0.00     0.134 A 
ATOM     74  C   UNL A   1      37.678  29.252  30.205  1.00  0.00     0.134 A 
ATOM     75  F   UNL A   1      38.801  29.743  26.791  1.00  0.00    -0.206 F 
ATOM     76  C   UNL A   1      36.703  30.148  27.764  1.00  0.00     0.040 A 
ATOM     77  C   UNL A   1      36.352  29.676  30.099  1.00  0.00     0.040 A 
ATOM     78  F   UNL A   1      38.113  28.828  31.400  1.00  0.00    -0.206 F 
ATOM     79  C   UNL A   1      35.863  30.132  28.875  1.00  0.00     0.006 A 
ENDBRANCH  51  72
BRANCH  63  80
ATOM     80  C   UNL A   1      44.410  32.461  30.985  1.00  0.00     0.057 A 
ATOM     81  C   UNL A   1      44.697  33.468  30.056  1.00  0.00     0.134 A 
ATOM     82  C   UNL A   1      44.370  32.818  32.339  1.00  0.00     0.134 A 
ATOM     83  F   UNL A   1      44.764  33.187  28.746  1.00  0.00    -0.206 F 
ATOM     84  C   UNL A   1      44.957  34.778  30.461  1.00  0.00     0.040 A 
ATOM     85  C   UNL A   1      44.605  34.129  32.753  1.00  0.00     0.040 A 
ATOM     86  F   UNL A   1      44.094  31.900  33.278  1.00  0.00    -0.206 F 
ATOM     87  C   UNL A   1      44.905  35.113  31.813  1.00  0.00     0.006 A 
ENDBRANCH  63  80
ENDBRANCH  37  38
ENDBRANCH  29  32
ENDBRANCH  27  28
ENDBRANCH  26  27
ENDBRANCH  25  26
ENDBRANCH  24  25
ENDBRANCH   1  24
TORSDOF 17
ENDMDL
MODEL 2
REMARK VINA RESULT:     -11.3      3.863      8.134
REMARK SMILES C[C@@H](C(=O)NCCCCCCNC(=O)c1ccc(-c2c3nc(c(-c4c(F)cccc4F)c4ccc([nH]4)c(-c4c(F)cccc4F)c4nc(c(-c5c(F)cccc5F)c5ccc2[nH]5)C=C4)C=C3)cc1)c1ccc(C[C@@H]2CCC[C@@H]2O)cc1F
REMARK SMILES IDX 7 1 6 2 5 3 3 4 4 5 2 7 1 8 69 9 70 10 81 11 71 12 80 13
REMARK SMILES IDX 82 14 72 15 73 16 74 17 75 18 78 19 76 20 77 21 79 22 8 24
REMARK SMILES IDX 9 25 10 26 11 27 12 28 13 29 14 31 15 32 16 33 68 34 17 35
REMARK SMILES IDX 67 36 18 37 19 38 20 39 61 40 21 41 66 42 60 43 62 44 22 45
REMARK SMILES IDX 65 46 59 47 58 48 23 50 49 51 32 52 48 53 33 54 36 55 47 56
REMARK SMILES IDX 63 57 34 58 35 59 46 61 64 62 37 63 24 64 25 65 30 66 26 67
REMARK SMILES IDX 27 68 29 69 31 70 28 71 50 72 51 73 56 74 52 75 53 76 55 77
REMARK SMILES IDX 57 78 54 79 38 80 39 81 44 82 40 83 41 84 43 85 45 86 42 87
REMARK H PARENT 5 6 79 23 12 30 62 49 36 60
REMARK Flexibility Score: inf
ROOT
ATOM      1  C   UNL A   1      34.186  26.069  25.736  1.00  0.00     0.021 C 
ENDROOT
BRANCH   1   2
ATOM      2  C   UNL A   1      33.708  24.769  25.087  1.00  0.00     0.116 C 
BRANCH   2   3
ATOM      3  N   UNL A   1      32.701  24.130  25.904  1.00  0.00    -0.356 N 
ATOM      4  C   UNL A   1      31.436  23.727  25.596  1.00  0.00     0.227 C 
ATOM      5  O   UNL A   1      30.761  23.279  26.524  1.00  0.00    -0.274 OA
ATOM      6  H   UNL A   1      32.974  23.957  26.835  1.00  0.00     0.163 HD
BRANCH   4   7
ATOM      7  C   UNL A   1      30.954  23.768  24.139  1.00  0.00     0.108 C 
ATOM      8  C   UNL A   1      31.896  23.058  23.157  1.00  0.00     0.023 C 
BRANCH   7   9
ATOM      9  C   UNL A   1      30.688  25.193  23.679  1.00  0.00    -0.000 A 
ATOM     10  C   UNL A   1      31.400  25.734  22.600  1.00  0.00     0.008 A 
ATOM     11  C   UNL A   1      29.738  25.997  24.316  1.00  0.00     0.127 A 
ATOM     12  C   UNL A   1      31.214  27.069  22.227  1.00  0.00     0.004 A 
ATOM     13  C   UNL A   1      29.561  27.327  23.959  1.00  0.00     0.043 A 
ATOM     14  F   UNL A   1      29.001  25.508  25.324  1.00  0.00    -0.207 F 
ATOM     15  C   UNL A   1      30.331  27.892  22.937  1.00  0.00    -0.045 A 
BRANCH  15  16
ATOM     16  C   UNL A   1      30.232  29.368  22.655  1.00  0.00     0.041 C 
BRANCH  16  17
ATOM     17  C   UNL A   1      28.856  30.041  22.873  1.00  0.00     0.022 C 
ATOM     18  C   UNL A   1      28.015  30.199  21.600  1.00  0.00     0.007 C 
ATOM     19  C   UNL A   1      28.833  31.457  23.465  1.00  0.00     0.117 C 
ATOM     20  C   UNL A   1      28.155  31.656  21.152  1.00  0.00     0.003 C 
ATOM     21  C   UNL A   1      28.896  32.390  22.264  1.00  0.00     0.032 C 
BRANCH  19  22
ATOM     22  O   UNL A   1      29.867  31.719  24.390  1.00  0.00    -0.393 OA
ATOM     23  H   UNL A   1      30.718  31.457  24.005  1.00  0.00     0.210 HD
ENDBRANCH  19  22
ENDBRANCH  16  17
ENDBRANCH  15  16
ENDBRANCH   7   9
ENDBRANCH   4   7
ENDBRANCH   2   3
ENDBRANCH   1   2
BRANCH   1  24
ATOM     24  C   UNL A   1      33.300  27.285  25.428  1.00  0.00     0.002 C 
BRANCH  24  25
ATOM     25  C   UNL A   1      32.239  27.603  26.485  1.00  0.00     0.002 C 
BRANCH  25  26
ATOM     26  C   UNL A   1      31.705  29.037  26.456  1.00  0.00     0.021 C 
BRANCH  26  27
ATOM     27  C   UNL A   1      32.644  30.053  25.819  1.00  0.00     0.116 C 
BRANCH  27  28
ATOM     28  N   UNL A   1      32.313  31.418  26.192  1.00  0.00    -0.352 N 
ATOM     29  C   UNL A   1      32.883  32.216  27.147  1.00  0.00     0.251 C 
ATOM     30  H   UNL A   1      31.572  31.826  25.687  1.00  0.00     0.163 HD
ATOM     31  O   UNL A   1      32.357  33.290  27.446  1.00  0.00    -0.269 OA
BRANCH  29  32
ATOM     32  C   UNL A   1      34.121  31.793  27.834  1.00  0.00     0.039 A 
ATOM     33  C   UNL A   1      35.138  32.733  28.025  1.00  0.00     0.014 A 
ATOM     34  C   UNL A   1      34.301  30.471  28.255  1.00  0.00     0.014 A 
ATOM     35  C   UNL A   1      36.321  32.356  28.664  1.00  0.00     0.010 A 
ATOM     36  C   UNL A   1      35.454  30.113  28.949  1.00  0.00     0.010 A 
ATOM     37  C   UNL A   1      36.482  31.047  29.144  1.00  0.00    -0.014 A 
BRANCH  37  38
ATOM     38  C   UNL A   1      37.739  30.630  29.813  1.00  0.00     0.031 A 
ATOM     39  C   UNL A   1      38.009  31.043  31.233  1.00  0.00     0.074 A 
ATOM     40  C   UNL A   1      38.656  29.917  29.131  1.00  0.00     0.049 A 
ATOM     41  N   UNL A   1      39.059  30.806  31.980  1.00  0.00    -0.248 NA
ATOM     42  C   UNL A   1      36.975  31.855  31.895  1.00  0.00     0.031 C 
ATOM     43  C   UNL A   1      38.532  29.492  27.736  1.00  0.00     0.029 A 
ATOM     44  N   UNL A   1      39.875  29.426  29.523  1.00  0.00    -0.354 N 
ATOM     45  C   UNL A   1      38.820  31.456  33.184  1.00  0.00     0.074 A 
ATOM     46  C   UNL A   1      37.549  32.135  33.055  1.00  0.00     0.031 C 
ATOM     47  C   UNL A   1      39.619  28.778  27.398  1.00  0.00     0.029 A 
ATOM     48  C   UNL A   1      40.525  28.719  28.541  1.00  0.00     0.049 A 
ATOM     49  H   UNL A   1      40.250  29.567  30.423  1.00  0.00     0.167 HD
ATOM     50  C   UNL A   1      39.581  31.469  34.304  1.00  0.00     0.037 A 
ATOM     51  C   UNL A   1      41.713  28.089  28.564  1.00  0.00     0.037 A 
ATOM     52  C   UNL A   1      40.823  30.758  34.448  1.00  0.00     0.049 A 
ATOM     53  C   UNL A   1      42.526  28.095  29.829  1.00  0.00     0.074 A 
ATOM     54  C   UNL A   1      41.630  30.647  35.566  1.00  0.00     0.029 A 
ATOM     55  N   UNL A   1      41.437  30.034  33.437  1.00  0.00    -0.354 N 
ATOM     56  N   UNL A   1      42.257  28.656  30.982  1.00  0.00    -0.248 NA
ATOM     57  C   UNL A   1      43.807  27.375  29.794  1.00  0.00     0.031 C 
ATOM     58  C   UNL A   1      42.750  29.881  35.223  1.00  0.00     0.029 A 
ATOM     59  C   UNL A   1      42.621  29.484  33.901  1.00  0.00     0.049 A 
ATOM     60  H   UNL A   1      41.083  29.925  32.525  1.00  0.00     0.167 HD
ATOM     61  C   UNL A   1      43.314  28.327  31.821  1.00  0.00     0.074 A 
ATOM     62  C   UNL A   1      44.227  27.514  31.044  1.00  0.00     0.031 C 
ATOM     63  C   UNL A   1      43.510  28.666  33.119  1.00  0.00     0.037 A 
BRANCH  50  64
ATOM     64  C   UNL A   1      39.083  32.279  35.466  1.00  0.00     0.057 A 
ATOM     65  C   UNL A   1      39.404  33.635  35.614  1.00  0.00     0.134 A 
ATOM     66  C   UNL A   1      38.256  31.700  36.436  1.00  0.00     0.134 A 
ATOM     67  F   UNL A   1      40.203  34.245  34.725  1.00  0.00    -0.206 F 
ATOM     68  C   UNL A   1      38.943  34.379  36.702  1.00  0.00     0.040 A 
ATOM     69  C   UNL A   1      37.769  32.441  37.515  1.00  0.00     0.040 A 
ATOM     70  F   UNL A   1      37.906  30.408  36.351  1.00  0.00    -0.206 F 
ATOM     71  C   UNL A   1      38.119  33.783  37.653  1.00  0.00     0.006 A 
ENDBRANCH  50  64
BRANCH  51  72
ATOM     72  C   UNL A   1      42.188  27.354  27.366  1.00  0.00     0.057 A 
ATOM     73  C   UNL A   1      42.897  28.013  26.356  1.00  0.00     0.134 A 
ATOM     74  C   UNL A   1      41.941  25.988  27.198  1.00  0.00     0.134 A 
ATOM     75  F   UNL A   1      43.146  29.327  26.455  1.00  0.00    -0.206 F 
ATOM     76  C   UNL A   1      43.330  27.344  25.211  1.00  0.00     0.040 A 
ATOM     77  C   UNL A   1      42.387  25.300  26.068  1.00  0.00     0.040 A 
ATOM     78  F   UNL A   1      41.272  25.299  28.134  1.00  0.00    -0.206 F 
ATOM     79  C   UNL A   1      43.079  25.981  25.067  1.00  0.00     0.006 A 
ENDBRANCH  51  72
BRANCH  63  80
ATOM     80  C   UNL A   1      44.736  28.123  33.789  1.00  0.00     0.057 A 
ATOM     81  C   UNL A   1      45.949  28.822  33.789  1.00  0.00     0.134 A 
ATOM     82  C   UNL A   1      44.691  26.900  34.470  1.00  0.00     0.134 A 
ATOM     83  F   UNL A   1      46.060  29.992  33.143  1.00  0.00    -0.206 F 
ATOM     84  C   UNL A   1      47.083  28.311  34.423  1.00  0.00     0.040 A 
ATOM     85  C   UNL A   1      45.811  26.391  35.126  1.00  0.00     0.040 A 
ATOM     86  F   UNL A   1      43.556  26.186  34.513  1.00  0.00    -0.206 F 
ATOM     87  C   UNL A   1      47.014  27.094  35.099  1.00  0.00     0.006 A 
ENDBRANCH  63  80
ENDBRANCH  37  38
ENDBRANCH  29  32
ENDBRANCH  27  28
ENDBRANCH  26  27
ENDBRANCH  25  26
ENDBRANCH  24  25
ENDBRANCH   1  24
TORSDOF 17
ENDMDL
MODEL 3
REMARK VINA RESULT:     -11.3      2.258      7.110
REMARK SMILES C[C@@H](C(=O)NCCCCCCNC(=O)c1ccc(-c2c3nc(c(-c4c(F)cccc4F)c4ccc([nH]4)c(-c4c(F)cccc4F)c4nc(c(-c5c(F)cccc5F)c5ccc2[nH]5)C=C4)C=C3)cc1)c1ccc(C[C@@H]2CCC[C@@H]2O)cc1F
REMARK SMILES IDX 7 1 6 2 5 3 3 4 4 5 2 7 1 8 69 9 70 10 81 11 71 12 80 13
REMARK SMILES IDX 82 14 72 15 73 16 74 17 75 18 78 19 76 20 77 21 79 22 8 24
REMARK SMILES IDX 9 25 10 26 11 27 12 28 13 29 14 31 15 32 16 33 68 34 17 35
REMARK SMILES IDX 67 36 18 37 19 38 20 39 61 40 21 41 66 42 60 43 62 44 22 45
REMARK SMILES IDX 65 46 59 47 58 48 23 50 49 51 32 52 48 53 33 54 36 55 47 56
REMARK SMILES IDX 63 57 34 58 35 59 46 61 64 62 37 63 24 64 25 65 30 66 26 67
REMARK SMILES IDX 27 68 29 69 31 70 28 71 50 72 51 73 56 74 52 75 53 76 55 77
REMARK SMILES IDX 57 78 54 79 38 80 39 81 44 82 40 83 41 84 43 85 45 86 42 87
REMARK H PARENT 5 6 79 23 12 30 62 49 36 60
REMARK Flexibility Score: inf
ROOT
ATOM      1  C   UNL A   1      34.991  24.748  25.295  1.00  0.00     0.021 C 
ENDROOT
BRANCH   1   2
ATOM      2  C   UNL A   1      34.418  23.332  25.371  1.00  0.00     0.116 C 
BRANCH   2   3
ATOM      3  N   UNL A   1      33.723  23.128  26.623  1.00  0.00    -0.356 N 
ATOM      4  C   UNL A   1      32.423  22.806  26.871  1.00  0.00     0.227 C 
ATOM      5  O   UNL A   1      32.079  22.778  28.054  1.00  0.00    -0.274 OA
ATOM      6  H   UNL A   1      34.281  23.240  27.428  1.00  0.00     0.163 HD
BRANCH   4   7
ATOM      7  C   UNL A   1      31.495  22.423  25.709  1.00  0.00     0.108 C 
ATOM      8  C   UNL A   1      32.026  21.266  24.851  1.00  0.00     0.023 C 
BRANCH   7   9
ATOM      9  C   UNL A   1      31.171  23.623  24.835  1.00  0.00    -0.000 A 
ATOM     10  C   UNL A   1      31.574  23.653  23.493  1.00  0.00     0.008 A 
ATOM     11  C   UNL A   1      30.470  24.722  25.340  1.00  0.00     0.127 A 
ATOM     12  C   UNL A   1      31.347  24.789  22.710  1.00  0.00     0.004 A 
ATOM     13  C   UNL A   1      30.255  25.859  24.571  1.00  0.00     0.043 A 
ATOM     14  F   UNL A   1      30.024  24.720  26.605  1.00  0.00    -0.207 F 
ATOM     15  C   UNL A   1      30.732  25.922  23.258  1.00  0.00    -0.045 A 
BRANCH  15  16
ATOM     16  C   UNL A   1      30.619  27.208  22.482  1.00  0.00     0.041 C 
BRANCH  16  17
ATOM     17  C   UNL A   1      30.000  28.424  23.211  1.00  0.00     0.022 C 
ATOM     18  C   UNL A   1      28.487  28.324  23.446  1.00  0.00     0.007 C 
ATOM     19  C   UNL A   1      30.144  29.805  22.558  1.00  0.00     0.117 C 
ATOM     20  C   UNL A   1      27.813  29.188  22.378  1.00  0.00     0.003 C 
ATOM     21  C   UNL A   1      28.922  29.950  21.661  1.00  0.00     0.032 C 
BRANCH  19  22
ATOM     22  O   UNL A   1      31.347  29.988  21.842  1.00  0.00    -0.393 OA
ATOM     23  H   UNL A   1      31.630  29.140  21.465  1.00  0.00     0.210 HD
ENDBRANCH  19  22
ENDBRANCH  16  17
ENDBRANCH  15  16
ENDBRANCH   7   9
ENDBRANCH   4   7
ENDBRANCH   2   3
ENDBRANCH   1   2
BRANCH   1  24
ATOM     24  C   UNL A   1      34.026  25.840  25.779  1.00  0.00     0.002 C 
BRANCH  24  25
ATOM     25  C   UNL A   1      33.782  26.981  24.786  1.00  0.00     0.002 C 
BRANCH  25  26
ATOM     26  C   UNL A   1      33.719  28.377  25.408  1.00  0.00     0.021 C 
BRANCH  26  27
ATOM     27  C   UNL A   1      33.955  28.416  26.913  1.00  0.00     0.116 C 
BRANCH  27  28
ATOM     28  N   UNL A   1      33.766  29.746  27.466  1.00  0.00    -0.352 N 
ATOM     29  C   UNL A   1      34.631  30.505  28.209  1.00  0.00     0.251 C 
ATOM     30  H   UNL A   1      32.892  30.160  27.281  1.00  0.00     0.163 HD
ATOM     31  O   UNL A   1      34.236  31.543  28.742  1.00  0.00    -0.269 OA
BRANCH  29  32
ATOM     32  C   UNL A   1      36.035  30.081  28.388  1.00  0.00     0.039 A 
ATOM     33  C   UNL A   1      36.421  29.541  29.619  1.00  0.00     0.014 A 
ATOM     34  C   UNL A   1      36.978  30.247  27.369  1.00  0.00     0.014 A 
ATOM     35  C   UNL A   1      37.744  29.140  29.816  1.00  0.00     0.010 A 
ATOM     36  C   UNL A   1      38.281  29.787  27.545  1.00  0.00     0.010 A 
ATOM     37  C   UNL A   1      38.680  29.246  28.776  1.00  0.00    -0.014 A 
BRANCH  37  38
ATOM     38  C   UNL A   1      40.092  28.837  28.978  1.00  0.00     0.031 A 
ATOM     39  C   UNL A   1      41.066  29.784  29.622  1.00  0.00     0.074 A 
ATOM     40  C   UNL A   1      40.508  27.631  28.545  1.00  0.00     0.049 A 
ATOM     41  N   UNL A   1      42.344  29.624  29.857  1.00  0.00    -0.248 NA
ATOM     42  C   UNL A   1      40.541  31.096  30.032  1.00  0.00     0.031 C 
ATOM     43  C   UNL A   1      39.672  26.640  27.865  1.00  0.00     0.029 A 
ATOM     44  N   UNL A   1      41.742  27.037  28.610  1.00  0.00    -0.354 N 
ATOM     45  C   UNL A   1      42.777  30.819  30.418  1.00  0.00     0.074 A 
ATOM     46  C   UNL A   1      41.638  31.710  30.448  1.00  0.00     0.031 C 
ATOM     47  C   UNL A   1      40.411  25.550  27.603  1.00  0.00     0.029 A 
ATOM     48  C   UNL A   1      41.775  25.774  28.072  1.00  0.00     0.049 A 
ATOM     49  H   UNL A   1      42.531  27.475  29.007  1.00  0.00     0.167 HD
ATOM     50  C   UNL A   1      44.008  31.137  30.887  1.00  0.00     0.037 A 
ATOM     51  C   UNL A   1      42.790  24.897  27.973  1.00  0.00     0.037 A 
ATOM     52  C   UNL A   1      45.128  30.236  30.899  1.00  0.00     0.049 A 
ATOM     53  C   UNL A   1      44.139  25.264  28.525  1.00  0.00     0.074 A 
ATOM     54  C   UNL A   1      46.394  30.438  31.419  1.00  0.00     0.029 A 
ATOM     55  N   UNL A   1      45.114  28.956  30.364  1.00  0.00    -0.354 N 
ATOM     56  N   UNL A   1      44.517  26.371  29.116  1.00  0.00    -0.248 NA
ATOM     57  C   UNL A   1      45.200  24.255  28.402  1.00  0.00     0.031 C 
ATOM     58  C   UNL A   1      47.157  29.291  31.172  1.00  0.00     0.029 A 
ATOM     59  C   UNL A   1      46.355  28.361  30.530  1.00  0.00     0.049 A 
ATOM     60  H   UNL A   1      44.338  28.532  29.932  1.00  0.00     0.167 HD
ATOM     61  C   UNL A   1      45.847  26.180  29.467  1.00  0.00     0.074 A 
ATOM     62  C   UNL A   1      46.208  24.849  29.026  1.00  0.00     0.031 C 
ATOM     63  C   UNL A   1      46.692  27.031  30.098  1.00  0.00     0.037 A 
BRANCH  50  64
ATOM     64  C   UNL A   1      44.200  32.523  31.430  1.00  0.00     0.057 A 
ATOM     65  C   UNL A   1      44.553  33.599  30.604  1.00  0.00     0.134 A 
ATOM     66  C   UNL A   1      44.009  32.789  32.791  1.00  0.00     0.134 A 
ATOM     67  F   UNL A   1      44.762  33.409  29.292  1.00  0.00    -0.206 F 
ATOM     68  C   UNL A   1      44.738  34.884  31.119  1.00  0.00     0.040 A 
ATOM     69  C   UNL A   1      44.167  34.074  33.313  1.00  0.00     0.040 A 
ATOM     70  F   UNL A   1      43.666  31.805  33.636  1.00  0.00    -0.206 F 
ATOM     71  C   UNL A   1      44.540  35.124  32.476  1.00  0.00     0.006 A 
ENDBRANCH  50  64
BRANCH  51  72
ATOM     72  C   UNL A   1      42.559  23.560  27.370  1.00  0.00     0.057 A 
ATOM     73  C   UNL A   1      42.223  22.462  28.170  1.00  0.00     0.134 A 
ATOM     74  C   UNL A   1      42.674  23.348  25.993  1.00  0.00     0.134 A 
ATOM     75  F   UNL A   1      42.118  22.603  29.499  1.00  0.00    -0.206 F 
ATOM     76  C   UNL A   1      42.026  21.194  27.623  1.00  0.00     0.040 A 
ATOM     77  C   UNL A   1      42.459  22.089  25.430  1.00  0.00     0.040 A 
ATOM     78  F   UNL A   1      42.987  24.362  25.174  1.00  0.00    -0.206 F 
ATOM     79  C   UNL A   1      42.140  21.006  26.248  1.00  0.00     0.006 A 
ENDBRANCH  51  72
BRANCH  63  80
ATOM     80  C   UNL A   1      48.076  26.529  30.387  1.00  0.00     0.057 A 
ATOM     81  C   UNL A   1      48.385  25.858  31.576  1.00  0.00     0.134 A 
ATOM     82  C   UNL A   1      49.102  26.694  29.449  1.00  0.00     0.134 A 
ATOM     83  F   UNL A   1      47.449  25.681  32.521  1.00  0.00    -0.206 F 
ATOM     84  C   UNL A   1      49.674  25.389  31.832  1.00  0.00     0.040 A 
ATOM     85  C   UNL A   1      50.388  26.208  29.683  1.00  0.00     0.040 A 
ATOM     86  F   UNL A   1      48.868  27.322  28.286  1.00  0.00    -0.206 F 
ATOM     87  C   UNL A   1      50.679  25.558  30.881  1.00  0.00     0.006 A 
ENDBRANCH  63  80
ENDBRANCH  37  38
ENDBRANCH  29  32
ENDBRANCH  27  28
ENDBRANCH  26  27
ENDBRANCH  25  26
ENDBRANCH  24  25
ENDBRANCH   1  24
TORSDOF 17
ENDMDL
