MODEL 1
REMARK VINA RESULT:     -11.7      0.000      0.000
REMARK SMILES C[C@H](NC(=O)N1CC[C@H](C(=O)NCCCCCCNC(=O)c2ccc(-c3c4nc(c(-c5c(F)cccc5F)c5ccc([nH]5)c(-c5c(F)cccc5F)c5nc(c(-c6c(F)cccc6F)c6ccc3[nH]6)C=C5)C=C4)cc2)[C@@H]1C)[C@@H]1CCCO1
REMARK SMILES IDX 15 1 14 2 13 3 12 4 10 5 11 6 9 8 6 9 7 10 76 11 8 12 77 13
REMARK SMILES IDX 4 14 3 15 5 17 2 18 1 19 78 20 79 21 82 22 80 23 81 24 16 25
REMARK SMILES IDX 17 26 18 27 19 28 20 29 21 31 22 32 23 33 75 34 24 35 74 36
REMARK SMILES IDX 25 37 26 38 27 39 68 40 28 41 73 42 67 43 69 44 29 45 72 46
REMARK SMILES IDX 66 47 65 48 30 50 56 51 39 52 55 53 40 54 43 55 54 56 70 57
REMARK SMILES IDX 41 58 42 59 53 61 71 62 44 63 31 64 32 65 37 66 33 67 34 68
REMARK SMILES IDX 36 69 38 70 35 71 57 72 58 73 63 74 59 75 60 76 62 77 64 78
REMARK SMILES IDX 61 79 45 80 46 81 51 82 47 83 48 84 50 85 52 86 49 87
REMARK H PARENT 12 7 3 16 19 30 69 49 43 60
REMARK Flexibility Score: inf
ROOT
ATOM      1  C   UNL A   1      32.814  29.651  26.410  1.00  0.00     0.002 C 
ENDROOT
BRANCH   1   2
ATOM      2  C   UNL A   1      33.663  28.971  25.332  1.00  0.00     0.021 C 
BRANCH   2   3
ATOM      3  C   UNL A   1      32.968  28.901  23.974  1.00  0.00     0.116 C 
BRANCH   3   4
ATOM      4  N   UNL A   1      33.341  27.686  23.280  1.00  0.00    -0.356 N 
ATOM      5  C   UNL A   1      32.936  26.401  23.366  1.00  0.00     0.225 C 
ATOM      6  O   UNL A   1      33.722  25.563  22.901  1.00  0.00    -0.275 OA
ATOM      7  H   UNL A   1      34.038  27.828  22.600  1.00  0.00     0.163 HD
BRANCH   5   8
ATOM      8  C   UNL A   1      31.579  25.925  23.865  1.00  0.00     0.102 C 
ATOM      9  N   UNL A   1      31.159  24.121  25.366  1.00  0.00    -0.321 N 
ATOM     10  C   UNL A   1      31.232  23.561  24.044  1.00  0.00     0.122 C 
ATOM     11  C   UNL A   1      31.586  25.530  25.368  1.00  0.00     0.096 C 
ATOM     12  C   UNL A   1      30.856  24.761  23.186  1.00  0.00     0.037 C 
ATOM     13  C   UNL A   1      32.900  25.707  26.127  1.00  0.00     0.032 C 
BRANCH   9  14
ATOM     14  C   UNL A   1      30.793  23.347  26.421  1.00  0.00     0.317 C 
ATOM     15  N   UNL A   1      31.495  22.203  26.635  1.00  0.00    -0.333 N 
ATOM     16  H   UNL A   1      31.020  21.452  27.058  1.00  0.00     0.165 HD
ATOM     17  O   UNL A   1      29.956  23.699  27.249  1.00  0.00    -0.249 OA
BRANCH  15  18
ATOM     18  C   UNL A   1      32.903  22.001  26.288  1.00  0.00     0.109 C 
ATOM     19  C   UNL A   1      33.810  22.553  27.392  1.00  0.00     0.034 C 
BRANCH  18  20
ATOM     20  C   UNL A   1      33.191  20.549  25.875  1.00  0.00     0.140 C 
ATOM     21  C   UNL A   1      34.411  20.304  24.998  1.00  0.00     0.036 C 
ATOM     22  O   UNL A   1      32.055  20.039  25.140  1.00  0.00    -0.376 OA
ATOM     23  C   UNL A   1      34.010  19.055  24.251  1.00  0.00     0.031 C 
ATOM     24  C   UNL A   1      32.531  19.281  24.025  1.00  0.00     0.160 C 
ENDBRANCH  18  20
ENDBRANCH  15  18
ENDBRANCH   9  14
ENDBRANCH   5   8
ENDBRANCH   3   4
ENDBRANCH   2   3
ENDBRANCH   1   2
BRANCH   1  25
ATOM     25  C   UNL A   1      31.600  30.422  25.875  1.00  0.00     0.002 C 
BRANCH  25  26
ATOM     26  C   UNL A   1      31.393  31.806  26.497  1.00  0.00     0.021 C 
BRANCH  26  27
ATOM     27  C   UNL A   1      32.631  32.376  27.180  1.00  0.00     0.116 C 
BRANCH  27  28
ATOM     28  N   UNL A   1      32.475  33.792  27.478  1.00  0.00    -0.352 N 
ATOM     29  C   UNL A   1      33.090  34.542  28.441  1.00  0.00     0.251 C 
ATOM     30  H   UNL A   1      31.837  34.277  26.905  1.00  0.00     0.163 HD
ATOM     31  O   UNL A   1      32.675  35.672  28.710  1.00  0.00    -0.269 OA
BRANCH  29  32
ATOM     32  C   UNL A   1      34.249  33.992  29.170  1.00  0.00     0.039 A 
ATOM     33  C   UNL A   1      34.027  33.112  30.232  1.00  0.00     0.014 A 
ATOM     34  C   UNL A   1      35.550  34.350  28.807  1.00  0.00     0.014 A 
ATOM     35  C   UNL A   1      35.115  32.542  30.893  1.00  0.00     0.010 A 
ATOM     36  C   UNL A   1      36.633  33.730  29.422  1.00  0.00     0.010 A 
ATOM     37  C   UNL A   1      36.426  32.822  30.472  1.00  0.00    -0.014 A 
BRANCH  37  38
ATOM     38  C   UNL A   1      37.594  32.162  31.105  1.00  0.00     0.031 A 
ATOM     39  C   UNL A   1      38.330  31.071  30.383  1.00  0.00     0.074 A 
ATOM     40  C   UNL A   1      37.937  32.495  32.364  1.00  0.00     0.049 A 
ATOM     41  N   UNL A   1      39.323  30.327  30.802  1.00  0.00    -0.248 NA
ATOM     42  C   UNL A   1      37.874  30.753  29.020  1.00  0.00     0.031 C 
ATOM     43  C   UNL A   1      37.263  33.500  33.187  1.00  0.00     0.029 A 
ATOM     44  N   UNL A   1      38.930  32.010  33.178  1.00  0.00    -0.354 N 
ATOM     45  C   UNL A   1      39.598  29.445  29.765  1.00  0.00     0.074 A 
ATOM     46  C   UNL A   1      38.637  29.714  28.716  1.00  0.00     0.031 C 
ATOM     47  C   UNL A   1      37.868  33.566  34.382  1.00  0.00     0.029 A 
ATOM     48  C   UNL A   1      38.948  32.586  34.424  1.00  0.00     0.049 A 
ATOM     49  H   UNL A   1      39.569  31.316  32.894  1.00  0.00     0.167 HD
ATOM     50  C   UNL A   1      40.573  28.509  29.689  1.00  0.00     0.037 A 
ATOM     51  C   UNL A   1      39.736  32.341  35.487  1.00  0.00     0.037 A 
ATOM     52  C   UNL A   1      41.540  28.264  30.726  1.00  0.00     0.049 A 
ATOM     53  C   UNL A   1      40.814  31.298  35.378  1.00  0.00     0.074 A 
ATOM     54  C   UNL A   1      42.620  27.398  30.711  1.00  0.00     0.029 A 
ATOM     55  N   UNL A   1      41.540  28.880  31.969  1.00  0.00    -0.354 N 
ATOM     56  N   UNL A   1      41.117  30.529  34.360  1.00  0.00    -0.248 NA
ATOM     57  C   UNL A   1      41.659  31.091  36.561  1.00  0.00     0.031 C 
ATOM     58  C   UNL A   1      43.242  27.454  31.962  1.00  0.00     0.029 A 
ATOM     59  C   UNL A   1      42.580  28.390  32.740  1.00  0.00     0.049 A 
ATOM     60  H   UNL A   1      40.895  29.566  32.259  1.00  0.00     0.167 HD
ATOM     61  C   UNL A   1      42.198  29.761  34.772  1.00  0.00     0.074 A 
ATOM     62  C   UNL A   1      42.508  30.170  36.126  1.00  0.00     0.031 C 
ATOM     63  C   UNL A   1      42.872  28.803  34.090  1.00  0.00     0.037 A 
BRANCH  50  64
ATOM     64  C   UNL A   1      40.639  27.677  28.440  1.00  0.00     0.057 A 
ATOM     65  C   UNL A   1      41.391  28.071  27.325  1.00  0.00     0.134 A 
ATOM     66  C   UNL A   1      39.967  26.451  28.365  1.00  0.00     0.134 A 
ATOM     67  F   UNL A   1      42.049  29.240  27.328  1.00  0.00    -0.206 F 
ATOM     68  C   UNL A   1      41.448  27.291  26.170  1.00  0.00     0.040 A 
ATOM     69  C   UNL A   1      40.040  25.647  27.225  1.00  0.00     0.040 A 
ATOM     70  F   UNL A   1      39.235  26.009  29.398  1.00  0.00    -0.206 F 
ATOM     71  C   UNL A   1      40.776  26.070  26.120  1.00  0.00     0.006 A 
ENDBRANCH  50  64
BRANCH  51  72
ATOM     72  C   UNL A   1      39.541  33.107  36.743  1.00  0.00     0.057 A 
ATOM     73  C   UNL A   1      40.267  34.277  36.996  1.00  0.00     0.134 A 
ATOM     74  C   UNL A   1      38.618  32.697  37.712  1.00  0.00     0.134 A 
ATOM     75  F   UNL A   1      41.178  34.709  36.112  1.00  0.00    -0.206 F 
ATOM     76  C   UNL A   1      40.091  35.005  38.173  1.00  0.00     0.040 A 
ATOM     77  C   UNL A   1      38.415  33.429  38.883  1.00  0.00     0.040 A 
ATOM     78  F   UNL A   1      37.886  31.590  37.525  1.00  0.00    -0.206 F 
ATOM     79  C   UNL A   1      39.158  34.584  39.118  1.00  0.00     0.006 A 
ENDBRANCH  51  72
BRANCH  63  80
ATOM     80  C   UNL A   1      44.020  28.141  34.792  1.00  0.00     0.057 A 
ATOM     81  C   UNL A   1      43.857  26.947  35.506  1.00  0.00     0.134 A 
ATOM     82  C   UNL A   1      45.311  28.679  34.716  1.00  0.00     0.134 A 
ATOM     83  F   UNL A   1      42.644  26.387  35.627  1.00  0.00    -0.206 F 
ATOM     84  C   UNL A   1      44.935  26.322  36.135  1.00  0.00     0.040 A 
ATOM     85  C   UNL A   1      46.400  28.050  35.320  1.00  0.00     0.040 A 
ATOM     86  F   UNL A   1      45.536  29.817  34.042  1.00  0.00    -0.206 F 
ATOM     87  C   UNL A   1      46.213  26.869  36.036  1.00  0.00     0.006 A 
ENDBRANCH  63  80
ENDBRANCH  37  38
ENDBRANCH  29  32
ENDBRANCH  27  28
ENDBRANCH  26  27
ENDBRANCH  25  26
ENDBRANCH   1  25
TORSDOF 16
ENDMDL
MODEL 2
REMARK VINA RESULT:     -11.6      0.527      1.263
REMARK SMILES C[C@H](NC(=O)N1CC[C@H](C(=O)NCCCCCCNC(=O)c2ccc(-c3c4nc(c(-c5c(F)cccc5F)c5ccc([nH]5)c(-c5c(F)cccc5F)c5nc(c(-c6c(F)cccc6F)c6ccc3[nH]6)C=C5)C=C4)cc2)[C@@H]1C)[C@@H]1CCCO1
REMARK SMILES IDX 15 1 14 2 13 3 12 4 10 5 11 6 9 8 6 9 7 10 76 11 8 12 77 13
REMARK SMILES IDX 4 14 3 15 5 17 2 18 1 19 78 20 79 21 82 22 80 23 81 24 16 25
REMARK SMILES IDX 17 26 18 27 19 28 20 29 21 31 22 32 23 33 75 34 24 35 74 36
REMARK SMILES IDX 25 37 26 38 27 39 68 40 28 41 73 42 67 43 69 44 29 45 72 46
REMARK SMILES IDX 66 47 65 48 30 50 56 51 39 52 55 53 40 54 43 55 54 56 70 57
REMARK SMILES IDX 41 58 42 59 53 61 71 62 44 63 31 64 32 65 37 66 33 67 34 68
REMARK SMILES IDX 36 69 38 70 35 71 57 72 58 73 63 74 59 75 60 76 62 77 64 78
REMARK SMILES IDX 61 79 45 80 46 81 51 82 47 83 48 84 50 85 52 86 49 87
REMARK H PARENT 12 7 3 16 19 30 69 49 43 60
REMARK Flexibility Score: inf
ROOT
ATOM      1  C   UNL A   1      33.043  29.973  26.056  1.00  0.00     0.002 C 
ENDROOT
BRANCH   1   2
ATOM      2  C   UNL A   1      33.433  28.950  24.985  1.00  0.00     0.021 C 
BRANCH   2   3
ATOM      3  C   UNL A   1      32.253  28.115  24.491  1.00  0.00     0.116 C 
BRANCH   3   4
ATOM      4  N   UNL A   1      32.561  27.518  23.209  1.00  0.00    -0.356 N 
ATOM      5  C   UNL A   1      33.289  26.446  22.829  1.00  0.00     0.225 C 
ATOM      6  O   UNL A   1      33.653  26.443  21.645  1.00  0.00    -0.275 OA
ATOM      7  H   UNL A   1      32.152  27.996  22.452  1.00  0.00     0.163 HD
BRANCH   5   8
ATOM      8  C   UNL A   1      33.586  25.222  23.684  1.00  0.00     0.102 C 
ATOM      9  N   UNL A   1      32.168  24.257  25.340  1.00  0.00    -0.321 N 
ATOM     10  C   UNL A   1      32.925  25.294  25.987  1.00  0.00     0.122 C 
ATOM     11  C   UNL A   1      32.351  24.300  23.880  1.00  0.00     0.096 C 
ATOM     12  C   UNL A   1      34.157  25.371  25.095  1.00  0.00     0.037 C 
ATOM     13  C   UNL A   1      31.058  24.711  23.175  1.00  0.00     0.032 C 
BRANCH   9  14
ATOM     14  C   UNL A   1      31.369  23.434  26.068  1.00  0.00     0.317 C 
ATOM     15  N   UNL A   1      31.783  22.151  26.246  1.00  0.00    -0.333 N 
ATOM     16  H   UNL A   1      31.089  21.462  26.355  1.00  0.00     0.165 HD
ATOM     17  O   UNL A   1      30.374  23.830  26.669  1.00  0.00    -0.249 OA
BRANCH  15  18
ATOM     18  C   UNL A   1      33.180  21.716  26.291  1.00  0.00     0.109 C 
ATOM     19  C   UNL A   1      33.813  22.086  27.635  1.00  0.00     0.034 C 
BRANCH  18  20
ATOM     20  C   UNL A   1      33.336  20.242  25.882  1.00  0.00     0.140 C 
ATOM     21  C   UNL A   1      34.510  19.891  24.979  1.00  0.00     0.036 C 
ATOM     22  O   UNL A   1      32.144  19.824  25.178  1.00  0.00    -0.376 OA
ATOM     23  C   UNL A   1      33.988  18.676  24.251  1.00  0.00     0.031 C 
ATOM     24  C   UNL A   1      32.529  19.023  24.058  1.00  0.00     0.160 C 
ENDBRANCH  18  20
ENDBRANCH  15  18
ENDBRANCH   9  14
ENDBRANCH   5   8
ENDBRANCH   3   4
ENDBRANCH   2   3
ENDBRANCH   1   2
BRANCH   1  25
ATOM     25  C   UNL A   1      31.606  30.499  25.943  1.00  0.00     0.002 C 
BRANCH  25  26
ATOM     26  C   UNL A   1      31.391  31.908  26.502  1.00  0.00     0.021 C 
BRANCH  26  27
ATOM     27  C   UNL A   1      32.614  32.499  27.195  1.00  0.00     0.116 C 
BRANCH  27  28
ATOM     28  N   UNL A   1      32.428  33.908  27.503  1.00  0.00    -0.352 N 
ATOM     29  C   UNL A   1      33.021  34.663  28.477  1.00  0.00     0.251 C 
ATOM     30  H   UNL A   1      31.785  34.386  26.929  1.00  0.00     0.163 HD
ATOM     31  O   UNL A   1      32.581  35.782  28.752  1.00  0.00    -0.269 OA
BRANCH  29  32
ATOM     32  C   UNL A   1      34.184  34.130  29.211  1.00  0.00     0.039 A 
ATOM     33  C   UNL A   1      33.971  33.386  30.373  1.00  0.00     0.014 A 
ATOM     34  C   UNL A   1      35.482  34.369  28.751  1.00  0.00     0.014 A 
ATOM     35  C   UNL A   1      35.060  32.830  31.045  1.00  0.00     0.010 A 
ATOM     36  C   UNL A   1      36.561  33.759  29.383  1.00  0.00     0.010 A 
ATOM     37  C   UNL A   1      36.360  32.985  30.536  1.00  0.00    -0.014 A 
BRANCH  37  38
ATOM     38  C   UNL A   1      37.523  32.332  31.187  1.00  0.00     0.031 A 
ATOM     39  C   UNL A   1      38.220  31.185  30.515  1.00  0.00     0.074 A 
ATOM     40  C   UNL A   1      37.895  32.725  32.419  1.00  0.00     0.049 A 
ATOM     41  N   UNL A   1      39.201  30.441  30.958  1.00  0.00    -0.248 NA
ATOM     42  C   UNL A   1      37.733  30.804  29.179  1.00  0.00     0.031 C 
ATOM     43  C   UNL A   1      37.260  33.791  33.196  1.00  0.00     0.029 A 
ATOM     44  N   UNL A   1      38.890  32.261  33.243  1.00  0.00    -0.354 N 
ATOM     45  C   UNL A   1      39.437  29.496  29.968  1.00  0.00     0.074 A 
ATOM     46  C   UNL A   1      38.466  29.731  28.921  1.00  0.00     0.031 C 
ATOM     47  C   UNL A   1      37.887  33.908  34.376  1.00  0.00     0.029 A 
ATOM     48  C   UNL A   1      38.944  32.904  34.456  1.00  0.00     0.049 A 
ATOM     49  H   UNL A   1      39.507  31.537  32.989  1.00  0.00     0.167 HD
ATOM     50  C   UNL A   1      40.388  28.533  29.928  1.00  0.00     0.037 A 
ATOM     51  C   UNL A   1      39.744  32.698  35.518  1.00  0.00     0.037 A 
ATOM     52  C   UNL A   1      41.367  28.322  30.962  1.00  0.00     0.049 A 
ATOM     53  C   UNL A   1      40.794  31.624  35.449  1.00  0.00     0.074 A 
ATOM     54  C   UNL A   1      42.425  27.430  30.978  1.00  0.00     0.029 A 
ATOM     55  N   UNL A   1      41.403  29.005  32.169  1.00  0.00    -0.354 N 
ATOM     56  N   UNL A   1      41.061  30.793  34.471  1.00  0.00    -0.248 NA
ATOM     57  C   UNL A   1      41.654  31.462  36.628  1.00  0.00     0.031 C 
ATOM     58  C   UNL A   1      43.070  27.538  32.214  1.00  0.00     0.029 A 
ATOM     59  C   UNL A   1      42.444  28.532  32.950  1.00  0.00     0.049 A 
ATOM     60  H   UNL A   1      40.780  29.722  32.430  1.00  0.00     0.167 HD
ATOM     61  C   UNL A   1      42.130  30.022  34.908  1.00  0.00     0.074 A 
ATOM     62  C   UNL A   1      42.473  30.498  36.233  1.00  0.00     0.031 C 
ATOM     63  C   UNL A   1      42.768  29.012  34.270  1.00  0.00     0.037 A 
BRANCH  50  64
ATOM     64  C   UNL A   1      40.412  27.633  28.727  1.00  0.00     0.057 A 
ATOM     65  C   UNL A   1      41.173  27.934  27.590  1.00  0.00     0.134 A 
ATOM     66  C   UNL A   1      39.692  26.432  28.722  1.00  0.00     0.134 A 
ATOM     67  F   UNL A   1      41.878  29.074  27.526  1.00  0.00    -0.206 F 
ATOM     68  C   UNL A   1      41.191  27.090  26.478  1.00  0.00     0.040 A 
ATOM     69  C   UNL A   1      39.725  25.566  27.627  1.00  0.00     0.040 A 
ATOM     70  F   UNL A   1      38.948  26.078  29.780  1.00  0.00    -0.206 F 
ATOM     71  C   UNL A   1      40.470  25.897  26.498  1.00  0.00     0.006 A 
ENDBRANCH  50  64
BRANCH  51  72
ATOM     72  C   UNL A   1      39.589  33.537  36.732  1.00  0.00     0.057 A 
ATOM     73  C   UNL A   1      40.255  34.762  36.854  1.00  0.00     0.134 A 
ATOM     74  C   UNL A   1      38.763  33.143  37.791  1.00  0.00     0.134 A 
ATOM     75  F   UNL A   1      41.073  35.184  35.879  1.00  0.00    -0.206 F 
ATOM     76  C   UNL A   1      40.116  35.559  37.991  1.00  0.00     0.040 A 
ATOM     77  C   UNL A   1      38.597  33.941  38.924  1.00  0.00     0.040 A 
ATOM     78  F   UNL A   1      38.091  31.984  37.731  1.00  0.00    -0.206 F 
ATOM     79  C   UNL A   1      39.280  35.151  39.028  1.00  0.00     0.006 A 
ENDBRANCH  51  72
BRANCH  63  80
ATOM     80  C   UNL A   1      43.913  28.361  34.989  1.00  0.00     0.057 A 
ATOM     81  C   UNL A   1      45.218  28.861  34.902  1.00  0.00     0.134 A 
ATOM     82  C   UNL A   1      43.699  27.248  35.813  1.00  0.00     0.134 A 
ATOM     83  F   UNL A   1      45.491  29.916  34.120  1.00  0.00    -0.206 F 
ATOM     84  C   UNL A   1      46.273  28.266  35.595  1.00  0.00     0.040 A 
ATOM     85  C   UNL A   1      44.741  26.660  36.530  1.00  0.00     0.040 A 
ATOM     86  F   UNL A   1      42.471  26.724  35.945  1.00  0.00    -0.206 F 
ATOM     87  C   UNL A   1      46.035  27.167  36.418  1.00  0.00     0.006 A 
ENDBRANCH  63  80
ENDBRANCH  37  38
ENDBRANCH  29  32
ENDBRANCH  27  28
ENDBRANCH  26  27
ENDBRANCH  25  26
ENDBRANCH   1  25
TORSDOF 16
ENDMDL
MODEL 3
REMARK VINA RESULT:     -11.6      4.848     10.246
REMARK SMILES C[C@H](NC(=O)N1CC[C@H](C(=O)NCCCCCCNC(=O)c2ccc(-c3c4nc(c(-c5c(F)cccc5F)c5ccc([nH]5)c(-c5c(F)cccc5F)c5nc(c(-c6c(F)cccc6F)c6ccc3[nH]6)C=C5)C=C4)cc2)[C@@H]1C)[C@@H]1CCCO1
REMARK SMILES IDX 15 1 14 2 13 3 12 4 10 5 11 6 9 8 6 9 7 10 76 11 8 12 77 13
REMARK SMILES IDX 4 14 3 15 5 17 2 18 1 19 78 20 79 21 82 22 80 23 81 24 16 25
REMARK SMILES IDX 17 26 18 27 19 28 20 29 21 31 22 32 23 33 75 34 24 35 74 36
REMARK SMILES IDX 25 37 26 38 27 39 68 40 28 41 73 42 67 43 69 44 29 45 72 46
REMARK SMILES IDX 66 47 65 48 30 50 56 51 39 52 55 53 40 54 43 55 54 56 70 57
REMARK SMILES IDX 41 58 42 59 53 61 71 62 44 63 31 64 32 65 37 66 33 67 34 68
REMARK SMILES IDX 36 69 38 70 35 71 57 72 58 73 63 74 59 75 60 76 62 77 64 78
REMARK SMILES IDX 61 79 45 80 46 81 51 82 47 83 48 84 50 85 52 86 49 87
REMARK H PARENT 12 7 3 16 19 30 69 49 43 60
REMARK Flexibility Score: inf
ROOT
ATOM      1  C   UNL A   1      35.791  21.594  25.679  1.00  0.00     0.002 C 
ENDROOT
BRANCH   1   2
ATOM      2  C   UNL A   1      34.412  20.928  25.743  1.00  0.00     0.021 C 
BRANCH   2   3
ATOM      3  C   UNL A   1      33.351  21.662  24.925  1.00  0.00     0.116 C 
BRANCH   3   4
ATOM      4  N   UNL A   1      32.340  22.219  25.799  1.00  0.00    -0.356 N 
ATOM      5  C   UNL A   1      32.107  23.456  26.288  1.00  0.00     0.225 C 
ATOM      6  O   UNL A   1      31.391  23.504  27.297  1.00  0.00    -0.275 OA
ATOM      7  H   UNL A   1      31.680  21.554  26.100  1.00  0.00     0.163 HD
BRANCH   5   8
ATOM      8  C   UNL A   1      32.545  24.765  25.645  1.00  0.00     0.102 C 
ATOM      9  N   UNL A   1      32.887  25.172  23.321  1.00  0.00    -0.321 N 
ATOM     10  C   UNL A   1      34.118  24.640  23.840  1.00  0.00     0.122 C 
ATOM     11  C   UNL A   1      31.805  25.068  24.312  1.00  0.00     0.096 C 
ATOM     12  C   UNL A   1      34.015  25.022  25.310  1.00  0.00     0.037 C 
ATOM     13  C   UNL A   1      30.741  24.066  23.865  1.00  0.00     0.032 C 
BRANCH   9  14
ATOM     14  C   UNL A   1      32.822  25.630  22.043  1.00  0.00     0.317 C 
ATOM     15  N   UNL A   1      32.362  26.895  21.851  1.00  0.00    -0.333 N 
ATOM     16  H   UNL A   1      31.901  27.086  21.003  1.00  0.00     0.165 HD
ATOM     17  O   UNL A   1      33.277  25.008  21.086  1.00  0.00    -0.249 OA
BRANCH  15  18
ATOM     18  C   UNL A   1      32.500  27.996  22.807  1.00  0.00     0.109 C 
ATOM     19  C   UNL A   1      33.915  28.579  22.749  1.00  0.00     0.034 C 
BRANCH  18  20
ATOM     20  C   UNL A   1      31.366  29.024  22.668  1.00  0.00     0.140 C 
ATOM     21  C   UNL A   1      30.814  29.628  23.952  1.00  0.00     0.036 C 
ATOM     22  O   UNL A   1      30.247  28.397  22.001  1.00  0.00    -0.376 OA
ATOM     23  C   UNL A   1      29.397  29.963  23.551  1.00  0.00     0.031 C 
ATOM     24  C   UNL A   1      29.039  28.803  22.649  1.00  0.00     0.160 C 
ENDBRANCH  18  20
ENDBRANCH  15  18
ENDBRANCH   9  14
ENDBRANCH   5   8
ENDBRANCH   3   4
ENDBRANCH   2   3
ENDBRANCH   1   2
BRANCH   1  25
ATOM     25  C   UNL A   1      36.708  21.057  24.573  1.00  0.00     0.002 C 
BRANCH  25  26
ATOM     26  C   UNL A   1      37.627  19.909  25.001  1.00  0.00     0.021 C 
BRANCH  26  27
ATOM     27  C   UNL A   1      38.883  20.357  25.741  1.00  0.00     0.116 C 
BRANCH  27  28
ATOM     28  N   UNL A   1      39.854  19.279  25.850  1.00  0.00    -0.352 N 
ATOM     29  C   UNL A   1      41.208  19.354  26.023  1.00  0.00     0.251 C 
ATOM     30  H   UNL A   1      39.483  18.368  25.792  1.00  0.00     0.163 HD
ATOM     31  O   UNL A   1      41.913  18.355  25.863  1.00  0.00    -0.269 OA
BRANCH  29  32
ATOM     32  C   UNL A   1      41.830  20.640  26.391  1.00  0.00     0.039 A 
ATOM     33  C   UNL A   1      42.217  21.521  25.379  1.00  0.00     0.014 A 
ATOM     34  C   UNL A   1      42.034  20.971  27.734  1.00  0.00     0.014 A 
ATOM     35  C   UNL A   1      42.755  22.764  25.715  1.00  0.00     0.010 A 
ATOM     36  C   UNL A   1      42.507  22.235  28.068  1.00  0.00     0.010 A 
ATOM     37  C   UNL A   1      42.874  23.143  27.062  1.00  0.00    -0.014 A 
BRANCH  37  38
ATOM     38  C   UNL A   1      43.364  24.491  27.441  1.00  0.00     0.031 A 
ATOM     39  C   UNL A   1      42.395  25.559  27.860  1.00  0.00     0.074 A 
ATOM     40  C   UNL A   1      44.675  24.772  27.328  1.00  0.00     0.049 A 
ATOM     41  N   UNL A   1      42.624  26.814  28.153  1.00  0.00    -0.248 NA
ATOM     42  C   UNL A   1      40.976  25.174  27.933  1.00  0.00     0.031 C 
ATOM     43  C   UNL A   1      45.706  23.834  26.878  1.00  0.00     0.029 A 
ATOM     44  N   UNL A   1      45.365  25.934  27.567  1.00  0.00    -0.354 N 
ATOM     45  C   UNL A   1      41.382  27.371  28.427  1.00  0.00     0.074 A 
ATOM     46  C   UNL A   1      40.397  26.331  28.220  1.00  0.00     0.031 C 
ATOM     47  C   UNL A   1      46.896  24.453  26.886  1.00  0.00     0.029 A 
ATOM     48  C   UNL A   1      46.710  25.838  27.304  1.00  0.00     0.049 A 
ATOM     49  H   UNL A   1      44.936  26.758  27.895  1.00  0.00     0.167 HD
ATOM     50  C   UNL A   1      41.092  28.630  28.831  1.00  0.00     0.037 A 
ATOM     51  C   UNL A   1      47.681  26.767  27.379  1.00  0.00     0.037 A 
ATOM     52  C   UNL A   1      42.079  29.652  29.059  1.00  0.00     0.049 A 
ATOM     53  C   UNL A   1      47.335  28.158  27.832  1.00  0.00     0.074 A 
ATOM     54  C   UNL A   1      41.896  30.933  29.552  1.00  0.00     0.029 A 
ATOM     55  N   UNL A   1      43.435  29.514  28.802  1.00  0.00    -0.354 N 
ATOM     56  N   UNL A   1      46.167  28.648  28.171  1.00  0.00    -0.248 NA
ATOM     57  C   UNL A   1      48.440  29.121  27.918  1.00  0.00     0.031 C 
ATOM     58  C   UNL A   1      43.133  31.585  29.544  1.00  0.00     0.029 A 
ATOM     59  C   UNL A   1      44.095  30.696  29.093  1.00  0.00     0.049 A 
ATOM     60  H   UNL A   1      43.864  28.695  28.462  1.00  0.00     0.167 HD
ATOM     61  C   UNL A   1      46.399  29.970  28.526  1.00  0.00     0.074 A 
ATOM     62  C   UNL A   1      47.821  30.199  28.379  1.00  0.00     0.031 C 
ATOM     63  C   UNL A   1      45.512  30.909  28.936  1.00  0.00     0.037 A 
BRANCH  50  64
ATOM     64  C   UNL A   1      39.646  28.972  29.050  1.00  0.00     0.057 A 
ATOM     65  C   UNL A   1      38.804  29.346  27.995  1.00  0.00     0.134 A 
ATOM     66  C   UNL A   1      39.082  28.894  30.329  1.00  0.00     0.134 A 
ATOM     67  F   UNL A   1      39.285  29.450  26.746  1.00  0.00    -0.206 F 
ATOM     68  C   UNL A   1      37.461  29.659  28.207  1.00  0.00     0.040 A 
ATOM     69  C   UNL A   1      37.732  29.177  30.550  1.00  0.00     0.040 A 
ATOM     70  F   UNL A   1      39.828  28.535  31.384  1.00  0.00    -0.206 F 
ATOM     71  C   UNL A   1      36.919  29.569  29.489  1.00  0.00     0.006 A 
ENDBRANCH  50  64
BRANCH  51  72
ATOM     72  C   UNL A   1      49.076  26.404  27.025  1.00  0.00     0.057 A 
ATOM     73  C   UNL A   1      49.967  25.929  27.995  1.00  0.00     0.134 A 
ATOM     74  C   UNL A   1      49.549  26.512  25.712  1.00  0.00     0.134 A 
ATOM     75  F   UNL A   1      49.577  25.820  29.273  1.00  0.00    -0.206 F 
ATOM     76  C   UNL A   1      51.281  25.585  27.673  1.00  0.00     0.040 A 
ATOM     77  C   UNL A   1      50.852  26.149  25.372  1.00  0.00     0.040 A 
ATOM     78  F   UNL A   1      48.741  26.953  24.736  1.00  0.00    -0.206 F 
ATOM     79  C   UNL A   1      51.725  25.689  26.357  1.00  0.00     0.006 A 
ENDBRANCH  51  72
BRANCH  63  80
ATOM     80  C   UNL A   1      46.056  32.267  29.268  1.00  0.00     0.057 A 
ATOM     81  C   UNL A   1      46.584  32.560  30.532  1.00  0.00     0.134 A 
ATOM     82  C   UNL A   1      46.093  33.280  28.301  1.00  0.00     0.134 A 
ATOM     83  F   UNL A   1      46.566  31.637  31.506  1.00  0.00    -0.206 F 
ATOM     84  C   UNL A   1      47.113  33.817  30.827  1.00  0.00     0.040 A 
ATOM     85  C   UNL A   1      46.642  34.533  28.576  1.00  0.00     0.040 A 
ATOM     86  F   UNL A   1      45.609  33.063  27.069  1.00  0.00    -0.206 F 
ATOM     87  C   UNL A   1      47.150  34.806  29.846  1.00  0.00     0.006 A 
ENDBRANCH  63  80
ENDBRANCH  37  38
ENDBRANCH  29  32
ENDBRANCH  27  28
ENDBRANCH  26  27
ENDBRANCH  25  26
ENDBRANCH   1  25
TORSDOF 16
ENDMDL
