MODEL 1
REMARK VINA RESULT:     -12.5      0.000      0.000
REMARK SMILES O=C(NCCCCCCNC(=O)[C@@H]1[C@H](C(=O)Nc2ccc(Cn3cncn3)cc2)[C@@H]2C=C[C@H]1CC2)c1ccc(-c2c3nc(c(-c4c(F)cccc4F)c4ccc([nH]4)c(-c4c(F)cccc4F)c4nc(c(-c5c(F)cccc5F)c5ccc2[nH]5)C=C4)C=C3)cc1
REMARK SMILES IDX 7 1 6 2 5 3 4 4 3 5 1 6 2 7 36 9 37 10 89 11 38 12 88 13
REMARK SMILES IDX 39 14 40 15 41 16 82 17 42 18 87 19 81 20 83 21 43 22 86 23
REMARK SMILES IDX 80 24 79 25 44 27 70 28 53 29 69 30 54 31 57 32 68 33 84 34
REMARK SMILES IDX 55 35 56 36 67 38 85 39 58 40 45 41 46 42 51 43 47 44 48 45
REMARK SMILES IDX 50 46 52 47 49 48 71 49 72 50 77 51 73 52 74 53 76 54 78 55
REMARK SMILES IDX 75 56 59 57 60 58 65 59 61 60 62 61 64 62 66 63 63 64 8 65
REMARK SMILES IDX 9 66 10 67 11 68 12 70 13 71 14 72 33 73 30 74 32 75 34 76
REMARK SMILES IDX 31 77 35 78 15 79 16 80 17 81 18 83 19 84 29 85 20 86 28 87
REMARK SMILES IDX 21 88 22 89 23 90 24 91 27 92 25 93 26 94
REMARK H PARENT 3 8 83 26 57 37 10 69 17 82
REMARK Flexibility Score: inf
ROOT
ATOM      1  C   UNL A   1      31.940  29.279  27.016  1.00  0.00     0.002 C 
ENDROOT
BRANCH   1   2
ATOM      2  C   UNL A   1      33.326  29.501  26.408  1.00  0.00     0.002 C 
BRANCH   2   3
ATOM      3  C   UNL A   1      34.453  29.677  27.429  1.00  0.00     0.021 C 
BRANCH   3   4
ATOM      4  C   UNL A   1      34.897  31.127  27.642  1.00  0.00     0.116 C 
BRANCH   4   5
ATOM      5  N   UNL A   1      34.880  31.561  29.019  1.00  0.00    -0.352 N 
ATOM      6  O   UNL A   1      35.492  32.084  31.079  1.00  0.00    -0.269 OA
ATOM      7  C   UNL A   1      35.784  31.499  30.049  1.00  0.00     0.251 C 
ATOM      8  H   UNL A   1      34.036  31.997  29.274  1.00  0.00     0.163 HD
BRANCH   7   9
ATOM      9  C   UNL A   1      37.049  30.715  29.995  1.00  0.00     0.039 A 
ATOM     10  C   UNL A   1      38.324  31.238  29.781  1.00  0.00     0.014 A 
ATOM     11  C   UNL A   1      36.912  29.328  30.184  1.00  0.00     0.014 A 
ATOM     12  C   UNL A   1      39.426  30.400  29.678  1.00  0.00     0.010 A 
ATOM     13  C   UNL A   1      38.013  28.483  30.113  1.00  0.00     0.010 A 
ATOM     14  C   UNL A   1      39.268  29.023  29.839  1.00  0.00    -0.014 A 
BRANCH  14  15
ATOM     15  C   UNL A   1      40.479  28.216  29.937  1.00  0.00     0.031 A 
ATOM     16  C   UNL A   1      41.094  28.202  31.297  1.00  0.00     0.074 A 
ATOM     17  C   UNL A   1      40.923  27.410  28.956  1.00  0.00     0.049 A 
ATOM     18  N   UNL A   1      42.296  28.535  31.642  1.00  0.00    -0.248 NA
ATOM     19  C   UNL A   1      40.220  27.861  32.433  1.00  0.00     0.031 C 
ATOM     20  C   UNL A   1      40.251  27.092  27.696  1.00  0.00     0.029 A 
ATOM     21  N   UNL A   1      42.025  26.605  28.934  1.00  0.00    -0.354 N 
ATOM     22  C   UNL A   1      42.390  28.258  33.005  1.00  0.00     0.074 A 
ATOM     23  C   UNL A   1      41.053  27.996  33.464  1.00  0.00     0.031 C 
ATOM     24  C   UNL A   1      40.839  26.009  27.143  1.00  0.00     0.029 A 
ATOM     25  C   UNL A   1      41.992  25.631  27.945  1.00  0.00     0.049 A 
ATOM     26  H   UNL A   1      42.777  26.706  29.563  1.00  0.00     0.167 HD
ATOM     27  C   UNL A   1      43.590  28.015  33.599  1.00  0.00     0.037 A 
ATOM     28  C   UNL A   1      42.804  24.551  27.836  1.00  0.00     0.037 A 
ATOM     29  C   UNL A   1      44.677  28.574  32.838  1.00  0.00     0.049 A 
ATOM     30  C   UNL A   1      44.006  24.794  28.666  1.00  0.00     0.074 A 
ATOM     31  C   UNL A   1      45.010  29.834  32.383  1.00  0.00     0.029 A 
ATOM     32  N   UNL A   1      45.493  27.710  32.152  1.00  0.00    -0.354 N 
ATOM     33  N   UNL A   1      44.943  25.651  28.379  1.00  0.00    -0.248 NA
ATOM     34  C   UNL A   1      43.988  24.331  30.046  1.00  0.00     0.031 C 
ATOM     35  C   UNL A   1      45.641  29.619  31.121  1.00  0.00     0.029 A 
ATOM     36  C   UNL A   1      45.693  28.243  30.908  1.00  0.00     0.049 A 
ATOM     37  H   UNL A   1      45.866  26.866  32.492  1.00  0.00     0.167 HD
ATOM     38  C   UNL A   1      45.332  26.167  29.604  1.00  0.00     0.074 A 
ATOM     39  C   UNL A   1      44.806  25.233  30.594  1.00  0.00     0.031 C 
ATOM     40  C   UNL A   1      45.794  27.447  29.710  1.00  0.00     0.037 A 
BRANCH  27  41
ATOM     41  C   UNL A   1      43.803  26.915  34.621  1.00  0.00     0.057 A 
ATOM     42  C   UNL A   1      44.373  27.245  35.866  1.00  0.00     0.134 A 
ATOM     43  C   UNL A   1      43.787  25.537  34.323  1.00  0.00     0.134 A 
ATOM     44  F   UNL A   1      44.451  28.521  36.272  1.00  0.00    -0.206 F 
ATOM     45  C   UNL A   1      44.982  26.291  36.691  1.00  0.00     0.040 A 
ATOM     46  C   UNL A   1      44.343  24.571  35.166  1.00  0.00     0.040 A 
ATOM     47  F   UNL A   1      43.328  25.051  33.164  1.00  0.00    -0.206 F 
ATOM     48  C   UNL A   1      44.980  24.948  36.335  1.00  0.00     0.006 A 
ENDBRANCH  27  41
BRANCH  28  49
ATOM     49  C   UNL A   1      42.515  23.214  27.266  1.00  0.00     0.057 A 
ATOM     50  C   UNL A   1      43.191  22.751  26.127  1.00  0.00     0.134 A 
ATOM     51  C   UNL A   1      41.773  22.253  27.974  1.00  0.00     0.134 A 
ATOM     52  F   UNL A   1      43.961  23.579  25.405  1.00  0.00    -0.206 F 
ATOM     53  C   UNL A   1      43.154  21.408  25.731  1.00  0.00     0.040 A 
ATOM     54  C   UNL A   1      41.717  20.911  27.582  1.00  0.00     0.040 A 
ATOM     55  F   UNL A   1      41.151  22.562  29.120  1.00  0.00    -0.206 F 
ATOM     56  C   UNL A   1      42.422  20.480  26.467  1.00  0.00     0.006 A 
ENDBRANCH  28  49
BRANCH  40  57
ATOM     57  C   UNL A   1      46.187  28.159  28.447  1.00  0.00     0.057 A 
ATOM     58  C   UNL A   1      47.459  28.087  27.861  1.00  0.00     0.134 A 
ATOM     59  C   UNL A   1      45.197  28.848  27.736  1.00  0.00     0.134 A 
ATOM     60  F   UNL A   1      48.441  27.362  28.413  1.00  0.00    -0.206 F 
ATOM     61  C   UNL A   1      47.745  28.722  26.649  1.00  0.00     0.040 A 
ATOM     62  C   UNL A   1      45.461  29.453  26.506  1.00  0.00     0.040 A 
ATOM     63  F   UNL A   1      43.942  28.909  28.208  1.00  0.00    -0.206 F 
ATOM     64  C   UNL A   1      46.742  29.404  25.965  1.00  0.00     0.006 A 
ENDBRANCH  40  57
ENDBRANCH  14  15
ENDBRANCH   7   9
ENDBRANCH   4   5
ENDBRANCH   3   4
ENDBRANCH   2   3
ENDBRANCH   1   2
BRANCH   1  65
ATOM     65  C   UNL A   1      31.587  27.815  27.333  1.00  0.00     0.021 C 
BRANCH  65  66
ATOM     66  C   UNL A   1      32.245  26.784  26.418  1.00  0.00     0.116 C 
BRANCH  66  67
ATOM     67  N   UNL A   1      31.779  25.468  26.776  1.00  0.00    -0.356 N 
ATOM     68  C   UNL A   1      32.216  24.230  26.483  1.00  0.00     0.224 C 
ATOM     69  H   UNL A   1      30.981  25.477  27.353  1.00  0.00     0.163 HD
ATOM     70  O   UNL A   1      31.366  23.348  26.640  1.00  0.00    -0.275 OA
BRANCH  68  71
ATOM     71  C   UNL A   1      33.577  23.916  25.899  1.00  0.00     0.098 C 
ATOM     72  C   UNL A   1      33.477  23.449  24.414  1.00  0.00     0.098 C 
ATOM     73  C   UNL A   1      34.657  23.048  26.624  1.00  0.00     0.025 C 
ATOM     74  C   UNL A   1      34.707  22.566  24.062  1.00  0.00     0.025 C 
ATOM     75  C   UNL A   1      34.615  21.583  26.239  1.00  0.00    -0.027 C 
ATOM     76  C   UNL A   1      36.026  23.505  26.037  1.00  0.00     0.009 C 
ATOM     77  C   UNL A   1      34.674  21.331  24.923  1.00  0.00    -0.027 C 
ATOM     78  C   UNL A   1      35.999  23.322  24.490  1.00  0.00     0.009 C 
BRANCH  72  79
ATOM     79  C   UNL A   1      32.156  22.915  23.793  1.00  0.00     0.228 C 
ATOM     80  O   UNL A   1      31.954  21.689  23.863  1.00  0.00    -0.274 OA
ATOM     81  N   UNL A   1      31.096  23.636  23.316  1.00  0.00    -0.326 N 
ATOM     82  H   UNL A   1      30.344  23.076  23.017  1.00  0.00     0.169 HD
BRANCH  81  83
ATOM     83  C   UNL A   1      30.864  25.005  23.168  1.00  0.00     0.041 A 
ATOM     84  C   UNL A   1      29.778  25.567  23.837  1.00  0.00     0.026 A 
ATOM     85  C   UNL A   1      31.627  25.820  22.341  1.00  0.00     0.026 A 
ATOM     86  C   UNL A   1      29.637  26.957  23.895  1.00  0.00     0.008 A 
ATOM     87  C   UNL A   1      31.495  27.209  22.387  1.00  0.00     0.008 A 
ATOM     88  C   UNL A   1      30.554  27.791  23.241  1.00  0.00    -0.026 A 
BRANCH  88  89
ATOM     89  C   UNL A   1      30.571  29.276  23.488  1.00  0.00     0.181 C 
BRANCH  89  90
ATOM     90  N   UNL A   1      29.421  29.938  22.916  1.00  0.00    -0.249 N 
ATOM     91  C   UNL A   1      28.646  30.892  23.495  1.00  0.00     0.220 A 
ATOM     92  N   UNL A   1      29.057  29.724  21.637  1.00  0.00    -0.160 NA
ATOM     93  N   UNL A   1      27.752  31.313  22.630  1.00  0.00    -0.224 NA
ATOM     94  C   UNL A   1      28.034  30.574  21.516  1.00  0.00     0.246 A 
ENDBRANCH  89  90
ENDBRANCH  88  89
ENDBRANCH  81  83
ENDBRANCH  72  79
ENDBRANCH  68  71
ENDBRANCH  66  67
ENDBRANCH  65  66
ENDBRANCH   1  65
TORSDOF 17
ENDMDL
MODEL 2
REMARK VINA RESULT:     -12.3      1.993      5.876
REMARK SMILES O=C(NCCCCCCNC(=O)[C@@H]1[C@H](C(=O)Nc2ccc(Cn3cncn3)cc2)[C@@H]2C=C[C@H]1CC2)c1ccc(-c2c3nc(c(-c4c(F)cccc4F)c4ccc([nH]4)c(-c4c(F)cccc4F)c4nc(c(-c5c(F)cccc5F)c5ccc2[nH]5)C=C4)C=C3)cc1
REMARK SMILES IDX 7 1 6 2 5 3 4 4 3 5 1 6 2 7 36 9 37 10 89 11 38 12 88 13
REMARK SMILES IDX 39 14 40 15 41 16 82 17 42 18 87 19 81 20 83 21 43 22 86 23
REMARK SMILES IDX 80 24 79 25 44 27 70 28 53 29 69 30 54 31 57 32 68 33 84 34
REMARK SMILES IDX 55 35 56 36 67 38 85 39 58 40 45 41 46 42 51 43 47 44 48 45
REMARK SMILES IDX 50 46 52 47 49 48 71 49 72 50 77 51 73 52 74 53 76 54 78 55
REMARK SMILES IDX 75 56 59 57 60 58 65 59 61 60 62 61 64 62 66 63 63 64 8 65
REMARK SMILES IDX 9 66 10 67 11 68 12 70 13 71 14 72 33 73 30 74 32 75 34 76
REMARK SMILES IDX 31 77 35 78 15 79 16 80 17 81 18 83 19 84 29 85 20 86 28 87
REMARK SMILES IDX 21 88 22 89 23 90 24 91 27 92 25 93 26 94
REMARK H PARENT 3 8 83 26 57 37 10 69 17 82
REMARK Flexibility Score: inf
ROOT
ATOM      1  C   UNL A   1      32.092  26.490  26.690  1.00  0.00     0.002 C 
ENDROOT
BRANCH   1   2
ATOM      2  C   UNL A   1      32.326  27.905  27.219  1.00  0.00     0.002 C 
BRANCH   2   3
ATOM      3  C   UNL A   1      33.303  28.746  26.394  1.00  0.00     0.021 C 
BRANCH   3   4
ATOM      4  C   UNL A   1      34.721  28.815  26.967  1.00  0.00     0.116 C 
BRANCH   4   5
ATOM      5  N   UNL A   1      34.856  29.664  28.128  1.00  0.00    -0.352 N 
ATOM      6  O   UNL A   1      35.692  30.930  29.738  1.00  0.00    -0.269 OA
ATOM      7  C   UNL A   1      35.923  30.103  28.870  1.00  0.00     0.251 C 
ATOM      8  H   UNL A   1      33.993  30.001  28.459  1.00  0.00     0.163 HD
BRANCH   7   9
ATOM      9  C   UNL A   1      37.309  29.583  28.714  1.00  0.00     0.039 A 
ATOM     10  C   UNL A   1      38.155  29.828  27.633  1.00  0.00     0.014 A 
ATOM     11  C   UNL A   1      37.779  28.780  29.770  1.00  0.00     0.014 A 
ATOM     12  C   UNL A   1      39.406  29.230  27.561  1.00  0.00     0.010 A 
ATOM     13  C   UNL A   1      39.041  28.201  29.721  1.00  0.00     0.010 A 
ATOM     14  C   UNL A   1      39.844  28.413  28.604  1.00  0.00    -0.014 A 
BRANCH  14  15
ATOM     15  C   UNL A   1      41.240  27.988  28.580  1.00  0.00     0.031 A 
ATOM     16  C   UNL A   1      41.468  26.685  27.889  1.00  0.00     0.074 A 
ATOM     17  C   UNL A   1      42.265  28.761  28.981  1.00  0.00     0.049 A 
ATOM     18  N   UNL A   1      42.024  25.613  28.353  1.00  0.00    -0.248 NA
ATOM     19  C   UNL A   1      40.917  26.532  26.531  1.00  0.00     0.031 C 
ATOM     20  C   UNL A   1      42.212  30.166  29.385  1.00  0.00     0.029 A 
ATOM     21  N   UNL A   1      43.601  28.481  28.996  1.00  0.00    -0.354 N 
ATOM     22  C   UNL A   1      42.071  24.718  27.285  1.00  0.00     0.074 A 
ATOM     23  C   UNL A   1      41.246  25.273  26.247  1.00  0.00     0.031 C 
ATOM     24  C   UNL A   1      43.465  30.672  29.389  1.00  0.00     0.029 A 
ATOM     25  C   UNL A   1      44.411  29.604  29.101  1.00  0.00     0.049 A 
ATOM     26  H   UNL A   1      43.959  27.566  28.936  1.00  0.00     0.167 HD
ATOM     27  C   UNL A   1      42.989  23.713  27.241  1.00  0.00     0.037 A 
ATOM     28  C   UNL A   1      45.749  29.669  28.894  1.00  0.00     0.037 A 
ATOM     29  C   UNL A   1      43.479  23.389  28.555  1.00  0.00     0.049 A 
ATOM     30  C   UNL A   1      46.292  28.293  28.968  1.00  0.00     0.074 A 
ATOM     31  C   UNL A   1      42.904  22.988  29.745  1.00  0.00     0.029 A 
ATOM     32  N   UNL A   1      44.759  23.764  28.875  1.00  0.00    -0.354 N 
ATOM     33  N   UNL A   1      46.396  27.597  30.064  1.00  0.00    -0.248 NA
ATOM     34  C   UNL A   1      46.387  27.528  27.734  1.00  0.00     0.031 C 
ATOM     35  C   UNL A   1      43.693  23.602  30.764  1.00  0.00     0.029 A 
ATOM     36  C   UNL A   1      44.721  24.301  30.134  1.00  0.00     0.049 A 
ATOM     37  H   UNL A   1      45.555  23.667  28.306  1.00  0.00     0.167 HD
ATOM     38  C   UNL A   1      46.118  26.296  29.679  1.00  0.00     0.074 A 
ATOM     39  C   UNL A   1      46.246  26.295  28.225  1.00  0.00     0.031 C 
ATOM     40  C   UNL A   1      45.533  25.419  30.545  1.00  0.00     0.037 A 
BRANCH  27  41
ATOM     41  C   UNL A   1      43.744  23.334  25.982  1.00  0.00     0.057 A 
ATOM     42  C   UNL A   1      43.860  21.973  25.641  1.00  0.00     0.134 A 
ATOM     43  C   UNL A   1      44.624  24.194  25.292  1.00  0.00     0.134 A 
ATOM     44  F   UNL A   1      43.082  21.048  26.224  1.00  0.00    -0.206 F 
ATOM     45  C   UNL A   1      44.850  21.495  24.772  1.00  0.00     0.040 A 
ATOM     46  C   UNL A   1      45.579  23.733  24.382  1.00  0.00     0.040 A 
ATOM     47  F   UNL A   1      44.683  25.510  25.526  1.00  0.00    -0.206 F 
ATOM     48  C   UNL A   1      45.723  22.377  24.149  1.00  0.00     0.006 A 
ENDBRANCH  27  41
BRANCH  28  49
ATOM     49  C   UNL A   1      46.567  30.796  28.389  1.00  0.00     0.057 A 
ATOM     50  C   UNL A   1      46.420  31.267  27.075  1.00  0.00     0.134 A 
ATOM     51  C   UNL A   1      47.315  31.614  29.254  1.00  0.00     0.134 A 
ATOM     52  F   UNL A   1      45.690  30.582  26.182  1.00  0.00    -0.206 F 
ATOM     53  C   UNL A   1      46.959  32.489  26.655  1.00  0.00     0.040 A 
ATOM     54  C   UNL A   1      47.870  32.830  28.844  1.00  0.00     0.040 A 
ATOM     55  F   UNL A   1      47.455  31.306  30.552  1.00  0.00    -0.206 F 
ATOM     56  C   UNL A   1      47.680  33.281  27.544  1.00  0.00     0.006 A 
ENDBRANCH  28  49
BRANCH  40  57
ATOM     57  C   UNL A   1      45.509  25.781  32.002  1.00  0.00     0.057 A 
ATOM     58  C   UNL A   1      46.565  25.546  32.894  1.00  0.00     0.134 A 
ATOM     59  C   UNL A   1      44.415  26.507  32.490  1.00  0.00     0.134 A 
ATOM     60  F   UNL A   1      47.698  24.954  32.492  1.00  0.00    -0.206 F 
ATOM     61  C   UNL A   1      46.508  25.965  34.226  1.00  0.00     0.040 A 
ATOM     62  C   UNL A   1      44.363  26.963  33.807  1.00  0.00     0.040 A 
ATOM     63  F   UNL A   1      43.393  26.819  31.677  1.00  0.00    -0.206 F 
ATOM     64  C   UNL A   1      45.405  26.681  34.685  1.00  0.00     0.006 A 
ENDBRANCH  40  57
ENDBRANCH  14  15
ENDBRANCH   7   9
ENDBRANCH   4   5
ENDBRANCH   3   4
ENDBRANCH   2   3
ENDBRANCH   1   2
BRANCH   1  65
ATOM     65  C   UNL A   1      30.681  26.217  26.140  1.00  0.00     0.021 C 
BRANCH  65  66
ATOM     66  C   UNL A   1      30.154  24.806  26.396  1.00  0.00     0.116 C 
BRANCH  66  67
ATOM     67  N   UNL A   1      30.238  24.041  25.178  1.00  0.00    -0.356 N 
ATOM     68  C   UNL A   1      31.263  23.715  24.370  1.00  0.00     0.224 C 
ATOM     69  H   UNL A   1      29.371  23.684  24.877  1.00  0.00     0.163 HD
ATOM     70  O   UNL A   1      30.917  23.380  23.232  1.00  0.00    -0.275 OA
BRANCH  68  71
ATOM     71  C   UNL A   1      32.725  23.845  24.742  1.00  0.00     0.098 C 
ATOM     72  C   UNL A   1      33.511  24.705  23.706  1.00  0.00     0.098 C 
ATOM     73  C   UNL A   1      33.624  22.642  25.177  1.00  0.00     0.025 C 
ATOM     74  C   UNL A   1      35.015  24.310  23.736  1.00  0.00     0.025 C 
ATOM     75  C   UNL A   1      34.400  22.020  24.033  1.00  0.00    -0.027 C 
ATOM     76  C   UNL A   1      34.758  23.260  26.048  1.00  0.00     0.009 C 
ATOM     77  C   UNL A   1      35.142  22.872  23.311  1.00  0.00    -0.027 C 
ATOM     78  C   UNL A   1      35.506  24.341  25.213  1.00  0.00     0.009 C 
BRANCH  72  79
ATOM     79  C   UNL A   1      32.987  24.968  22.267  1.00  0.00     0.228 C 
ATOM     80  O   UNL A   1      33.270  24.121  21.400  1.00  0.00    -0.274 OA
ATOM     81  N   UNL A   1      32.111  25.931  21.850  1.00  0.00    -0.326 N 
ATOM     82  H   UNL A   1      31.885  25.869  20.894  1.00  0.00     0.169 HD
BRANCH  81  83
ATOM     83  C   UNL A   1      31.471  26.986  22.506  1.00  0.00     0.041 A 
ATOM     84  C   UNL A   1      32.212  28.133  22.787  1.00  0.00     0.026 A 
ATOM     85  C   UNL A   1      30.155  26.922  22.945  1.00  0.00     0.026 A 
ATOM     86  C   UNL A   1      31.564  29.287  23.239  1.00  0.00     0.008 A 
ATOM     87  C   UNL A   1      29.498  28.065  23.402  1.00  0.00     0.008 A 
ATOM     88  C   UNL A   1      30.181  29.283  23.464  1.00  0.00    -0.026 A 
BRANCH  88  89
ATOM     89  C   UNL A   1      29.428  30.563  23.711  1.00  0.00     0.181 C 
BRANCH  89  90
ATOM     90  N   UNL A   1      28.898  31.130  22.492  1.00  0.00    -0.249 N 
ATOM     91  C   UNL A   1      28.591  30.474  21.343  1.00  0.00     0.220 A 
ATOM     92  N   UNL A   1      28.545  32.428  22.422  1.00  0.00    -0.160 NA
ATOM     93  N   UNL A   1      28.052  31.314  20.491  1.00  0.00    -0.224 NA
ATOM     94  C   UNL A   1      28.047  32.491  21.184  1.00  0.00     0.246 A 
ENDBRANCH  89  90
ENDBRANCH  88  89
ENDBRANCH  81  83
ENDBRANCH  72  79
ENDBRANCH  68  71
ENDBRANCH  66  67
ENDBRANCH  65  66
ENDBRANCH   1  65
TORSDOF 17
ENDMDL
MODEL 3
REMARK VINA RESULT:     -12.2      4.166      9.116
REMARK SMILES O=C(NCCCCCCNC(=O)[C@@H]1[C@H](C(=O)Nc2ccc(Cn3cncn3)cc2)[C@@H]2C=C[C@H]1CC2)c1ccc(-c2c3nc(c(-c4c(F)cccc4F)c4ccc([nH]4)c(-c4c(F)cccc4F)c4nc(c(-c5c(F)cccc5F)c5ccc2[nH]5)C=C4)C=C3)cc1
REMARK SMILES IDX 7 1 6 2 5 3 4 4 3 5 1 6 2 7 36 9 37 10 89 11 38 12 88 13
REMARK SMILES IDX 39 14 40 15 41 16 82 17 42 18 87 19 81 20 83 21 43 22 86 23
REMARK SMILES IDX 80 24 79 25 44 27 70 28 53 29 69 30 54 31 57 32 68 33 84 34
REMARK SMILES IDX 55 35 56 36 67 38 85 39 58 40 45 41 46 42 51 43 47 44 48 45
REMARK SMILES IDX 50 46 52 47 49 48 71 49 72 50 77 51 73 52 74 53 76 54 78 55
REMARK SMILES IDX 75 56 59 57 60 58 65 59 61 60 62 61 64 62 66 63 63 64 8 65
REMARK SMILES IDX 9 66 10 67 11 68 12 70 13 71 14 72 33 73 30 74 32 75 34 76
REMARK SMILES IDX 31 77 35 78 15 79 16 80 17 81 18 83 19 84 29 85 20 86 28 87
REMARK SMILES IDX 21 88 22 89 23 90 24 91 27 92 25 93 26 94
REMARK H PARENT 3 8 83 26 57 37 10 69 17 82
REMARK Flexibility Score: inf
ROOT
ATOM      1  C   UNL A   1      35.019  22.937  23.190  1.00  0.00     0.002 C 
ENDROOT
BRANCH   1   2
ATOM      2  C   UNL A   1      36.362  23.351  23.792  1.00  0.00     0.002 C 
BRANCH   2   3
ATOM      3  C   UNL A   1      36.505  23.078  25.292  1.00  0.00     0.021 C 
BRANCH   3   4
ATOM      4  C   UNL A   1      37.386  24.083  26.039  1.00  0.00     0.116 C 
BRANCH   4   5
ATOM      5  N   UNL A   1      38.618  23.532  26.552  1.00  0.00    -0.352 N 
ATOM      6  O   UNL A   1      40.458  23.206  27.735  1.00  0.00    -0.269 OA
ATOM      7  C   UNL A   1      39.585  23.993  27.409  1.00  0.00     0.251 C 
ATOM      8  H   UNL A   1      38.805  22.628  26.212  1.00  0.00     0.163 HD
BRANCH   7   9
ATOM      9  C   UNL A   1      39.653  25.397  27.901  1.00  0.00     0.039 A 
ATOM     10  C   UNL A   1      40.033  26.507  27.147  1.00  0.00     0.014 A 
ATOM     11  C   UNL A   1      39.293  25.587  29.248  1.00  0.00     0.014 A 
ATOM     12  C   UNL A   1      40.129  27.762  27.734  1.00  0.00     0.010 A 
ATOM     13  C   UNL A   1      39.357  26.844  29.836  1.00  0.00     0.010 A 
ATOM     14  C   UNL A   1      39.796  27.927  29.078  1.00  0.00    -0.014 A 
BRANCH  14  15
ATOM     15  C   UNL A   1      39.706  29.293  29.584  1.00  0.00     0.031 A 
ATOM     16  C   UNL A   1      40.988  30.055  29.513  1.00  0.00     0.074 A 
ATOM     17  C   UNL A   1      38.550  29.891  29.924  1.00  0.00     0.049 A 
ATOM     18  N   UNL A   1      41.634  30.636  30.471  1.00  0.00    -0.248 NA
ATOM     19  C   UNL A   1      41.685  30.088  28.215  1.00  0.00     0.031 C 
ATOM     20  C   UNL A   1      37.195  29.369  29.748  1.00  0.00     0.029 A 
ATOM     21  N   UNL A   1      38.340  31.155  30.394  1.00  0.00    -0.354 N 
ATOM     22  C   UNL A   1      42.715  31.276  29.866  1.00  0.00     0.074 A 
ATOM     23  C   UNL A   1      42.782  30.781  28.517  1.00  0.00     0.031 C 
ATOM     24  C   UNL A   1      36.310  30.379  29.894  1.00  0.00     0.029 A 
ATOM     25  C   UNL A   1      37.024  31.585  30.285  1.00  0.00     0.049 A 
ATOM     26  H   UNL A   1      39.056  31.713  30.776  1.00  0.00     0.167 HD
ATOM     27  C   UNL A   1      43.315  32.353  30.442  1.00  0.00     0.037 A 
ATOM     28  C   UNL A   1      36.564  32.852  30.429  1.00  0.00     0.037 A 
ATOM     29  C   UNL A   1      43.079  32.392  31.862  1.00  0.00     0.049 A 
ATOM     30  C   UNL A   1      37.594  33.635  31.150  1.00  0.00     0.074 A 
ATOM     31  C   UNL A   1      43.311  31.533  32.918  1.00  0.00     0.029 A 
ATOM     32  N   UNL A   1      42.215  33.341  32.345  1.00  0.00    -0.354 N 
ATOM     33  N   UNL A   1      37.884  33.491  32.411  1.00  0.00    -0.248 NA
ATOM     34  C   UNL A   1      38.586  34.349  30.361  1.00  0.00     0.031 C 
ATOM     35  C   UNL A   1      42.210  31.729  33.805  1.00  0.00     0.029 A 
ATOM     36  C   UNL A   1      41.402  32.724  33.256  1.00  0.00     0.049 A 
ATOM     37  H   UNL A   1      42.186  34.289  32.085  1.00  0.00     0.167 HD
ATOM     38  C   UNL A   1      39.254  33.684  32.478  1.00  0.00     0.074 A 
ATOM     39  C   UNL A   1      39.609  34.330  31.219  1.00  0.00     0.031 C 
ATOM     40  C   UNL A   1      40.006  33.045  33.421  1.00  0.00     0.037 A 
BRANCH  27  41
ATOM     41  C   UNL A   1      43.741  33.582  29.662  1.00  0.00     0.057 A 
ATOM     42  C   UNL A   1      45.072  34.030  29.770  1.00  0.00     0.134 A 
ATOM     43  C   UNL A   1      42.847  34.513  29.092  1.00  0.00     0.134 A 
ATOM     44  F   UNL A   1      46.023  33.243  30.295  1.00  0.00    -0.206 F 
ATOM     45  C   UNL A   1      45.455  35.338  29.447  1.00  0.00     0.040 A 
ATOM     46  C   UNL A   1      43.231  35.802  28.715  1.00  0.00     0.040 A 
ATOM     47  F   UNL A   1      41.538  34.272  28.959  1.00  0.00    -0.206 F 
ATOM     48  C   UNL A   1      44.528  36.234  28.930  1.00  0.00     0.006 A 
ENDBRANCH  27  41
BRANCH  28  49
ATOM     49  C   UNL A   1      35.408  33.511  29.777  1.00  0.00     0.057 A 
ATOM     50  C   UNL A   1      34.431  34.174  30.535  1.00  0.00     0.134 A 
ATOM     51  C   UNL A   1      35.373  33.742  28.391  1.00  0.00     0.134 A 
ATOM     52  F   UNL A   1      34.403  34.053  31.870  1.00  0.00    -0.206 F 
ATOM     53  C   UNL A   1      33.492  35.036  29.953  1.00  0.00     0.040 A 
ATOM     54  C   UNL A   1      34.434  34.590  27.796  1.00  0.00     0.040 A 
ATOM     55  F   UNL A   1      36.305  33.226  27.578  1.00  0.00    -0.206 F 
ATOM     56  C   UNL A   1      33.498  35.254  28.578  1.00  0.00     0.006 A 
ENDBRANCH  28  49
BRANCH  40  57
ATOM     57  C   UNL A   1      39.291  32.407  34.577  1.00  0.00     0.057 A 
ATOM     58  C   UNL A   1      38.788  31.098  34.571  1.00  0.00     0.134 A 
ATOM     59  C   UNL A   1      39.217  33.111  35.785  1.00  0.00     0.134 A 
ATOM     60  F   UNL A   1      38.909  30.309  33.495  1.00  0.00    -0.206 F 
ATOM     61  C   UNL A   1      38.187  30.538  35.702  1.00  0.00     0.040 A 
ATOM     62  C   UNL A   1      38.654  32.549  36.931  1.00  0.00     0.040 A 
ATOM     63  F   UNL A   1      39.729  34.348  35.880  1.00  0.00    -0.206 F 
ATOM     64  C   UNL A   1      38.123  31.263  36.889  1.00  0.00     0.006 A 
ENDBRANCH  40  57
ENDBRANCH  14  15
ENDBRANCH   7   9
ENDBRANCH   4   5
ENDBRANCH   3   4
ENDBRANCH   2   3
ENDBRANCH   1   2
BRANCH   1  65
ATOM     65  C   UNL A   1      33.928  24.023  23.205  1.00  0.00     0.021 C 
BRANCH  65  66
ATOM     66  C   UNL A   1      32.897  23.912  22.083  1.00  0.00     0.116 C 
BRANCH  66  67
ATOM     67  N   UNL A   1      31.643  24.457  22.537  1.00  0.00    -0.356 N 
ATOM     68  C   UNL A   1      31.325  25.356  23.486  1.00  0.00     0.224 C 
ATOM     69  H   UNL A   1      30.861  24.101  22.056  1.00  0.00     0.163 HD
ATOM     70  O   UNL A   1      30.148  25.299  23.857  1.00  0.00    -0.275 OA
BRANCH  68  71
ATOM     71  C   UNL A   1      32.315  26.290  24.150  1.00  0.00     0.098 C 
ATOM     72  C   UNL A   1      32.301  26.139  25.702  1.00  0.00     0.098 C 
ATOM     73  C   UNL A   1      32.453  27.807  23.798  1.00  0.00     0.025 C 
ATOM     74  C   UNL A   1      32.796  27.459  26.358  1.00  0.00     0.025 C 
ATOM     75  C   UNL A   1      31.631  28.715  24.690  1.00  0.00    -0.027 C 
ATOM     76  C   UNL A   1      33.911  28.196  24.183  1.00  0.00     0.009 C 
ATOM     77  C   UNL A   1      31.831  28.560  26.008  1.00  0.00    -0.027 C 
ATOM     78  C   UNL A   1      34.140  27.872  25.689  1.00  0.00     0.009 C 
BRANCH  72  79
ATOM     79  C   UNL A   1      31.114  25.494  26.470  1.00  0.00     0.228 C 
ATOM     80  O   UNL A   1      30.172  26.244  26.784  1.00  0.00    -0.274 OA
ATOM     81  N   UNL A   1      30.884  24.167  26.711  1.00  0.00    -0.326 N 
ATOM     82  H   UNL A   1      30.035  23.994  27.175  1.00  0.00     0.169 HD
BRANCH  81  83
ATOM     83  C   UNL A   1      31.613  23.009  26.431  1.00  0.00     0.041 A 
ATOM     84  C   UNL A   1      31.184  22.198  25.381  1.00  0.00     0.026 A 
ATOM     85  C   UNL A   1      32.705  22.597  27.184  1.00  0.00     0.026 A 
ATOM     86  C   UNL A   1      31.999  21.156  24.927  1.00  0.00     0.008 A 
ATOM     87  C   UNL A   1      33.525  21.557  26.744  1.00  0.00     0.008 A 
ATOM     88  C   UNL A   1      33.223  20.887  25.555  1.00  0.00    -0.026 A 
BRANCH  88  89
ATOM     89  C   UNL A   1      34.223  19.944  24.940  1.00  0.00     0.181 C 
BRANCH  89  90
ATOM     90  N   UNL A   1      33.710  18.597  24.835  1.00  0.00    -0.249 N 
ATOM     91  C   UNL A   1      32.845  17.975  25.678  1.00  0.00     0.220 A 
ATOM     92  N   UNL A   1      33.987  17.827  23.765  1.00  0.00    -0.160 NA
ATOM     93  N   UNL A   1      32.547  16.789  25.202  1.00  0.00    -0.224 NA
ATOM     94  C   UNL A   1      33.267  16.737  24.041  1.00  0.00     0.246 A 
ENDBRANCH  89  90
ENDBRANCH  88  89
ENDBRANCH  81  83
ENDBRANCH  72  79
ENDBRANCH  68  71
ENDBRANCH  66  67
ENDBRANCH  65  66
ENDBRANCH   1  65
TORSDOF 17
ENDMDL
