MODEL 1
REMARK VINA RESULT:     -11.6      0.000      0.000
REMARK SMILES O=C(Cn1cccc1C(=O)N1CC[N@@H+]2CCC[C@@H]2C1)NCCCCCCNC(=O)c1ccc(-c2c3nc(c(-c4c(F)cccc4F)c4ccc([nH]4)c(-c4c(F)cccc4F)c4nc(c(-c5c(F)cccc5F)c5ccc2[nH]5)C=C4)C=C3)cc1
REMARK SMILES IDX 23 1 22 2 21 3 20 4 1 5 2 6 3 8 4 9 5 10 8 11 6 12 7 13 9 14
REMARK SMILES IDX 10 15 11 16 12 17 19 18 13 19 18 20 14 21 17 22 15 23 16 25
REMARK SMILES IDX 24 26 25 27 26 28 27 29 28 30 29 32 30 33 31 34 83 35 32 36
REMARK SMILES IDX 82 37 33 38 34 39 35 40 76 41 36 42 81 43 75 44 77 45 37 46
REMARK SMILES IDX 80 47 74 48 73 49 38 51 64 52 47 53 63 54 48 55 51 56 62 57
REMARK SMILES IDX 78 58 49 59 50 60 61 62 79 63 52 64 39 65 40 66 45 67 41 68
REMARK SMILES IDX 42 69 44 70 46 71 43 72 65 73 66 74 71 75 67 76 68 77 70 78
REMARK SMILES IDX 72 79 69 80 53 81 54 82 59 83 55 84 56 85 58 86 60 87 57 88
REMARK H PARENT 20 7 14 24 27 31 77 50 51 61
REMARK Flexibility Score: inf
ROOT
ATOM      1  C   UNL A   1      32.205  29.759  25.632  1.00  0.00     0.002 C 
ENDROOT
BRANCH   1   2
ATOM      2  C   UNL A   1      31.091  29.594  24.592  1.00  0.00     0.021 C 
BRANCH   2   3
ATOM      3  C   UNL A   1      31.513  28.848  23.325  1.00  0.00     0.116 C 
BRANCH   3   4
ATOM      4  N   UNL A   1      31.256  27.426  23.415  1.00  0.00    -0.355 N 
ATOM      5  O   UNL A   1      33.418  26.867  23.857  1.00  0.00    -0.273 OA
ATOM      6  C   UNL A   1      32.250  26.513  23.691  1.00  0.00     0.239 C 
ATOM      7  H   UNL A   1      30.338  27.099  23.276  1.00  0.00     0.163 HD
BRANCH   6   8
ATOM      8  C   UNL A   1      31.868  25.033  23.676  1.00  0.00     0.222 C 
BRANCH   8   9
ATOM      9  N   UNL A   1      31.923  24.386  24.984  1.00  0.00    -0.334 N 
ATOM     10  C   UNL A   1      30.754  24.151  25.689  1.00  0.00     0.087 A 
ATOM     11  C   UNL A   1      32.982  23.746  25.617  1.00  0.00     0.107 A 
ATOM     12  C   UNL A   1      31.061  23.477  26.841  1.00  0.00     0.020 A 
ATOM     13  C   UNL A   1      32.447  23.236  26.803  1.00  0.00     0.033 A 
BRANCH  11  14
ATOM     14  C   UNL A   1      34.321  23.377  25.144  1.00  0.00     0.270 C 
ATOM     15  O   UNL A   1      35.218  24.223  25.153  1.00  0.00    -0.267 OA
BRANCH  14  16
ATOM     16  N   UNL A   1      34.631  22.081  24.754  1.00  0.00    -0.326 N 
ATOM     17  C   UNL A   1      35.938  21.449  24.820  1.00  0.00     0.181 C 
ATOM     18  C   UNL A   1      33.567  21.274  24.184  1.00  0.00     0.185 C 
ATOM     19  C   UNL A   1      35.963  19.909  25.001  1.00  0.00     0.284 C 
ATOM     20  C   UNL A   1      33.460  19.885  24.813  1.00  0.00     0.204 C 
ATOM     21  N   UNL A   1      34.713  19.157  25.051  1.00  0.00    -0.330 N 
ATOM     22  C   UNL A   1      32.612  18.954  23.939  1.00  0.00     0.073 C 
ATOM     23  C   UNL A   1      34.714  17.925  24.265  1.00  0.00     0.262 C 
ATOM     24  H   UNL A   1      34.708  18.930  26.046  1.00  0.00     0.348 HD
ATOM     25  C   UNL A   1      33.240  17.589  24.136  1.00  0.00     0.068 C 
ENDBRANCH  14  16
ENDBRANCH  11  14
ENDBRANCH   8   9
ENDBRANCH   6   8
ENDBRANCH   3   4
ENDBRANCH   2   3
ENDBRANCH   1   2
BRANCH   1  26
ATOM     26  C   UNL A   1      32.236  28.693  26.732  1.00  0.00     0.002 C 
BRANCH  26  27
ATOM     27  C   UNL A   1      33.496  28.694  27.607  1.00  0.00     0.021 C 
BRANCH  27  28
ATOM     28  C   UNL A   1      34.778  29.047  26.848  1.00  0.00     0.116 C 
BRANCH  28  29
ATOM     29  N   UNL A   1      35.229  30.382  27.204  1.00  0.00    -0.352 N 
ATOM     30  C   UNL A   1      36.257  30.787  28.011  1.00  0.00     0.251 C 
ATOM     31  H   UNL A   1      34.712  31.114  26.797  1.00  0.00     0.163 HD
ATOM     32  O   UNL A   1      36.234  31.926  28.467  1.00  0.00    -0.269 OA
BRANCH  30  33
ATOM     33  C   UNL A   1      37.388  29.897  28.355  1.00  0.00     0.039 A 
ATOM     34  C   UNL A   1      38.466  29.852  27.461  1.00  0.00     0.014 A 
ATOM     35  C   UNL A   1      37.353  29.033  29.455  1.00  0.00     0.014 A 
ATOM     36  C   UNL A   1      39.530  28.988  27.693  1.00  0.00     0.010 A 
ATOM     37  C   UNL A   1      38.423  28.171  29.698  1.00  0.00     0.010 A 
ATOM     38  C   UNL A   1      39.521  28.167  28.828  1.00  0.00    -0.014 A 
BRANCH  38  39
ATOM     39  C   UNL A   1      40.787  27.496  29.210  1.00  0.00     0.031 A 
ATOM     40  C   UNL A   1      41.047  26.257  28.318  1.00  0.00     0.074 A 
ATOM     41  C   UNL A   1      41.485  28.024  30.265  1.00  0.00     0.049 A 
ATOM     42  N   UNL A   1      41.779  25.207  28.532  1.00  0.00    -0.248 NA
ATOM     43  C   UNL A   1      40.346  26.142  27.004  1.00  0.00     0.031 C 
ATOM     44  C   UNL A   1      41.111  29.261  30.985  1.00  0.00     0.029 A 
ATOM     45  N   UNL A   1      42.628  27.651  30.955  1.00  0.00    -0.354 N 
ATOM     46  C   UNL A   1      41.801  24.440  27.340  1.00  0.00     0.074 A 
ATOM     47  C   UNL A   1      40.814  25.008  26.478  1.00  0.00     0.031 C 
ATOM     48  C   UNL A   1      41.932  29.482  32.035  1.00  0.00     0.029 A 
ATOM     49  C   UNL A   1      42.933  28.434  32.107  1.00  0.00     0.049 A 
ATOM     50  H   UNL A   1      43.191  26.896  30.669  1.00  0.00     0.167 HD
ATOM     51  C   UNL A   1      42.731  23.468  27.097  1.00  0.00     0.037 A 
ATOM     52  C   UNL A   1      43.895  28.233  33.067  1.00  0.00     0.037 A 
ATOM     53  C   UNL A   1      43.555  23.305  28.244  1.00  0.00     0.049 A 
ATOM     54  C   UNL A   1      44.725  27.142  32.549  1.00  0.00     0.074 A 
ATOM     55  C   UNL A   1      43.305  22.760  29.474  1.00  0.00     0.029 A 
ATOM     56  N   UNL A   1      44.688  24.077  28.300  1.00  0.00    -0.354 N 
ATOM     57  N   UNL A   1      45.587  27.273  31.587  1.00  0.00    -0.248 NA
ATOM     58  C   UNL A   1      44.546  25.793  33.097  1.00  0.00     0.031 C 
ATOM     59  C   UNL A   1      44.008  23.613  30.342  1.00  0.00     0.029 A 
ATOM     60  C   UNL A   1      44.846  24.460  29.606  1.00  0.00     0.049 A 
ATOM     61  H   UNL A   1      45.276  24.309  27.546  1.00  0.00     0.167 HD
ATOM     62  C   UNL A   1      45.762  25.971  31.191  1.00  0.00     0.074 A 
ATOM     63  C   UNL A   1      45.407  25.141  32.322  1.00  0.00     0.031 C 
ATOM     64  C   UNL A   1      45.600  25.658  29.879  1.00  0.00     0.037 A 
BRANCH  51  65
ATOM     65  C   UNL A   1      43.180  22.761  25.847  1.00  0.00     0.057 A 
ATOM     66  C   UNL A   1      43.300  21.348  25.886  1.00  0.00     0.134 A 
ATOM     67  C   UNL A   1      43.835  23.394  24.789  1.00  0.00     0.134 A 
ATOM     68  F   UNL A   1      42.663  20.622  26.820  1.00  0.00    -0.206 F 
ATOM     69  C   UNL A   1      44.146  20.637  25.032  1.00  0.00     0.040 A 
ATOM     70  C   UNL A   1      44.649  22.681  23.893  1.00  0.00     0.040 A 
ATOM     71  F   UNL A   1      43.793  24.722  24.635  1.00  0.00    -0.206 F 
ATOM     72  C   UNL A   1      44.845  21.311  24.043  1.00  0.00     0.006 A 
ENDBRANCH  51  65
BRANCH  52  73
ATOM     73  C   UNL A   1      44.290  28.743  34.441  1.00  0.00     0.057 A 
ATOM     74  C   UNL A   1      43.604  28.528  35.637  1.00  0.00     0.134 A 
ATOM     75  C   UNL A   1      45.525  29.441  34.617  1.00  0.00     0.134 A 
ATOM     76  F   UNL A   1      42.374  28.005  35.649  1.00  0.00    -0.206 F 
ATOM     77  C   UNL A   1      44.153  28.860  36.897  1.00  0.00     0.040 A 
ATOM     78  C   UNL A   1      46.104  29.728  35.858  1.00  0.00     0.040 A 
ATOM     79  F   UNL A   1      46.248  29.887  33.581  1.00  0.00    -0.206 F 
ATOM     80  C   UNL A   1      45.424  29.417  37.013  1.00  0.00     0.006 A 
ENDBRANCH  52  73
BRANCH  64  81
ATOM     81  C   UNL A   1      45.868  26.810  28.926  1.00  0.00     0.057 A 
ATOM     82  C   UNL A   1      47.150  27.373  28.857  1.00  0.00     0.134 A 
ATOM     83  C   UNL A   1      44.883  27.469  28.175  1.00  0.00     0.134 A 
ATOM     84  F   UNL A   1      48.170  26.807  29.521  1.00  0.00    -0.206 F 
ATOM     85  C   UNL A   1      47.426  28.533  28.119  1.00  0.00     0.040 A 
ATOM     86  C   UNL A   1      45.140  28.626  27.425  1.00  0.00     0.040 A 
ATOM     87  F   UNL A   1      43.629  27.022  28.146  1.00  0.00    -0.206 F 
ATOM     88  C   UNL A   1      46.417  29.169  27.404  1.00  0.00     0.006 A 
ENDBRANCH  64  81
ENDBRANCH  38  39
ENDBRANCH  30  33
ENDBRANCH  28  29
ENDBRANCH  27  28
ENDBRANCH  26  27
ENDBRANCH   1  26
TORSDOF 16
ENDMDL
MODEL 2
REMARK VINA RESULT:     -11.3      2.903      8.300
REMARK SMILES O=C(Cn1cccc1C(=O)N1CC[N@@H+]2CCC[C@@H]2C1)NCCCCCCNC(=O)c1ccc(-c2c3nc(c(-c4c(F)cccc4F)c4ccc([nH]4)c(-c4c(F)cccc4F)c4nc(c(-c5c(F)cccc5F)c5ccc2[nH]5)C=C4)C=C3)cc1
REMARK SMILES IDX 23 1 22 2 21 3 20 4 1 5 2 6 3 8 4 9 5 10 8 11 6 12 7 13 9 14
REMARK SMILES IDX 10 15 11 16 12 17 19 18 13 19 18 20 14 21 17 22 15 23 16 25
REMARK SMILES IDX 24 26 25 27 26 28 27 29 28 30 29 32 30 33 31 34 83 35 32 36
REMARK SMILES IDX 82 37 33 38 34 39 35 40 76 41 36 42 81 43 75 44 77 45 37 46
REMARK SMILES IDX 80 47 74 48 73 49 38 51 64 52 47 53 63 54 48 55 51 56 62 57
REMARK SMILES IDX 78 58 49 59 50 60 61 62 79 63 52 64 39 65 40 66 45 67 41 68
REMARK SMILES IDX 42 69 44 70 46 71 43 72 65 73 66 74 71 75 67 76 68 77 70 78
REMARK SMILES IDX 72 79 69 80 53 81 54 82 59 83 55 84 56 85 58 86 60 87 57 88
REMARK H PARENT 20 7 14 24 27 31 77 50 51 61
REMARK Flexibility Score: inf
ROOT
ATOM      1  C   UNL A   1      41.390  21.184  26.203  1.00  0.00     0.002 C 
ENDROOT
BRANCH   1   2
ATOM      2  C   UNL A   1      40.045  21.740  26.687  1.00  0.00     0.021 C 
BRANCH   2   3
ATOM      3  C   UNL A   1      38.872  21.470  25.744  1.00  0.00     0.116 C 
BRANCH   3   4
ATOM      4  N   UNL A   1      37.684  22.208  26.122  1.00  0.00    -0.355 N 
ATOM      5  O   UNL A   1      36.237  20.793  25.079  1.00  0.00    -0.273 OA
ATOM      6  C   UNL A   1      36.417  21.802  25.761  1.00  0.00     0.239 C 
ATOM      7  H   UNL A   1      37.784  23.029  26.656  1.00  0.00     0.163 HD
BRANCH   6   8
ATOM      8  C   UNL A   1      35.253  22.712  26.149  1.00  0.00     0.222 C 
BRANCH   8   9
ATOM      9  N   UNL A   1      33.997  22.401  25.471  1.00  0.00    -0.334 N 
ATOM     10  C   UNL A   1      32.947  21.842  26.180  1.00  0.00     0.087 A 
ATOM     11  C   UNL A   1      33.559  22.759  24.201  1.00  0.00     0.107 A 
ATOM     12  C   UNL A   1      31.869  21.712  25.346  1.00  0.00     0.020 A 
ATOM     13  C   UNL A   1      32.253  22.270  24.112  1.00  0.00     0.033 A 
BRANCH  11  14
ATOM     14  C   UNL A   1      34.120  23.669  23.196  1.00  0.00     0.270 C 
ATOM     15  O   UNL A   1      35.124  23.326  22.567  1.00  0.00    -0.267 OA
BRANCH  14  16
ATOM     16  N   UNL A   1      33.513  24.876  22.877  1.00  0.00    -0.326 N 
ATOM     17  C   UNL A   1      32.910  25.229  21.603  1.00  0.00     0.181 C 
ATOM     18  C   UNL A   1      33.505  25.916  23.891  1.00  0.00     0.185 C 
ATOM     19  C   UNL A   1      31.748  26.255  21.639  1.00  0.00     0.284 C 
ATOM     20  C   UNL A   1      32.126  26.540  24.104  1.00  0.00     0.204 C 
ATOM     21  N   UNL A   1      31.337  26.853  22.905  1.00  0.00    -0.330 N 
ATOM     22  C   UNL A   1      32.238  27.862  24.871  1.00  0.00     0.073 C 
ATOM     23  C   UNL A   1      31.097  28.293  22.847  1.00  0.00     0.262 C 
ATOM     24  H   UNL A   1      30.452  26.362  23.029  1.00  0.00     0.348 HD
ATOM     25  C   UNL A   1      31.119  28.713  24.305  1.00  0.00     0.068 C 
ENDBRANCH  14  16
ENDBRANCH  11  14
ENDBRANCH   8   9
ENDBRANCH   6   8
ENDBRANCH   3   4
ENDBRANCH   2   3
ENDBRANCH   1   2
BRANCH   1  26
ATOM     26  C   UNL A   1      41.915  19.973  26.982  1.00  0.00     0.002 C 
BRANCH  26  27
ATOM     27  C   UNL A   1      42.275  18.752  26.125  1.00  0.00     0.021 C 
BRANCH  27  28
ATOM     28  C   UNL A   1      43.778  18.476  26.039  1.00  0.00     0.116 C 
BRANCH  28  29
ATOM     29  N   UNL A   1      44.245  18.616  24.671  1.00  0.00    -0.352 N 
ATOM     30  C   UNL A   1      44.508  19.737  23.931  1.00  0.00     0.251 C 
ATOM     31  H   UNL A   1      44.399  17.765  24.199  1.00  0.00     0.163 HD
ATOM     32  O   UNL A   1      44.530  19.644  22.708  1.00  0.00    -0.269 OA
BRANCH  30  33
ATOM     33  C   UNL A   1      44.759  21.053  24.557  1.00  0.00     0.039 A 
ATOM     34  C   UNL A   1      44.555  22.192  23.766  1.00  0.00     0.014 A 
ATOM     35  C   UNL A   1      45.298  21.181  25.843  1.00  0.00     0.014 A 
ATOM     36  C   UNL A   1      44.836  23.455  24.274  1.00  0.00     0.010 A 
ATOM     37  C   UNL A   1      45.571  22.447  26.361  1.00  0.00     0.010 A 
ATOM     38  C   UNL A   1      45.317  23.584  25.584  1.00  0.00    -0.014 A 
BRANCH  38  39
ATOM     39  C   UNL A   1      45.312  24.934  26.197  1.00  0.00     0.031 A 
ATOM     40  C   UNL A   1      43.865  25.460  26.363  1.00  0.00     0.074 A 
ATOM     41  C   UNL A   1      46.528  25.502  26.478  1.00  0.00     0.049 A 
ATOM     42  N   UNL A   1      43.422  26.675  26.480  1.00  0.00    -0.248 NA
ATOM     43  C   UNL A   1      42.728  24.492  26.347  1.00  0.00     0.031 C 
ATOM     44  C   UNL A   1      47.832  24.826  26.296  1.00  0.00     0.029 A 
ATOM     45  N   UNL A   1      46.933  26.736  26.959  1.00  0.00    -0.354 N 
ATOM     46  C   UNL A   1      42.034  26.606  26.761  1.00  0.00     0.074 A 
ATOM     47  C   UNL A   1      41.648  25.247  26.555  1.00  0.00     0.031 C 
ATOM     48  C   UNL A   1      48.857  25.665  26.567  1.00  0.00     0.029 A 
ATOM     49  C   UNL A   1      48.341  26.960  26.969  1.00  0.00     0.049 A 
ATOM     50  H   UNL A   1      46.292  27.413  27.272  1.00  0.00     0.167 HD
ATOM     51  C   UNL A   1      41.326  27.658  27.275  1.00  0.00     0.037 A 
ATOM     52  C   UNL A   1      49.039  28.111  27.243  1.00  0.00     0.037 A 
ATOM     53  C   UNL A   1      42.170  28.796  27.365  1.00  0.00     0.049 A 
ATOM     54  C   UNL A   1      48.036  29.048  27.757  1.00  0.00     0.074 A 
ATOM     55  C   UNL A   1      42.695  29.618  26.405  1.00  0.00     0.029 A 
ATOM     56  N   UNL A   1      42.857  28.960  28.542  1.00  0.00    -0.354 N 
ATOM     57  N   UNL A   1      47.511  28.979  28.942  1.00  0.00    -0.248 NA
ATOM     58  C   UNL A   1      47.534  30.105  26.873  1.00  0.00     0.031 C 
ATOM     59  C   UNL A   1      43.987  29.883  26.893  1.00  0.00     0.029 A 
ATOM     60  C   UNL A   1      44.098  29.439  28.217  1.00  0.00     0.049 A 
ATOM     61  H   UNL A   1      42.521  28.770  29.447  1.00  0.00     0.167 HD
ATOM     62  C   UNL A   1      46.381  29.742  28.791  1.00  0.00     0.074 A 
ATOM     63  C   UNL A   1      46.633  30.645  27.688  1.00  0.00     0.031 C 
ATOM     64  C   UNL A   1      45.182  29.212  29.141  1.00  0.00     0.037 A 
BRANCH  51  65
ATOM     65  C   UNL A   1      39.986  27.764  27.950  1.00  0.00     0.057 A 
ATOM     66  C   UNL A   1      39.160  28.872  27.625  1.00  0.00     0.134 A 
ATOM     67  C   UNL A   1      39.650  27.085  29.124  1.00  0.00     0.134 A 
ATOM     68  F   UNL A   1      39.345  29.565  26.489  1.00  0.00    -0.206 F 
ATOM     69  C   UNL A   1      38.181  29.364  28.490  1.00  0.00     0.040 A 
ATOM     70  C   UNL A   1      38.632  27.543  29.976  1.00  0.00     0.040 A 
ATOM     71  F   UNL A   1      40.346  26.019  29.537  1.00  0.00    -0.206 F 
ATOM     72  C   UNL A   1      37.931  28.710  29.685  1.00  0.00     0.006 A 
ENDBRANCH  51  65
BRANCH  52  73
ATOM     73  C   UNL A   1      50.444  28.675  27.126  1.00  0.00     0.057 A 
ATOM     74  C   UNL A   1      51.243  29.140  28.172  1.00  0.00     0.134 A 
ATOM     75  C   UNL A   1      51.112  28.675  25.863  1.00  0.00     0.134 A 
ATOM     76  F   UNL A   1      50.744  29.330  29.397  1.00  0.00    -0.206 F 
ATOM     77  C   UNL A   1      52.611  29.451  28.000  1.00  0.00     0.040 A 
ATOM     78  C   UNL A   1      52.477  28.928  25.687  1.00  0.00     0.040 A 
ATOM     79  F   UNL A   1      50.470  28.422  24.715  1.00  0.00    -0.206 F 
ATOM     80  C   UNL A   1      53.243  29.300  26.768  1.00  0.00     0.006 A 
ENDBRANCH  52  73
BRANCH  64  81
ATOM     81  C   UNL A   1      45.263  28.136  30.210  1.00  0.00     0.057 A 
ATOM     82  C   UNL A   1      45.734  28.461  31.491  1.00  0.00     0.134 A 
ATOM     83  C   UNL A   1      45.023  26.771  29.988  1.00  0.00     0.134 A 
ATOM     84  F   UNL A   1      45.974  29.741  31.814  1.00  0.00    -0.206 F 
ATOM     85  C   UNL A   1      45.982  27.490  32.471  1.00  0.00     0.040 A 
ATOM     86  C   UNL A   1      45.258  25.786  30.959  1.00  0.00     0.040 A 
ATOM     87  F   UNL A   1      44.560  26.338  28.818  1.00  0.00    -0.206 F 
ATOM     88  C   UNL A   1      45.751  26.144  32.206  1.00  0.00     0.006 A 
ENDBRANCH  64  81
ENDBRANCH  38  39
ENDBRANCH  30  33
ENDBRANCH  28  29
ENDBRANCH  27  28
ENDBRANCH  26  27
ENDBRANCH   1  26
TORSDOF 16
ENDMDL
MODEL 3
REMARK VINA RESULT:     -11.2      4.225      6.624
REMARK SMILES O=C(Cn1cccc1C(=O)N1CC[N@@H+]2CCC[C@@H]2C1)NCCCCCCNC(=O)c1ccc(-c2c3nc(c(-c4c(F)cccc4F)c4ccc([nH]4)c(-c4c(F)cccc4F)c4nc(c(-c5c(F)cccc5F)c5ccc2[nH]5)C=C4)C=C3)cc1
REMARK SMILES IDX 23 1 22 2 21 3 20 4 1 5 2 6 3 8 4 9 5 10 8 11 6 12 7 13 9 14
REMARK SMILES IDX 10 15 11 16 12 17 19 18 13 19 18 20 14 21 17 22 15 23 16 25
REMARK SMILES IDX 24 26 25 27 26 28 27 29 28 30 29 32 30 33 31 34 83 35 32 36
REMARK SMILES IDX 82 37 33 38 34 39 35 40 76 41 36 42 81 43 75 44 77 45 37 46
REMARK SMILES IDX 80 47 74 48 73 49 38 51 64 52 47 53 63 54 48 55 51 56 62 57
REMARK SMILES IDX 78 58 49 59 50 60 61 62 79 63 52 64 39 65 40 66 45 67 41 68
REMARK SMILES IDX 42 69 44 70 46 71 43 72 65 73 66 74 71 75 67 76 68 77 70 78
REMARK SMILES IDX 72 79 69 80 53 81 54 82 59 83 55 84 56 85 58 86 60 87 57 88
REMARK H PARENT 20 7 14 24 27 31 77 50 51 61
REMARK Flexibility Score: inf
ROOT
ATOM      1  C   UNL A   1      35.039  33.405  27.897  1.00  0.00     0.002 C 
ENDROOT
BRANCH   1   2
ATOM      2  C   UNL A   1      35.076  31.872  27.867  1.00  0.00     0.021 C 
BRANCH   2   3
ATOM      3  C   UNL A   1      33.727  31.211  27.580  1.00  0.00     0.116 C 
BRANCH   3   4
ATOM      4  N   UNL A   1      33.784  30.324  26.436  1.00  0.00    -0.355 N 
ATOM      5  O   UNL A   1      31.582  30.555  25.905  1.00  0.00    -0.273 OA
ATOM      6  C   UNL A   1      32.681  30.059  25.654  1.00  0.00     0.239 C 
ATOM      7  H   UNL A   1      34.640  29.897  26.208  1.00  0.00     0.163 HD
BRANCH   6   8
ATOM      8  C   UNL A   1      32.849  29.042  24.526  1.00  0.00     0.222 C 
BRANCH   8   9
ATOM      9  N   UNL A   1      31.654  28.251  24.248  1.00  0.00    -0.334 N 
ATOM     10  C   UNL A   1      31.069  28.297  22.993  1.00  0.00     0.087 A 
ATOM     11  C   UNL A   1      31.058  27.244  24.999  1.00  0.00     0.107 A 
ATOM     12  C   UNL A   1      30.016  27.424  22.963  1.00  0.00     0.020 A 
ATOM     13  C   UNL A   1      30.000  26.778  24.213  1.00  0.00     0.033 A 
BRANCH  11  14
ATOM     14  C   UNL A   1      31.494  26.545  26.213  1.00  0.00     0.270 C 
ATOM     15  O   UNL A   1      31.222  27.027  27.315  1.00  0.00    -0.267 OA
BRANCH  14  16
ATOM     16  N   UNL A   1      32.141  25.318  26.163  1.00  0.00    -0.326 N 
ATOM     17  C   UNL A   1      31.545  24.017  26.415  1.00  0.00     0.181 C 
ATOM     18  C   UNL A   1      33.564  25.316  25.870  1.00  0.00     0.185 C 
ATOM     19  C   UNL A   1      32.174  22.804  25.681  1.00  0.00     0.284 C 
ATOM     20  C   UNL A   1      33.951  24.326  24.771  1.00  0.00     0.204 C 
ATOM     21  N   UNL A   1      33.340  22.991  24.823  1.00  0.00    -0.330 N 
ATOM     22  C   UNL A   1      35.464  24.077  24.771  1.00  0.00     0.073 C 
ATOM     23  C   UNL A   1      34.386  21.986  24.991  1.00  0.00     0.262 C 
ATOM     24  H   UNL A   1      32.887  22.868  23.917  1.00  0.00     0.348 HD
ATOM     25  C   UNL A   1      35.600  22.629  24.347  1.00  0.00     0.068 C 
ENDBRANCH  14  16
ENDBRANCH  11  14
ENDBRANCH   8   9
ENDBRANCH   6   8
ENDBRANCH   3   4
ENDBRANCH   2   3
ENDBRANCH   1   2
BRANCH   1  26
ATOM     26  C   UNL A   1      34.549  34.021  29.212  1.00  0.00     0.002 C 
BRANCH  26  27
ATOM     27  C   UNL A   1      33.213  34.772  29.123  1.00  0.00     0.021 C 
BRANCH  27  28
ATOM     28  C   UNL A   1      33.227  36.145  29.799  1.00  0.00     0.116 C 
BRANCH  28  29
ATOM     29  N   UNL A   1      32.485  36.106  31.047  1.00  0.00    -0.352 N 
ATOM     30  C   UNL A   1      32.697  35.377  32.186  1.00  0.00     0.251 C 
ATOM     31  H   UNL A   1      31.702  36.702  31.079  1.00  0.00     0.163 HD
ATOM     32  O   UNL A   1      31.763  35.214  32.964  1.00  0.00    -0.269 OA
BRANCH  30  33
ATOM     33  C   UNL A   1      34.011  34.777  32.504  1.00  0.00     0.039 A 
ATOM     34  C   UNL A   1      34.017  33.464  32.994  1.00  0.00     0.014 A 
ATOM     35  C   UNL A   1      35.202  35.509  32.447  1.00  0.00     0.014 A 
ATOM     36  C   UNL A   1      35.213  32.865  33.373  1.00  0.00     0.010 A 
ATOM     37  C   UNL A   1      36.407  34.909  32.816  1.00  0.00     0.010 A 
ATOM     38  C   UNL A   1      36.413  33.579  33.257  1.00  0.00    -0.014 A 
BRANCH  38  39
ATOM     39  C   UNL A   1      37.685  32.825  33.370  1.00  0.00     0.031 A 
ATOM     40  C   UNL A   1      37.718  31.643  32.370  1.00  0.00     0.074 A 
ATOM     41  C   UNL A   1      38.580  33.244  34.319  1.00  0.00     0.049 A 
ATOM     42  N   UNL A   1      38.415  30.548  32.388  1.00  0.00    -0.248 NA
ATOM     43  C   UNL A   1      36.799  31.655  31.193  1.00  0.00     0.031 C 
ATOM     44  C   UNL A   1      38.405  34.442  35.170  1.00  0.00     0.029 A 
ATOM     45  N   UNL A   1      39.800  32.771  34.777  1.00  0.00    -0.354 N 
ATOM     46  C   UNL A   1      38.190  29.869  31.164  1.00  0.00     0.074 A 
ATOM     47  C   UNL A   1      37.106  30.541  30.523  1.00  0.00     0.031 C 
ATOM     48  C   UNL A   1      39.404  34.549  36.074  1.00  0.00     0.029 A 
ATOM     49  C   UNL A   1      40.341  33.455  35.905  1.00  0.00     0.049 A 
ATOM     50  H   UNL A   1      40.262  32.014  34.350  1.00  0.00     0.167 HD
ATOM     51  C   UNL A   1      39.009  28.876  30.703  1.00  0.00     0.037 A 
ATOM     52  C   UNL A   1      41.439  33.142  36.669  1.00  0.00     0.037 A 
ATOM     53  C   UNL A   1      40.004  28.594  31.677  1.00  0.00     0.049 A 
ATOM     54  C   UNL A   1      42.105  32.054  35.948  1.00  0.00     0.074 A 
ATOM     55  C   UNL A   1      39.936  27.974  32.895  1.00  0.00     0.029 A 
ATOM     56  N   UNL A   1      41.173  29.307  31.585  1.00  0.00    -0.354 N 
ATOM     57  N   UNL A   1      42.797  32.214  34.861  1.00  0.00    -0.248 NA
ATOM     58  C   UNL A   1      41.945  30.679  36.433  1.00  0.00     0.031 C 
ATOM     59  C   UNL A   1      40.824  28.729  33.681  1.00  0.00     0.029 A 
ATOM     60  C   UNL A   1      41.572  29.588  32.865  1.00  0.00     0.049 A 
ATOM     61  H   UNL A   1      41.637  29.566  30.757  1.00  0.00     0.167 HD
ATOM     62  C   UNL A   1      42.828  30.937  34.359  1.00  0.00     0.074 A 
ATOM     63  C   UNL A   1      42.624  30.045  35.481  1.00  0.00     0.031 C 
ATOM     64  C   UNL A   1      42.428  30.728  33.079  1.00  0.00     0.037 A 
BRANCH  51  65
ATOM     65  C   UNL A   1      39.198  28.240  29.352  1.00  0.00     0.057 A 
ATOM     66  C   UNL A   1      39.207  26.824  29.276  1.00  0.00     0.134 A 
ATOM     67  C   UNL A   1      39.730  28.908  28.247  1.00  0.00     0.134 A 
ATOM     68  F   UNL A   1      38.665  26.073  30.249  1.00  0.00    -0.206 F 
ATOM     69  C   UNL A   1      39.848  26.126  28.250  1.00  0.00     0.040 A 
ATOM     70  C   UNL A   1      40.332  28.214  27.185  1.00  0.00     0.040 A 
ATOM     71  F   UNL A   1      39.773  30.245  28.192  1.00  0.00    -0.206 F 
ATOM     72  C   UNL A   1      40.437  26.825  27.210  1.00  0.00     0.006 A 
ENDBRANCH  51  65
BRANCH  52  73
ATOM     73  C   UNL A   1      42.090  33.533  37.984  1.00  0.00     0.057 A 
ATOM     74  C   UNL A   1      43.342  34.127  38.147  1.00  0.00     0.134 A 
ATOM     75  C   UNL A   1      41.368  33.394  39.209  1.00  0.00     0.134 A 
ATOM     76  F   UNL A   1      44.206  34.220  37.131  1.00  0.00    -0.206 F 
ATOM     77  C   UNL A   1      43.779  34.648  39.387  1.00  0.00     0.040 A 
ATOM     78  C   UNL A   1      41.763  33.951  40.430  1.00  0.00     0.040 A 
ATOM     79  F   UNL A   1      40.223  32.705  39.289  1.00  0.00    -0.206 F 
ATOM     80  C   UNL A   1      42.971  34.604  40.520  1.00  0.00     0.006 A 
ENDBRANCH  52  73
BRANCH  64  81
ATOM     81  C   UNL A   1      42.596  31.932  32.169  1.00  0.00     0.057 A 
ATOM     82  C   UNL A   1      43.879  32.434  31.908  1.00  0.00     0.134 A 
ATOM     83  C   UNL A   1      41.537  32.691  31.648  1.00  0.00     0.134 A 
ATOM     84  F   UNL A   1      44.961  31.771  32.342  1.00  0.00    -0.206 F 
ATOM     85  C   UNL A   1      44.091  33.630  31.207  1.00  0.00     0.040 A 
ATOM     86  C   UNL A   1      41.730  33.886  30.939  1.00  0.00     0.040 A 
ATOM     87  F   UNL A   1      40.273  32.310  31.815  1.00  0.00    -0.206 F 
ATOM     88  C   UNL A   1      43.015  34.366  30.725  1.00  0.00     0.006 A 
ENDBRANCH  64  81
ENDBRANCH  38  39
ENDBRANCH  30  33
ENDBRANCH  28  29
ENDBRANCH  27  28
ENDBRANCH  26  27
ENDBRANCH   1  26
TORSDOF 16
ENDMDL
