MODEL 1
REMARK VINA RESULT:     -10.8      0.000      0.000
REMARK SMILES CC(C)[NH2+][C@]1(C(=O)NCCCCCCNC(=O)c2ccc(-c3c4nc(c(-c5c(F)cccc5F)c5ccc([nH]5)c(-c5c(F)cccc5F)c5nc(c(-c6c(F)cccc6F)c6ccc3[nH]6)C=C5)C=C4)cc2)CC[C@@H]([N@@H+](C)[C@@H](C)C(C)C)C1
REMARK SMILES IDX 11 1 10 2 9 3 8 4 6 5 7 6 5 8 72 9 82 10 73 11 74 12 4 13
REMARK SMILES IDX 2 16 1 17 3 18 75 19 76 20 77 22 78 23 79 24 80 25 81 26
REMARK SMILES IDX 12 27 13 28 14 29 15 30 16 31 17 33 18 34 19 35 71 36 20 37
REMARK SMILES IDX 70 38 21 39 22 40 23 41 64 42 24 43 69 44 63 45 65 46 25 47
REMARK SMILES IDX 68 48 62 49 61 50 26 52 52 53 35 54 51 55 36 56 39 57 50 58
REMARK SMILES IDX 66 59 37 60 38 61 49 63 67 64 40 65 27 66 28 67 33 68 29 69
REMARK SMILES IDX 30 70 32 71 34 72 31 73 53 74 54 75 59 76 55 77 56 78 58 79
REMARK SMILES IDX 60 80 57 81 41 82 42 83 47 84 43 85 44 86 46 87 48 88 45 89
REMARK H PARENT 8 7 4 14 4 15 75 21 15 32 65 51 39 62
REMARK Flexibility Score: inf
ROOT
ATOM      1  C   UNL A   1      37.037  22.087  25.565  1.00  0.00     0.002 C 
ENDROOT
BRANCH   1   2
ATOM      2  C   UNL A   1      35.838  22.835  26.137  1.00  0.00     0.021 C 
BRANCH   2   3
ATOM      3  C   UNL A   1      34.798  21.980  26.865  1.00  0.00     0.116 C 
BRANCH   3   4
ATOM      4  N   UNL A   1      33.646  22.719  27.358  1.00  0.00    -0.351 N 
ATOM      5  C   UNL A   1      32.395  22.967  26.858  1.00  0.00     0.281 C 
ATOM      6  O   UNL A   1      31.641  23.580  27.626  1.00  0.00    -0.268 OA
ATOM      7  H   UNL A   1      33.798  23.129  28.240  1.00  0.00     0.163 HD
BRANCH   5   8
ATOM      8  C   UNL A   1      31.947  22.619  25.390  1.00  0.00     0.181 C 
ATOM      9  C   UNL A   1      30.713  23.422  24.948  1.00  0.00     0.085 C 
ATOM     10  C   UNL A   1      33.044  23.089  24.372  1.00  0.00     0.144 C 
ATOM     11  C   UNL A   1      30.892  23.826  23.499  1.00  0.00     0.072 C 
ATOM     12  C   UNL A   1      32.393  23.968  23.287  1.00  0.00     0.191 C 
BRANCH   8  13
ATOM     13  N   UNL A   1      31.798  21.145  25.155  1.00  0.00    -0.331 N 
ATOM     14  H   UNL A   1      31.870  20.685  26.063  1.00  0.00     0.347 HD
ATOM     15  H   UNL A   1      30.900  21.053  24.680  1.00  0.00     0.347 HD
BRANCH  13  16
ATOM     16  C   UNL A   1      32.750  20.487  24.259  1.00  0.00     0.176 C 
ATOM     17  C   UNL A   1      33.247  19.201  24.923  1.00  0.00     0.075 C 
ATOM     18  C   UNL A   1      32.152  20.115  22.893  1.00  0.00     0.075 C 
ENDBRANCH  13  16
ENDBRANCH   8  13
BRANCH  12  19
ATOM     19  N   UNL A   1      32.954  25.305  23.004  1.00  0.00    -0.332 N 
ATOM     20  C   UNL A   1      32.875  25.610  21.568  1.00  0.00     0.333 C 
ATOM     21  H   UNL A   1      33.900  25.137  23.350  1.00  0.00     0.348 HD
BRANCH  19  22
ATOM     22  C   UNL A   1      32.674  26.505  23.831  1.00  0.00     0.183 C 
ATOM     23  C   UNL A   1      33.616  26.692  25.029  1.00  0.00     0.075 C 
BRANCH  22  24
ATOM     24  C   UNL A   1      32.468  27.821  23.022  1.00  0.00     0.041 C 
ATOM     25  C   UNL A   1      31.048  28.383  23.214  1.00  0.00     0.013 C 
ATOM     26  C   UNL A   1      33.467  28.933  23.361  1.00  0.00     0.013 C 
ENDBRANCH  22  24
ENDBRANCH  19  22
ENDBRANCH  12  19
ENDBRANCH   5   8
ENDBRANCH   3   4
ENDBRANCH   2   3
ENDBRANCH   1   2
BRANCH   1  27
ATOM     27  C   UNL A   1      36.722  20.721  24.960  1.00  0.00     0.002 C 
BRANCH  27  28
ATOM     28  C   UNL A   1      37.869  19.709  24.994  1.00  0.00     0.021 C 
BRANCH  28  29
ATOM     29  C   UNL A   1      39.125  20.172  25.726  1.00  0.00     0.116 C 
BRANCH  29  30
ATOM     30  N   UNL A   1      40.105  19.111  25.866  1.00  0.00    -0.352 N 
ATOM     31  C   UNL A   1      41.457  19.204  26.090  1.00  0.00     0.251 C 
ATOM     32  H   UNL A   1      39.753  18.195  25.790  1.00  0.00     0.163 HD
ATOM     33  O   UNL A   1      42.171  18.213  25.994  1.00  0.00    -0.269 OA
BRANCH  31  34
ATOM     34  C   UNL A   1      42.052  20.514  26.427  1.00  0.00     0.039 A 
ATOM     35  C   UNL A   1      42.471  21.348  25.388  1.00  0.00     0.014 A 
ATOM     36  C   UNL A   1      42.196  20.918  27.758  1.00  0.00     0.014 A 
ATOM     37  C   UNL A   1      42.982  22.613  25.682  1.00  0.00     0.010 A 
ATOM     38  C   UNL A   1      42.634  22.208  28.046  1.00  0.00     0.010 A 
ATOM     39  C   UNL A   1      43.037  23.066  27.012  1.00  0.00    -0.014 A 
BRANCH  39  40
ATOM     40  C   UNL A   1      43.498  24.440  27.330  1.00  0.00     0.031 A 
ATOM     41  C   UNL A   1      42.520  25.488  27.779  1.00  0.00     0.074 A 
ATOM     42  C   UNL A   1      44.794  24.761  27.153  1.00  0.00     0.049 A 
ATOM     43  N   UNL A   1      42.731  26.749  28.063  1.00  0.00    -0.248 NA
ATOM     44  C   UNL A   1      41.114  25.073  27.894  1.00  0.00     0.031 C 
ATOM     45  C   UNL A   1      45.831  23.849  26.667  1.00  0.00     0.029 A 
ATOM     46  N   UNL A   1      45.458  25.945  27.351  1.00  0.00    -0.354 N 
ATOM     47  C   UNL A   1      41.485  27.278  28.376  1.00  0.00     0.074 A 
ATOM     48  C   UNL A   1      40.519  26.217  28.191  1.00  0.00     0.031 C 
ATOM     49  C   UNL A   1      47.003  24.501  26.623  1.00  0.00     0.029 A 
ATOM     50  C   UNL A   1      46.794  25.885  27.040  1.00  0.00     0.049 A 
ATOM     51  H   UNL A   1      45.018  26.761  27.684  1.00  0.00     0.167 HD
ATOM     52  C   UNL A   1      41.178  28.528  28.799  1.00  0.00     0.037 A 
ATOM     53  C   UNL A   1      47.746  26.836  27.077  1.00  0.00     0.037 A 
ATOM     54  C   UNL A   1      42.148  29.576  28.992  1.00  0.00     0.049 A 
ATOM     55  C   UNL A   1      47.385  28.218  27.547  1.00  0.00     0.074 A 
ATOM     56  C   UNL A   1      41.951  30.852  29.490  1.00  0.00     0.029 A 
ATOM     57  N   UNL A   1      43.496  29.473  28.680  1.00  0.00    -0.354 N 
ATOM     58  N   UNL A   1      46.219  28.682  27.926  1.00  0.00    -0.248 NA
ATOM     59  C   UNL A   1      48.472  29.203  27.602  1.00  0.00     0.031 C 
ATOM     60  C   UNL A   1      43.167  31.541  29.422  1.00  0.00     0.029 A 
ATOM     61  C   UNL A   1      44.137  30.675  28.939  1.00  0.00     0.049 A 
ATOM     62  H   UNL A   1      43.934  28.665  28.327  1.00  0.00     0.167 HD
ATOM     63  C   UNL A   1      46.434  30.007  28.282  1.00  0.00     0.074 A 
ATOM     64  C   UNL A   1      47.847  30.265  28.090  1.00  0.00     0.031 C 
ATOM     65  C   UNL A   1      45.542  30.925  28.730  1.00  0.00     0.037 A 
BRANCH  52  66
ATOM     66  C   UNL A   1      39.730  28.829  29.063  1.00  0.00     0.057 A 
ATOM     67  C   UNL A   1      39.160  28.696  30.338  1.00  0.00     0.134 A 
ATOM     68  C   UNL A   1      38.891  29.262  28.027  1.00  0.00     0.134 A 
ATOM     69  F   UNL A   1      39.903  28.276  31.374  1.00  0.00    -0.206 F 
ATOM     70  C   UNL A   1      37.804  28.938  30.562  1.00  0.00     0.040 A 
ATOM     71  C   UNL A   1      37.541  29.540  28.247  1.00  0.00     0.040 A 
ATOM     72  F   UNL A   1      39.369  29.420  26.784  1.00  0.00    -0.206 F 
ATOM     73  C   UNL A   1      36.990  29.367  29.515  1.00  0.00     0.006 A 
ENDBRANCH  52  66
BRANCH  53  74
ATOM     74  C   UNL A   1      49.133  26.498  26.672  1.00  0.00     0.057 A 
ATOM     75  C   UNL A   1      50.033  25.928  27.578  1.00  0.00     0.134 A 
ATOM     76  C   UNL A   1      49.578  26.703  25.360  1.00  0.00     0.134 A 
ATOM     77  F   UNL A   1      49.669  25.723  28.853  1.00  0.00    -0.206 F 
ATOM     78  C   UNL A   1      51.329  25.578  27.197  1.00  0.00     0.040 A 
ATOM     79  C   UNL A   1      50.863  26.335  24.959  1.00  0.00     0.040 A 
ATOM     80  F   UNL A   1      48.759  27.236  24.442  1.00  0.00    -0.206 F 
ATOM     81  C   UNL A   1      51.744  25.773  25.881  1.00  0.00     0.006 A 
ENDBRANCH  53  74
BRANCH  65  82
ATOM     82  C   UNL A   1      46.069  32.293  29.059  1.00  0.00     0.057 A 
ATOM     83  C   UNL A   1      46.582  32.605  30.324  1.00  0.00     0.134 A 
ATOM     84  C   UNL A   1      46.100  33.299  28.085  1.00  0.00     0.134 A 
ATOM     85  F   UNL A   1      46.572  31.690  31.307  1.00  0.00    -0.206 F 
ATOM     86  C   UNL A   1      47.084  33.874  30.617  1.00  0.00     0.040 A 
ATOM     87  C   UNL A   1      46.625  34.563  28.355  1.00  0.00     0.040 A 
ATOM     88  F   UNL A   1      45.632  33.065  26.849  1.00  0.00    -0.206 F 
ATOM     89  C   UNL A   1      47.113  34.856  29.627  1.00  0.00     0.006 A 
ENDBRANCH  65  82
ENDBRANCH  39  40
ENDBRANCH  31  34
ENDBRANCH  29  30
ENDBRANCH  28  29
ENDBRANCH  27  28
ENDBRANCH   1  27
TORSDOF 18
ENDMDL
MODEL 2
REMARK VINA RESULT:     -10.4      5.236      7.914
REMARK SMILES CC(C)[NH2+][C@]1(C(=O)NCCCCCCNC(=O)c2ccc(-c3c4nc(c(-c5c(F)cccc5F)c5ccc([nH]5)c(-c5c(F)cccc5F)c5nc(c(-c6c(F)cccc6F)c6ccc3[nH]6)C=C5)C=C4)cc2)CC[C@@H]([N@@H+](C)[C@@H](C)C(C)C)C1
REMARK SMILES IDX 11 1 10 2 9 3 8 4 6 5 7 6 5 8 72 9 82 10 73 11 74 12 4 13
REMARK SMILES IDX 2 16 1 17 3 18 75 19 76 20 77 22 78 23 79 24 80 25 81 26
REMARK SMILES IDX 12 27 13 28 14 29 15 30 16 31 17 33 18 34 19 35 71 36 20 37
REMARK SMILES IDX 70 38 21 39 22 40 23 41 64 42 24 43 69 44 63 45 65 46 25 47
REMARK SMILES IDX 68 48 62 49 61 50 26 52 52 53 35 54 51 55 36 56 39 57 50 58
REMARK SMILES IDX 66 59 37 60 38 61 49 63 67 64 40 65 27 66 28 67 33 68 29 69
REMARK SMILES IDX 30 70 32 71 34 72 31 73 53 74 54 75 59 76 55 77 56 78 58 79
REMARK SMILES IDX 60 80 57 81 41 82 42 83 47 84 43 85 44 86 46 87 48 88 45 89
REMARK H PARENT 8 7 4 14 4 15 75 21 15 32 65 51 39 62
REMARK Flexibility Score: inf
ROOT
ATOM      1  C   UNL A   1      35.450  23.025  24.912  1.00  0.00     0.002 C 
ENDROOT
BRANCH   1   2
ATOM      2  C   UNL A   1      34.323  23.959  24.486  1.00  0.00     0.021 C 
BRANCH   2   3
ATOM      3  C   UNL A   1      34.442  25.411  24.952  1.00  0.00     0.116 C 
BRANCH   3   4
ATOM      4  N   UNL A   1      33.402  25.837  25.876  1.00  0.00    -0.351 N 
ATOM      5  C   UNL A   1      32.551  26.910  25.916  1.00  0.00     0.281 C 
ATOM      6  O   UNL A   1      31.726  26.883  26.839  1.00  0.00    -0.268 OA
ATOM      7  H   UNL A   1      33.286  25.222  26.637  1.00  0.00     0.163 HD
BRANCH   5   8
ATOM      8  C   UNL A   1      32.652  28.151  24.956  1.00  0.00     0.181 C 
ATOM      9  C   UNL A   1      32.970  27.747  23.507  1.00  0.00     0.085 C 
ATOM     10  C   UNL A   1      31.247  28.836  24.820  1.00  0.00     0.144 C 
ATOM     11  C   UNL A   1      32.164  28.624  22.572  1.00  0.00     0.072 C 
ATOM     12  C   UNL A   1      30.890  28.982  23.327  1.00  0.00     0.191 C 
BRANCH   8  13
ATOM     13  N   UNL A   1      33.563  29.224  25.475  1.00  0.00    -0.331 N 
ATOM     14  H   UNL A   1      34.516  28.958  25.226  1.00  0.00     0.347 HD
ATOM     15  H   UNL A   1      33.214  30.082  25.048  1.00  0.00     0.347 HD
BRANCH  13  16
ATOM     16  C   UNL A   1      33.553  29.505  26.912  1.00  0.00     0.176 C 
ATOM     17  C   UNL A   1      34.981  29.387  27.449  1.00  0.00     0.075 C 
ATOM     18  C   UNL A   1      33.029  30.906  27.260  1.00  0.00     0.075 C 
ENDBRANCH  13  16
ENDBRANCH   8  13
BRANCH  12  19
ATOM     19  N   UNL A   1      29.596  28.465  22.838  1.00  0.00    -0.332 N 
ATOM     20  C   UNL A   1      29.226  27.231  23.547  1.00  0.00     0.333 C 
ATOM     21  H   UNL A   1      29.859  28.329  21.861  1.00  0.00     0.348 HD
BRANCH  19  22
ATOM     22  C   UNL A   1      28.412  29.324  22.585  1.00  0.00     0.183 C 
ATOM     23  C   UNL A   1      27.095  28.784  23.162  1.00  0.00     0.075 C 
BRANCH  22  24
ATOM     24  C   UNL A   1      28.624  30.836  22.894  1.00  0.00     0.041 C 
ATOM     25  C   UNL A   1      28.731  31.665  21.602  1.00  0.00     0.013 C 
ATOM     26  C   UNL A   1      27.530  31.461  23.768  1.00  0.00     0.013 C 
ENDBRANCH  22  24
ENDBRANCH  19  22
ENDBRANCH  12  19
ENDBRANCH   5   8
ENDBRANCH   3   4
ENDBRANCH   2   3
ENDBRANCH   1   2
BRANCH   1  27
ATOM     27  C   UNL A   1      36.370  23.572  26.002  1.00  0.00     0.002 C 
BRANCH  27  28
ATOM     28  C   UNL A   1      37.837  23.151  25.893  1.00  0.00     0.021 C 
BRANCH  28  29
ATOM     29  C   UNL A   1      38.826  24.032  26.653  1.00  0.00     0.116 C 
BRANCH  29  30
ATOM     30  N   UNL A   1      40.014  24.327  25.874  1.00  0.00    -0.352 N 
ATOM     31  C   UNL A   1      40.912  25.356  26.020  1.00  0.00     0.251 C 
ATOM     32  H   UNL A   1      40.203  23.703  25.137  1.00  0.00     0.163 HD
ATOM     33  O   UNL A   1      41.756  25.568  25.158  1.00  0.00    -0.269 OA
BRANCH  31  34
ATOM     34  C   UNL A   1      40.840  26.223  27.214  1.00  0.00     0.039 A 
ATOM     35  C   UNL A   1      41.546  27.428  27.213  1.00  0.00     0.014 A 
ATOM     36  C   UNL A   1      40.082  25.850  28.329  1.00  0.00     0.014 A 
ATOM     37  C   UNL A   1      41.446  28.287  28.308  1.00  0.00     0.010 A 
ATOM     38  C   UNL A   1      39.922  26.742  29.386  1.00  0.00     0.010 A 
ATOM     39  C   UNL A   1      40.607  27.966  29.389  1.00  0.00    -0.014 A 
BRANCH  39  40
ATOM     40  C   UNL A   1      40.425  28.911  30.519  1.00  0.00     0.031 A 
ATOM     41  C   UNL A   1      39.353  29.962  30.470  1.00  0.00     0.074 A 
ATOM     42  C   UNL A   1      41.271  28.861  31.566  1.00  0.00     0.049 A 
ATOM     43  N   UNL A   1      39.070  30.897  31.342  1.00  0.00    -0.248 NA
ATOM     44  C   UNL A   1      38.507  29.986  29.267  1.00  0.00     0.031 C 
ATOM     45  C   UNL A   1      42.388  27.925  31.705  1.00  0.00     0.029 A 
ATOM     46  N   UNL A   1      41.330  29.622  32.706  1.00  0.00    -0.354 N 
ATOM     47  C   UNL A   1      38.026  31.625  30.789  1.00  0.00     0.074 A 
ATOM     48  C   UNL A   1      37.765  31.061  29.482  1.00  0.00     0.031 C 
ATOM     49  C   UNL A   1      43.009  28.154  32.872  1.00  0.00     0.029 A 
ATOM     50  C   UNL A   1      42.360  29.275  33.545  1.00  0.00     0.049 A 
ATOM     51  H   UNL A   1      40.695  30.348  32.903  1.00  0.00     0.167 HD
ATOM     52  C   UNL A   1      37.334  32.658  31.328  1.00  0.00     0.037 A 
ATOM     53  C   UNL A   1      42.747  29.804  34.721  1.00  0.00     0.037 A 
ATOM     54  C   UNL A   1      37.592  33.207  32.634  1.00  0.00     0.049 A 
ATOM     55  C   UNL A   1      41.968  30.950  35.303  1.00  0.00     0.074 A 
ATOM     56  C   UNL A   1      36.900  34.201  33.305  1.00  0.00     0.029 A 
ATOM     57  N   UNL A   1      38.636  32.820  33.463  1.00  0.00    -0.354 N 
ATOM     58  N   UNL A   1      40.925  31.574  34.810  1.00  0.00    -0.248 NA
ATOM     59  C   UNL A   1      42.414  31.461  36.605  1.00  0.00     0.031 C 
ATOM     60  C   UNL A   1      37.561  34.457  34.511  1.00  0.00     0.029 A 
ATOM     61  C   UNL A   1      38.630  33.581  34.622  1.00  0.00     0.049 A 
ATOM     62  H   UNL A   1      39.286  32.109  33.258  1.00  0.00     0.167 HD
ATOM     63  C   UNL A   1      40.578  32.536  35.748  1.00  0.00     0.074 A 
ATOM     64  C   UNL A   1      41.513  32.402  36.848  1.00  0.00     0.031 C 
ATOM     65  C   UNL A   1      39.575  33.448  35.704  1.00  0.00     0.037 A 
BRANCH  52  66
ATOM     66  C   UNL A   1      36.243  33.267  30.493  1.00  0.00     0.057 A 
ATOM     67  C   UNL A   1      34.885  33.042  30.759  1.00  0.00     0.134 A 
ATOM     68  C   UNL A   1      36.556  34.095  29.406  1.00  0.00     0.134 A 
ATOM     69  F   UNL A   1      34.514  32.251  31.778  1.00  0.00    -0.206 F 
ATOM     70  C   UNL A   1      33.882  33.580  29.951  1.00  0.00     0.040 A 
ATOM     71  C   UNL A   1      35.560  34.666  28.611  1.00  0.00     0.040 A 
ATOM     72  F   UNL A   1      37.833  34.363  29.097  1.00  0.00    -0.206 F 
ATOM     73  C   UNL A   1      34.218  34.399  28.876  1.00  0.00     0.006 A 
ENDBRANCH  52  66
BRANCH  53  74
ATOM     74  C   UNL A   1      43.921  29.234  35.428  1.00  0.00     0.057 A 
ATOM     75  C   UNL A   1      45.213  29.708  35.184  1.00  0.00     0.134 A 
ATOM     76  C   UNL A   1      43.772  28.227  36.389  1.00  0.00     0.134 A 
ATOM     77  F   UNL A   1      45.421  30.661  34.262  1.00  0.00    -0.206 F 
ATOM     78  C   UNL A   1      46.319  29.200  35.868  1.00  0.00     0.040 A 
ATOM     79  C   UNL A   1      44.865  27.726  37.098  1.00  0.00     0.040 A 
ATOM     80  F   UNL A   1      42.557  27.737  36.676  1.00  0.00    -0.206 F 
ATOM     81  C   UNL A   1      46.145  28.211  36.835  1.00  0.00     0.006 A 
ENDBRANCH  53  74
BRANCH  65  82
ATOM     82  C   UNL A   1      39.424  34.363  36.886  1.00  0.00     0.057 A 
ATOM     83  C   UNL A   1      38.825  33.939  38.079  1.00  0.00     0.134 A 
ATOM     84  C   UNL A   1      39.919  35.672  36.843  1.00  0.00     0.134 A 
ATOM     85  F   UNL A   1      38.318  32.701  38.184  1.00  0.00    -0.206 F 
ATOM     86  C   UNL A   1      38.702  34.792  39.177  1.00  0.00     0.040 A 
ATOM     87  C   UNL A   1      39.830  36.525  37.943  1.00  0.00     0.040 A 
ATOM     88  F   UNL A   1      40.513  36.140  35.733  1.00  0.00    -0.206 F 
ATOM     89  C   UNL A   1      39.213  36.087  39.114  1.00  0.00     0.006 A 
ENDBRANCH  65  82
ENDBRANCH  39  40
ENDBRANCH  31  34
ENDBRANCH  29  30
ENDBRANCH  28  29
ENDBRANCH  27  28
ENDBRANCH   1  27
TORSDOF 18
ENDMDL
MODEL 3
REMARK VINA RESULT:     -10.4      2.021      6.420
REMARK SMILES CC(C)[NH2+][C@]1(C(=O)NCCCCCCNC(=O)c2ccc(-c3c4nc(c(-c5c(F)cccc5F)c5ccc([nH]5)c(-c5c(F)cccc5F)c5nc(c(-c6c(F)cccc6F)c6ccc3[nH]6)C=C5)C=C4)cc2)CC[C@@H]([N@@H+](C)[C@@H](C)C(C)C)C1
REMARK SMILES IDX 11 1 10 2 9 3 8 4 6 5 7 6 5 8 72 9 82 10 73 11 74 12 4 13
REMARK SMILES IDX 2 16 1 17 3 18 75 19 76 20 77 22 78 23 79 24 80 25 81 26
REMARK SMILES IDX 12 27 13 28 14 29 15 30 16 31 17 33 18 34 19 35 71 36 20 37
REMARK SMILES IDX 70 38 21 39 22 40 23 41 64 42 24 43 69 44 63 45 65 46 25 47
REMARK SMILES IDX 68 48 62 49 61 50 26 52 52 53 35 54 51 55 36 56 39 57 50 58
REMARK SMILES IDX 66 59 37 60 38 61 49 63 67 64 40 65 27 66 28 67 33 68 29 69
REMARK SMILES IDX 30 70 32 71 34 72 31 73 53 74 54 75 59 76 55 77 56 78 58 79
REMARK SMILES IDX 60 80 57 81 41 82 42 83 47 84 43 85 44 86 46 87 48 88 45 89
REMARK H PARENT 8 7 4 14 4 15 75 21 15 32 65 51 39 62
REMARK Flexibility Score: inf
ROOT
ATOM      1  C   UNL A   1      37.642  23.414  25.997  1.00  0.00     0.002 C 
ENDROOT
BRANCH   1   2
ATOM      2  C   UNL A   1      36.944  23.294  24.647  1.00  0.00     0.021 C 
BRANCH   2   3
ATOM      3  C   UNL A   1      35.573  22.616  24.658  1.00  0.00     0.116 C 
BRANCH   3   4
ATOM      4  N   UNL A   1      35.122  22.185  25.972  1.00  0.00    -0.351 N 
ATOM      5  C   UNL A   1      33.889  22.063  26.557  1.00  0.00     0.281 C 
ATOM      6  O   UNL A   1      33.901  21.569  27.692  1.00  0.00    -0.268 OA
ATOM      7  H   UNL A   1      35.861  21.927  26.569  1.00  0.00     0.163 HD
BRANCH   5   8
ATOM      8  C   UNL A   1      32.554  22.598  25.920  1.00  0.00     0.181 C 
ATOM      9  C   UNL A   1      31.625  23.241  26.963  1.00  0.00     0.085 C 
ATOM     10  C   UNL A   1      32.865  23.794  24.954  1.00  0.00     0.144 C 
ATOM     11  C   UNL A   1      30.982  24.467  26.346  1.00  0.00     0.072 C 
ATOM     12  C   UNL A   1      31.986  25.001  25.333  1.00  0.00     0.191 C 
BRANCH   8  13
ATOM     13  N   UNL A   1      31.858  21.576  25.070  1.00  0.00    -0.331 N 
ATOM     14  H   UNL A   1      31.504  20.852  25.696  1.00  0.00     0.347 HD
ATOM     15  H   UNL A   1      31.151  22.109  24.562  1.00  0.00     0.347 HD
BRANCH  13  16
ATOM     16  C   UNL A   1      32.629  20.906  24.022  1.00  0.00     0.176 C 
ATOM     17  C   UNL A   1      32.600  19.397  24.276  1.00  0.00     0.075 C 
ATOM     18  C   UNL A   1      32.091  21.160  22.606  1.00  0.00     0.075 C 
ENDBRANCH  13  16
ENDBRANCH   8  13
BRANCH  12  19
ATOM     19  N   UNL A   1      32.621  26.312  25.576  1.00  0.00    -0.332 N 
ATOM     20  C   UNL A   1      34.072  26.240  25.340  1.00  0.00     0.333 C 
ATOM     21  H   UNL A   1      32.357  26.418  26.557  1.00  0.00     0.348 HD
BRANCH  19  22
ATOM     22  C   UNL A   1      32.056  27.600  25.100  1.00  0.00     0.183 C 
ATOM     23  C   UNL A   1      30.839  27.461  24.174  1.00  0.00     0.075 C 
BRANCH  22  24
ATOM     24  C   UNL A   1      31.841  28.669  26.213  1.00  0.00     0.041 C 
ATOM     25  C   UNL A   1      31.646  28.015  27.591  1.00  0.00     0.013 C 
ATOM     26  C   UNL A   1      32.976  29.694  26.331  1.00  0.00     0.013 C 
ENDBRANCH  22  24
ENDBRANCH  19  22
ENDBRANCH  12  19
ENDBRANCH   5   8
ENDBRANCH   3   4
ENDBRANCH   2   3
ENDBRANCH   1   2
BRANCH   1  27
ATOM     27  C   UNL A   1      38.925  22.597  26.140  1.00  0.00     0.002 C 
BRANCH  27  28
ATOM     28  C   UNL A   1      38.906  21.224  25.464  1.00  0.00     0.021 C 
BRANCH  28  29
ATOM     29  C   UNL A   1      39.274  20.049  26.365  1.00  0.00     0.116 C 
BRANCH  29  30
ATOM     30  N   UNL A   1      40.454  19.345  25.900  1.00  0.00    -0.352 N 
ATOM     31  C   UNL A   1      41.751  19.789  25.810  1.00  0.00     0.251 C 
ATOM     32  H   UNL A   1      40.305  18.417  25.606  1.00  0.00     0.163 HD
ATOM     33  O   UNL A   1      42.592  19.127  25.216  1.00  0.00    -0.269 OA
BRANCH  31  34
ATOM     34  C   UNL A   1      42.120  21.085  26.415  1.00  0.00     0.039 A 
ATOM     35  C   UNL A   1      42.535  22.123  25.577  1.00  0.00     0.014 A 
ATOM     36  C   UNL A   1      42.059  21.277  27.798  1.00  0.00     0.014 A 
ATOM     37  C   UNL A   1      42.834  23.372  26.123  1.00  0.00     0.010 A 
ATOM     38  C   UNL A   1      42.283  22.543  28.332  1.00  0.00     0.010 A 
ATOM     39  C   UNL A   1      42.678  23.601  27.501  1.00  0.00    -0.014 A 
BRANCH  39  40
ATOM     40  C   UNL A   1      42.910  24.948  28.080  1.00  0.00     0.031 A 
ATOM     41  C   UNL A   1      44.272  25.340  28.577  1.00  0.00     0.074 A 
ATOM     42  C   UNL A   1      41.874  25.798  28.217  1.00  0.00     0.049 A 
ATOM     43  N   UNL A   1      44.656  26.455  29.148  1.00  0.00    -0.248 NA
ATOM     44  C   UNL A   1      45.338  24.336  28.443  1.00  0.00     0.031 C 
ATOM     45  C   UNL A   1      40.492  25.513  27.827  1.00  0.00     0.029 A 
ATOM     46  N   UNL A   1      41.820  27.068  28.732  1.00  0.00    -0.354 N 
ATOM     47  C   UNL A   1      45.999  26.279  29.452  1.00  0.00     0.074 A 
ATOM     48  C   UNL A   1      46.349  24.933  29.055  1.00  0.00     0.031 C 
ATOM     49  C   UNL A   1      39.730  26.583  28.099  1.00  0.00     0.029 A 
ATOM     50  C   UNL A   1      40.560  27.614  28.716  1.00  0.00     0.049 A 
ATOM     51  H   UNL A   1      42.609  27.542  29.081  1.00  0.00     0.167 HD
ATOM     52  C   UNL A   1      46.868  27.167  29.994  1.00  0.00     0.037 A 
ATOM     53  C   UNL A   1      40.118  28.807  29.155  1.00  0.00     0.037 A 
ATOM     54  C   UNL A   1      46.515  28.510  30.376  1.00  0.00     0.049 A 
ATOM     55  C   UNL A   1      41.096  29.778  29.755  1.00  0.00     0.074 A 
ATOM     56  C   UNL A   1      47.337  29.513  30.862  1.00  0.00     0.029 A 
ATOM     57  N   UNL A   1      45.231  29.034  30.331  1.00  0.00    -0.354 N 
ATOM     58  N   UNL A   1      42.384  29.634  29.956  1.00  0.00    -0.248 NA
ATOM     59  C   UNL A   1      40.562  31.078  30.182  1.00  0.00     0.031 C 
ATOM     60  C   UNL A   1      46.540  30.622  31.168  1.00  0.00     0.029 A 
ATOM     61  C   UNL A   1      45.231  30.333  30.816  1.00  0.00     0.049 A 
ATOM     62  H   UNL A   1      44.436  28.554  30.003  1.00  0.00     0.167 HD
ATOM     63  C   UNL A   1      42.818  30.829  30.514  1.00  0.00     0.074 A 
ATOM     64  C   UNL A   1      41.658  31.692  30.604  1.00  0.00     0.031 C 
ATOM     65  C   UNL A   1      44.066  31.179  30.914  1.00  0.00     0.037 A 
BRANCH  52  66
ATOM     66  C   UNL A   1      48.279  26.700  30.218  1.00  0.00     0.057 A 
ATOM     67  C   UNL A   1      48.665  26.027  31.386  1.00  0.00     0.134 A 
ATOM     68  C   UNL A   1      49.267  26.923  29.250  1.00  0.00     0.134 A 
ATOM     69  F   UNL A   1      47.772  25.788  32.360  1.00  0.00    -0.206 F 
ATOM     70  C   UNL A   1      49.987  25.634  31.602  1.00  0.00     0.040 A 
ATOM     71  C   UNL A   1      50.585  26.505  29.440  1.00  0.00     0.040 A 
ATOM     72  F   UNL A   1      48.968  27.553  28.103  1.00  0.00    -0.206 F 
ATOM     73  C   UNL A   1      50.951  25.869  30.624  1.00  0.00     0.006 A 
ENDBRANCH  52  66
BRANCH  53  74
ATOM     74  C   UNL A   1      38.680  29.147  29.021  1.00  0.00     0.057 A 
ATOM     75  C   UNL A   1      37.814  29.077  30.117  1.00  0.00     0.134 A 
ATOM     76  C   UNL A   1      38.147  29.586  27.803  1.00  0.00     0.134 A 
ATOM     77  F   UNL A   1      38.263  28.648  31.307  1.00  0.00    -0.206 F 
ATOM     78  C   UNL A   1      36.467  29.426  30.008  1.00  0.00     0.040 A 
ATOM     79  C   UNL A   1      36.807  29.962  27.684  1.00  0.00     0.040 A 
ATOM     80  F   UNL A   1      38.927  29.686  26.718  1.00  0.00    -0.206 F 
ATOM     81  C   UNL A   1      35.962  29.879  28.790  1.00  0.00     0.006 A 
ENDBRANCH  53  74
BRANCH  65  82
ATOM     82  C   UNL A   1      44.246  32.562  31.472  1.00  0.00     0.057 A 
ATOM     83  C   UNL A   1      44.523  33.662  30.650  1.00  0.00     0.134 A 
ATOM     84  C   UNL A   1      44.103  32.803  32.844  1.00  0.00     0.134 A 
ATOM     85  F   UNL A   1      44.686  33.500  29.327  1.00  0.00    -0.206 F 
ATOM     86  C   UNL A   1      44.675  34.947  31.175  1.00  0.00     0.040 A 
ATOM     87  C   UNL A   1      44.223  34.087  33.378  1.00  0.00     0.040 A 
ATOM     88  F   UNL A   1      43.828  31.796  33.687  1.00  0.00    -0.206 F 
ATOM     89  C   UNL A   1      44.517  35.163  32.543  1.00  0.00     0.006 A 
ENDBRANCH  65  82
ENDBRANCH  39  40
ENDBRANCH  31  34
ENDBRANCH  29  30
ENDBRANCH  28  29
ENDBRANCH  27  28
ENDBRANCH   1  27
TORSDOF 18
ENDMDL
