MODEL 1
REMARK VINA RESULT:     -10.2      0.000      0.000
REMARK SMILES CS(=O)(=O)CC[C@H](NC(=O)Cc1ccn[nH]1)C(=O)NCCCCCCNC(=O)c1ccc(-c2c3nc(c(-c4c(F)cccc4F)c4ccc([nH]4)c(-c4c(F)cccc4F)c4nc(c(-c5c(F)cccc5F)c5ccc2[nH]5)C=C4)C=C3)cc1
REMARK SMILES IDX 22 1 21 2 20 3 19 4 17 5 18 6 7 8 6 9 5 10 2 11 1 12 3 13
REMARK SMILES IDX 4 14 8 15 9 16 10 18 11 19 12 20 13 21 16 22 14 23 15 24
REMARK SMILES IDX 23 26 24 27 25 28 26 29 27 30 28 32 29 33 30 34 82 35 31 36
REMARK SMILES IDX 81 37 32 38 33 39 34 40 75 41 35 42 80 43 74 44 76 45 36 46
REMARK SMILES IDX 79 47 73 48 72 49 37 51 63 52 46 53 62 54 47 55 50 56 61 57
REMARK SMILES IDX 77 58 48 59 49 60 60 62 78 63 51 64 38 65 39 66 44 67 40 68
REMARK SMILES IDX 41 69 43 70 45 71 42 72 64 73 65 74 70 75 66 76 67 77 69 78
REMARK SMILES IDX 71 79 68 80 52 81 53 82 58 83 54 84 55 85 57 86 59 87 56 88
REMARK H PARENT 19 7 8 17 16 25 26 31 76 50 50 61
REMARK Flexibility Score: inf
ROOT
ATOM      1  C   UNL A   1      38.939  22.224  26.040  1.00  0.00     0.002 C 
ENDROOT
BRANCH   1   2
ATOM      2  C   UNL A   1      38.255  23.584  26.189  1.00  0.00     0.021 C 
BRANCH   2   3
ATOM      3  C   UNL A   1      36.844  23.629  25.615  1.00  0.00     0.116 C 
BRANCH   3   4
ATOM      4  N   UNL A   1      35.827  23.450  26.635  1.00  0.00    -0.354 N 
ATOM      5  C   UNL A   1      34.532  23.043  26.505  1.00  0.00     0.242 C 
ATOM      6  O   UNL A   1      33.879  22.834  27.530  1.00  0.00    -0.273 OA
ATOM      7  H   UNL A   1      36.115  23.651  27.554  1.00  0.00     0.163 HD
BRANCH   5   8
ATOM      8  C   UNL A   1      33.939  22.739  25.116  1.00  0.00     0.172 C 
BRANCH   8   9
ATOM      9  C   UNL A   1      33.600  24.070  24.418  1.00  0.00     0.051 C 
BRANCH   9  10
ATOM     10  C   UNL A   1      32.178  24.584  24.612  1.00  0.00     0.139 C 
BRANCH  10  11
ATOM     11  S   UNL A   1      31.971  25.771  25.940  1.00  0.00     0.147 S 
ATOM     12  C   UNL A   1      30.974  27.075  25.245  1.00  0.00     0.158 C 
ATOM     13  O   UNL A   1      33.276  26.326  26.225  1.00  0.00    -0.229 OA
ATOM     14  O   UNL A   1      31.191  25.142  26.996  1.00  0.00    -0.229 OA
ENDBRANCH  10  11
ENDBRANCH   9  10
ENDBRANCH   8   9
BRANCH   8  15
ATOM     15  N   UNL A   1      32.827  21.801  25.221  1.00  0.00    -0.344 N 
ATOM     16  C   UNL A   1      32.824  20.455  24.977  1.00  0.00     0.226 C 
ATOM     17  H   UNL A   1      31.967  22.186  25.504  1.00  0.00     0.164 HD
ATOM     18  O   UNL A   1      31.740  19.867  24.981  1.00  0.00    -0.275 OA
BRANCH  16  19
ATOM     19  C   UNL A   1      34.121  19.689  24.764  1.00  0.00     0.155 C 
BRANCH  19  20
ATOM     20  C   UNL A   1      33.925  18.219  24.830  1.00  0.00     0.044 A 
ATOM     21  C   UNL A   1      34.266  17.214  23.950  1.00  0.00     0.045 A 
ATOM     22  N   UNL A   1      33.346  17.593  25.902  1.00  0.00    -0.282 N 
ATOM     23  C   UNL A   1      33.778  16.038  24.542  1.00  0.00     0.135 A 
ATOM     24  N   UNL A   1      33.194  16.271  25.720  1.00  0.00    -0.184 NA
ATOM     25  H   UNL A   1      33.069  18.064  26.721  1.00  0.00     0.190 HD
ENDBRANCH  19  20
ENDBRANCH  16  19
ENDBRANCH   8  15
ENDBRANCH   5   8
ENDBRANCH   3   4
ENDBRANCH   2   3
ENDBRANCH   1   2
BRANCH   1  26
ATOM     26  C   UNL A   1      38.154  21.198  25.218  1.00  0.00     0.002 C 
BRANCH  26  27
ATOM     27  C   UNL A   1      38.771  19.797  25.170  1.00  0.00     0.021 C 
BRANCH  27  28
ATOM     28  C   UNL A   1      39.706  19.479  26.331  1.00  0.00     0.116 C 
BRANCH  28  29
ATOM     29  N   UNL A   1      40.996  19.002  25.864  1.00  0.00    -0.352 N 
ATOM     30  C   UNL A   1      42.175  19.680  25.709  1.00  0.00     0.251 C 
ATOM     31  H   UNL A   1      41.027  18.048  25.621  1.00  0.00     0.163 HD
ATOM     32  O   UNL A   1      43.096  19.169  25.077  1.00  0.00    -0.269 OA
BRANCH  30  33
ATOM     33  C   UNL A   1      42.339  21.029  26.290  1.00  0.00     0.039 A 
ATOM     34  C   UNL A   1      42.229  21.177  27.673  1.00  0.00     0.014 A 
ATOM     35  C   UNL A   1      42.568  22.148  25.481  1.00  0.00     0.014 A 
ATOM     36  C   UNL A   1      42.392  22.437  28.248  1.00  0.00     0.010 A 
ATOM     37  C   UNL A   1      42.811  23.389  26.063  1.00  0.00     0.010 A 
ATOM     38  C   UNL A   1      42.715  23.549  27.452  1.00  0.00    -0.014 A 
BRANCH  38  39
ATOM     39  C   UNL A   1      42.970  24.869  28.079  1.00  0.00     0.031 A 
ATOM     40  C   UNL A   1      44.355  25.266  28.508  1.00  0.00     0.074 A 
ATOM     41  C   UNL A   1      41.935  25.706  28.282  1.00  0.00     0.049 A 
ATOM     42  N   UNL A   1      44.765  26.396  29.027  1.00  0.00    -0.248 NA
ATOM     43  C   UNL A   1      45.415  24.257  28.357  1.00  0.00     0.031 C 
ATOM     44  C   UNL A   1      40.535  25.408  27.972  1.00  0.00     0.029 A 
ATOM     45  N   UNL A   1      41.898  26.981  28.789  1.00  0.00    -0.354 N 
ATOM     46  C   UNL A   1      46.123  26.233  29.267  1.00  0.00     0.074 A 
ATOM     47  C   UNL A   1      46.457  24.877  28.893  1.00  0.00     0.031 C 
ATOM     48  C   UNL A   1      39.782  26.481  28.257  1.00  0.00     0.029 A 
ATOM     49  C   UNL A   1      40.639  27.531  28.800  1.00  0.00     0.049 A 
ATOM     50  H   UNL A   1      42.697  27.455  29.114  1.00  0.00     0.167 HD
ATOM     51  C   UNL A   1      47.015  27.140  29.733  1.00  0.00     0.037 A 
ATOM     52  C   UNL A   1      40.221  28.746  29.200  1.00  0.00     0.037 A 
ATOM     53  C   UNL A   1      46.679  28.494  30.094  1.00  0.00     0.049 A 
ATOM     54  C   UNL A   1      41.232  29.736  29.707  1.00  0.00     0.074 A 
ATOM     55  C   UNL A   1      47.520  29.510  30.512  1.00  0.00     0.029 A 
ATOM     56  N   UNL A   1      45.394  29.016  30.091  1.00  0.00    -0.354 N 
ATOM     57  N   UNL A   1      42.529  29.600  29.838  1.00  0.00    -0.248 NA
ATOM     58  C   UNL A   1      40.721  31.052  30.108  1.00  0.00     0.031 C 
ATOM     59  C   UNL A   1      46.738  30.629  30.817  1.00  0.00     0.029 A 
ATOM     60  C   UNL A   1      45.415  30.330  30.531  1.00  0.00     0.049 A 
ATOM     61  H   UNL A   1      44.584  28.526  29.818  1.00  0.00     0.167 HD
ATOM     62  C   UNL A   1      42.992  30.816  30.321  1.00  0.00     0.074 A 
ATOM     63  C   UNL A   1      41.839  31.687  30.429  1.00  0.00     0.031 C 
ATOM     64  C   UNL A   1      44.257  31.181  30.649  1.00  0.00     0.037 A 
BRANCH  51  65
ATOM     65  C   UNL A   1      48.444  26.696  29.882  1.00  0.00     0.057 A 
ATOM     66  C   UNL A   1      48.907  26.071  31.047  1.00  0.00     0.134 A 
ATOM     67  C   UNL A   1      49.359  26.864  28.835  1.00  0.00     0.134 A 
ATOM     68  F   UNL A   1      48.088  25.889  32.095  1.00  0.00    -0.206 F 
ATOM     69  C   UNL A   1      50.234  25.655  31.177  1.00  0.00     0.040 A 
ATOM     70  C   UNL A   1      50.679  26.424  28.941  1.00  0.00     0.040 A 
ATOM     71  F   UNL A   1      48.982  27.447  27.687  1.00  0.00    -0.206 F 
ATOM     72  C   UNL A   1      51.123  25.825  30.117  1.00  0.00     0.006 A 
ENDBRANCH  51  65
BRANCH  52  73
ATOM     73  C   UNL A   1      38.782  29.100  29.113  1.00  0.00     0.057 A 
ATOM     74  C   UNL A   1      38.212  29.528  27.908  1.00  0.00     0.134 A 
ATOM     75  C   UNL A   1      37.942  29.019  30.231  1.00  0.00     0.134 A 
ATOM     76  F   UNL A   1      38.968  29.643  26.807  1.00  0.00    -0.206 F 
ATOM     77  C   UNL A   1      36.865  29.882  27.823  1.00  0.00     0.040 A 
ATOM     78  C   UNL A   1      36.588  29.342  30.152  1.00  0.00     0.040 A 
ATOM     79  F   UNL A   1      38.425  28.605  31.411  1.00  0.00    -0.206 F 
ATOM     80  C   UNL A   1      36.047  29.784  28.947  1.00  0.00     0.006 A 
ENDBRANCH  52  73
BRANCH  64  81
ATOM     81  C   UNL A   1      44.453  32.587  31.141  1.00  0.00     0.057 A 
ATOM     82  C   UNL A   1      44.700  33.651  30.263  1.00  0.00     0.134 A 
ATOM     83  C   UNL A   1      44.386  32.882  32.509  1.00  0.00     0.134 A 
ATOM     84  F   UNL A   1      44.789  33.435  28.941  1.00  0.00    -0.206 F 
ATOM     85  C   UNL A   1      44.913  34.949  30.730  1.00  0.00     0.040 A 
ATOM     86  C   UNL A   1      44.564  34.182  32.985  1.00  0.00     0.040 A 
ATOM     87  F   UNL A   1      44.142  31.915  33.404  1.00  0.00    -0.206 F 
ATOM     88  C   UNL A   1      44.839  35.218  32.095  1.00  0.00     0.006 A 
ENDBRANCH  64  81
ENDBRANCH  38  39
ENDBRANCH  30  33
ENDBRANCH  28  29
ENDBRANCH  27  28
ENDBRANCH  26  27
ENDBRANCH   1  26
TORSDOF 19
ENDMDL
MODEL 2
REMARK VINA RESULT:     -10.1      4.702      9.202
REMARK SMILES CS(=O)(=O)CC[C@H](NC(=O)Cc1ccn[nH]1)C(=O)NCCCCCCNC(=O)c1ccc(-c2c3nc(c(-c4c(F)cccc4F)c4ccc([nH]4)c(-c4c(F)cccc4F)c4nc(c(-c5c(F)cccc5F)c5ccc2[nH]5)C=C4)C=C3)cc1
REMARK SMILES IDX 22 1 21 2 20 3 19 4 17 5 18 6 7 8 6 9 5 10 2 11 1 12 3 13
REMARK SMILES IDX 4 14 8 15 9 16 10 18 11 19 12 20 13 21 16 22 14 23 15 24
REMARK SMILES IDX 23 26 24 27 25 28 26 29 27 30 28 32 29 33 30 34 82 35 31 36
REMARK SMILES IDX 81 37 32 38 33 39 34 40 75 41 35 42 80 43 74 44 76 45 36 46
REMARK SMILES IDX 79 47 73 48 72 49 37 51 63 52 46 53 62 54 47 55 50 56 61 57
REMARK SMILES IDX 77 58 48 59 49 60 60 62 78 63 51 64 38 65 39 66 44 67 40 68
REMARK SMILES IDX 41 69 43 70 45 71 42 72 64 73 65 74 70 75 66 76 67 77 69 78
REMARK SMILES IDX 71 79 68 80 52 81 53 82 58 83 54 84 55 85 57 86 59 87 56 88
REMARK H PARENT 19 7 8 17 16 25 26 31 76 50 50 61
REMARK Flexibility Score: inf
ROOT
ATOM      1  C   UNL A   1      32.332  29.958  26.697  1.00  0.00     0.002 C 
ENDROOT
BRANCH   1   2
ATOM      2  C   UNL A   1      31.779  28.556  26.956  1.00  0.00     0.021 C 
BRANCH   2   3
ATOM      3  C   UNL A   1      32.072  27.563  25.837  1.00  0.00     0.116 C 
BRANCH   3   4
ATOM      4  N   UNL A   1      30.862  27.048  25.224  1.00  0.00    -0.354 N 
ATOM      5  C   UNL A   1      30.449  27.121  23.926  1.00  0.00     0.242 C 
ATOM      6  O   UNL A   1      29.439  26.495  23.598  1.00  0.00    -0.273 OA
ATOM      7  H   UNL A   1      30.250  26.578  25.835  1.00  0.00     0.163 HD
BRANCH   5   8
ATOM      8  C   UNL A   1      31.291  27.869  22.875  1.00  0.00     0.172 C 
BRANCH   8   9
ATOM      9  C   UNL A   1      30.477  29.066  22.347  1.00  0.00     0.051 C 
BRANCH   9  10
ATOM     10  C   UNL A   1      29.530  29.723  23.345  1.00  0.00     0.139 C 
BRANCH  10  11
ATOM     11  S   UNL A   1      27.877  30.044  22.729  1.00  0.00     0.147 S 
ATOM     12  C   UNL A   1      26.907  28.644  23.254  1.00  0.00     0.158 C 
ATOM     13  O   UNL A   1      27.944  30.008  21.284  1.00  0.00    -0.229 OA
ATOM     14  O   UNL A   1      27.355  31.217  23.413  1.00  0.00    -0.229 OA
ENDBRANCH  10  11
ENDBRANCH   9  10
ENDBRANCH   8   9
BRANCH   8  15
ATOM     15  N   UNL A   1      31.771  26.951  21.847  1.00  0.00    -0.344 N 
ATOM     16  C   UNL A   1      32.962  26.281  21.794  1.00  0.00     0.226 C 
ATOM     17  H   UNL A   1      31.157  26.794  21.093  1.00  0.00     0.164 HD
ATOM     18  O   UNL A   1      33.235  25.666  20.760  1.00  0.00    -0.275 OA
BRANCH  16  19
ATOM     19  C   UNL A   1      33.899  26.242  22.992  1.00  0.00     0.155 C 
BRANCH  19  20
ATOM     20  C   UNL A   1      34.011  24.882  23.575  1.00  0.00     0.044 A 
ATOM     21  C   UNL A   1      34.482  24.451  24.797  1.00  0.00     0.045 A 
ATOM     22  N   UNL A   1      33.589  23.754  22.922  1.00  0.00    -0.282 N 
ATOM     23  C   UNL A   1      34.378  23.052  24.748  1.00  0.00     0.135 A 
ATOM     24  N   UNL A   1      33.858  22.624  23.596  1.00  0.00    -0.184 NA
ATOM     25  H   UNL A   1      33.136  23.771  22.048  1.00  0.00     0.190 HD
ENDBRANCH  19  20
ENDBRANCH  16  19
ENDBRANCH   8  15
ENDBRANCH   5   8
ENDBRANCH   3   4
ENDBRANCH   2   3
ENDBRANCH   1   2
BRANCH   1  26
ATOM     26  C   UNL A   1      31.360  30.912  25.997  1.00  0.00     0.002 C 
BRANCH  26  27
ATOM     27  C   UNL A   1      31.346  32.341  26.548  1.00  0.00     0.021 C 
BRANCH  27  28
ATOM     28  C   UNL A   1      32.603  32.736  27.312  1.00  0.00     0.116 C 
BRANCH  28  29
ATOM     29  N   UNL A   1      32.604  34.149  27.648  1.00  0.00    -0.352 N 
ATOM     30  C   UNL A   1      33.320  34.821  28.602  1.00  0.00     0.251 C 
ATOM     31  H   UNL A   1      31.998  34.708  27.109  1.00  0.00     0.163 HD
ATOM     32  O   UNL A   1      33.013  35.972  28.899  1.00  0.00    -0.269 OA
BRANCH  30  33
ATOM     33  C   UNL A   1      34.453  34.161  29.284  1.00  0.00     0.039 A 
ATOM     34  C   UNL A   1      34.175  33.218  30.274  1.00  0.00     0.014 A 
ATOM     35  C   UNL A   1      35.778  34.488  28.978  1.00  0.00     0.014 A 
ATOM     36  C   UNL A   1      35.226  32.571  30.926  1.00  0.00     0.010 A 
ATOM     37  C   UNL A   1      36.823  33.784  29.570  1.00  0.00     0.010 A 
ATOM     38  C   UNL A   1      36.558  32.825  30.558  1.00  0.00    -0.014 A 
BRANCH  38  39
ATOM     39  C   UNL A   1      37.666  32.072  31.195  1.00  0.00     0.031 A 
ATOM     40  C   UNL A   1      38.372  30.967  30.461  1.00  0.00     0.074 A 
ATOM     41  C   UNL A   1      38.021  32.377  32.458  1.00  0.00     0.049 A 
ATOM     42  N   UNL A   1      39.389  30.239  30.847  1.00  0.00    -0.248 NA
ATOM     43  C   UNL A   1      37.857  30.615  29.128  1.00  0.00     0.031 C 
ATOM     44  C   UNL A   1      37.366  33.381  33.299  1.00  0.00     0.029 A 
ATOM     45  N   UNL A   1      39.022  31.880  33.253  1.00  0.00    -0.354 N 
ATOM     46  C   UNL A   1      39.632  29.345  29.812  1.00  0.00     0.074 A 
ATOM     47  C   UNL A   1      38.620  29.582  28.806  1.00  0.00     0.031 C 
ATOM     48  C   UNL A   1      38.007  33.455  34.476  1.00  0.00     0.029 A 
ATOM     49  C   UNL A   1      39.094  32.482  34.486  1.00  0.00     0.049 A 
ATOM     50  H   UNL A   1      39.631  31.160  32.968  1.00  0.00     0.167 HD
ATOM     51  C   UNL A   1      40.624  28.430  29.699  1.00  0.00     0.037 A 
ATOM     52  C   UNL A   1      39.944  32.276  35.509  1.00  0.00     0.037 A 
ATOM     53  C   UNL A   1      41.636  28.205  30.700  1.00  0.00     0.049 A 
ATOM     54  C   UNL A   1      41.039  31.259  35.356  1.00  0.00     0.074 A 
ATOM     55  C   UNL A   1      42.722  27.349  30.653  1.00  0.00     0.029 A 
ATOM     56  N   UNL A   1      41.678  28.835  31.935  1.00  0.00    -0.354 N 
ATOM     57  N   UNL A   1      41.315  30.488  34.332  1.00  0.00    -0.248 NA
ATOM     58  C   UNL A   1      41.948  31.093  36.497  1.00  0.00     0.031 C 
ATOM     59  C   UNL A   1      43.388  27.419  31.880  1.00  0.00     0.029 A 
ATOM     60  C   UNL A   1      42.753  28.363  32.671  1.00  0.00     0.049 A 
ATOM     61  H   UNL A   1      41.039  29.517  32.245  1.00  0.00     0.167 HD
ATOM     62  C   UNL A   1      42.438  29.758  34.697  1.00  0.00     0.074 A 
ATOM     63  C   UNL A   1      42.809  30.202  36.026  1.00  0.00     0.031 C 
ATOM     64  C   UNL A   1      43.102  28.803  34.000  1.00  0.00     0.037 A 
BRANCH  51  65
ATOM     65  C   UNL A   1      40.660  27.596  28.448  1.00  0.00     0.057 A 
ATOM     66  C   UNL A   1      39.952  26.391  28.340  1.00  0.00     0.134 A 
ATOM     67  C   UNL A   1      41.385  28.019  27.327  1.00  0.00     0.134 A 
ATOM     68  F   UNL A   1      39.247  25.920  29.380  1.00  0.00    -0.206 F 
ATOM     69  C   UNL A   1      39.986  25.625  27.173  1.00  0.00     0.040 A 
ATOM     70  C   UNL A   1      41.400  27.277  26.144  1.00  0.00     0.040 A 
ATOM     71  F   UNL A   1      42.079  29.166  27.357  1.00  0.00    -0.206 F 
ATOM     72  C   UNL A   1      40.706  26.072  26.067  1.00  0.00     0.006 A 
ENDBRANCH  51  65
BRANCH  52  73
ATOM     73  C   UNL A   1      39.805  33.068  36.757  1.00  0.00     0.057 A 
ATOM     74  C   UNL A   1      38.888  32.702  37.751  1.00  0.00     0.134 A 
ATOM     75  C   UNL A   1      40.584  34.208  36.988  1.00  0.00     0.134 A 
ATOM     76  F   UNL A   1      38.102  31.629  37.582  1.00  0.00    -0.206 F 
ATOM     77  C   UNL A   1      38.738  33.452  38.918  1.00  0.00     0.040 A 
ATOM     78  C   UNL A   1      40.464  34.951  38.162  1.00  0.00     0.040 A 
ATOM     79  F   UNL A   1      41.488  34.605  36.080  1.00  0.00    -0.206 F 
ATOM     80  C   UNL A   1      39.531  34.578  39.128  1.00  0.00     0.006 A 
ENDBRANCH  52  73
BRANCH  64  81
ATOM     81  C   UNL A   1      44.304  28.190  34.660  1.00  0.00     0.057 A 
ATOM     82  C   UNL A   1      45.583  28.750  34.536  1.00  0.00     0.134 A 
ATOM     83  C   UNL A   1      44.181  27.030  35.436  1.00  0.00     0.134 A 
ATOM     84  F   UNL A   1      45.773  29.854  33.797  1.00  0.00    -0.206 F 
ATOM     85  C   UNL A   1      46.700  28.157  35.127  1.00  0.00     0.040 A 
ATOM     86  C   UNL A   1      45.286  26.447  36.059  1.00  0.00     0.040 A 
ATOM     87  F   UNL A   1      42.985  26.448  35.607  1.00  0.00    -0.206 F 
ATOM     88  C   UNL A   1      46.551  27.005  35.895  1.00  0.00     0.006 A 
ENDBRANCH  64  81
ENDBRANCH  38  39
ENDBRANCH  30  33
ENDBRANCH  28  29
ENDBRANCH  27  28
ENDBRANCH  26  27
ENDBRANCH   1  26
TORSDOF 19
ENDMDL
MODEL 3
REMARK VINA RESULT:      -9.9      1.475      6.443
REMARK SMILES CS(=O)(=O)CC[C@H](NC(=O)Cc1ccn[nH]1)C(=O)NCCCCCCNC(=O)c1ccc(-c2c3nc(c(-c4c(F)cccc4F)c4ccc([nH]4)c(-c4c(F)cccc4F)c4nc(c(-c5c(F)cccc5F)c5ccc2[nH]5)C=C4)C=C3)cc1
REMARK SMILES IDX 22 1 21 2 20 3 19 4 17 5 18 6 7 8 6 9 5 10 2 11 1 12 3 13
REMARK SMILES IDX 4 14 8 15 9 16 10 18 11 19 12 20 13 21 16 22 14 23 15 24
REMARK SMILES IDX 23 26 24 27 25 28 26 29 27 30 28 32 29 33 30 34 82 35 31 36
REMARK SMILES IDX 81 37 32 38 33 39 34 40 75 41 35 42 80 43 74 44 76 45 36 46
REMARK SMILES IDX 79 47 73 48 72 49 37 51 63 52 46 53 62 54 47 55 50 56 61 57
REMARK SMILES IDX 77 58 48 59 49 60 60 62 78 63 51 64 38 65 39 66 44 67 40 68
REMARK SMILES IDX 41 69 43 70 45 71 42 72 64 73 65 74 70 75 66 76 67 77 69 78
REMARK SMILES IDX 71 79 68 80 52 81 53 82 58 83 54 84 55 85 57 86 59 87 56 88
REMARK H PARENT 19 7 8 17 16 25 26 31 76 50 50 61
REMARK Flexibility Score: inf
ROOT
ATOM      1  C   UNL A   1      36.048  22.116  24.283  1.00  0.00     0.002 C 
ENDROOT
BRANCH   1   2
ATOM      2  C   UNL A   1      35.568  23.176  25.276  1.00  0.00     0.021 C 
BRANCH   2   3
ATOM      3  C   UNL A   1      34.501  24.108  24.713  1.00  0.00     0.116 C 
BRANCH   3   4
ATOM      4  N   UNL A   1      34.491  25.400  25.374  1.00  0.00    -0.354 N 
ATOM      5  C   UNL A   1      33.434  26.150  25.795  1.00  0.00     0.242 C 
ATOM      6  O   UNL A   1      33.662  27.165  26.456  1.00  0.00    -0.273 OA
ATOM      7  H   UNL A   1      35.378  25.791  25.543  1.00  0.00     0.163 HD
BRANCH   5   8
ATOM      8  C   UNL A   1      31.988  25.676  25.552  1.00  0.00     0.172 C 
BRANCH   8   9
ATOM      9  C   UNL A   1      31.101  26.906  25.278  1.00  0.00     0.051 C 
BRANCH   9  10
ATOM     10  C   UNL A   1      30.021  26.728  24.216  1.00  0.00     0.139 C 
BRANCH  10  11
ATOM     11  S   UNL A   1      29.784  28.134  23.128  1.00  0.00     0.147 S 
ATOM     12  C   UNL A   1      30.608  29.490  23.938  1.00  0.00     0.158 C 
ATOM     13  O   UNL A   1      28.367  28.431  23.115  1.00  0.00    -0.229 OA
ATOM     14  O   UNL A   1      30.493  27.872  21.885  1.00  0.00    -0.229 OA
ENDBRANCH  10  11
ENDBRANCH   9  10
ENDBRANCH   8   9
BRANCH   8  15
ATOM     15  N   UNL A   1      31.532  24.821  26.643  1.00  0.00    -0.344 N 
ATOM     16  C   UNL A   1      30.995  23.565  26.572  1.00  0.00     0.226 C 
ATOM     17  H   UNL A   1      31.623  25.198  27.549  1.00  0.00     0.164 HD
ATOM     18  O   UNL A   1      30.535  23.072  27.605  1.00  0.00    -0.275 OA
BRANCH  16  19
ATOM     19  C   UNL A   1      31.014  22.771  25.275  1.00  0.00     0.155 C 
BRANCH  19  20
ATOM     20  C   UNL A   1      31.881  21.570  25.362  1.00  0.00     0.044 A 
ATOM     21  C   UNL A   1      32.159  20.579  24.444  1.00  0.00     0.045 A 
ATOM     22  N   UNL A   1      32.627  21.269  26.470  1.00  0.00    -0.282 N 
ATOM     23  C   UNL A   1      33.010  19.692  25.122  1.00  0.00     0.135 A 
ATOM     24  N   UNL A   1      33.275  20.097  26.366  1.00  0.00    -0.184 NA
ATOM     25  H   UNL A   1      32.681  21.851  27.262  1.00  0.00     0.190 HD
ENDBRANCH  19  20
ENDBRANCH  16  19
ENDBRANCH   8  15
ENDBRANCH   5   8
ENDBRANCH   3   4
ENDBRANCH   2   3
ENDBRANCH   1   2
BRANCH   1  26
ATOM     26  C   UNL A   1      36.317  20.739  24.895  1.00  0.00     0.002 C 
BRANCH  26  27
ATOM     27  C   UNL A   1      37.733  20.198  24.675  1.00  0.00     0.021 C 
BRANCH  27  28
ATOM     28  C   UNL A   1      38.672  20.386  25.860  1.00  0.00     0.116 C 
BRANCH  28  29
ATOM     29  N   UNL A   1      39.802  19.475  25.797  1.00  0.00    -0.352 N 
ATOM     30  C   UNL A   1      41.136  19.722  25.986  1.00  0.00     0.251 C 
ATOM     31  H   UNL A   1      39.576  18.541  25.587  1.00  0.00     0.163 HD
ATOM     32  O   UNL A   1      41.966  18.879  25.658  1.00  0.00    -0.269 OA
BRANCH  30  33
ATOM     33  C   UNL A   1      41.579  21.005  26.572  1.00  0.00     0.039 A 
ATOM     34  C   UNL A   1      41.986  22.024  25.710  1.00  0.00     0.014 A 
ATOM     35  C   UNL A   1      41.626  21.196  27.957  1.00  0.00     0.014 A 
ATOM     36  C   UNL A   1      42.399  23.249  26.236  1.00  0.00     0.010 A 
ATOM     37  C   UNL A   1      41.959  22.444  28.476  1.00  0.00     0.010 A 
ATOM     38  C   UNL A   1      42.359  23.480  27.621  1.00  0.00    -0.014 A 
BRANCH  38  39
ATOM     39  C   UNL A   1      42.718  24.813  28.167  1.00  0.00     0.031 A 
ATOM     40  C   UNL A   1      41.667  25.864  28.391  1.00  0.00     0.074 A 
ATOM     41  C   UNL A   1      44.009  25.080  28.442  1.00  0.00     0.049 A 
ATOM     42  N   UNL A   1      41.796  27.062  28.903  1.00  0.00    -0.248 NA
ATOM     43  C   UNL A   1      40.297  25.541  27.964  1.00  0.00     0.031 C 
ATOM     44  C   UNL A   1      45.129  24.166  28.202  1.00  0.00     0.029 A 
ATOM     45  N   UNL A   1      44.598  26.192  28.987  1.00  0.00    -0.354 N 
ATOM     46  C   UNL A   1      40.531  27.633  28.857  1.00  0.00     0.074 A 
ATOM     47  C   UNL A   1      39.660  26.675  28.213  1.00  0.00     0.031 C 
ATOM     48  C   UNL A   1      46.262  24.737  28.636  1.00  0.00     0.029 A 
ATOM     49  C   UNL A   1      45.957  26.068  29.152  1.00  0.00     0.049 A 
ATOM     50  H   UNL A   1      44.096  27.001  29.237  1.00  0.00     0.167 HD
ATOM     51  C   UNL A   1      40.128  28.837  29.331  1.00  0.00     0.037 A 
ATOM     52  C   UNL A   1      46.856  26.929  29.664  1.00  0.00     0.037 A 
ATOM     53  C   UNL A   1      40.998  29.783  29.981  1.00  0.00     0.049 A 
ATOM     54  C   UNL A   1      46.381  28.255  30.189  1.00  0.00     0.074 A 
ATOM     55  C   UNL A   1      40.674  30.999  30.557  1.00  0.00     0.029 A 
ATOM     56  N   UNL A   1      42.368  29.623  30.132  1.00  0.00    -0.354 N 
ATOM     57  N   UNL A   1      45.165  28.742  30.226  1.00  0.00    -0.248 NA
ATOM     58  C   UNL A   1      47.403  29.143  30.755  1.00  0.00     0.031 C 
ATOM     59  C   UNL A   1      41.855  31.601  31.003  1.00  0.00     0.029 A 
ATOM     60  C   UNL A   1      42.908  30.733  30.762  1.00  0.00     0.049 A 
ATOM     61  H   UNL A   1      42.881  28.837  29.834  1.00  0.00     0.167 HD
ATOM     62  C   UNL A   1      45.272  29.986  30.833  1.00  0.00     0.074 A 
ATOM     63  C   UNL A   1      46.669  30.163  31.175  1.00  0.00     0.031 C 
ATOM     64  C   UNL A   1      44.304  30.903  31.083  1.00  0.00     0.037 A 
BRANCH  51  65
ATOM     65  C   UNL A   1      38.679  29.200  29.160  1.00  0.00     0.057 A 
ATOM     66  C   UNL A   1      37.768  29.133  30.223  1.00  0.00     0.134 A 
ATOM     67  C   UNL A   1      38.195  29.656  27.927  1.00  0.00     0.134 A 
ATOM     68  F   UNL A   1      38.160  28.694  31.430  1.00  0.00    -0.206 F 
ATOM     69  C   UNL A   1      36.424  29.478  30.059  1.00  0.00     0.040 A 
ATOM     70  C   UNL A   1      36.862  30.034  27.759  1.00  0.00     0.040 A 
ATOM     71  F   UNL A   1      39.013  29.753  26.869  1.00  0.00    -0.206 F 
ATOM     72  C   UNL A   1      35.970  29.937  28.825  1.00  0.00     0.006 A 
ENDBRANCH  51  65
BRANCH  52  73
ATOM     73  C   UNL A   1      48.290  26.552  29.726  1.00  0.00     0.057 A 
ATOM     74  C   UNL A   1      49.177  26.900  28.700  1.00  0.00     0.134 A 
ATOM     75  C   UNL A   1      48.809  25.834  30.811  1.00  0.00     0.134 A 
ATOM     76  F   UNL A   1      48.738  27.573  27.627  1.00  0.00    -0.206 F 
ATOM     77  C   UNL A   1      50.523  26.532  28.742  1.00  0.00     0.040 A 
ATOM     78  C   UNL A   1      50.157  25.484  30.878  1.00  0.00     0.040 A 
ATOM     79  F   UNL A   1      48.013  25.479  31.830  1.00  0.00    -0.206 F 
ATOM     80  C   UNL A   1      51.017  25.826  29.837  1.00  0.00     0.006 A 
ENDBRANCH  52  73
BRANCH  64  81
ATOM     81  C   UNL A   1      44.727  32.168  31.772  1.00  0.00     0.057 A 
ATOM     82  C   UNL A   1      45.134  33.302  31.054  1.00  0.00     0.134 A 
ATOM     83  C   UNL A   1      44.720  32.259  33.170  1.00  0.00     0.134 A 
ATOM     84  F   UNL A   1      45.176  33.278  29.714  1.00  0.00    -0.206 F 
ATOM     85  C   UNL A   1      45.556  34.464  31.703  1.00  0.00     0.040 A 
ATOM     86  C   UNL A   1      45.108  33.427  33.828  1.00  0.00     0.040 A 
ATOM     87  F   UNL A   1      44.331  31.216  33.918  1.00  0.00    -0.206 F 
ATOM     88  C   UNL A   1      45.538  34.529  33.094  1.00  0.00     0.006 A 
ENDBRANCH  64  81
ENDBRANCH  38  39
ENDBRANCH  30  33
ENDBRANCH  28  29
ENDBRANCH  27  28
ENDBRANCH  26  27
ENDBRANCH   1  26
TORSDOF 19
ENDMDL
