MODEL 1
REMARK VINA RESULT:     -11.0      0.000      0.000
REMARK SMILES O=C(NCCCCCCNC(=O)[C@H]1C[C@H]2CCCC[C@@H]2[N@@H+]1CC[C@@H]1CCCO1)c1ccc(-c2c3nc(c(-c4c(F)cccc4F)c4ccc([nH]4)c(-c4c(F)cccc4F)c4nc(c(-c5c(F)cccc5F)c5ccc2[nH]5)C=C4)C=C3)cc1
REMARK SMILES IDX 7 1 6 2 5 3 4 4 3 5 1 6 2 7 29 9 30 10 82 11 31 12 81 13
REMARK SMILES IDX 32 14 33 15 34 16 75 17 35 18 80 19 74 20 76 21 36 22 79 23
REMARK SMILES IDX 73 24 72 25 37 27 63 28 46 29 62 30 47 31 50 32 61 33 77 34
REMARK SMILES IDX 48 35 49 36 60 38 78 39 51 40 38 41 39 42 44 43 40 44 41 45
REMARK SMILES IDX 43 46 45 47 42 48 64 49 65 50 70 51 66 52 67 53 69 54 71 55
REMARK SMILES IDX 68 56 52 57 53 58 58 59 54 60 55 61 57 62 59 63 56 64 8 65
REMARK SMILES IDX 9 66 10 67 11 68 12 70 13 71 14 72 21 73 15 74 20 75 16 77
REMARK SMILES IDX 19 78 17 79 18 80 22 81 23 82 24 83 25 84 28 85 26 86 27 87
REMARK H PARENT 3 8 76 26 50 37 10 69 21 76
REMARK Flexibility Score: inf
ROOT
ATOM      1  C   UNL A   1      36.673  21.870  25.196  1.00  0.00     0.002 C 
ENDROOT
BRANCH   1   2
ATOM      2  C   UNL A   1      36.499  20.364  24.976  1.00  0.00     0.002 C 
BRANCH   2   3
ATOM      3  C   UNL A   1      37.800  19.574  24.861  1.00  0.00     0.021 C 
BRANCH   3   4
ATOM      4  C   UNL A   1      38.938  20.097  25.725  1.00  0.00     0.116 C 
BRANCH   4   5
ATOM      5  N   UNL A   1      40.074  19.192  25.758  1.00  0.00    -0.352 N 
ATOM      6  O   UNL A   1      42.257  18.628  25.892  1.00  0.00    -0.269 OA
ATOM      7  C   UNL A   1      41.387  19.465  26.068  1.00  0.00     0.251 C 
ATOM      8  H   UNL A   1      39.878  18.256  25.528  1.00  0.00     0.163 HD
BRANCH   7   9
ATOM      9  C   UNL A   1      41.738  20.802  26.598  1.00  0.00     0.039 A 
ATOM     10  C   UNL A   1      41.776  21.030  27.975  1.00  0.00     0.014 A 
ATOM     11  C   UNL A   1      42.030  21.834  25.702  1.00  0.00     0.014 A 
ATOM     12  C   UNL A   1      41.976  22.319  28.454  1.00  0.00     0.010 A 
ATOM     13  C   UNL A   1      42.319  23.111  26.190  1.00  0.00     0.010 A 
ATOM     14  C   UNL A   1      42.271  23.369  27.568  1.00  0.00    -0.014 A 
BRANCH  14  15
ATOM     15  C   UNL A   1      42.604  24.706  28.116  1.00  0.00     0.031 A 
ATOM     16  C   UNL A   1      44.013  25.072  28.483  1.00  0.00     0.074 A 
ATOM     17  C   UNL A   1      41.609  25.602  28.262  1.00  0.00     0.049 A 
ATOM     18  N   UNL A   1      44.469  26.200  28.967  1.00  0.00    -0.248 NA
ATOM     19  C   UNL A   1      45.044  24.042  28.290  1.00  0.00     0.031 C 
ATOM     20  C   UNL A   1      40.200  25.353  27.949  1.00  0.00     0.029 A 
ATOM     21  N   UNL A   1      41.627  26.903  28.693  1.00  0.00    -0.354 N 
ATOM     22  C   UNL A   1      45.834  26.013  29.151  1.00  0.00     0.074 A 
ATOM     23  C   UNL A   1      46.128  24.652  28.750  1.00  0.00     0.031 C 
ATOM     24  C   UNL A   1      39.497  26.475  28.156  1.00  0.00     0.029 A 
ATOM     25  C   UNL A   1      40.391  27.501  28.677  1.00  0.00     0.049 A 
ATOM     26  H   UNL A   1      42.447  27.363  28.986  1.00  0.00     0.167 HD
ATOM     27  C   UNL A   1      46.753  26.898  29.607  1.00  0.00     0.037 A 
ATOM     28  C   UNL A   1      40.012  28.734  29.059  1.00  0.00     0.037 A 
ATOM     29  C   UNL A   1      46.452  28.253  29.996  1.00  0.00     0.049 A 
ATOM     30  C   UNL A   1      41.047  29.681  29.590  1.00  0.00     0.074 A 
ATOM     31  C   UNL A   1      47.319  29.236  30.438  1.00  0.00     0.029 A 
ATOM     32  N   UNL A   1      45.182  28.813  29.996  1.00  0.00    -0.354 N 
ATOM     33  N   UNL A   1      42.338  29.500  29.725  1.00  0.00    -0.248 NA
ATOM     34  C   UNL A   1      40.573  31.000  30.025  1.00  0.00     0.031 C 
ATOM     35  C   UNL A   1      46.570  30.376  30.749  1.00  0.00     0.029 A 
ATOM     36  C   UNL A   1      45.240  30.119  30.453  1.00  0.00     0.049 A 
ATOM     37  H   UNL A   1      44.360  28.350  29.712  1.00  0.00     0.167 HD
ATOM     38  C   UNL A   1      42.834  30.686  30.245  1.00  0.00     0.074 A 
ATOM     39  C   UNL A   1      41.706  31.587  30.380  1.00  0.00     0.031 C 
ATOM     40  C   UNL A   1      44.109  31.002  30.582  1.00  0.00     0.037 A 
BRANCH  27  41
ATOM     41  C   UNL A   1      48.174  26.427  29.728  1.00  0.00     0.057 A 
ATOM     42  C   UNL A   1      49.111  26.623  28.705  1.00  0.00     0.134 A 
ATOM     43  C   UNL A   1      48.624  25.815  30.906  1.00  0.00     0.134 A 
ATOM     44  F   UNL A   1      48.744  27.194  27.548  1.00  0.00    -0.206 F 
ATOM     45  C   UNL A   1      50.438  26.212  28.841  1.00  0.00     0.040 A 
ATOM     46  C   UNL A   1      49.954  25.421  31.062  1.00  0.00     0.040 A 
ATOM     47  F   UNL A   1      47.783  25.603  31.928  1.00  0.00    -0.206 F 
ATOM     48  C   UNL A   1      50.865  25.615  30.026  1.00  0.00     0.006 A 
ENDBRANCH  27  41
BRANCH  28  49
ATOM     49  C   UNL A   1      38.587  29.131  28.957  1.00  0.00     0.057 A 
ATOM     50  C   UNL A   1      37.736  29.067  30.064  1.00  0.00     0.134 A 
ATOM     51  C   UNL A   1      38.047  29.599  27.752  1.00  0.00     0.134 A 
ATOM     52  F   UNL A   1      38.191  28.614  31.241  1.00  0.00    -0.206 F 
ATOM     53  C   UNL A   1      36.393  29.441  29.975  1.00  0.00     0.040 A 
ATOM     54  C   UNL A   1      36.715  30.002  27.655  1.00  0.00     0.040 A 
ATOM     55  F   UNL A   1      38.816  29.693  26.656  1.00  0.00    -0.206 F 
ATOM     56  C   UNL A   1      35.882  29.917  28.768  1.00  0.00     0.006 A 
ENDBRANCH  28  49
BRANCH  40  57
ATOM     57  C   UNL A   1      44.349  32.388  31.103  1.00  0.00     0.057 A 
ATOM     58  C   UNL A   1      44.326  32.677  32.472  1.00  0.00     0.134 A 
ATOM     59  C   UNL A   1      44.627  33.441  30.221  1.00  0.00     0.134 A 
ATOM     60  F   UNL A   1      44.050  31.716  33.366  1.00  0.00    -0.206 F 
ATOM     61  C   UNL A   1      44.547  33.972  32.947  1.00  0.00     0.040 A 
ATOM     62  C   UNL A   1      44.876  34.732  30.686  1.00  0.00     0.040 A 
ATOM     63  F   UNL A   1      44.669  33.228  28.897  1.00  0.00    -0.206 F 
ATOM     64  C   UNL A   1      44.829  35.002  32.052  1.00  0.00     0.006 A 
ENDBRANCH  40  57
ENDBRANCH  14  15
ENDBRANCH   7   9
ENDBRANCH   4   5
ENDBRANCH   3   4
ENDBRANCH   2   3
ENDBRANCH   1   2
BRANCH   1  65
ATOM     65  C   UNL A   1      36.401  22.751  23.970  1.00  0.00     0.021 C 
BRANCH  65  66
ATOM     66  C   UNL A   1      35.170  23.648  24.082  1.00  0.00     0.116 C 
BRANCH  66  67
ATOM     67  N   UNL A   1      34.512  23.783  22.802  1.00  0.00    -0.351 N 
ATOM     68  C   UNL A   1      33.559  24.667  22.395  1.00  0.00     0.278 C 
ATOM     69  H   UNL A   1      34.798  23.136  22.117  1.00  0.00     0.163 HD
ATOM     70  O   UNL A   1      33.071  24.491  21.276  1.00  0.00    -0.268 OA
BRANCH  68  71
ATOM     71  C   UNL A   1      33.166  25.845  23.306  1.00  0.00     0.274 C 
ATOM     72  C   UNL A   1      32.731  27.036  22.419  1.00  0.00     0.085 C 
ATOM     73  N   UNL A   1      31.979  25.473  24.129  1.00  0.00    -0.322 N 
ATOM     74  C   UNL A   1      31.454  27.496  23.085  1.00  0.00     0.054 C 
ATOM     75  C   UNL A   1      30.837  26.176  23.537  1.00  0.00     0.188 C 
ATOM     76  H   UNL A   1      31.793  24.471  24.077  1.00  0.00     0.349 HD
ATOM     77  C   UNL A   1      30.480  28.344  22.294  1.00  0.00     0.010 C 
ATOM     78  C   UNL A   1      29.507  26.307  24.285  1.00  0.00     0.065 C 
ATOM     79  C   UNL A   1      29.251  28.603  23.171  1.00  0.00     0.001 C 
ATOM     80  C   UNL A   1      28.565  27.299  23.592  1.00  0.00     0.006 C 
BRANCH  73  81
ATOM     81  C   UNL A   1      32.148  25.452  25.587  1.00  0.00     0.265 C 
BRANCH  81  82
ATOM     82  C   UNL A   1      33.353  26.134  26.282  1.00  0.00     0.093 C 
BRANCH  82  83
ATOM     83  C   UNL A   1      33.175  27.608  26.627  1.00  0.00     0.123 C 
ATOM     84  C   UNL A   1      31.729  28.046  26.758  1.00  0.00     0.034 C 
ATOM     85  O   UNL A   1      33.693  28.503  25.634  1.00  0.00    -0.378 OA
ATOM     86  C   UNL A   1      31.874  29.552  26.766  1.00  0.00     0.031 C 
ATOM     87  C   UNL A   1      33.160  29.798  25.982  1.00  0.00     0.160 C 
ENDBRANCH  82  83
ENDBRANCH  81  82
ENDBRANCH  73  81
ENDBRANCH  68  71
ENDBRANCH  66  67
ENDBRANCH  65  66
ENDBRANCH   1  65
TORSDOF 16
ENDMDL
MODEL 2
REMARK VINA RESULT:     -11.0      3.030      8.476
REMARK SMILES O=C(NCCCCCCNC(=O)[C@H]1C[C@H]2CCCC[C@@H]2[N@@H+]1CC[C@@H]1CCCO1)c1ccc(-c2c3nc(c(-c4c(F)cccc4F)c4ccc([nH]4)c(-c4c(F)cccc4F)c4nc(c(-c5c(F)cccc5F)c5ccc2[nH]5)C=C4)C=C3)cc1
REMARK SMILES IDX 7 1 6 2 5 3 4 4 3 5 1 6 2 7 29 9 30 10 82 11 31 12 81 13
REMARK SMILES IDX 32 14 33 15 34 16 75 17 35 18 80 19 74 20 76 21 36 22 79 23
REMARK SMILES IDX 73 24 72 25 37 27 63 28 46 29 62 30 47 31 50 32 61 33 77 34
REMARK SMILES IDX 48 35 49 36 60 38 78 39 51 40 38 41 39 42 44 43 40 44 41 45
REMARK SMILES IDX 43 46 45 47 42 48 64 49 65 50 70 51 66 52 67 53 69 54 71 55
REMARK SMILES IDX 68 56 52 57 53 58 58 59 54 60 55 61 57 62 59 63 56 64 8 65
REMARK SMILES IDX 9 66 10 67 11 68 12 70 13 71 14 72 21 73 15 74 20 75 16 77
REMARK SMILES IDX 19 78 17 79 18 80 22 81 23 82 24 83 25 84 28 85 26 86 27 87
REMARK H PARENT 3 8 76 26 50 37 10 69 21 76
REMARK Flexibility Score: inf
ROOT
ATOM      1  C   UNL A   1      31.106  27.225  27.116  1.00  0.00     0.002 C 
ENDROOT
BRANCH   1   2
ATOM      2  C   UNL A   1      32.144  28.346  27.218  1.00  0.00     0.002 C 
BRANCH   2   3
ATOM      3  C   UNL A   1      33.549  27.970  26.753  1.00  0.00     0.021 C 
BRANCH   3   4
ATOM      4  C   UNL A   1      34.368  29.131  26.207  1.00  0.00     0.116 C 
BRANCH   4   5
ATOM      5  N   UNL A   1      34.005  30.402  26.810  1.00  0.00    -0.352 N 
ATOM      6  O   UNL A   1      34.079  32.044  28.358  1.00  0.00    -0.269 OA
ATOM      7  C   UNL A   1      34.602  31.060  27.861  1.00  0.00     0.251 C 
ATOM      8  H   UNL A   1      33.226  30.854  26.413  1.00  0.00     0.163 HD
BRANCH   7   9
ATOM      9  C   UNL A   1      35.881  30.545  28.399  1.00  0.00     0.039 A 
ATOM     10  C   UNL A   1      37.095  30.920  27.820  1.00  0.00     0.014 A 
ATOM     11  C   UNL A   1      35.858  29.679  29.494  1.00  0.00     0.014 A 
ATOM     12  C   UNL A   1      38.275  30.326  28.250  1.00  0.00     0.010 A 
ATOM     13  C   UNL A   1      37.055  29.151  29.983  1.00  0.00     0.010 A 
ATOM     14  C   UNL A   1      38.271  29.452  29.350  1.00  0.00    -0.014 A 
BRANCH  14  15
ATOM     15  C   UNL A   1      39.561  28.933  29.866  1.00  0.00     0.031 A 
ATOM     16  C   UNL A   1      40.203  29.512  31.093  1.00  0.00     0.074 A 
ATOM     17  C   UNL A   1      40.142  27.906  29.215  1.00  0.00     0.049 A 
ATOM     18  N   UNL A   1      41.323  29.166  31.676  1.00  0.00    -0.248 NA
ATOM     19  C   UNL A   1      39.504  30.626  31.751  1.00  0.00     0.031 C 
ATOM     20  C   UNL A   1      39.615  27.272  28.005  1.00  0.00     0.029 A 
ATOM     21  N   UNL A   1      41.289  27.207  29.483  1.00  0.00    -0.354 N 
ATOM     22  C   UNL A   1      41.474  30.027  32.756  1.00  0.00     0.074 A 
ATOM     23  C   UNL A   1      40.341  30.929  32.734  1.00  0.00     0.031 C 
ATOM     24  C   UNL A   1      40.411  26.251  27.661  1.00  0.00     0.029 A 
ATOM     25  C   UNL A   1      41.537  26.199  28.584  1.00  0.00     0.049 A 
ATOM     26  H   UNL A   1      41.879  27.408  30.246  1.00  0.00     0.167 HD
ATOM     27  C   UNL A   1      42.464  30.054  33.682  1.00  0.00     0.037 A 
ATOM     28  C   UNL A   1      42.568  25.339  28.498  1.00  0.00     0.037 A 
ATOM     29  C   UNL A   1      43.583  29.146  33.700  1.00  0.00     0.049 A 
ATOM     30  C   UNL A   1      43.665  25.414  29.518  1.00  0.00     0.074 A 
ATOM     31  C   UNL A   1      44.619  29.072  34.614  1.00  0.00     0.029 A 
ATOM     32  N   UNL A   1      43.816  28.158  32.753  1.00  0.00    -0.354 N 
ATOM     33  N   UNL A   1      43.775  26.211  30.553  1.00  0.00    -0.248 NA
ATOM     34  C   UNL A   1      44.782  24.476  29.356  1.00  0.00     0.031 C 
ATOM     35  C   UNL A   1      45.502  28.071  34.197  1.00  0.00     0.029 A 
ATOM     36  C   UNL A   1      44.991  27.486  33.049  1.00  0.00     0.049 A 
ATOM     37  H   UNL A   1      43.232  27.962  31.985  1.00  0.00     0.167 HD
ATOM     38  C   UNL A   1      44.963  25.860  31.177  1.00  0.00     0.074 A 
ATOM     39  C   UNL A   1      45.527  24.764  30.413  1.00  0.00     0.031 C 
ATOM     40  C   UNL A   1      45.538  26.398  32.280  1.00  0.00     0.037 A 
BRANCH  27  41
ATOM     41  C   UNL A   1      42.394  31.111  34.746  1.00  0.00     0.057 A 
ATOM     42  C   UNL A   1      41.858  30.853  36.015  1.00  0.00     0.134 A 
ATOM     43  C   UNL A   1      42.916  32.391  34.515  1.00  0.00     0.134 A 
ATOM     44  F   UNL A   1      41.332  29.652  36.299  1.00  0.00    -0.206 F 
ATOM     45  C   UNL A   1      41.829  31.833  37.009  1.00  0.00     0.040 A 
ATOM     46  C   UNL A   1      42.914  33.371  35.509  1.00  0.00     0.040 A 
ATOM     47  F   UNL A   1      43.451  32.705  33.326  1.00  0.00    -0.206 F 
ATOM     48  C   UNL A   1      42.365  33.095  36.759  1.00  0.00     0.006 A 
ENDBRANCH  27  41
BRANCH  28  49
ATOM     49  C   UNL A   1      42.606  24.342  27.401  1.00  0.00     0.057 A 
ATOM     50  C   UNL A   1      43.184  24.647  26.165  1.00  0.00     0.134 A 
ATOM     51  C   UNL A   1      42.078  23.055  27.568  1.00  0.00     0.134 A 
ATOM     52  F   UNL A   1      43.693  25.867  25.940  1.00  0.00    -0.206 F 
ATOM     53  C   UNL A   1      43.225  23.714  25.127  1.00  0.00     0.040 A 
ATOM     54  C   UNL A   1      42.136  22.103  26.550  1.00  0.00     0.040 A 
ATOM     55  F   UNL A   1      41.519  22.699  28.734  1.00  0.00    -0.206 F 
ATOM     56  C   UNL A   1      42.705  22.434  25.322  1.00  0.00     0.006 A 
ENDBRANCH  28  49
BRANCH  40  57
ATOM     57  C   UNL A   1      46.829  25.786  32.739  1.00  0.00     0.057 A 
ATOM     58  C   UNL A   1      48.065  26.202  32.231  1.00  0.00     0.134 A 
ATOM     59  C   UNL A   1      46.832  24.783  33.716  1.00  0.00     0.134 A 
ATOM     60  F   UNL A   1      48.128  27.147  31.282  1.00  0.00    -0.206 F 
ATOM     61  C   UNL A   1      49.261  25.623  32.662  1.00  0.00     0.040 A 
ATOM     62  C   UNL A   1      48.022  24.217  34.174  1.00  0.00     0.040 A 
ATOM     63  F   UNL A   1      45.681  24.344  34.247  1.00  0.00    -0.206 F 
ATOM     64  C   UNL A   1      49.241  24.632  33.641  1.00  0.00     0.006 A 
ENDBRANCH  40  57
ENDBRANCH  14  15
ENDBRANCH   7   9
ENDBRANCH   4   5
ENDBRANCH   3   4
ENDBRANCH   2   3
ENDBRANCH   1   2
BRANCH   1  65
ATOM     65  C   UNL A   1      30.827  26.712  25.697  1.00  0.00     0.021 C 
BRANCH  65  66
ATOM     66  C   UNL A   1      30.311  25.277  25.621  1.00  0.00     0.116 C 
BRANCH  66  67
ATOM     67  N   UNL A   1      30.864  24.474  26.687  1.00  0.00    -0.351 N 
ATOM     68  C   UNL A   1      31.906  23.596  26.674  1.00  0.00     0.278 C 
ATOM     69  H   UNL A   1      30.420  24.577  27.560  1.00  0.00     0.163 HD
ATOM     70  O   UNL A   1      32.101  22.941  27.701  1.00  0.00    -0.268 OA
BRANCH  68  71
ATOM     71  C   UNL A   1      32.799  23.486  25.425  1.00  0.00     0.274 C 
ATOM     72  C   UNL A   1      33.983  24.473  25.572  1.00  0.00     0.085 C 
ATOM     73  N   UNL A   1      33.394  22.119  25.347  1.00  0.00    -0.322 N 
ATOM     74  C   UNL A   1      35.171  23.626  25.175  1.00  0.00     0.054 C 
ATOM     75  C   UNL A   1      34.796  22.263  25.748  1.00  0.00     0.188 C 
ATOM     76  H   UNL A   1      32.942  21.483  26.005  1.00  0.00     0.349 HD
ATOM     77  C   UNL A   1      36.557  24.065  25.600  1.00  0.00     0.010 C 
ATOM     78  C   UNL A   1      35.816  21.150  25.489  1.00  0.00     0.065 C 
ATOM     79  C   UNL A   1      37.558  23.001  25.139  1.00  0.00     0.001 C 
ATOM     80  C   UNL A   1      37.251  21.628  25.747  1.00  0.00     0.006 C 
BRANCH  73  81
ATOM     81  C   UNL A   1      33.047  21.298  24.181  1.00  0.00     0.265 C 
BRANCH  81  82
ATOM     82  C   UNL A   1      32.162  20.033  24.303  1.00  0.00     0.093 C 
BRANCH  82  83
ATOM     83  C   UNL A   1      32.906  18.719  24.515  1.00  0.00     0.123 C 
ATOM     84  C   UNL A   1      33.117  17.913  23.248  1.00  0.00     0.034 C 
ATOM     85  O   UNL A   1      32.221  17.797  25.373  1.00  0.00    -0.378 OA
ATOM     86  C   UNL A   1      33.556  16.580  23.814  1.00  0.00     0.031 C 
ATOM     87  C   UNL A   1      32.908  16.540  25.195  1.00  0.00     0.160 C 
ENDBRANCH  82  83
ENDBRANCH  81  82
ENDBRANCH  73  81
ENDBRANCH  68  71
ENDBRANCH  66  67
ENDBRANCH  65  66
ENDBRANCH   1  65
TORSDOF 16
ENDMDL
MODEL 3
REMARK VINA RESULT:     -11.0      2.481      4.130
REMARK SMILES O=C(NCCCCCCNC(=O)[C@H]1C[C@H]2CCCC[C@@H]2[N@@H+]1CC[C@@H]1CCCO1)c1ccc(-c2c3nc(c(-c4c(F)cccc4F)c4ccc([nH]4)c(-c4c(F)cccc4F)c4nc(c(-c5c(F)cccc5F)c5ccc2[nH]5)C=C4)C=C3)cc1
REMARK SMILES IDX 7 1 6 2 5 3 4 4 3 5 1 6 2 7 29 9 30 10 82 11 31 12 81 13
REMARK SMILES IDX 32 14 33 15 34 16 75 17 35 18 80 19 74 20 76 21 36 22 79 23
REMARK SMILES IDX 73 24 72 25 37 27 63 28 46 29 62 30 47 31 50 32 61 33 77 34
REMARK SMILES IDX 48 35 49 36 60 38 78 39 51 40 38 41 39 42 44 43 40 44 41 45
REMARK SMILES IDX 43 46 45 47 42 48 64 49 65 50 70 51 66 52 67 53 69 54 71 55
REMARK SMILES IDX 68 56 52 57 53 58 58 59 54 60 55 61 57 62 59 63 56 64 8 65
REMARK SMILES IDX 9 66 10 67 11 68 12 70 13 71 14 72 21 73 15 74 20 75 16 77
REMARK SMILES IDX 19 78 17 79 18 80 22 81 23 82 24 83 25 84 28 85 26 86 27 87
REMARK H PARENT 3 8 76 26 50 37 10 69 21 76
REMARK Flexibility Score: inf
ROOT
ATOM      1  C   UNL A   1      34.217  22.701  22.959  1.00  0.00     0.002 C 
ENDROOT
BRANCH   1   2
ATOM      2  C   UNL A   1      35.461  23.217  23.690  1.00  0.00     0.002 C 
BRANCH   2   3
ATOM      3  C   UNL A   1      35.374  23.184  25.214  1.00  0.00     0.021 C 
BRANCH   3   4
ATOM      4  C   UNL A   1      36.630  23.657  25.931  1.00  0.00     0.116 C 
BRANCH   4   5
ATOM      5  N   UNL A   1      37.635  22.614  26.043  1.00  0.00    -0.352 N 
ATOM      6  O   UNL A   1      39.718  21.775  26.275  1.00  0.00    -0.269 OA
ATOM      7  C   UNL A   1      38.963  22.727  26.385  1.00  0.00     0.251 C 
ATOM      8  H   UNL A   1      37.323  21.701  25.846  1.00  0.00     0.163 HD
BRANCH   7   9
ATOM      9  C   UNL A   1      39.472  24.030  26.869  1.00  0.00     0.039 A 
ATOM     10  C   UNL A   1      39.384  24.367  28.221  1.00  0.00     0.014 A 
ATOM     11  C   UNL A   1      40.043  24.919  25.954  1.00  0.00     0.014 A 
ATOM     12  C   UNL A   1      39.744  25.643  28.637  1.00  0.00     0.010 A 
ATOM     13  C   UNL A   1      40.486  26.169  26.391  1.00  0.00     0.010 A 
ATOM     14  C   UNL A   1      40.318  26.550  27.732  1.00  0.00    -0.014 A 
BRANCH  14  15
ATOM     15  C   UNL A   1      40.809  27.858  28.231  1.00  0.00     0.031 A 
ATOM     16  C   UNL A   1      42.271  28.200  28.223  1.00  0.00     0.074 A 
ATOM     17  C   UNL A   1      39.904  28.750  28.679  1.00  0.00     0.049 A 
ATOM     18  N   UNL A   1      42.859  29.301  28.617  1.00  0.00    -0.248 NA
ATOM     19  C   UNL A   1      43.195  27.176  27.713  1.00  0.00     0.031 C 
ATOM     20  C   UNL A   1      38.459  28.521  28.744  1.00  0.00     0.029 A 
ATOM     21  N   UNL A   1      40.059  30.028  29.149  1.00  0.00    -0.354 N 
ATOM     22  C   UNL A   1      44.220  29.100  28.420  1.00  0.00     0.074 A 
ATOM     23  C   UNL A   1      44.373  27.759  27.893  1.00  0.00     0.031 C 
ATOM     24  C   UNL A   1      37.857  29.635  29.184  1.00  0.00     0.029 A 
ATOM     25  C   UNL A   1      38.874  30.631  29.492  1.00  0.00     0.049 A 
ATOM     26  H   UNL A   1      40.935  30.470  29.232  1.00  0.00     0.167 HD
ATOM     27  C   UNL A   1      45.242  29.958  28.653  1.00  0.00     0.037 A 
ATOM     28  C   UNL A   1      38.633  31.845  30.018  1.00  0.00     0.037 A 
ATOM     29  C   UNL A   1      45.079  31.293  29.170  1.00  0.00     0.049 A 
ATOM     30  C   UNL A   1      39.788  32.761  30.294  1.00  0.00     0.074 A 
ATOM     31  C   UNL A   1      46.050  32.251  29.408  1.00  0.00     0.029 A 
ATOM     32  N   UNL A   1      43.865  31.858  29.536  1.00  0.00    -0.354 N 
ATOM     33  N   UNL A   1      41.065  32.569  30.070  1.00  0.00    -0.248 NA
ATOM     34  C   UNL A   1      39.470  34.060  30.901  1.00  0.00     0.031 C 
ATOM     35  C   UNL A   1      45.430  33.376  29.960  1.00  0.00     0.029 A 
ATOM     36  C   UNL A   1      44.066  33.140  30.020  1.00  0.00     0.049 A 
ATOM     37  H   UNL A   1      42.990  31.413  29.462  1.00  0.00     0.167 HD
ATOM     38  C   UNL A   1      41.702  33.726  30.491  1.00  0.00     0.074 A 
ATOM     39  C   UNL A   1      40.667  34.624  30.965  1.00  0.00     0.031 C 
ATOM     40  C   UNL A   1      43.025  34.020  30.488  1.00  0.00     0.037 A 
BRANCH  27  41
ATOM     41  C   UNL A   1      46.635  29.476  28.367  1.00  0.00     0.057 A 
ATOM     42  C   UNL A   1      47.409  28.824  29.336  1.00  0.00     0.134 A 
ATOM     43  C   UNL A   1      47.191  29.618  27.088  1.00  0.00     0.134 A 
ATOM     44  F   UNL A   1      46.941  28.663  30.584  1.00  0.00    -0.206 F 
ATOM     45  C   UNL A   1      48.690  28.348  29.051  1.00  0.00     0.040 A 
ATOM     46  C   UNL A   1      48.462  29.126  26.784  1.00  0.00     0.040 A 
ATOM     47  F   UNL A   1      46.503  30.225  26.109  1.00  0.00    -0.206 F 
ATOM     48  C   UNL A   1      49.217  28.493  27.769  1.00  0.00     0.006 A 
ENDBRANCH  27  41
BRANCH  28  49
ATOM     49  C   UNL A   1      37.240  32.253  30.319  1.00  0.00     0.057 A 
ATOM     50  C   UNL A   1      36.468  32.945  29.380  1.00  0.00     0.134 A 
ATOM     51  C   UNL A   1      36.642  31.949  31.549  1.00  0.00     0.134 A 
ATOM     52  F   UNL A   1      36.990  33.277  28.191  1.00  0.00    -0.206 F 
ATOM     53  C   UNL A   1      35.155  33.331  29.657  1.00  0.00     0.040 A 
ATOM     54  C   UNL A   1      35.322  32.305  31.829  1.00  0.00     0.040 A 
ATOM     55  F   UNL A   1      37.327  31.279  32.488  1.00  0.00    -0.206 F 
ATOM     56  C   UNL A   1      34.577  33.005  30.883  1.00  0.00     0.006 A 
ENDBRANCH  28  49
BRANCH  40  57
ATOM     57  C   UNL A   1      43.420  35.378  30.988  1.00  0.00     0.057 A 
ATOM     58  C   UNL A   1      43.580  36.467  30.123  1.00  0.00     0.134 A 
ATOM     59  C   UNL A   1      43.620  35.602  32.356  1.00  0.00     0.134 A 
ATOM     60  F   UNL A   1      43.417  36.314  28.800  1.00  0.00    -0.206 F 
ATOM     61  C   UNL A   1      43.951  37.726  30.598  1.00  0.00     0.040 A 
ATOM     62  C   UNL A   1      43.965  36.862  32.845  1.00  0.00     0.040 A 
ATOM     63  F   UNL A   1      43.477  34.601  33.239  1.00  0.00    -0.206 F 
ATOM     64  C   UNL A   1      44.138  37.927  31.964  1.00  0.00     0.006 A 
ENDBRANCH  40  57
ENDBRANCH  14  15
ENDBRANCH   7   9
ENDBRANCH   4   5
ENDBRANCH   3   4
ENDBRANCH   2   3
ENDBRANCH   1   2
BRANCH   1  65
ATOM     65  C   UNL A   1      33.239  21.887  23.816  1.00  0.00     0.021 C 
BRANCH  65  66
ATOM     66  C   UNL A   1      31.900  22.570  24.088  1.00  0.00     0.116 C 
BRANCH  66  67
ATOM     67  N   UNL A   1      31.684  22.733  25.508  1.00  0.00    -0.351 N 
ATOM     68  C   UNL A   1      31.528  23.867  26.247  1.00  0.00     0.278 C 
ATOM     69  H   UNL A   1      31.641  21.894  26.021  1.00  0.00     0.163 HD
ATOM     70  O   UNL A   1      31.478  23.735  27.473  1.00  0.00    -0.268 OA
BRANCH  68  71
ATOM     71  C   UNL A   1      31.385  25.228  25.542  1.00  0.00     0.274 C 
ATOM     72  C   UNL A   1      30.689  26.217  26.508  1.00  0.00     0.085 C 
ATOM     73  N   UNL A   1      32.735  25.794  25.255  1.00  0.00    -0.322 N 
ATOM     74  C   UNL A   1      31.546  27.457  26.386  1.00  0.00     0.054 C 
ATOM     75  C   UNL A   1      32.943  26.864  26.235  1.00  0.00     0.188 C 
ATOM     76  H   UNL A   1      33.465  25.094  25.394  1.00  0.00     0.349 HD
ATOM     77  C   UNL A   1      31.481  28.501  27.481  1.00  0.00     0.010 C 
ATOM     78  C   UNL A   1      34.066  27.892  26.064  1.00  0.00     0.065 C 
ATOM     79  C   UNL A   1      32.493  29.603  27.150  1.00  0.00     0.001 C 
ATOM     80  C   UNL A   1      33.921  29.055  27.054  1.00  0.00     0.006 C 
BRANCH  73  81
ATOM     81  C   UNL A   1      33.091  26.011  23.848  1.00  0.00     0.265 C 
BRANCH  81  82
ATOM     82  C   UNL A   1      32.052  25.865  22.708  1.00  0.00     0.093 C 
BRANCH  82  83
ATOM     83  C   UNL A   1      31.177  27.085  22.446  1.00  0.00     0.123 C 
ATOM     84  C   UNL A   1      31.778  28.396  22.918  1.00  0.00     0.034 C 
ATOM     85  O   UNL A   1      29.914  27.049  23.124  1.00  0.00    -0.378 OA
ATOM     86  C   UNL A   1      30.583  29.320  22.829  1.00  0.00     0.031 C 
ATOM     87  C   UNL A   1      29.388  28.389  23.008  1.00  0.00     0.160 C 
ENDBRANCH  82  83
ENDBRANCH  81  82
ENDBRANCH  73  81
ENDBRANCH  68  71
ENDBRANCH  66  67
ENDBRANCH  65  66
ENDBRANCH   1  65
TORSDOF 16
ENDMDL
