MODEL 1
REMARK VINA RESULT:     -11.4      0.000      0.000
REMARK SMILES CC(C)(Oc1ccc(Cl)cc1)C(=O)N1CCC[C@H](C(=O)NCCCCCCNC(=O)c2ccc(-c3c4nc(c(-c5c(F)cccc5F)c5ccc([nH]5)c(-c5c(F)cccc5F)c5nc(c(-c6c(F)cccc6F)c6ccc3[nH]6)C=C5)C=C4)cc2)C1
REMARK SMILES IDX 23 1 22 2 21 3 19 4 20 5 18 7 14 8 15 9 85 10 16 11 17 12
REMARK SMILES IDX 12 13 13 14 2 15 1 16 3 17 4 18 5 19 6 20 11 21 7 22 10 23
REMARK SMILES IDX 8 24 9 25 24 26 25 27 26 28 27 29 28 30 29 31 30 33 31 34
REMARK SMILES IDX 32 35 84 36 33 37 83 38 34 39 35 40 36 41 77 42 37 43 82 44
REMARK SMILES IDX 76 45 78 46 38 47 81 48 75 49 74 50 39 52 65 53 48 54 64 55
REMARK SMILES IDX 49 56 52 57 63 58 79 59 50 60 51 61 62 63 80 64 53 65 40 66
REMARK SMILES IDX 41 67 46 68 42 69 43 70 45 71 47 72 44 73 66 74 67 75 72 76
REMARK SMILES IDX 68 77 69 78 71 79 73 80 70 81 54 82 55 83 60 84 56 85 57 86
REMARK SMILES IDX 59 87 61 88 58 89
REMARK H PARENT 21 6 28 32 78 51 52 62
REMARK Flexibility Score: inf
ROOT
ATOM      1  C   UNL A   1      34.674  31.569  27.765  1.00  0.00     0.021 C 
ENDROOT
BRANCH   1   2
ATOM      2  C   UNL A   1      33.571  30.572  27.425  1.00  0.00     0.116 C 
BRANCH   2   3
ATOM      3  N   UNL A   1      33.659  30.049  26.082  1.00  0.00    -0.356 N 
ATOM      4  C   UNL A   1      33.308  28.844  25.569  1.00  0.00     0.224 C 
ATOM      5  O   UNL A   1      33.337  28.747  24.335  1.00  0.00    -0.275 OA
ATOM      6  H   UNL A   1      34.041  30.676  25.426  1.00  0.00     0.163 HD
BRANCH   4   7
ATOM      7  C   UNL A   1      32.904  27.621  26.404  1.00  0.00     0.098 C 
ATOM      8  N   UNL A   1      32.930  25.457  25.145  1.00  0.00    -0.338 N 
ATOM      9  C   UNL A   1      31.534  25.183  25.502  1.00  0.00     0.119 C 
ATOM     10  C   UNL A   1      33.654  26.328  26.062  1.00  0.00     0.133 C 
ATOM     11  C   UNL A   1      30.701  26.439  25.744  1.00  0.00     0.022 C 
ATOM     12  C   UNL A   1      31.399  27.461  26.633  1.00  0.00     0.017 C 
BRANCH   8  13
ATOM     13  C   UNL A   1      33.427  24.972  23.935  1.00  0.00     0.266 C 
ATOM     14  O   UNL A   1      33.242  25.638  22.907  1.00  0.00    -0.270 OA
BRANCH  13  15
ATOM     15  C   UNL A   1      34.025  23.510  23.834  1.00  0.00     0.181 C 
ATOM     16  C   UNL A   1      35.562  23.641  23.929  1.00  0.00     0.067 C 
ATOM     17  C   UNL A   1      33.622  23.043  22.420  1.00  0.00     0.067 C 
BRANCH  15  18
ATOM     18  O   UNL A   1      33.581  22.624  24.878  1.00  0.00    -0.478 OA
BRANCH  18  19
ATOM     19  C   UNL A   1      33.601  21.279  24.626  1.00  0.00     0.121 A 
ATOM     20  C   UNL A   1      34.708  20.487  24.925  1.00  0.00     0.048 A 
ATOM     21  C   UNL A   1      32.435  20.684  24.139  1.00  0.00     0.048 A 
ATOM     22  C   UNL A   1      34.689  19.117  24.644  1.00  0.00     0.024 A 
ATOM     23  C   UNL A   1      32.407  19.311  23.873  1.00  0.00     0.024 A 
ATOM     24  C   UNL A   1      33.542  18.536  24.111  1.00  0.00     0.041 A 
ATOM     25  Cl  UNL A   1      33.520  16.852  23.760  1.00  0.00    -0.084 Cl
ENDBRANCH  18  19
ENDBRANCH  15  18
ENDBRANCH  13  15
ENDBRANCH   8  13
ENDBRANCH   4   7
ENDBRANCH   2   3
ENDBRANCH   1   2
BRANCH   1  26
ATOM     26  C   UNL A   1      34.418  32.377  29.039  1.00  0.00     0.002 C 
BRANCH  26  27
ATOM     27  C   UNL A   1      34.537  33.900  28.893  1.00  0.00     0.002 C 
BRANCH  27  28
ATOM     28  C   UNL A   1      33.220  34.683  28.929  1.00  0.00     0.021 C 
BRANCH  28  29
ATOM     29  C   UNL A   1      33.310  36.086  29.523  1.00  0.00     0.116 C 
BRANCH  29  30
ATOM     30  N   UNL A   1      32.476  36.241  30.704  1.00  0.00    -0.352 N 
ATOM     31  C   UNL A   1      32.599  35.694  31.955  1.00  0.00     0.251 C 
ATOM     32  H   UNL A   1      31.698  36.833  30.587  1.00  0.00     0.163 HD
ATOM     33  O   UNL A   1      31.679  35.799  32.761  1.00  0.00    -0.269 OA
BRANCH  31  34
ATOM     34  C   UNL A   1      33.830  34.972  32.342  1.00  0.00     0.039 A 
ATOM     35  C   UNL A   1      33.710  33.704  32.921  1.00  0.00     0.014 A 
ATOM     36  C   UNL A   1      35.090  35.553  32.186  1.00  0.00     0.014 A 
ATOM     37  C   UNL A   1      34.856  32.999  33.296  1.00  0.00     0.010 A 
ATOM     38  C   UNL A   1      36.236  34.824  32.499  1.00  0.00     0.010 A 
ATOM     39  C   UNL A   1      36.129  33.545  33.064  1.00  0.00    -0.014 A 
BRANCH  39  40
ATOM     40  C   UNL A   1      37.359  32.792  33.414  1.00  0.00     0.031 A 
ATOM     41  C   UNL A   1      38.099  33.099  34.686  1.00  0.00     0.074 A 
ATOM     42  C   UNL A   1      37.842  31.874  32.554  1.00  0.00     0.049 A 
ATOM     43  N   UNL A   1      39.224  32.598  35.130  1.00  0.00    -0.248 NA
ATOM     44  C   UNL A   1      37.510  34.124  35.562  1.00  0.00     0.031 C 
ATOM     45  C   UNL A   1      37.241  31.518  31.268  1.00  0.00     0.029 A 
ATOM     46  N   UNL A   1      38.960  31.079  32.631  1.00  0.00    -0.354 N 
ATOM     47  C   UNL A   1      39.484  33.255  36.325  1.00  0.00     0.074 A 
ATOM     48  C   UNL A   1      38.427  34.225  36.513  1.00  0.00     0.031 C 
ATOM     49  C   UNL A   1      37.983  30.565  30.684  1.00  0.00     0.029 A 
ATOM     50  C   UNL A   1      39.130  30.265  31.537  1.00  0.00     0.049 A 
ATOM     51  H   UNL A   1      39.578  31.091  33.395  1.00  0.00     0.167 HD
ATOM     52  C   UNL A   1      40.501  33.055  37.198  1.00  0.00     0.037 A 
ATOM     53  C   UNL A   1      40.105  29.383  31.250  1.00  0.00     0.037 A 
ATOM     54  C   UNL A   1      41.537  32.072  37.020  1.00  0.00     0.049 A 
ATOM     55  C   UNL A   1      41.221  29.175  32.237  1.00  0.00     0.074 A 
ATOM     56  C   UNL A   1      42.576  31.749  37.875  1.00  0.00     0.029 A 
ATOM     57  N   UNL A   1      41.663  31.250  35.910  1.00  0.00    -0.354 N 
ATOM     58  N   UNL A   1      41.420  29.760  33.394  1.00  0.00    -0.248 NA
ATOM     59  C   UNL A   1      42.243  28.183  31.881  1.00  0.00     0.031 C 
ATOM     60  C   UNL A   1      43.356  30.761  37.263  1.00  0.00     0.029 A 
ATOM     61  C   UNL A   1      42.774  30.435  36.049  1.00  0.00     0.049 A 
ATOM     62  H   UNL A   1      41.052  31.246  35.138  1.00  0.00     0.167 HD
ATOM     63  C   UNL A   1      42.572  29.186  33.916  1.00  0.00     0.074 A 
ATOM     64  C   UNL A   1      43.020  28.200  32.955  1.00  0.00     0.031 C 
ATOM     65  C   UNL A   1      43.202  29.453  35.085  1.00  0.00     0.037 A 
BRANCH  52  66
ATOM     66  C   UNL A   1      40.538  33.916  38.427  1.00  0.00     0.057 A 
ATOM     67  C   UNL A   1      41.239  35.128  38.459  1.00  0.00     0.134 A 
ATOM     68  C   UNL A   1      39.837  33.546  39.583  1.00  0.00     0.134 A 
ATOM     69  F   UNL A   1      41.940  35.537  37.390  1.00  0.00    -0.206 F 
ATOM     70  C   UNL A   1      41.266  35.928  39.604  1.00  0.00     0.040 A 
ATOM     71  C   UNL A   1      39.834  34.350  40.724  1.00  0.00     0.040 A 
ATOM     72  F   UNL A   1      39.139  32.401  39.619  1.00  0.00    -0.206 F 
ATOM     73  C   UNL A   1      40.556  35.542  40.739  1.00  0.00     0.006 A 
ENDBRANCH  52  66
BRANCH  53  74
ATOM     74  C   UNL A   1      40.057  28.608  29.986  1.00  0.00     0.057 A 
ATOM     75  C   UNL A   1      39.343  27.406  29.904  1.00  0.00     0.134 A 
ATOM     76  C   UNL A   1      40.720  29.045  28.834  1.00  0.00     0.134 A 
ATOM     77  F   UNL A   1      38.703  26.927  30.980  1.00  0.00    -0.206 F 
ATOM     78  C   UNL A   1      39.307  26.657  28.727  1.00  0.00     0.040 A 
ATOM     79  C   UNL A   1      40.672  28.319  27.644  1.00  0.00     0.040 A 
ATOM     80  F   UNL A   1      41.415  30.192  28.846  1.00  0.00    -0.206 F 
ATOM     81  C   UNL A   1      39.969  27.116  27.590  1.00  0.00     0.006 A 
ENDBRANCH  53  74
BRANCH  65  82
ATOM     82  C   UNL A   1      44.423  28.643  35.406  1.00  0.00     0.057 A 
ATOM     83  C   UNL A   1      45.706  29.060  35.034  1.00  0.00     0.134 A 
ATOM     84  C   UNL A   1      44.314  27.446  36.127  1.00  0.00     0.134 A 
ATOM     85  F   UNL A   1      45.877  30.189  34.330  1.00  0.00    -0.206 F 
ATOM     86  C   UNL A   1      46.838  28.306  35.350  1.00  0.00     0.040 A 
ATOM     87  C   UNL A   1      45.439  26.697  36.471  1.00  0.00     0.040 A 
ATOM     88  F   UNL A   1      43.114  26.994  36.521  1.00  0.00    -0.206 F 
ATOM     89  C   UNL A   1      46.706  27.123  36.076  1.00  0.00     0.006 A 
ENDBRANCH  65  82
ENDBRANCH  39  40
ENDBRANCH  31  34
ENDBRANCH  29  30
ENDBRANCH  28  29
ENDBRANCH  27  28
ENDBRANCH  26  27
ENDBRANCH   1  26
TORSDOF 17
ENDMDL
MODEL 2
REMARK VINA RESULT:     -11.2      1.846      3.046
REMARK SMILES CC(C)(Oc1ccc(Cl)cc1)C(=O)N1CCC[C@H](C(=O)NCCCCCCNC(=O)c2ccc(-c3c4nc(c(-c5c(F)cccc5F)c5ccc([nH]5)c(-c5c(F)cccc5F)c5nc(c(-c6c(F)cccc6F)c6ccc3[nH]6)C=C5)C=C4)cc2)C1
REMARK SMILES IDX 23 1 22 2 21 3 19 4 20 5 18 7 14 8 15 9 85 10 16 11 17 12
REMARK SMILES IDX 12 13 13 14 2 15 1 16 3 17 4 18 5 19 6 20 11 21 7 22 10 23
REMARK SMILES IDX 8 24 9 25 24 26 25 27 26 28 27 29 28 30 29 31 30 33 31 34
REMARK SMILES IDX 32 35 84 36 33 37 83 38 34 39 35 40 36 41 77 42 37 43 82 44
REMARK SMILES IDX 76 45 78 46 38 47 81 48 75 49 74 50 39 52 65 53 48 54 64 55
REMARK SMILES IDX 49 56 52 57 63 58 79 59 50 60 51 61 62 63 80 64 53 65 40 66
REMARK SMILES IDX 41 67 46 68 42 69 43 70 45 71 47 72 44 73 66 74 67 75 72 76
REMARK SMILES IDX 68 77 69 78 71 79 73 80 70 81 54 82 55 83 60 84 56 85 57 86
REMARK SMILES IDX 59 87 61 88 58 89
REMARK H PARENT 21 6 28 32 78 51 52 62
REMARK Flexibility Score: inf
ROOT
ATOM      1  C   UNL A   1      32.197  28.746  26.930  1.00  0.00     0.021 C 
ENDROOT
BRANCH   1   2
ATOM      2  C   UNL A   1      32.088  27.355  26.313  1.00  0.00     0.116 C 
BRANCH   2   3
ATOM      3  N   UNL A   1      30.910  26.631  26.727  1.00  0.00    -0.356 N 
ATOM      4  C   UNL A   1      30.034  25.873  26.020  1.00  0.00     0.224 C 
ATOM      5  O   UNL A   1      29.214  25.226  26.683  1.00  0.00    -0.275 OA
ATOM      6  H   UNL A   1      30.706  26.700  27.688  1.00  0.00     0.163 HD
BRANCH   4   7
ATOM      7  C   UNL A   1      29.990  25.786  24.488  1.00  0.00     0.098 C 
ATOM      8  N   UNL A   1      32.188  25.236  23.422  1.00  0.00    -0.338 N 
ATOM      9  C   UNL A   1      32.125  26.432  22.575  1.00  0.00     0.119 C 
ATOM     10  C   UNL A   1      30.903  24.718  23.874  1.00  0.00     0.133 C 
ATOM     11  C   UNL A   1      31.322  27.578  23.185  1.00  0.00     0.022 C 
ATOM     12  C   UNL A   1      29.984  27.134  23.763  1.00  0.00     0.017 C 
BRANCH   8  13
ATOM     13  C   UNL A   1      33.434  24.751  23.816  1.00  0.00     0.266 C 
ATOM     14  O   UNL A   1      34.293  25.560  24.196  1.00  0.00    -0.270 OA
BRANCH  13  15
ATOM     15  C   UNL A   1      33.822  23.233  23.586  1.00  0.00     0.181 C 
ATOM     16  C   UNL A   1      35.364  23.146  23.644  1.00  0.00     0.067 C 
ATOM     17  C   UNL A   1      33.331  22.940  22.154  1.00  0.00     0.067 C 
BRANCH  15  18
ATOM     18  O   UNL A   1      33.280  22.337  24.574  1.00  0.00    -0.478 OA
BRANCH  18  19
ATOM     19  C   UNL A   1      33.393  20.992  24.345  1.00  0.00     0.121 A 
ATOM     20  C   UNL A   1      34.434  20.235  24.881  1.00  0.00     0.048 A 
ATOM     21  C   UNL A   1      32.375  20.360  23.627  1.00  0.00     0.048 A 
ATOM     22  C   UNL A   1      34.515  18.865  24.615  1.00  0.00     0.024 A 
ATOM     23  C   UNL A   1      32.444  18.986  23.375  1.00  0.00     0.024 A 
ATOM     24  C   UNL A   1      33.524  18.247  23.856  1.00  0.00     0.041 A 
ATOM     25  Cl  UNL A   1      33.627  16.562  23.525  1.00  0.00    -0.084 Cl
ENDBRANCH  18  19
ENDBRANCH  15  18
ENDBRANCH  13  15
ENDBRANCH   8  13
ENDBRANCH   4   7
ENDBRANCH   2   3
ENDBRANCH   1   2
BRANCH   1  26
ATOM     26  C   UNL A   1      32.389  29.870  25.911  1.00  0.00     0.002 C 
BRANCH  26  27
ATOM     27  C   UNL A   1      31.167  30.770  25.679  1.00  0.00     0.002 C 
BRANCH  27  28
ATOM     28  C   UNL A   1      31.184  32.125  26.396  1.00  0.00     0.021 C 
BRANCH  28  29
ATOM     29  C   UNL A   1      32.502  32.487  27.075  1.00  0.00     0.116 C 
BRANCH  29  30
ATOM     30  N   UNL A   1      32.543  33.880  27.493  1.00  0.00    -0.352 N 
ATOM     31  C   UNL A   1      33.328  34.503  28.428  1.00  0.00     0.251 C 
ATOM     32  H   UNL A   1      31.903  34.469  27.032  1.00  0.00     0.163 HD
ATOM     33  O   UNL A   1      33.074  35.654  28.770  1.00  0.00    -0.269 OA
BRANCH  31  34
ATOM     34  C   UNL A   1      34.477  33.798  29.034  1.00  0.00     0.039 A 
ATOM     35  C   UNL A   1      34.227  32.732  29.905  1.00  0.00     0.014 A 
ATOM     36  C   UNL A   1      35.790  34.210  28.793  1.00  0.00     0.014 A 
ATOM     37  C   UNL A   1      35.294  32.048  30.491  1.00  0.00     0.010 A 
ATOM     38  C   UNL A   1      36.855  33.487  29.326  1.00  0.00     0.010 A 
ATOM     39  C   UNL A   1      36.618  32.405  30.186  1.00  0.00    -0.014 A 
BRANCH  39  40
ATOM     40  C   UNL A   1      37.764  31.661  30.764  1.00  0.00     0.031 A 
ATOM     41  C   UNL A   1      38.231  31.956  32.162  1.00  0.00     0.074 A 
ATOM     42  C   UNL A   1      38.422  30.763  30.006  1.00  0.00     0.049 A 
ATOM     43  N   UNL A   1      39.251  31.461  32.816  1.00  0.00    -0.248 NA
ATOM     44  C   UNL A   1      37.463  32.960  32.917  1.00  0.00     0.031 C 
ATOM     45  C   UNL A   1      38.095  30.421  28.621  1.00  0.00     0.029 A 
ATOM     46  N   UNL A   1      39.513  29.980  30.293  1.00  0.00    -0.354 N 
ATOM     47  C   UNL A   1      39.258  32.102  34.047  1.00  0.00     0.074 A 
ATOM     48  C   UNL A   1      38.170  33.057  34.033  1.00  0.00     0.031 C 
ATOM     49  C   UNL A   1      38.953  29.486  28.184  1.00  0.00     0.029 A 
ATOM     50  C   UNL A   1      39.910  29.187  29.245  1.00  0.00     0.049 A 
ATOM     51  H   UNL A   1      39.966  29.987  31.166  1.00  0.00     0.167 HD
ATOM     52  C   UNL A   1      40.082  31.900  35.103  1.00  0.00     0.037 A 
ATOM     53  C   UNL A   1      40.936  28.320  29.147  1.00  0.00     0.037 A 
ATOM     54  C   UNL A   1      41.148  30.931  35.122  1.00  0.00     0.049 A 
ATOM     55  C   UNL A   1      41.835  28.110  30.334  1.00  0.00     0.074 A 
ATOM     56  C   UNL A   1      42.000  30.608  36.163  1.00  0.00     0.029 A 
ATOM     57  N   UNL A   1      41.505  30.130  34.049  1.00  0.00    -0.354 N 
ATOM     58  N   UNL A   1      41.791  28.677  31.515  1.00  0.00    -0.248 NA
ATOM     59  C   UNL A   1      42.923  27.135  30.175  1.00  0.00     0.031 C 
ATOM     60  C   UNL A   1      42.900  29.638  35.706  1.00  0.00     0.029 A 
ATOM     61  C   UNL A   1      42.578  29.325  34.396  1.00  0.00     0.049 A 
ATOM     62  H   UNL A   1      41.061  30.131  33.170  1.00  0.00     0.167 HD
ATOM     63  C   UNL A   1      42.824  28.109  32.248  1.00  0.00     0.074 A 
ATOM     64  C   UNL A   1      43.469  27.144  31.383  1.00  0.00     0.031 C 
ATOM     65  C   UNL A   1      43.204  28.364  33.524  1.00  0.00     0.037 A 
BRANCH  52  66
ATOM     66  C   UNL A   1      39.861  32.741  36.327  1.00  0.00     0.057 A 
ATOM     67  C   UNL A   1      40.605  33.903  36.568  1.00  0.00     0.134 A 
ATOM     68  C   UNL A   1      38.869  32.404  37.257  1.00  0.00     0.134 A 
ATOM     69  F   UNL A   1      41.577  34.276  35.722  1.00  0.00    -0.206 F 
ATOM     70  C   UNL A   1      40.391  34.684  37.706  1.00  0.00     0.040 A 
ATOM     71  C   UNL A   1      38.627  33.192  38.383  1.00  0.00     0.040 A 
ATOM     72  F   UNL A   1      38.115  31.309  37.084  1.00  0.00    -0.206 F 
ATOM     73  C   UNL A   1      39.395  34.333  38.614  1.00  0.00     0.006 A 
ENDBRANCH  52  66
BRANCH  53  74
ATOM     74  C   UNL A   1      41.152  27.566  27.888  1.00  0.00     0.057 A 
ATOM     75  C   UNL A   1      41.908  28.109  26.842  1.00  0.00     0.134 A 
ATOM     76  C   UNL A   1      40.610  26.290  27.697  1.00  0.00     0.134 A 
ATOM     77  F   UNL A   1      42.437  29.335  26.960  1.00  0.00    -0.206 F 
ATOM     78  C   UNL A   1      42.101  27.419  25.645  1.00  0.00     0.040 A 
ATOM     79  C   UNL A   1      40.815  25.578  26.514  1.00  0.00     0.040 A 
ATOM     80  F   UNL A   1      39.882  25.711  28.664  1.00  0.00    -0.206 F 
ATOM     81  C   UNL A   1      41.558  26.147  25.481  1.00  0.00     0.006 A 
ENDBRANCH  53  74
BRANCH  65  82
ATOM     82  C   UNL A   1      44.348  27.563  34.071  1.00  0.00     0.057 A 
ATOM     83  C   UNL A   1      44.158  26.306  34.657  1.00  0.00     0.134 A 
ATOM     84  C   UNL A   1      45.662  28.042  33.975  1.00  0.00     0.134 A 
ATOM     85  F   UNL A   1      42.923  25.798  34.791  1.00  0.00    -0.206 F 
ATOM     86  C   UNL A   1      45.231  25.562  35.151  1.00  0.00     0.040 A 
ATOM     87  C   UNL A   1      46.744  27.296  34.441  1.00  0.00     0.040 A 
ATOM     88  F   UNL A   1      45.913  29.235  33.416  1.00  0.00    -0.206 F 
ATOM     89  C   UNL A   1      46.530  26.055  35.037  1.00  0.00     0.006 A 
ENDBRANCH  65  82
ENDBRANCH  39  40
ENDBRANCH  31  34
ENDBRANCH  29  30
ENDBRANCH  28  29
ENDBRANCH  27  28
ENDBRANCH  26  27
ENDBRANCH   1  26
TORSDOF 17
ENDMDL
MODEL 3
REMARK VINA RESULT:     -11.1      5.606     10.046
REMARK SMILES CC(C)(Oc1ccc(Cl)cc1)C(=O)N1CCC[C@H](C(=O)NCCCCCCNC(=O)c2ccc(-c3c4nc(c(-c5c(F)cccc5F)c5ccc([nH]5)c(-c5c(F)cccc5F)c5nc(c(-c6c(F)cccc6F)c6ccc3[nH]6)C=C5)C=C4)cc2)C1
REMARK SMILES IDX 23 1 22 2 21 3 19 4 20 5 18 7 14 8 15 9 85 10 16 11 17 12
REMARK SMILES IDX 12 13 13 14 2 15 1 16 3 17 4 18 5 19 6 20 11 21 7 22 10 23
REMARK SMILES IDX 8 24 9 25 24 26 25 27 26 28 27 29 28 30 29 31 30 33 31 34
REMARK SMILES IDX 32 35 84 36 33 37 83 38 34 39 35 40 36 41 77 42 37 43 82 44
REMARK SMILES IDX 76 45 78 46 38 47 81 48 75 49 74 50 39 52 65 53 48 54 64 55
REMARK SMILES IDX 49 56 52 57 63 58 79 59 50 60 51 61 62 63 80 64 53 65 40 66
REMARK SMILES IDX 41 67 46 68 42 69 43 70 45 71 47 72 44 73 66 74 67 75 72 76
REMARK SMILES IDX 68 77 69 78 71 79 73 80 70 81 54 82 55 83 60 84 56 85 57 86
REMARK SMILES IDX 59 87 61 88 58 89
REMARK H PARENT 21 6 28 32 78 51 52 62
REMARK Flexibility Score: inf
ROOT
ATOM      1  C   UNL A   1      36.282  22.705  25.810  1.00  0.00     0.021 C 
ENDROOT
BRANCH   1   2
ATOM      2  C   UNL A   1      35.878  24.102  25.351  1.00  0.00     0.116 C 
BRANCH   2   3
ATOM      3  N   UNL A   1      35.138  24.110  24.111  1.00  0.00    -0.356 N 
ATOM      4  C   UNL A   1      34.306  25.037  23.574  1.00  0.00     0.224 C 
ATOM      5  O   UNL A   1      33.954  24.842  22.404  1.00  0.00    -0.275 OA
ATOM      6  H   UNL A   1      35.257  23.302  23.560  1.00  0.00     0.163 HD
BRANCH   4   7
ATOM      7  C   UNL A   1      33.776  26.272  24.317  1.00  0.00     0.098 C 
ATOM      8  N   UNL A   1      31.696  25.860  25.649  1.00  0.00    -0.338 N 
ATOM      9  C   UNL A   1      30.987  26.941  24.957  1.00  0.00     0.119 C 
ATOM     10  C   UNL A   1      33.148  25.983  25.685  1.00  0.00     0.133 C 
ATOM     11  C   UNL A   1      31.492  27.202  23.540  1.00  0.00     0.022 C 
ATOM     12  C   UNL A   1      33.011  27.272  23.446  1.00  0.00     0.017 C 
BRANCH   8  13
ATOM     13  C   UNL A   1      30.970  24.766  26.118  1.00  0.00     0.266 C 
ATOM     14  O   UNL A   1      29.919  24.973  26.742  1.00  0.00    -0.270 OA
BRANCH  13  15
ATOM     15  C   UNL A   1      31.573  23.304  26.048  1.00  0.00     0.181 C 
ATOM     16  C   UNL A   1      30.384  22.319  26.115  1.00  0.00     0.067 C 
ATOM     17  C   UNL A   1      32.422  23.193  27.331  1.00  0.00     0.067 C 
BRANCH  15  18
ATOM     18  O   UNL A   1      32.315  23.036  24.844  1.00  0.00    -0.478 OA
BRANCH  18  19
ATOM     19  C   UNL A   1      32.432  21.733  24.443  1.00  0.00     0.121 A 
ATOM     20  C   UNL A   1      32.129  21.329  23.143  1.00  0.00     0.048 A 
ATOM     21  C   UNL A   1      32.959  20.810  25.349  1.00  0.00     0.048 A 
ATOM     22  C   UNL A   1      32.256  19.986  22.777  1.00  0.00     0.024 A 
ATOM     23  C   UNL A   1      33.103  19.469  24.981  1.00  0.00     0.024 A 
ATOM     24  C   UNL A   1      32.734  19.059  23.700  1.00  0.00     0.041 A 
ATOM     25  Cl  UNL A   1      32.885  17.405  23.252  1.00  0.00    -0.084 Cl
ENDBRANCH  18  19
ENDBRANCH  15  18
ENDBRANCH  13  15
ENDBRANCH   8  13
ENDBRANCH   4   7
ENDBRANCH   2   3
ENDBRANCH   1   2
BRANCH   1  26
ATOM     26  C   UNL A   1      36.771  21.792  24.684  1.00  0.00     0.002 C 
BRANCH  26  27
ATOM     27  C   UNL A   1      36.597  20.287  24.929  1.00  0.00     0.002 C 
BRANCH  27  28
ATOM     28  C   UNL A   1      37.881  19.449  24.902  1.00  0.00     0.021 C 
BRANCH  28  29
ATOM     29  C   UNL A   1      39.038  20.001  25.730  1.00  0.00     0.116 C 
BRANCH  29  30
ATOM     30  N   UNL A   1      40.142  19.059  25.833  1.00  0.00    -0.352 N 
ATOM     31  C   UNL A   1      41.474  19.275  26.069  1.00  0.00     0.251 C 
ATOM     32  H   UNL A   1      39.892  18.114  25.712  1.00  0.00     0.163 HD
ATOM     33  O   UNL A   1      42.277  18.358  25.927  1.00  0.00    -0.269 OA
BRANCH  31  34
ATOM     34  C   UNL A   1      41.956  20.608  26.491  1.00  0.00     0.039 A 
ATOM     35  C   UNL A   1      42.343  21.523  25.506  1.00  0.00     0.014 A 
ATOM     36  C   UNL A   1      42.075  20.942  27.842  1.00  0.00     0.014 A 
ATOM     37  C   UNL A   1      42.802  22.789  25.875  1.00  0.00     0.010 A 
ATOM     38  C   UNL A   1      42.470  22.227  28.208  1.00  0.00     0.010 A 
ATOM     39  C   UNL A   1      42.844  23.159  27.229  1.00  0.00    -0.014 A 
BRANCH  39  40
ATOM     40  C   UNL A   1      43.286  24.516  27.638  1.00  0.00     0.031 A 
ATOM     41  C   UNL A   1      42.273  25.559  28.020  1.00  0.00     0.074 A 
ATOM     42  C   UNL A   1      44.596  24.826  27.605  1.00  0.00     0.049 A 
ATOM     43  N   UNL A   1      42.458  26.815  28.340  1.00  0.00    -0.248 NA
ATOM     44  C   UNL A   1      40.861  25.141  28.019  1.00  0.00     0.031 C 
ATOM     45  C   UNL A   1      45.672  23.916  27.208  1.00  0.00     0.029 A 
ATOM     46  N   UNL A   1      45.245  25.999  27.900  1.00  0.00    -0.354 N 
ATOM     47  C   UNL A   1      41.192  27.340  28.560  1.00  0.00     0.074 A 
ATOM     48  C   UNL A   1      40.243  26.281  28.292  1.00  0.00     0.031 C 
ATOM     49  C   UNL A   1      46.847  24.556  27.302  1.00  0.00     0.029 A 
ATOM     50  C   UNL A   1      46.607  25.931  27.732  1.00  0.00     0.049 A 
ATOM     51  H   UNL A   1      44.780  26.811  28.204  1.00  0.00     0.167 HD
ATOM     52  C   UNL A   1      40.850  28.585  28.970  1.00  0.00     0.037 A 
ATOM     53  C   UNL A   1      47.554  26.873  27.899  1.00  0.00     0.037 A 
ATOM     54  C   UNL A   1      41.799  29.628  29.261  1.00  0.00     0.049 A 
ATOM     55  C   UNL A   1      47.151  28.246  28.358  1.00  0.00     0.074 A 
ATOM     56  C   UNL A   1      41.558  30.904  29.740  1.00  0.00     0.029 A 
ATOM     57  N   UNL A   1      43.171  29.514  29.101  1.00  0.00    -0.354 N 
ATOM     58  N   UNL A   1      45.953  28.710  28.624  1.00  0.00    -0.248 NA
ATOM     59  C   UNL A   1      48.230  29.225  28.545  1.00  0.00     0.031 C 
ATOM     60  C   UNL A   1      42.782  31.576  29.830  1.00  0.00     0.029 A 
ATOM     61  C   UNL A   1      43.790  30.703  29.452  1.00  0.00     0.049 A 
ATOM     62  H   UNL A   1      43.638  28.707  28.784  1.00  0.00     0.167 HD
ATOM     63  C   UNL A   1      46.138  30.023  29.036  1.00  0.00     0.074 A 
ATOM     64  C   UNL A   1      47.563  30.278  28.997  1.00  0.00     0.031 C 
ATOM     65  C   UNL A   1      45.211  30.936  29.414  1.00  0.00     0.037 A 
BRANCH  52  66
ATOM     66  C   UNL A   1      39.388  28.884  29.131  1.00  0.00     0.057 A 
ATOM     67  C   UNL A   1      38.726  28.692  30.350  1.00  0.00     0.134 A 
ATOM     68  C   UNL A   1      38.641  29.401  28.065  1.00  0.00     0.134 A 
ATOM     69  F   UNL A   1      39.379  28.190  31.409  1.00  0.00    -0.206 F 
ATOM     70  C   UNL A   1      37.366  28.977  30.496  1.00  0.00     0.040 A 
ATOM     71  C   UNL A   1      37.289  29.716  28.206  1.00  0.00     0.040 A 
ATOM     72  F   UNL A   1      39.215  29.617  26.872  1.00  0.00    -0.206 F 
ATOM     73  C   UNL A   1      36.645  29.497  29.423  1.00  0.00     0.006 A 
ENDBRANCH  52  66
BRANCH  53  74
ATOM     74  C   UNL A   1      48.980  26.541  27.657  1.00  0.00     0.057 A 
ATOM     75  C   UNL A   1      49.547  26.683  26.384  1.00  0.00     0.134 A 
ATOM     76  C   UNL A   1      49.808  26.075  28.684  1.00  0.00     0.134 A 
ATOM     77  F   UNL A   1      48.798  27.107  25.356  1.00  0.00    -0.206 F 
ATOM     78  C   UNL A   1      50.881  26.355  26.138  1.00  0.00     0.040 A 
ATOM     79  C   UNL A   1      51.150  25.767  28.458  1.00  0.00     0.040 A 
ATOM     80  F   UNL A   1      49.326  25.925  29.927  1.00  0.00    -0.206 F 
ATOM     81  C   UNL A   1      51.688  25.900  27.179  1.00  0.00     0.006 A 
ENDBRANCH  53  74
BRANCH  65  82
ATOM     82  C   UNL A   1      45.711  32.282  29.847  1.00  0.00     0.057 A 
ATOM     83  C   UNL A   1      45.922  33.322  28.934  1.00  0.00     0.134 A 
ATOM     84  C   UNL A   1      45.952  32.550  31.201  1.00  0.00     0.134 A 
ATOM     85  F   UNL A   1      45.723  33.125  27.622  1.00  0.00    -0.206 F 
ATOM     86  C   UNL A   1      46.374  34.576  29.348  1.00  0.00     0.040 A 
ATOM     87  C   UNL A   1      46.379  33.807  31.631  1.00  0.00     0.040 A 
ATOM     88  F   UNL A   1      45.762  31.600  32.128  1.00  0.00    -0.206 F 
ATOM     89  C   UNL A   1      46.598  34.822  30.702  1.00  0.00     0.006 A 
ENDBRANCH  65  82
ENDBRANCH  39  40
ENDBRANCH  31  34
ENDBRANCH  29  30
ENDBRANCH  28  29
ENDBRANCH  27  28
ENDBRANCH  26  27
ENDBRANCH   1  26
TORSDOF 17
ENDMDL
