MODEL 1
REMARK VINA RESULT:     -12.3      0.000      0.000
REMARK SMILES CCc1ccc2c(CC(=O)NCCCCCCNC(=O)c3ccc(-c4c5nc(c(-c6c(F)cccc6F)c6ccc([nH]6)c(-c6c(F)cccc6F)c6nc(c(-c7c(F)cccc7F)c7ccc4[nH]7)C=C6)C=C5)cc3)c(C(=O)c3cc(C)ccn3)[nH]c2c1
REMARK SMILES IDX 14 1 13 2 12 3 11 4 9 5 10 6 8 8 7 9 3 10 4 11 87 12 5 13
REMARK SMILES IDX 86 14 6 15 85 16 75 17 2 19 1 20 76 21 77 22 78 23 79 24
REMARK SMILES IDX 84 25 80 26 83 27 81 28 82 29 15 30 16 31 17 32 18 33 19 34
REMARK SMILES IDX 20 36 21 37 22 38 74 39 23 40 73 41 24 42 25 43 26 44 67 45
REMARK SMILES IDX 27 46 72 47 66 48 68 49 28 50 71 51 65 52 64 53 29 55 55 56
REMARK SMILES IDX 38 57 54 58 39 59 42 60 53 61 69 62 40 63 41 64 52 66 70 67
REMARK SMILES IDX 43 68 30 69 31 70 36 71 32 72 33 73 35 74 37 75 34 76 56 77
REMARK SMILES IDX 57 78 62 79 58 80 59 81 61 82 63 83 60 84 44 85 45 86 50 87
REMARK SMILES IDX 46 88 47 89 49 90 51 91 48 92
REMARK H PARENT 11 7 85 18 18 35 68 54 42 65
REMARK Flexibility Score: inf
ROOT
ATOM      1  C   UNL A   1      36.274  21.474  25.195  1.00  0.00     0.002 C 
ENDROOT
BRANCH   1   2
ATOM      2  C   UNL A   1      35.778  22.283  23.989  1.00  0.00     0.021 C 
BRANCH   2   3
ATOM      3  C   UNL A   1      35.091  23.599  24.348  1.00  0.00     0.116 C 
BRANCH   3   4
ATOM      4  N   UNL A   1      34.633  24.317  23.180  1.00  0.00    -0.356 N 
ATOM      5  C   UNL A   1      33.841  25.423  23.084  1.00  0.00     0.224 C 
ATOM      6  O   UNL A   1      33.765  25.956  21.972  1.00  0.00    -0.275 OA
ATOM      7  H   UNL A   1      34.939  23.949  22.319  1.00  0.00     0.163 HD
BRANCH   5   8
ATOM      8  C   UNL A   1      33.211  26.069  24.312  1.00  0.00     0.138 C 
BRANCH   8   9
ATOM      9  C   UNL A   1      31.711  26.217  24.299  1.00  0.00    -0.002 A 
ATOM     10  C   UNL A   1      29.030  29.015  22.581  1.00  0.00    -0.046 A 
ATOM     11  C   UNL A   1      30.388  29.216  22.309  1.00  0.00     0.004 A 
ATOM     12  C   UNL A   1      28.639  27.914  23.364  1.00  0.00     0.030 A 
ATOM     13  C   UNL A   1      31.368  28.355  22.818  1.00  0.00     0.011 A 
ATOM     14  C   UNL A   1      29.637  27.067  23.868  1.00  0.00     0.046 A 
ATOM     15  C   UNL A   1      30.990  27.258  23.619  1.00  0.00     0.004 A 
ATOM     16  N   UNL A   1      29.531  25.946  24.654  1.00  0.00    -0.352 N 
ATOM     17  C   UNL A   1      30.763  25.356  24.857  1.00  0.00     0.093 A 
ATOM     18  H   UNL A   1      28.685  25.606  25.025  1.00  0.00     0.167 HD
BRANCH  10  19
ATOM     19  C   UNL A   1      28.009  29.945  21.963  1.00  0.00     0.032 C 
ATOM     20  C   UNL A   1      27.666  31.159  22.815  1.00  0.00     0.009 C 
ENDBRANCH  10  19
BRANCH  17  21
ATOM     21  C   UNL A   1      30.981  24.089  25.548  1.00  0.00     0.227 C 
ATOM     22  O   UNL A   1      30.802  23.946  26.759  1.00  0.00    -0.285 OA
BRANCH  21  23
ATOM     23  C   UNL A   1      31.495  22.918  24.787  1.00  0.00     0.113 A 
ATOM     24  C   UNL A   1      31.909  21.772  25.461  1.00  0.00     0.036 A 
ATOM     25  N   UNL A   1      31.504  23.040  23.435  1.00  0.00    -0.253 NA
ATOM     26  C   UNL A   1      32.369  20.689  24.711  1.00  0.00    -0.047 A 
ATOM     27  C   UNL A   1      31.916  21.967  22.733  1.00  0.00     0.112 A 
ATOM     28  C   UNL A   1      32.828  19.422  25.370  1.00  0.00     0.044 C 
ATOM     29  C   UNL A   1      32.356  20.788  23.316  1.00  0.00     0.023 A 
ENDBRANCH  21  23
ENDBRANCH  17  21
ENDBRANCH   8   9
ENDBRANCH   5   8
ENDBRANCH   3   4
ENDBRANCH   2   3
ENDBRANCH   1   2
BRANCH   1  30
ATOM     30  C   UNL A   1      36.365  19.958  24.985  1.00  0.00     0.002 C 
BRANCH  30  31
ATOM     31  C   UNL A   1      37.775  19.401  24.767  1.00  0.00     0.021 C 
BRANCH  31  32
ATOM     32  C   UNL A   1      38.861  20.018  25.644  1.00  0.00     0.116 C 
BRANCH  32  33
ATOM     33  N   UNL A   1      40.064  19.204  25.694  1.00  0.00    -0.352 N 
ATOM     34  C   UNL A   1      41.344  19.545  26.048  1.00  0.00     0.251 C 
ATOM     35  H   UNL A   1      39.941  18.263  25.433  1.00  0.00     0.163 HD
ATOM     36  O   UNL A   1      42.256  18.740  25.878  1.00  0.00    -0.269 OA
BRANCH  34  37
ATOM     37  C   UNL A   1      41.649  20.878  26.617  1.00  0.00     0.039 A 
ATOM     38  C   UNL A   1      42.099  21.881  25.753  1.00  0.00     0.014 A 
ATOM     39  C   UNL A   1      41.553  21.132  27.988  1.00  0.00     0.014 A 
ATOM     40  C   UNL A   1      42.417  23.146  26.255  1.00  0.00     0.010 A 
ATOM     41  C   UNL A   1      41.814  22.411  28.481  1.00  0.00     0.010 A 
ATOM     42  C   UNL A   1      42.261  23.425  27.622  1.00  0.00    -0.014 A 
BRANCH  42  43
ATOM     43  C   UNL A   1      42.577  24.772  28.158  1.00  0.00     0.031 A 
ATOM     44  C   UNL A   1      43.984  25.126  28.550  1.00  0.00     0.074 A 
ATOM     45  C   UNL A   1      41.588  25.667  28.334  1.00  0.00     0.049 A 
ATOM     46  N   UNL A   1      44.449  26.249  29.034  1.00  0.00    -0.248 NA
ATOM     47  C   UNL A   1      44.997  24.069  28.403  1.00  0.00     0.031 C 
ATOM     48  C   UNL A   1      40.171  25.425  28.057  1.00  0.00     0.029 A 
ATOM     49  N   UNL A   1      41.623  26.958  28.795  1.00  0.00    -0.354 N 
ATOM     50  C   UNL A   1      45.802  26.032  29.263  1.00  0.00     0.074 A 
ATOM     51  C   UNL A   1      46.072  24.655  28.908  1.00  0.00     0.031 C 
ATOM     52  C   UNL A   1      39.475  26.538  28.339  1.00  0.00     0.029 A 
ATOM     53  C   UNL A   1      40.391  27.563  28.828  1.00  0.00     0.049 A 
ATOM     54  H   UNL A   1      42.452  27.408  29.077  1.00  0.00     0.167 HD
ATOM     55  C   UNL A   1      46.737  26.904  29.707  1.00  0.00     0.037 A 
ATOM     56  C   UNL A   1      40.041  28.808  29.200  1.00  0.00     0.037 A 
ATOM     57  C   UNL A   1      46.476  28.282  30.031  1.00  0.00     0.049 A 
ATOM     58  C   UNL A   1      41.102  29.777  29.635  1.00  0.00     0.074 A 
ATOM     59  C   UNL A   1      47.371  29.263  30.419  1.00  0.00     0.029 A 
ATOM     60  N   UNL A   1      45.223  28.874  30.003  1.00  0.00    -0.354 N 
ATOM     61  N   UNL A   1      42.391  29.582  29.770  1.00  0.00    -0.248 NA
ATOM     62  C   UNL A   1      40.662  31.143  29.955  1.00  0.00     0.031 C 
ATOM     63  C   UNL A   1      46.655  30.443  30.651  1.00  0.00     0.029 A 
ATOM     64  C   UNL A   1      45.318  30.203  30.378  1.00  0.00     0.049 A 
ATOM     65  H   UNL A   1      44.388  28.416  29.751  1.00  0.00     0.167 HD
ATOM     66  C   UNL A   1      42.920  30.802  30.171  1.00  0.00     0.074 A 
ATOM     67  C   UNL A   1      41.813  31.733  30.247  1.00  0.00     0.031 C 
ATOM     68  C   UNL A   1      44.207  31.117  30.451  1.00  0.00     0.037 A 
BRANCH  55  69
ATOM     69  C   UNL A   1      48.136  26.385  29.863  1.00  0.00     0.057 A 
ATOM     70  C   UNL A   1      48.577  25.809  31.062  1.00  0.00     0.134 A 
ATOM     71  C   UNL A   1      49.050  26.456  28.805  1.00  0.00     0.134 A 
ATOM     72  F   UNL A   1      47.753  25.724  32.119  1.00  0.00    -0.206 F 
ATOM     73  C   UNL A   1      49.886  25.350  31.214  1.00  0.00     0.040 A 
ATOM     74  C   UNL A   1      50.355  25.979  28.937  1.00  0.00     0.040 A 
ATOM     75  F   UNL A   1      48.690  26.993  27.629  1.00  0.00    -0.206 F 
ATOM     76  C   UNL A   1      50.778  25.432  30.146  1.00  0.00     0.006 A 
ENDBRANCH  55  69
BRANCH  56  77
ATOM     77  C   UNL A   1      38.618  29.215  29.127  1.00  0.00     0.057 A 
ATOM     78  C   UNL A   1      37.800  29.182  30.262  1.00  0.00     0.134 A 
ATOM     79  C   UNL A   1      38.054  29.679  27.934  1.00  0.00     0.134 A 
ATOM     80  F   UNL A   1      38.285  28.732  31.429  1.00  0.00    -0.206 F 
ATOM     81  C   UNL A   1      36.468  29.591  30.213  1.00  0.00     0.040 A 
ATOM     82  C   UNL A   1      36.727  30.108  27.874  1.00  0.00     0.040 A 
ATOM     83  F   UNL A   1      38.792  29.742  26.816  1.00  0.00    -0.206 F 
ATOM     84  C   UNL A   1      35.930  30.062  29.016  1.00  0.00     0.006 A 
ENDBRANCH  56  77
BRANCH  68  85
ATOM     85  C   UNL A   1      44.490  32.534  30.851  1.00  0.00     0.057 A 
ATOM     86  C   UNL A   1      44.760  33.524  29.899  1.00  0.00     0.134 A 
ATOM     87  C   UNL A   1      44.452  32.917  32.197  1.00  0.00     0.134 A 
ATOM     88  F   UNL A   1      44.822  33.216  28.595  1.00  0.00    -0.206 F 
ATOM     89  C   UNL A   1      45.000  34.847  30.274  1.00  0.00     0.040 A 
ATOM     90  C   UNL A   1      44.672  34.240  32.583  1.00  0.00     0.040 A 
ATOM     91  F   UNL A   1      44.193  32.015  33.156  1.00  0.00    -0.206 F 
ATOM     92  C   UNL A   1      44.950  35.209  31.621  1.00  0.00     0.006 A 
ENDBRANCH  68  85
ENDBRANCH  42  43
ENDBRANCH  34  37
ENDBRANCH  32  33
ENDBRANCH  31  32
ENDBRANCH  30  31
ENDBRANCH   1  30
TORSDOF 17
ENDMDL
MODEL 2
REMARK VINA RESULT:     -12.3      0.778      1.888
REMARK SMILES CCc1ccc2c(CC(=O)NCCCCCCNC(=O)c3ccc(-c4c5nc(c(-c6c(F)cccc6F)c6ccc([nH]6)c(-c6c(F)cccc6F)c6nc(c(-c7c(F)cccc7F)c7ccc4[nH]7)C=C6)C=C5)cc3)c(C(=O)c3cc(C)ccn3)[nH]c2c1
REMARK SMILES IDX 14 1 13 2 12 3 11 4 9 5 10 6 8 8 7 9 3 10 4 11 87 12 5 13
REMARK SMILES IDX 86 14 6 15 85 16 75 17 2 19 1 20 76 21 77 22 78 23 79 24
REMARK SMILES IDX 84 25 80 26 83 27 81 28 82 29 15 30 16 31 17 32 18 33 19 34
REMARK SMILES IDX 20 36 21 37 22 38 74 39 23 40 73 41 24 42 25 43 26 44 67 45
REMARK SMILES IDX 27 46 72 47 66 48 68 49 28 50 71 51 65 52 64 53 29 55 55 56
REMARK SMILES IDX 38 57 54 58 39 59 42 60 53 61 69 62 40 63 41 64 52 66 70 67
REMARK SMILES IDX 43 68 30 69 31 70 36 71 32 72 33 73 35 74 37 75 34 76 56 77
REMARK SMILES IDX 57 78 62 79 58 80 59 81 61 82 63 83 60 84 44 85 45 86 50 87
REMARK SMILES IDX 46 88 47 89 49 90 51 91 48 92
REMARK H PARENT 11 7 85 18 18 35 68 54 42 65
REMARK Flexibility Score: inf
ROOT
ATOM      1  C   UNL A   1      37.921  22.330  25.702  1.00  0.00     0.002 C 
ENDROOT
BRANCH   1   2
ATOM      2  C   UNL A   1      37.366  23.734  25.426  1.00  0.00     0.021 C 
BRANCH   2   3
ATOM      3  C   UNL A   1      35.847  23.851  25.547  1.00  0.00     0.116 C 
BRANCH   3   4
ATOM      4  N   UNL A   1      35.211  24.089  24.271  1.00  0.00    -0.356 N 
ATOM      5  C   UNL A   1      34.207  24.950  23.938  1.00  0.00     0.224 C 
ATOM      6  O   UNL A   1      33.984  25.103  22.733  1.00  0.00    -0.275 OA
ATOM      7  H   UNL A   1      35.556  23.545  23.525  1.00  0.00     0.163 HD
BRANCH   5   8
ATOM      8  C   UNL A   1      33.502  25.804  24.985  1.00  0.00     0.138 C 
BRANCH   8   9
ATOM      9  C   UNL A   1      31.995  25.749  24.993  1.00  0.00    -0.002 A 
ATOM     10  C   UNL A   1      28.941  28.067  23.186  1.00  0.00    -0.046 A 
ATOM     11  C   UNL A   1      30.256  28.433  22.877  1.00  0.00     0.004 A 
ATOM     12  C   UNL A   1      28.712  26.968  24.031  1.00  0.00     0.030 A 
ATOM     13  C   UNL A   1      31.349  27.739  23.411  1.00  0.00     0.011 A 
ATOM     14  C   UNL A   1      29.820  26.289  24.559  1.00  0.00     0.046 A 
ATOM     15  C   UNL A   1      31.132  26.647  24.274  1.00  0.00     0.004 A 
ATOM     16  N   UNL A   1      29.876  25.208  25.403  1.00  0.00    -0.352 N 
ATOM     17  C   UNL A   1      31.178  24.800  25.612  1.00  0.00     0.093 A 
ATOM     18  H   UNL A   1      29.088  24.778  25.808  1.00  0.00     0.167 HD
BRANCH  10  19
ATOM     19  C   UNL A   1      27.797  28.817  22.541  1.00  0.00     0.032 C 
ATOM     20  C   UNL A   1      27.637  30.254  23.019  1.00  0.00     0.009 C 
ENDBRANCH  10  19
BRANCH  17  21
ATOM     21  C   UNL A   1      31.573  23.613  26.364  1.00  0.00     0.227 C 
ATOM     22  O   UNL A   1      31.473  23.529  27.589  1.00  0.00    -0.285 OA
BRANCH  21  23
ATOM     23  C   UNL A   1      32.178  22.458  25.645  1.00  0.00     0.113 A 
ATOM     24  C   UNL A   1      31.804  22.178  24.332  1.00  0.00     0.036 A 
ATOM     25  N   UNL A   1      33.105  21.744  26.332  1.00  0.00    -0.253 NA
ATOM     26  C   UNL A   1      32.406  21.097  23.686  1.00  0.00    -0.047 A 
ATOM     27  C   UNL A   1      33.699  20.730  25.672  1.00  0.00     0.112 A 
ATOM     28  C   UNL A   1      32.054  20.739  22.273  1.00  0.00     0.044 C 
ATOM     29  C   UNL A   1      33.385  20.370  24.370  1.00  0.00     0.023 A 
ENDBRANCH  21  23
ENDBRANCH  17  21
ENDBRANCH   8   9
ENDBRANCH   5   8
ENDBRANCH   3   4
ENDBRANCH   2   3
ENDBRANCH   1   2
BRANCH   1  30
ATOM     30  C   UNL A   1      37.506  21.244  24.703  1.00  0.00     0.002 C 
BRANCH  30  31
ATOM     31  C   UNL A   1      38.196  19.887  24.873  1.00  0.00     0.021 C 
BRANCH  31  32
ATOM     32  C   UNL A   1      39.069  19.752  26.118  1.00  0.00     0.116 C 
BRANCH  32  33
ATOM     33  N   UNL A   1      40.328  19.080  25.844  1.00  0.00    -0.352 N 
ATOM     34  C   UNL A   1      41.612  19.559  25.901  1.00  0.00     0.251 C 
ATOM     35  H   UNL A   1      40.247  18.136  25.575  1.00  0.00     0.163 HD
ATOM     36  O   UNL A   1      42.537  18.867  25.482  1.00  0.00    -0.269 OA
BRANCH  34  37
ATOM     37  C   UNL A   1      41.901  20.906  26.444  1.00  0.00     0.039 A 
ATOM     38  C   UNL A   1      41.832  21.093  27.828  1.00  0.00     0.014 A 
ATOM     39  C   UNL A   1      42.180  21.992  25.609  1.00  0.00     0.014 A 
ATOM     40  C   UNL A   1      42.078  22.353  28.377  1.00  0.00     0.010 A 
ATOM     41  C   UNL A   1      42.481  23.237  26.160  1.00  0.00     0.010 A 
ATOM     42  C   UNL A   1      42.421  23.432  27.548  1.00  0.00    -0.014 A 
BRANCH  42  43
ATOM     43  C   UNL A   1      42.702  24.769  28.126  1.00  0.00     0.031 A 
ATOM     44  C   UNL A   1      44.092  25.131  28.570  1.00  0.00     0.074 A 
ATOM     45  C   UNL A   1      41.696  25.648  28.292  1.00  0.00     0.049 A 
ATOM     46  N   UNL A   1      44.527  26.247  29.095  1.00  0.00    -0.248 NA
ATOM     47  C   UNL A   1      45.122  24.090  28.430  1.00  0.00     0.031 C 
ATOM     48  C   UNL A   1      40.292  25.395  27.965  1.00  0.00     0.029 A 
ATOM     49  N   UNL A   1      41.701  26.928  28.785  1.00  0.00    -0.354 N 
ATOM     50  C   UNL A   1      45.874  26.041  29.361  1.00  0.00     0.074 A 
ATOM     51  C   UNL A   1      46.174  24.677  28.982  1.00  0.00     0.031 C 
ATOM     52  C   UNL A   1      39.573  26.492  28.252  1.00  0.00     0.029 A 
ATOM     53  C   UNL A   1      40.461  27.516  28.793  1.00  0.00     0.049 A 
ATOM     54  H   UNL A   1      42.515  27.381  29.103  1.00  0.00     0.167 HD
ATOM     55  C   UNL A   1      46.785  26.914  29.855  1.00  0.00     0.037 A 
ATOM     56  C   UNL A   1      40.082  28.748  29.184  1.00  0.00     0.037 A 
ATOM     57  C   UNL A   1      46.495  28.280  30.203  1.00  0.00     0.049 A 
ATOM     58  C   UNL A   1      41.117  29.718  29.676  1.00  0.00     0.074 A 
ATOM     59  C   UNL A   1      47.365  29.263  30.643  1.00  0.00     0.029 A 
ATOM     60  N   UNL A   1      45.236  28.857  30.150  1.00  0.00    -0.354 N 
ATOM     61  N   UNL A   1      42.404  29.536  29.846  1.00  0.00    -0.248 NA
ATOM     62  C   UNL A   1      40.650  31.071  30.014  1.00  0.00     0.031 C 
ATOM     63  C   UNL A   1      46.627  30.427  30.881  1.00  0.00     0.029 A 
ATOM     64  C   UNL A   1      45.302  30.178  30.560  1.00  0.00     0.049 A 
ATOM     65  H   UNL A   1      44.415  28.395  29.862  1.00  0.00     0.167 HD
ATOM     66  C   UNL A   1      42.904  30.752  30.292  1.00  0.00     0.074 A 
ATOM     67  C   UNL A   1      41.784  31.668  30.356  1.00  0.00     0.031 C 
ATOM     68  C   UNL A   1      44.178  31.077  30.620  1.00  0.00     0.037 A 
BRANCH  55  69
ATOM     69  C   UNL A   1      48.184  26.408  30.043  1.00  0.00     0.057 A 
ATOM     70  C   UNL A   1      49.151  26.532  29.036  1.00  0.00     0.134 A 
ATOM     71  C   UNL A   1      48.572  25.798  31.241  1.00  0.00     0.134 A 
ATOM     72  F   UNL A   1      48.839  27.095  27.859  1.00  0.00    -0.206 F 
ATOM     73  C   UNL A   1      50.446  26.038  29.203  1.00  0.00     0.040 A 
ATOM     74  C   UNL A   1      49.870  25.321  31.429  1.00  0.00     0.040 A 
ATOM     75  F   UNL A   1      47.696  25.652  32.247  1.00  0.00    -0.206 F 
ATOM     76  C   UNL A   1      50.809  25.433  30.405  1.00  0.00     0.006 A 
ENDBRANCH  55  69
BRANCH  56  77
ATOM     77  C   UNL A   1      38.657  29.139  29.077  1.00  0.00     0.057 A 
ATOM     78  C   UNL A   1      38.115  29.556  27.856  1.00  0.00     0.134 A 
ATOM     79  C   UNL A   1      37.800  29.072  30.180  1.00  0.00     0.134 A 
ATOM     80  F   UNL A   1      38.896  29.653  26.770  1.00  0.00    -0.206 F 
ATOM     81  C   UNL A   1      36.768  29.898  27.736  1.00  0.00     0.040 A 
ATOM     82  C   UNL A   1      36.446  29.394  30.070  1.00  0.00     0.040 A 
ATOM     83  F   UNL A   1      38.261  28.670  31.373  1.00  0.00    -0.206 F 
ATOM     84  C   UNL A   1      35.928  29.811  28.845  1.00  0.00     0.006 A 
ENDBRANCH  56  77
BRANCH  68  85
ATOM     85  C   UNL A   1      44.430  32.486  31.062  1.00  0.00     0.057 A 
ATOM     86  C   UNL A   1      44.397  32.848  32.414  1.00  0.00     0.134 A 
ATOM     87  C   UNL A   1      44.749  33.482  30.130  1.00  0.00     0.134 A 
ATOM     88  F   UNL A   1      44.087  31.941  33.352  1.00  0.00    -0.206 F 
ATOM     89  C   UNL A   1      44.656  34.156  32.823  1.00  0.00     0.040 A 
ATOM     90  C   UNL A   1      45.026  34.789  30.529  1.00  0.00     0.040 A 
ATOM     91  F   UNL A   1      44.802  33.196  28.820  1.00  0.00    -0.206 F 
ATOM     92  C   UNL A   1      44.977  35.131  31.879  1.00  0.00     0.006 A 
ENDBRANCH  68  85
ENDBRANCH  42  43
ENDBRANCH  34  37
ENDBRANCH  32  33
ENDBRANCH  31  32
ENDBRANCH  30  31
ENDBRANCH   1  30
TORSDOF 17
ENDMDL
MODEL 3
REMARK VINA RESULT:     -12.1      4.237      8.090
REMARK SMILES CCc1ccc2c(CC(=O)NCCCCCCNC(=O)c3ccc(-c4c5nc(c(-c6c(F)cccc6F)c6ccc([nH]6)c(-c6c(F)cccc6F)c6nc(c(-c7c(F)cccc7F)c7ccc4[nH]7)C=C6)C=C5)cc3)c(C(=O)c3cc(C)ccn3)[nH]c2c1
REMARK SMILES IDX 14 1 13 2 12 3 11 4 9 5 10 6 8 8 7 9 3 10 4 11 87 12 5 13
REMARK SMILES IDX 86 14 6 15 85 16 75 17 2 19 1 20 76 21 77 22 78 23 79 24
REMARK SMILES IDX 84 25 80 26 83 27 81 28 82 29 15 30 16 31 17 32 18 33 19 34
REMARK SMILES IDX 20 36 21 37 22 38 74 39 23 40 73 41 24 42 25 43 26 44 67 45
REMARK SMILES IDX 27 46 72 47 66 48 68 49 28 50 71 51 65 52 64 53 29 55 55 56
REMARK SMILES IDX 38 57 54 58 39 59 42 60 53 61 69 62 40 63 41 64 52 66 70 67
REMARK SMILES IDX 43 68 30 69 31 70 36 71 32 72 33 73 35 74 37 75 34 76 56 77
REMARK SMILES IDX 57 78 62 79 58 80 59 81 61 82 63 83 60 84 44 85 45 86 50 87
REMARK SMILES IDX 46 88 47 89 49 90 51 91 48 92
REMARK H PARENT 11 7 85 18 18 35 68 54 42 65
REMARK Flexibility Score: inf
ROOT
ATOM      1  C   UNL A   1      34.884  23.909  24.061  1.00  0.00     0.002 C 
ENDROOT
BRANCH   1   2
ATOM      2  C   UNL A   1      33.874  25.002  23.683  1.00  0.00     0.021 C 
BRANCH   2   3
ATOM      3  C   UNL A   1      32.705  24.516  22.829  1.00  0.00     0.116 C 
BRANCH   3   4
ATOM      4  N   UNL A   1      32.013  25.604  22.175  1.00  0.00    -0.356 N 
ATOM      5  C   UNL A   1      30.925  26.321  22.580  1.00  0.00     0.224 C 
ATOM      6  O   UNL A   1      30.655  27.334  21.927  1.00  0.00    -0.275 OA
ATOM      7  H   UNL A   1      32.385  25.869  21.302  1.00  0.00     0.163 HD
BRANCH   5   8
ATOM      8  C   UNL A   1      30.176  25.987  23.864  1.00  0.00     0.138 C 
BRANCH   8   9
ATOM      9  C   UNL A   1      30.858  26.360  25.156  1.00  0.00    -0.002 A 
ATOM     10  C   UNL A   1      32.541  29.937  26.686  1.00  0.00    -0.046 A 
ATOM     11  C   UNL A   1      31.946  30.028  25.423  1.00  0.00     0.004 A 
ATOM     12  C   UNL A   1      32.525  28.709  27.369  1.00  0.00     0.030 A 
ATOM     13  C   UNL A   1      31.353  28.914  24.815  1.00  0.00     0.011 A 
ATOM     14  C   UNL A   1      31.931  27.604  26.741  1.00  0.00     0.046 A 
ATOM     15  C   UNL A   1      31.347  27.673  25.483  1.00  0.00     0.004 A 
ATOM     16  N   UNL A   1      31.791  26.309  27.175  1.00  0.00    -0.352 N 
ATOM     17  C   UNL A   1      31.065  25.553  26.277  1.00  0.00     0.093 A 
ATOM     18  H   UNL A   1      32.161  25.963  28.020  1.00  0.00     0.167 HD
BRANCH  10  19
ATOM     19  C   UNL A   1      33.120  31.183  27.319  1.00  0.00     0.032 C 
ATOM     20  C   UNL A   1      34.625  31.131  27.549  1.00  0.00     0.009 C 
ENDBRANCH  10  19
BRANCH  17  21
ATOM     21  C   UNL A   1      30.641  24.173  26.493  1.00  0.00     0.227 C 
ATOM     22  O   UNL A   1      29.471  23.857  26.719  1.00  0.00    -0.285 OA
BRANCH  21  23
ATOM     23  C   UNL A   1      31.659  23.087  26.501  1.00  0.00     0.113 A 
ATOM     24  C   UNL A   1      31.760  22.215  25.419  1.00  0.00     0.036 A 
ATOM     25  N   UNL A   1      32.467  23.032  27.590  1.00  0.00    -0.253 NA
ATOM     26  C   UNL A   1      32.738  21.220  25.456  1.00  0.00    -0.047 A 
ATOM     27  C   UNL A   1      33.428  22.087  27.583  1.00  0.00     0.112 A 
ATOM     28  C   UNL A   1      32.906  20.249  24.326  1.00  0.00     0.044 C 
ATOM     29  C   UNL A   1      33.598  21.169  26.558  1.00  0.00     0.023 A 
ENDBRANCH  21  23
ENDBRANCH  17  21
ENDBRANCH   8   9
ENDBRANCH   5   8
ENDBRANCH   3   4
ENDBRANCH   2   3
ENDBRANCH   1   2
BRANCH   1  30
ATOM     30  C   UNL A   1      35.595  24.099  25.406  1.00  0.00     0.002 C 
BRANCH  30  31
ATOM     31  C   UNL A   1      36.979  23.453  25.523  1.00  0.00     0.021 C 
BRANCH  31  32
ATOM     32  C   UNL A   1      37.935  24.134  26.497  1.00  0.00     0.116 C 
BRANCH  32  33
ATOM     33  N   UNL A   1      39.324  24.020  26.085  1.00  0.00    -0.352 N 
ATOM     34  C   UNL A   1      40.417  24.759  26.457  1.00  0.00     0.251 C 
ATOM     35  H   UNL A   1      39.508  23.301  25.438  1.00  0.00     0.163 HD
ATOM     36  O   UNL A   1      41.487  24.598  25.875  1.00  0.00    -0.269 OA
BRANCH  34  37
ATOM     37  C   UNL A   1      40.325  25.764  27.541  1.00  0.00     0.039 A 
ATOM     38  C   UNL A   1      41.145  26.895  27.471  1.00  0.00     0.014 A 
ATOM     39  C   UNL A   1      39.489  25.580  28.647  1.00  0.00     0.014 A 
ATOM     40  C   UNL A   1      41.102  27.855  28.484  1.00  0.00     0.010 A 
ATOM     41  C   UNL A   1      39.403  26.566  29.630  1.00  0.00     0.010 A 
ATOM     42  C   UNL A   1      40.218  27.706  29.564  1.00  0.00    -0.014 A 
BRANCH  42  43
ATOM     43  C   UNL A   1      40.153  28.732  30.634  1.00  0.00     0.031 A 
ATOM     44  C   UNL A   1      39.141  29.841  30.566  1.00  0.00     0.074 A 
ATOM     45  C   UNL A   1      41.035  28.691  31.649  1.00  0.00     0.049 A 
ATOM     46  N   UNL A   1      38.934  30.823  31.405  1.00  0.00    -0.248 NA
ATOM     47  C   UNL A   1      38.264  29.864  29.385  1.00  0.00     0.031 C 
ATOM     48  C   UNL A   1      42.108  27.707  31.797  1.00  0.00     0.029 A 
ATOM     49  N   UNL A   1      41.172  29.504  32.746  1.00  0.00    -0.354 N 
ATOM     50  C   UNL A   1      37.916  31.588  30.850  1.00  0.00     0.074 A 
ATOM     51  C   UNL A   1      37.580  30.982  29.581  1.00  0.00     0.031 C 
ATOM     52  C   UNL A   1      42.784  27.965  32.928  1.00  0.00     0.029 A 
ATOM     53  C   UNL A   1      42.202  29.135  33.576  1.00  0.00     0.049 A 
ATOM     54  H   UNL A   1      40.588  30.277  32.922  1.00  0.00     0.167 HD
ATOM     55  C   UNL A   1      37.303  32.682  31.361  1.00  0.00     0.037 A 
ATOM     56  C   UNL A   1      42.623  29.675  34.735  1.00  0.00     0.037 A 
ATOM     57  C   UNL A   1      37.616  33.268  32.638  1.00  0.00     0.049 A 
ATOM     58  C   UNL A   1      41.893  30.853  35.311  1.00  0.00     0.074 A 
ATOM     59  C   UNL A   1      37.001  34.333  33.274  1.00  0.00     0.029 A 
ATOM     60  N   UNL A   1      38.633  32.836  33.475  1.00  0.00    -0.354 N 
ATOM     61  N   UNL A   1      40.878  31.518  34.815  1.00  0.00    -0.248 NA
ATOM     62  C   UNL A   1      42.356  31.347  36.617  1.00  0.00     0.031 C 
ATOM     63  C   UNL A   1      37.664  34.561  34.485  1.00  0.00     0.029 A 
ATOM     64  C   UNL A   1      38.672  33.619  34.616  1.00  0.00     0.049 A 
ATOM     65  H   UNL A   1      39.238  32.082  33.286  1.00  0.00     0.167 HD
ATOM     66  C   UNL A   1      40.568  32.495  35.752  1.00  0.00     0.074 A 
ATOM     67  C   UNL A   1      41.496  32.328  36.852  1.00  0.00     0.031 C 
ATOM     68  C   UNL A   1      39.602  33.443  35.702  1.00  0.00     0.037 A 
BRANCH  55  69
ATOM     69  C   UNL A   1      36.226  33.312  30.529  1.00  0.00     0.057 A 
ATOM     70  C   UNL A   1      36.526  34.108  29.416  1.00  0.00     0.134 A 
ATOM     71  C   UNL A   1      34.874  33.116  30.839  1.00  0.00     0.134 A 
ATOM     72  F   UNL A   1      37.803  34.346  29.075  1.00  0.00    -0.206 F 
ATOM     73  C   UNL A   1      35.523  34.714  28.660  1.00  0.00     0.040 A 
ATOM     74  C   UNL A   1      33.861  33.697  30.075  1.00  0.00     0.040 A 
ATOM     75  F   UNL A   1      34.518  32.361  31.889  1.00  0.00    -0.206 F 
ATOM     76  C   UNL A   1      34.184  34.506  28.987  1.00  0.00     0.006 A 
ENDBRANCH  55  69
BRANCH  56  77
ATOM     77  C   UNL A   1      43.772  29.066  35.445  1.00  0.00     0.057 A 
ATOM     78  C   UNL A   1      43.579  28.044  36.382  1.00  0.00     0.134 A 
ATOM     79  C   UNL A   1      45.086  29.464  35.179  1.00  0.00     0.134 A 
ATOM     80  F   UNL A   1      42.339  27.634  36.686  1.00  0.00    -0.206 F 
ATOM     81  C   UNL A   1      44.655  27.442  37.035  1.00  0.00     0.040 A 
ATOM     82  C   UNL A   1      46.173  28.858  35.813  1.00  0.00     0.040 A 
ATOM     83  F   UNL A   1      45.332  30.431  34.284  1.00  0.00    -0.206 F 
ATOM     84  C   UNL A   1      45.958  27.845  36.745  1.00  0.00     0.006 A 
ENDBRANCH  56  77
BRANCH  68  85
ATOM     85  C   UNL A   1      39.489  34.364  36.878  1.00  0.00     0.057 A 
ATOM     86  C   UNL A   1      38.787  33.997  38.033  1.00  0.00     0.134 A 
ATOM     87  C   UNL A   1      40.123  35.613  36.871  1.00  0.00     0.134 A 
ATOM     88  F   UNL A   1      38.149  32.819  38.094  1.00  0.00    -0.206 F 
ATOM     89  C   UNL A   1      38.705  34.849  39.135  1.00  0.00     0.040 A 
ATOM     90  C   UNL A   1      40.062  36.465  37.974  1.00  0.00     0.040 A 
ATOM     91  F   UNL A   1      40.816  36.019  35.796  1.00  0.00    -0.206 F 
ATOM     92  C   UNL A   1      39.349  36.086  39.109  1.00  0.00     0.006 A 
ENDBRANCH  68  85
ENDBRANCH  42  43
ENDBRANCH  34  37
ENDBRANCH  32  33
ENDBRANCH  31  32
ENDBRANCH  30  31
ENDBRANCH   1  30
TORSDOF 17
ENDMDL
