MODEL 1
REMARK VINA RESULT:     -10.9      0.000      0.000
REMARK SMILES CCC[C@H](Oc1ccccc1C)C(=O)NCCCCCCNC(=O)c1ccc(-c2c3nc(c(-c4c(F)cccc4F)c4ccc([nH]4)c(-c4c(F)cccc4F)c4nc(c(-c5c(F)cccc5F)c5ccc2[nH]5)C=C4)C=C3)cc1
REMARK SMILES IDX 18 1 17 2 16 3 15 4 13 5 14 6 4 8 3 9 2 10 1 11 5 12 6 13
REMARK SMILES IDX 7 14 11 15 8 16 10 17 12 18 9 19 19 20 20 21 21 22 22 23
REMARK SMILES IDX 23 24 24 26 25 27 26 28 78 29 27 30 77 31 28 32 29 33 30 34
REMARK SMILES IDX 71 35 31 36 76 37 70 38 72 39 32 40 75 41 69 42 68 43 33 45
REMARK SMILES IDX 59 46 42 47 58 48 43 49 46 50 57 51 73 52 44 53 45 54 56 56
REMARK SMILES IDX 74 57 47 58 34 59 35 60 40 61 36 62 37 63 39 64 41 65 38 66
REMARK SMILES IDX 60 67 61 68 66 69 62 70 63 71 65 72 67 73 64 74 48 75 49 76
REMARK SMILES IDX 54 77 50 78 51 79 53 80 55 81 52 82
REMARK H PARENT 15 7 22 25 72 44 46 55
REMARK Flexibility Score: inf
ROOT
ATOM      1  C   UNL A   1      32.513  28.926  26.396  1.00  0.00     0.002 C 
ENDROOT
BRANCH   1   2
ATOM      2  C   UNL A   1      32.500  27.421  26.098  1.00  0.00     0.021 C 
BRANCH   2   3
ATOM      3  C   UNL A   1      31.131  26.741  26.063  1.00  0.00     0.116 C 
BRANCH   3   4
ATOM      4  N   UNL A   1      31.067  25.532  26.859  1.00  0.00    -0.353 N 
ATOM      5  C   UNL A   1      31.504  24.272  26.559  1.00  0.00     0.261 C 
ATOM      6  O   UNL A   1      31.480  23.433  27.465  1.00  0.00    -0.271 OA
ATOM      7  H   UNL A   1      30.650  25.633  27.745  1.00  0.00     0.163 HD
BRANCH   5   8
ATOM      8  C   UNL A   1      32.048  23.906  25.161  1.00  0.00     0.261 C 
BRANCH   8   9
ATOM      9  C   UNL A   1      30.906  23.806  24.131  1.00  0.00     0.055 C 
BRANCH   9  10
ATOM     10  C   UNL A   1      31.269  24.332  22.739  1.00  0.00     0.001 C 
ATOM     11  C   UNL A   1      32.088  25.614  22.778  1.00  0.00     0.004 C 
ENDBRANCH   9  10
ENDBRANCH   8   9
BRANCH   8  12
ATOM     12  O   UNL A   1      32.761  22.670  25.282  1.00  0.00    -0.480 OA
BRANCH  12  13
ATOM     13  C   UNL A   1      34.089  22.619  24.947  1.00  0.00     0.123 A 
ATOM     14  C   UNL A   1      34.636  23.086  23.749  1.00  0.00     0.047 A 
ATOM     15  C   UNL A   1      34.937  22.043  25.911  1.00  0.00    -0.009 A 
ATOM     16  C   UNL A   1      36.002  22.949  23.486  1.00  0.00     0.004 A 
ATOM     17  C   UNL A   1      36.308  21.908  25.636  1.00  0.00     0.007 A 
ATOM     18  C   UNL A   1      34.395  21.564  27.230  1.00  0.00     0.048 C 
ATOM     19  C   UNL A   1      36.836  22.354  24.426  1.00  0.00     0.001 A 
ENDBRANCH  12  13
ENDBRANCH   8  12
ENDBRANCH   5   8
ENDBRANCH   3   4
ENDBRANCH   2   3
ENDBRANCH   1   2
BRANCH   1  20
ATOM     20  C   UNL A   1      33.876  29.587  26.650  1.00  0.00     0.002 C 
BRANCH  20  21
ATOM     21  C   UNL A   1      33.906  30.759  27.634  1.00  0.00     0.021 C 
BRANCH  21  22
ATOM     22  C   UNL A   1      35.193  31.572  27.633  1.00  0.00     0.116 C 
BRANCH  22  23
ATOM     23  N   UNL A   1      35.672  31.946  28.959  1.00  0.00    -0.352 N 
ATOM     24  C   UNL A   1      36.504  31.242  29.815  1.00  0.00     0.251 C 
ATOM     25  H   UNL A   1      35.363  32.820  29.291  1.00  0.00     0.163 HD
ATOM     26  O   UNL A   1      36.811  31.705  30.901  1.00  0.00    -0.269 OA
BRANCH  24  27
ATOM     27  C   UNL A   1      37.132  29.984  29.336  1.00  0.00     0.039 A 
ATOM     28  C   UNL A   1      37.331  28.966  30.275  1.00  0.00     0.014 A 
ATOM     29  C   UNL A   1      37.721  29.903  28.075  1.00  0.00     0.014 A 
ATOM     30  C   UNL A   1      38.332  28.025  30.052  1.00  0.00     0.010 A 
ATOM     31  C   UNL A   1      38.773  29.026  27.888  1.00  0.00     0.010 A 
ATOM     32  C   UNL A   1      39.130  28.145  28.913  1.00  0.00    -0.014 A 
BRANCH  32  33
ATOM     33  C   UNL A   1      40.452  27.533  28.827  1.00  0.00     0.031 A 
ATOM     34  C   UNL A   1      40.620  26.113  28.470  1.00  0.00     0.074 A 
ATOM     35  C   UNL A   1      41.542  28.293  29.076  1.00  0.00     0.049 A 
ATOM     36  N   UNL A   1      41.582  25.368  28.907  1.00  0.00    -0.248 NA
ATOM     37  C   UNL A   1      39.683  25.406  27.607  1.00  0.00     0.031 C 
ATOM     38  C   UNL A   1      42.940  27.941  28.848  1.00  0.00     0.029 A 
ATOM     39  N   UNL A   1      41.595  29.494  29.795  1.00  0.00    -0.354 N 
ATOM     40  C   UNL A   1      41.543  24.185  28.207  1.00  0.00     0.074 A 
ATOM     41  C   UNL A   1      40.309  24.234  27.453  1.00  0.00     0.031 C 
ATOM     42  C   UNL A   1      43.713  28.725  29.616  1.00  0.00     0.029 A 
ATOM     43  C   UNL A   1      42.832  29.506  30.468  1.00  0.00     0.049 A 
ATOM     44  H   UNL A   1      40.902  30.192  29.826  1.00  0.00     0.167 HD
ATOM     45  C   UNL A   1      42.617  23.342  28.228  1.00  0.00     0.037 A 
ATOM     46  C   UNL A   1      42.903  29.557  31.829  1.00  0.00     0.037 A 
ATOM     47  C   UNL A   1      43.702  23.875  29.045  1.00  0.00     0.049 A 
ATOM     48  C   UNL A   1      43.617  28.383  32.454  1.00  0.00     0.074 A 
ATOM     49  C   UNL A   1      44.824  24.618  28.715  1.00  0.00     0.029 A 
ATOM     50  N   UNL A   1      43.573  23.945  30.428  1.00  0.00    -0.354 N 
ATOM     51  N   UNL A   1      43.838  27.256  31.839  1.00  0.00    -0.248 NA
ATOM     52  C   UNL A   1      44.074  28.364  33.842  1.00  0.00     0.031 C 
ATOM     53  C   UNL A   1      45.342  25.185  29.902  1.00  0.00     0.029 A 
ATOM     54  C   UNL A   1      44.546  24.774  30.957  1.00  0.00     0.049 A 
ATOM     55  H   UNL A   1      42.889  23.473  30.954  1.00  0.00     0.167 HD
ATOM     56  C   UNL A   1      44.374  26.357  32.724  1.00  0.00     0.074 A 
ATOM     57  C   UNL A   1      44.540  27.108  33.953  1.00  0.00     0.031 C 
ATOM     58  C   UNL A   1      44.602  25.056  32.381  1.00  0.00     0.037 A 
BRANCH  45  59
ATOM     59  C   UNL A   1      42.790  22.214  27.238  1.00  0.00     0.057 A 
ATOM     60  C   UNL A   1      42.031  21.031  27.337  1.00  0.00     0.134 A 
ATOM     61  C   UNL A   1      43.732  22.214  26.196  1.00  0.00     0.134 A 
ATOM     62  F   UNL A   1      41.010  20.916  28.196  1.00  0.00    -0.206 F 
ATOM     63  C   UNL A   1      42.286  19.894  26.560  1.00  0.00     0.040 A 
ATOM     64  C   UNL A   1      44.035  21.068  25.446  1.00  0.00     0.040 A 
ATOM     65  F   UNL A   1      44.375  23.335  25.841  1.00  0.00    -0.206 F 
ATOM     66  C   UNL A   1      43.322  19.893  25.641  1.00  0.00     0.006 A 
ENDBRANCH  45  59
BRANCH  46  67
ATOM     67  C   UNL A   1      41.762  30.262  32.468  1.00  0.00     0.057 A 
ATOM     68  C   UNL A   1      40.670  29.512  32.936  1.00  0.00     0.134 A 
ATOM     69  C   UNL A   1      41.871  31.580  32.918  1.00  0.00     0.134 A 
ATOM     70  F   UNL A   1      40.509  28.238  32.543  1.00  0.00    -0.206 F 
ATOM     71  C   UNL A   1      39.781  30.017  33.888  1.00  0.00     0.040 A 
ATOM     72  C   UNL A   1      40.981  32.102  33.863  1.00  0.00     0.040 A 
ATOM     73  F   UNL A   1      42.898  32.351  32.534  1.00  0.00    -0.206 F 
ATOM     74  C   UNL A   1      39.955  31.309  34.377  1.00  0.00     0.006 A 
ENDBRANCH  46  67
BRANCH  58  75
ATOM     75  C   UNL A   1      44.976  23.964  33.342  1.00  0.00     0.057 A 
ATOM     76  C   UNL A   1      44.106  22.934  33.730  1.00  0.00     0.134 A 
ATOM     77  C   UNL A   1      46.303  23.843  33.804  1.00  0.00     0.134 A 
ATOM     78  F   UNL A   1      42.847  22.874  33.273  1.00  0.00    -0.206 F 
ATOM     79  C   UNL A   1      44.511  21.888  34.568  1.00  0.00     0.040 A 
ATOM     80  C   UNL A   1      46.731  22.779  34.603  1.00  0.00     0.040 A 
ATOM     81  F   UNL A   1      47.242  24.746  33.482  1.00  0.00    -0.206 F 
ATOM     82  C   UNL A   1      45.830  21.802  35.000  1.00  0.00     0.006 A 
ENDBRANCH  58  75
ENDBRANCH  32  33
ENDBRANCH  24  27
ENDBRANCH  22  23
ENDBRANCH  21  22
ENDBRANCH  20  21
ENDBRANCH   1  20
TORSDOF 17
ENDMDL
MODEL 2
REMARK VINA RESULT:     -10.8      1.280      2.343
REMARK SMILES CCC[C@H](Oc1ccccc1C)C(=O)NCCCCCCNC(=O)c1ccc(-c2c3nc(c(-c4c(F)cccc4F)c4ccc([nH]4)c(-c4c(F)cccc4F)c4nc(c(-c5c(F)cccc5F)c5ccc2[nH]5)C=C4)C=C3)cc1
REMARK SMILES IDX 18 1 17 2 16 3 15 4 13 5 14 6 4 8 3 9 2 10 1 11 5 12 6 13
REMARK SMILES IDX 7 14 11 15 8 16 10 17 12 18 9 19 19 20 20 21 21 22 22 23
REMARK SMILES IDX 23 24 24 26 25 27 26 28 78 29 27 30 77 31 28 32 29 33 30 34
REMARK SMILES IDX 71 35 31 36 76 37 70 38 72 39 32 40 75 41 69 42 68 43 33 45
REMARK SMILES IDX 59 46 42 47 58 48 43 49 46 50 57 51 73 52 44 53 45 54 56 56
REMARK SMILES IDX 74 57 47 58 34 59 35 60 40 61 36 62 37 63 39 64 41 65 38 66
REMARK SMILES IDX 60 67 61 68 66 69 62 70 63 71 65 72 67 73 64 74 48 75 49 76
REMARK SMILES IDX 54 77 50 78 51 79 53 80 55 81 52 82
REMARK H PARENT 15 7 22 25 72 44 46 55
REMARK Flexibility Score: inf
ROOT
ATOM      1  C   UNL A   1      33.250  28.918  25.699  1.00  0.00     0.002 C 
ENDROOT
BRANCH   1   2
ATOM      2  C   UNL A   1      33.606  28.075  24.468  1.00  0.00     0.021 C 
BRANCH   2   3
ATOM      3  C   UNL A   1      33.563  26.557  24.642  1.00  0.00     0.116 C 
BRANCH   3   4
ATOM      4  N   UNL A   1      33.624  25.832  23.390  1.00  0.00    -0.353 N 
ATOM      5  C   UNL A   1      33.828  24.497  23.170  1.00  0.00     0.261 C 
ATOM      6  O   UNL A   1      33.682  24.085  22.014  1.00  0.00    -0.271 OA
ATOM      7  H   UNL A   1      33.498  26.378  22.580  1.00  0.00     0.163 HD
BRANCH   5   8
ATOM      8  C   UNL A   1      34.186  23.525  24.314  1.00  0.00     0.261 C 
BRANCH   8   9
ATOM      9  C   UNL A   1      35.276  22.528  23.873  1.00  0.00     0.055 C 
BRANCH   9  10
ATOM     10  C   UNL A   1      36.704  23.070  23.982  1.00  0.00     0.001 C 
ATOM     11  C   UNL A   1      37.046  23.581  25.374  1.00  0.00     0.004 C 
ENDBRANCH   9  10
ENDBRANCH   8   9
BRANCH   8  12
ATOM     12  O   UNL A   1      32.984  22.854  24.707  1.00  0.00    -0.480 OA
BRANCH  12  13
ATOM     13  C   UNL A   1      32.899  21.492  24.589  1.00  0.00     0.123 A 
ATOM     14  C   UNL A   1      32.527  20.806  23.429  1.00  0.00     0.047 A 
ATOM     15  C   UNL A   1      33.218  20.759  25.747  1.00  0.00    -0.009 A 
ATOM     16  C   UNL A   1      32.431  19.412  23.424  1.00  0.00     0.004 A 
ATOM     17  C   UNL A   1      33.117  19.359  25.732  1.00  0.00     0.007 A 
ATOM     18  C   UNL A   1      33.662  21.457  27.004  1.00  0.00     0.048 C 
ATOM     19  C   UNL A   1      32.718  18.689  24.576  1.00  0.00     0.001 A 
ENDBRANCH  12  13
ENDBRANCH   8  12
ENDBRANCH   5   8
ENDBRANCH   3   4
ENDBRANCH   2   3
ENDBRANCH   1   2
BRANCH   1  20
ATOM     20  C   UNL A   1      34.385  29.260  26.678  1.00  0.00     0.002 C 
BRANCH  20  21
ATOM     21  C   UNL A   1      34.401  30.678  27.252  1.00  0.00     0.021 C 
BRANCH  21  22
ATOM     22  C   UNL A   1      34.534  30.761  28.767  1.00  0.00     0.116 C 
BRANCH  22  23
ATOM     23  N   UNL A   1      35.586  31.657  29.233  1.00  0.00    -0.352 N 
ATOM     24  C   UNL A   1      36.933  31.392  29.429  1.00  0.00     0.251 C 
ATOM     25  H   UNL A   1      35.301  32.577  29.435  1.00  0.00     0.163 HD
ATOM     26  O   UNL A   1      37.685  32.266  29.828  1.00  0.00    -0.269 OA
BRANCH  24  27
ATOM     27  C   UNL A   1      37.475  30.073  29.013  1.00  0.00     0.039 A 
ATOM     28  C   UNL A   1      37.625  29.097  30.004  1.00  0.00     0.014 A 
ATOM     29  C   UNL A   1      38.039  29.888  27.752  1.00  0.00     0.014 A 
ATOM     30  C   UNL A   1      38.563  28.085  29.822  1.00  0.00     0.010 A 
ATOM     31  C   UNL A   1      39.032  28.938  27.602  1.00  0.00     0.010 A 
ATOM     32  C   UNL A   1      39.350  28.094  28.669  1.00  0.00    -0.014 A 
BRANCH  32  33
ATOM     33  C   UNL A   1      40.630  27.397  28.602  1.00  0.00     0.031 A 
ATOM     34  C   UNL A   1      40.706  25.954  28.309  1.00  0.00     0.074 A 
ATOM     35  C   UNL A   1      41.768  28.097  28.809  1.00  0.00     0.049 A 
ATOM     36  N   UNL A   1      41.624  25.171  28.772  1.00  0.00    -0.248 NA
ATOM     37  C   UNL A   1      39.719  25.269  27.485  1.00  0.00     0.031 C 
ATOM     38  C   UNL A   1      43.139  27.649  28.587  1.00  0.00     0.029 A 
ATOM     39  N   UNL A   1      41.902  29.324  29.473  1.00  0.00    -0.354 N 
ATOM     40  C   UNL A   1      41.505  23.962  28.128  1.00  0.00     0.074 A 
ATOM     41  C   UNL A   1      40.269  24.055  27.380  1.00  0.00     0.031 C 
ATOM     42  C   UNL A   1      43.967  28.417  29.315  1.00  0.00     0.029 A 
ATOM     43  C   UNL A   1      43.144  29.289  30.136  1.00  0.00     0.049 A 
ATOM     44  H   UNL A   1      41.254  30.065  29.476  1.00  0.00     0.167 HD
ATOM     45  C   UNL A   1      42.525  23.056  28.179  1.00  0.00     0.037 A 
ATOM     46  C   UNL A   1      43.231  29.396  31.493  1.00  0.00     0.037 A 
ATOM     47  C   UNL A   1      43.648  23.556  28.964  1.00  0.00     0.049 A 
ATOM     48  C   UNL A   1      43.877  28.209  32.165  1.00  0.00     0.074 A 
ATOM     49  C   UNL A   1      44.811  24.213  28.593  1.00  0.00     0.029 A 
ATOM     50  N   UNL A   1      43.538  23.696  30.343  1.00  0.00    -0.354 N 
ATOM     51  N   UNL A   1      44.021  27.044  31.601  1.00  0.00    -0.248 NA
ATOM     52  C   UNL A   1      44.345  28.223  33.550  1.00  0.00     0.031 C 
ATOM     53  C   UNL A   1      45.375  24.799  29.750  1.00  0.00     0.029 A 
ATOM     54  C   UNL A   1      44.565  24.485  30.827  1.00  0.00     0.049 A 
ATOM     55  H   UNL A   1      42.830  23.291  30.895  1.00  0.00     0.167 HD
ATOM     56  C   UNL A   1      44.508  26.153  32.522  1.00  0.00     0.074 A 
ATOM     57  C   UNL A   1      44.732  26.947  33.714  1.00  0.00     0.031 C 
ATOM     58  C   UNL A   1      44.652  24.827  32.237  1.00  0.00     0.037 A 
BRANCH  45  59
ATOM     59  C   UNL A   1      42.618  21.876  27.241  1.00  0.00     0.057 A 
ATOM     60  C   UNL A   1      41.822  20.729  27.426  1.00  0.00     0.134 A 
ATOM     61  C   UNL A   1      43.517  21.791  26.165  1.00  0.00     0.134 A 
ATOM     62  F   UNL A   1      40.833  20.693  28.328  1.00  0.00    -0.206 F 
ATOM     63  C   UNL A   1      42.005  19.547  26.697  1.00  0.00     0.040 A 
ATOM     64  C   UNL A   1      43.749  20.599  25.461  1.00  0.00     0.040 A 
ATOM     65  F   UNL A   1      44.185  22.869  25.731  1.00  0.00    -0.206 F 
ATOM     66  C   UNL A   1      43.003  19.463  25.740  1.00  0.00     0.006 A 
ENDBRANCH  45  59
BRANCH  46  67
ATOM     67  C   UNL A   1      42.142  30.198  32.107  1.00  0.00     0.057 A 
ATOM     68  C   UNL A   1      42.247  31.599  32.119  1.00  0.00     0.134 A 
ATOM     69  C   UNL A   1      40.884  29.650  32.371  1.00  0.00     0.134 A 
ATOM     70  F   UNL A   1      43.427  32.189  31.872  1.00  0.00    -0.206 F 
ATOM     71  C   UNL A   1      41.130  32.421  32.287  1.00  0.00     0.040 A 
ATOM     72  C   UNL A   1      39.759  30.462  32.550  1.00  0.00     0.040 A 
ATOM     73  F   UNL A   1      40.699  28.322  32.354  1.00  0.00    -0.206 F 
ATOM     74  C   UNL A   1      39.874  31.850  32.474  1.00  0.00     0.006 A 
ENDBRANCH  46  67
BRANCH  58  75
ATOM     75  C   UNL A   1      44.966  23.758  33.244  1.00  0.00     0.057 A 
ATOM     76  C   UNL A   1      46.213  23.618  33.870  1.00  0.00     0.134 A 
ATOM     77  C   UNL A   1      43.949  22.907  33.724  1.00  0.00     0.134 A 
ATOM     78  F   UNL A   1      47.235  24.437  33.582  1.00  0.00    -0.206 F 
ATOM     79  C   UNL A   1      46.451  22.658  34.861  1.00  0.00     0.040 A 
ATOM     80  C   UNL A   1      44.161  21.977  34.745  1.00  0.00     0.040 A 
ATOM     81  F   UNL A   1      42.702  22.959  33.230  1.00  0.00    -0.206 F 
ATOM     82  C   UNL A   1      45.420  21.840  35.309  1.00  0.00     0.006 A 
ENDBRANCH  58  75
ENDBRANCH  32  33
ENDBRANCH  24  27
ENDBRANCH  22  23
ENDBRANCH  21  22
ENDBRANCH  20  21
ENDBRANCH   1  20
TORSDOF 17
ENDMDL
MODEL 3
REMARK VINA RESULT:     -10.7      3.226      5.598
REMARK SMILES CCC[C@H](Oc1ccccc1C)C(=O)NCCCCCCNC(=O)c1ccc(-c2c3nc(c(-c4c(F)cccc4F)c4ccc([nH]4)c(-c4c(F)cccc4F)c4nc(c(-c5c(F)cccc5F)c5ccc2[nH]5)C=C4)C=C3)cc1
REMARK SMILES IDX 18 1 17 2 16 3 15 4 13 5 14 6 4 8 3 9 2 10 1 11 5 12 6 13
REMARK SMILES IDX 7 14 11 15 8 16 10 17 12 18 9 19 19 20 20 21 21 22 22 23
REMARK SMILES IDX 23 24 24 26 25 27 26 28 78 29 27 30 77 31 28 32 29 33 30 34
REMARK SMILES IDX 71 35 31 36 76 37 70 38 72 39 32 40 75 41 69 42 68 43 33 45
REMARK SMILES IDX 59 46 42 47 58 48 43 49 46 50 57 51 73 52 44 53 45 54 56 56
REMARK SMILES IDX 74 57 47 58 34 59 35 60 40 61 36 62 37 63 39 64 41 65 38 66
REMARK SMILES IDX 60 67 61 68 66 69 62 70 63 71 65 72 67 73 64 74 48 75 49 76
REMARK SMILES IDX 54 77 50 78 51 79 53 80 55 81 52 82
REMARK H PARENT 15 7 22 25 72 44 46 55
REMARK Flexibility Score: inf
ROOT
ATOM      1  C   UNL A   1      35.673  30.185  27.659  1.00  0.00     0.002 C 
ENDROOT
BRANCH   1   2
ATOM      2  C   UNL A   1      34.376  29.380  27.511  1.00  0.00     0.021 C 
BRANCH   2   3
ATOM      3  C   UNL A   1      33.463  29.761  26.346  1.00  0.00     0.116 C 
BRANCH   3   4
ATOM      4  N   UNL A   1      33.838  29.138  25.093  1.00  0.00    -0.353 N 
ATOM      5  C   UNL A   1      33.080  28.388  24.236  1.00  0.00     0.261 C 
ATOM      6  O   UNL A   1      33.581  28.093  23.146  1.00  0.00    -0.271 OA
ATOM      7  H   UNL A   1      34.774  29.274  24.818  1.00  0.00     0.163 HD
BRANCH   5   8
ATOM      8  C   UNL A   1      31.640  27.956  24.583  1.00  0.00     0.261 C 
BRANCH   8   9
ATOM      9  C   UNL A   1      31.639  26.759  25.554  1.00  0.00     0.055 C 
BRANCH   9  10
ATOM     10  C   UNL A   1      32.338  25.509  25.010  1.00  0.00     0.001 C 
ATOM     11  C   UNL A   1      33.031  24.692  26.091  1.00  0.00     0.004 C 
ENDBRANCH   9  10
ENDBRANCH   8   9
BRANCH   8  12
ATOM     12  O   UNL A   1      30.972  27.640  23.356  1.00  0.00    -0.480 OA
BRANCH  12  13
ATOM     13  C   UNL A   1      29.990  28.473  22.886  1.00  0.00     0.123 A 
ATOM     14  C   UNL A   1      30.209  29.659  22.181  1.00  0.00     0.047 A 
ATOM     15  C   UNL A   1      28.669  28.067  23.156  1.00  0.00    -0.009 A 
ATOM     16  C   UNL A   1      29.136  30.460  21.780  1.00  0.00     0.004 A 
ATOM     17  C   UNL A   1      27.599  28.881  22.751  1.00  0.00     0.007 A 
ATOM     18  C   UNL A   1      28.389  26.778  23.877  1.00  0.00     0.048 C 
ATOM     19  C   UNL A   1      27.833  30.076  22.072  1.00  0.00     0.001 A 
ENDBRANCH  12  13
ENDBRANCH   8  12
ENDBRANCH   5   8
ENDBRANCH   3   4
ENDBRANCH   2   3
ENDBRANCH   1   2
BRANCH   1  20
ATOM     20  C   UNL A   1      35.546  31.686  27.968  1.00  0.00     0.002 C 
BRANCH  20  21
ATOM     21  C   UNL A   1      34.813  32.069  29.255  1.00  0.00     0.021 C 
BRANCH  21  22
ATOM     22  C   UNL A   1      34.913  33.538  29.643  1.00  0.00     0.116 C 
BRANCH  22  23
ATOM     23  N   UNL A   1      34.007  33.944  30.711  1.00  0.00    -0.352 N 
ATOM     24  C   UNL A   1      34.235  33.988  32.078  1.00  0.00     0.251 C 
ATOM     25  H   UNL A   1      33.109  34.225  30.422  1.00  0.00     0.163 HD
ATOM     26  O   UNL A   1      33.358  34.357  32.841  1.00  0.00    -0.269 OA
BRANCH  24  27
ATOM     27  C   UNL A   1      35.604  33.719  32.588  1.00  0.00     0.039 A 
ATOM     28  C   UNL A   1      36.627  34.577  32.170  1.00  0.00     0.014 A 
ATOM     29  C   UNL A   1      35.908  32.531  33.251  1.00  0.00     0.014 A 
ATOM     30  C   UNL A   1      37.939  34.113  32.165  1.00  0.00     0.010 A 
ATOM     31  C   UNL A   1      37.196  32.035  33.168  1.00  0.00     0.010 A 
ATOM     32  C   UNL A   1      38.192  32.795  32.547  1.00  0.00    -0.014 A 
BRANCH  32  33
ATOM     33  C   UNL A   1      39.403  32.091  32.141  1.00  0.00     0.031 A 
ATOM     34  C   UNL A   1      39.359  30.976  31.178  1.00  0.00     0.074 A 
ATOM     35  C   UNL A   1      40.590  32.479  32.659  1.00  0.00     0.049 A 
ATOM     36  N   UNL A   1      40.178  29.975  31.194  1.00  0.00    -0.248 NA
ATOM     37  C   UNL A   1      38.352  30.887  30.129  1.00  0.00     0.031 C 
ATOM     38  C   UNL A   1      41.923  32.056  32.240  1.00  0.00     0.029 A 
ATOM     39  N   UNL A   1      40.806  33.204  33.839  1.00  0.00    -0.354 N 
ATOM     40  C   UNL A   1      39.978  29.255  30.040  1.00  0.00     0.074 A 
ATOM     41  C   UNL A   1      38.792  29.828  29.440  1.00  0.00     0.031 C 
ATOM     42  C   UNL A   1      42.783  32.281  33.247  1.00  0.00     0.029 A 
ATOM     43  C   UNL A   1      42.007  32.722  34.394  1.00  0.00     0.049 A 
ATOM     44  H   UNL A   1      40.231  33.912  34.208  1.00  0.00     0.167 HD
ATOM     45  C   UNL A   1      40.906  28.338  29.636  1.00  0.00     0.037 A 
ATOM     46  C   UNL A   1      42.040  32.144  35.628  1.00  0.00     0.037 A 
ATOM     47  C   UNL A   1      42.032  28.272  30.561  1.00  0.00     0.049 A 
ATOM     48  C   UNL A   1      42.541  30.719  35.630  1.00  0.00     0.074 A 
ATOM     49  C   UNL A   1      43.267  28.901  30.554  1.00  0.00     0.029 A 
ATOM     50  N   UNL A   1      41.871  27.732  31.831  1.00  0.00    -0.354 N 
ATOM     51  N   UNL A   1      42.603  29.970  34.566  1.00  0.00    -0.248 NA
ATOM     52  C   UNL A   1      42.943  30.008  36.842  1.00  0.00     0.031 C 
ATOM     53  C   UNL A   1      43.828  28.787  31.846  1.00  0.00     0.029 A 
ATOM     54  C   UNL A   1      42.942  28.073  32.636  1.00  0.00     0.049 A 
ATOM     55  H   UNL A   1      41.104  27.186  32.118  1.00  0.00     0.167 HD
ATOM     56  C   UNL A   1      42.962  28.698  34.931  1.00  0.00     0.074 A 
ATOM     57  C   UNL A   1      43.202  28.782  36.358  1.00  0.00     0.031 C 
ATOM     58  C   UNL A   1      42.994  27.673  34.032  1.00  0.00     0.037 A 
BRANCH  45  59
ATOM     59  C   UNL A   1      40.932  27.764  28.240  1.00  0.00     0.057 A 
ATOM     60  C   UNL A   1      40.255  26.569  27.926  1.00  0.00     0.134 A 
ATOM     61  C   UNL A   1      41.658  28.317  27.172  1.00  0.00     0.134 A 
ATOM     62  F   UNL A   1      39.421  25.981  28.794  1.00  0.00    -0.206 F 
ATOM     63  C   UNL A   1      40.403  25.906  26.701  1.00  0.00     0.040 A 
ATOM     64  C   UNL A   1      41.859  27.640  25.959  1.00  0.00     0.040 A 
ATOM     65  F   UNL A   1      42.176  29.550  27.249  1.00  0.00    -0.206 F 
ATOM     66  C   UNL A   1      41.245  26.418  25.727  1.00  0.00     0.006 A 
ENDBRANCH  45  59
BRANCH  46  67
ATOM     67  C   UNL A   1      41.002  32.653  36.562  1.00  0.00     0.057 A 
ATOM     68  C   UNL A   1      41.250  33.832  37.284  1.00  0.00     0.134 A 
ATOM     69  C   UNL A   1      39.681  32.203  36.508  1.00  0.00     0.134 A 
ATOM     70  F   UNL A   1      42.499  34.319  37.373  1.00  0.00    -0.206 F 
ATOM     71  C   UNL A   1      40.215  34.586  37.843  1.00  0.00     0.040 A 
ATOM     72  C   UNL A   1      38.637  32.943  37.072  1.00  0.00     0.040 A 
ATOM     73  F   UNL A   1      39.362  31.097  35.819  1.00  0.00    -0.206 F 
ATOM     74  C   UNL A   1      38.898  34.155  37.711  1.00  0.00     0.006 A 
ENDBRANCH  46  67
BRANCH  58  75
ATOM     75  C   UNL A   1      43.161  26.223  34.384  1.00  0.00     0.057 A 
ATOM     76  C   UNL A   1      44.359  25.512  34.220  1.00  0.00     0.134 A 
ATOM     77  C   UNL A   1      42.129  25.525  35.046  1.00  0.00     0.134 A 
ATOM     78  F   UNL A   1      45.450  26.094  33.703  1.00  0.00    -0.206 F 
ATOM     79  C   UNL A   1      44.503  24.181  34.631  1.00  0.00     0.040 A 
ATOM     80  C   UNL A   1      42.276  24.212  35.502  1.00  0.00     0.040 A 
ATOM     81  F   UNL A   1      40.941  26.100  35.292  1.00  0.00    -0.206 F 
ATOM     82  C   UNL A   1      43.462  23.529  35.283  1.00  0.00     0.006 A 
ENDBRANCH  58  75
ENDBRANCH  32  33
ENDBRANCH  24  27
ENDBRANCH  22  23
ENDBRANCH  21  22
ENDBRANCH  20  21
ENDBRANCH   1  20
TORSDOF 17
ENDMDL
