MODEL 1
REMARK VINA RESULT:     -11.3      0.000      0.000
REMARK SMILES COCC[C@]1(C(=O)NCCCCCCNC(=O)c2ccc(-c3c4nc(c(-c5c(F)cccc5F)c5ccc([nH]5)c(-c5c(F)cccc5F)c5nc(c(-c6c(F)cccc6F)c6ccc3[nH]6)C=C5)C=C4)cc2)CCCN(C(=O)c2ccc(=O)[nH]c2)C1
REMARK SMILES IDX 11 1 10 2 9 3 8 4 6 5 7 6 5 8 72 9 85 10 73 11 75 12 74 13
REMARK SMILES IDX 4 14 3 15 2 16 1 17 76 18 77 19 78 20 79 21 84 22 80 23
REMARK SMILES IDX 83 24 81 25 82 27 12 28 13 29 14 30 15 31 16 32 17 34 18 35
REMARK SMILES IDX 19 36 71 37 20 38 70 39 21 40 22 41 23 42 64 43 24 44 69 45
REMARK SMILES IDX 63 46 65 47 25 48 68 49 62 50 61 51 26 53 52 54 35 55 51 56
REMARK SMILES IDX 36 57 39 58 50 59 66 60 37 61 38 62 49 64 67 65 40 66 27 67
REMARK SMILES IDX 28 68 33 69 29 70 30 71 32 72 34 73 31 74 53 75 54 76 59 77
REMARK SMILES IDX 55 78 56 79 58 80 60 81 57 82 41 83 42 84 47 85 43 86 44 87
REMARK SMILES IDX 46 88 48 89 45 90
REMARK H PARENT 8 7 83 26 15 33 65 52 39 63
REMARK Flexibility Score: inf
ROOT
ATOM      1  C   UNL A   1      34.864  20.304  24.937  1.00  0.00     0.002 C 
ENDROOT
BRANCH   1   2
ATOM      2  C   UNL A   1      33.605  20.468  25.798  1.00  0.00     0.021 C 
BRANCH   2   3
ATOM      3  C   UNL A   1      32.312  20.660  25.004  1.00  0.00     0.116 C 
BRANCH   3   4
ATOM      4  N   UNL A   1      31.396  21.527  25.720  1.00  0.00    -0.356 N 
ATOM      5  C   UNL A   1      31.673  22.766  26.207  1.00  0.00     0.228 C 
ATOM      6  O   UNL A   1      31.448  22.930  27.408  1.00  0.00    -0.274 OA
ATOM      7  H   UNL A   1      30.484  21.184  25.867  1.00  0.00     0.163 HD
BRANCH   5   8
ATOM      8  C   UNL A   1      32.336  23.852  25.347  1.00  0.00     0.069 C 
ATOM      9  C   UNL A   1      33.757  24.052  25.971  1.00  0.00     0.021 C 
ATOM     10  C   UNL A   1      32.406  23.482  23.838  1.00  0.00     0.136 C 
ATOM     11  C   UNL A   1      34.766  24.760  25.069  1.00  0.00     0.023 C 
ATOM     12  N   UNL A   1      33.423  24.258  23.127  1.00  0.00    -0.338 N 
ATOM     13  C   UNL A   1      34.767  24.135  23.687  1.00  0.00     0.120 C 
BRANCH   8  14
ATOM     14  C   UNL A   1      31.530  25.189  25.531  1.00  0.00     0.047 C 
BRANCH  14  15
ATOM     15  C   UNL A   1      32.057  26.215  26.557  1.00  0.00     0.161 C 
BRANCH  15  16
ATOM     16  O   UNL A   1      31.082  27.194  26.913  1.00  0.00    -0.385 OA
ATOM     17  C   UNL A   1      31.572  28.271  27.699  1.00  0.00     0.194 C 
ENDBRANCH  15  16
ENDBRANCH  14  15
ENDBRANCH   8  14
BRANCH  12  18
ATOM     18  C   UNL A   1      33.037  25.171  22.156  1.00  0.00     0.255 C 
ATOM     19  O   UNL A   1      33.096  24.942  20.950  1.00  0.00    -0.269 OA
BRANCH  18  20
ATOM     20  C   UNL A   1      32.466  26.460  22.635  1.00  0.00     0.056 A 
ATOM     21  C   UNL A   1      33.279  27.490  23.254  1.00  0.00     0.021 A 
ATOM     22  C   UNL A   1      31.141  26.633  22.521  1.00  0.00     0.099 A 
ATOM     23  C   UNL A   1      32.705  28.578  23.790  1.00  0.00     0.072 A 
ATOM     24  N   UNL A   1      30.545  27.758  23.045  1.00  0.00    -0.328 N 
ATOM     25  C   UNL A   1      31.229  28.749  23.711  1.00  0.00     0.247 A 
ATOM     26  H   UNL A   1      29.572  27.858  22.937  1.00  0.00     0.169 HD
ATOM     27  O   UNL A   1      30.675  29.717  24.216  1.00  0.00    -0.270 OA
ENDBRANCH  18  20
ENDBRANCH  12  18
ENDBRANCH   5   8
ENDBRANCH   3   4
ENDBRANCH   2   3
ENDBRANCH   1   2
BRANCH   1  28
ATOM     28  C   UNL A   1      36.085  21.098  25.411  1.00  0.00     0.002 C 
BRANCH  28  29
ATOM     29  C   UNL A   1      37.419  20.647  24.819  1.00  0.00     0.021 C 
BRANCH  29  30
ATOM     30  C   UNL A   1      38.621  20.885  25.722  1.00  0.00     0.116 C 
BRANCH  30  31
ATOM     31  N   UNL A   1      39.557  19.775  25.692  1.00  0.00    -0.352 N 
ATOM     32  C   UNL A   1      40.903  19.789  25.986  1.00  0.00     0.251 C 
ATOM     33  H   UNL A   1      39.184  18.903  25.430  1.00  0.00     0.163 HD
ATOM     34  O   UNL A   1      41.610  18.827  25.753  1.00  0.00    -0.269 OA
BRANCH  32  35
ATOM     35  C   UNL A   1      41.478  21.018  26.572  1.00  0.00     0.039 A 
ATOM     36  C   UNL A   1      41.986  22.006  25.727  1.00  0.00     0.014 A 
ATOM     37  C   UNL A   1      41.462  21.205  27.957  1.00  0.00     0.014 A 
ATOM     38  C   UNL A   1      42.425  23.216  26.268  1.00  0.00     0.010 A 
ATOM     39  C   UNL A   1      41.831  22.435  28.486  1.00  0.00     0.010 A 
ATOM     40  C   UNL A   1      42.319  23.452  27.648  1.00  0.00    -0.014 A 
BRANCH  40  41
ATOM     41  C   UNL A   1      42.734  24.735  28.266  1.00  0.00     0.031 A 
ATOM     42  C   UNL A   1      41.702  25.800  28.507  1.00  0.00     0.074 A 
ATOM     43  C   UNL A   1      44.036  24.983  28.507  1.00  0.00     0.049 A 
ATOM     44  N   UNL A   1      41.865  27.053  28.844  1.00  0.00    -0.248 NA
ATOM     45  C   UNL A   1      40.297  25.408  28.303  1.00  0.00     0.031 C 
ATOM     46  C   UNL A   1      45.134  24.038  28.301  1.00  0.00     0.029 A 
ATOM     47  N   UNL A   1      44.656  26.122  28.955  1.00  0.00    -0.354 N 
ATOM     48  C   UNL A   1      40.591  27.604  28.865  1.00  0.00     0.074 A 
ATOM     49  C   UNL A   1      39.671  26.564  28.461  1.00  0.00     0.031 C 
ATOM     50  C   UNL A   1      46.292  24.634  28.628  1.00  0.00     0.029 A 
ATOM     51  C   UNL A   1      46.025  26.016  29.018  1.00  0.00     0.049 A 
ATOM     52  H   UNL A   1      44.167  26.939  29.209  1.00  0.00     0.167 HD
ATOM     53  C   UNL A   1      40.219  28.860  29.208  1.00  0.00     0.037 A 
ATOM     54  C   UNL A   1      46.958  26.935  29.331  1.00  0.00     0.037 A 
ATOM     55  C   UNL A   1      41.136  29.881  29.637  1.00  0.00     0.049 A 
ATOM     56  C   UNL A   1      46.524  28.331  29.685  1.00  0.00     0.074 A 
ATOM     57  C   UNL A   1      40.858  31.173  30.049  1.00  0.00     0.029 A 
ATOM     58  N   UNL A   1      42.512  29.721  29.715  1.00  0.00    -0.354 N 
ATOM     59  N   UNL A   1      45.313  28.834  29.733  1.00  0.00    -0.248 NA
ATOM     60  C   UNL A   1      47.584  29.291  30.025  1.00  0.00     0.031 C 
ATOM     61  C   UNL A   1      42.069  31.809  30.336  1.00  0.00     0.029 A 
ATOM     62  C   UNL A   1      43.098  30.897  30.153  1.00  0.00     0.049 A 
ATOM     63  H   UNL A   1      42.999  28.897  29.492  1.00  0.00     0.167 HD
ATOM     64  C   UNL A   1      45.463  30.151  30.149  1.00  0.00     0.074 A 
ATOM     65  C   UNL A   1      46.882  30.373  30.336  1.00  0.00     0.031 C 
ATOM     66  C   UNL A   1      44.510  31.090  30.362  1.00  0.00     0.037 A 
BRANCH  53  67
ATOM     67  C   UNL A   1      38.759  29.196  29.126  1.00  0.00     0.057 A 
ATOM     68  C   UNL A   1      37.915  29.108  30.242  1.00  0.00     0.134 A 
ATOM     69  C   UNL A   1      38.192  29.633  27.922  1.00  0.00     0.134 A 
ATOM     70  F   UNL A   1      38.392  28.683  31.421  1.00  0.00    -0.206 F 
ATOM     71  C   UNL A   1      36.556  29.412  30.156  1.00  0.00     0.040 A 
ATOM     72  C   UNL A   1      36.840  29.968  27.830  1.00  0.00     0.040 A 
ATOM     73  F   UNL A   1      38.943  29.745  26.816  1.00  0.00    -0.206 F 
ATOM     74  C   UNL A   1      36.016  29.851  28.948  1.00  0.00     0.006 A 
ENDBRANCH  53  67
BRANCH  54  75
ATOM     75  C   UNL A   1      48.396  26.564  29.338  1.00  0.00     0.057 A 
ATOM     76  C   UNL A   1      48.986  26.002  30.477  1.00  0.00     0.134 A 
ATOM     77  C   UNL A   1      49.215  26.769  28.222  1.00  0.00     0.134 A 
ATOM     78  F   UNL A   1      48.257  25.800  31.584  1.00  0.00    -0.206 F 
ATOM     79  C   UNL A   1      50.342  25.673  30.512  1.00  0.00     0.040 A 
ATOM     80  C   UNL A   1      50.567  26.421  28.235  1.00  0.00     0.040 A 
ATOM     81  F   UNL A   1      48.710  27.295  27.097  1.00  0.00    -0.206 F 
ATOM     82  C   UNL A   1      51.136  25.879  29.386  1.00  0.00     0.006 A 
ENDBRANCH  54  75
BRANCH  66  83
ATOM     83  C   UNL A   1      44.953  32.424  30.884  1.00  0.00     0.057 A 
ATOM     84  C   UNL A   1      45.244  33.495  30.032  1.00  0.00     0.134 A 
ATOM     85  C   UNL A   1      45.008  32.658  32.264  1.00  0.00     0.134 A 
ATOM     86  F   UNL A   1      45.221  33.333  28.702  1.00  0.00    -0.206 F 
ATOM     87  C   UNL A   1      45.585  34.752  30.537  1.00  0.00     0.040 A 
ATOM     88  C   UNL A   1      45.322  33.914  32.780  1.00  0.00     0.040 A 
ATOM     89  F   UNL A   1      44.731  31.674  33.133  1.00  0.00    -0.206 F 
ATOM     90  C   UNL A   1      45.614  34.967  31.914  1.00  0.00     0.006 A 
ENDBRANCH  66  83
ENDBRANCH  40  41
ENDBRANCH  32  35
ENDBRANCH  30  31
ENDBRANCH  29  30
ENDBRANCH  28  29
ENDBRANCH   1  28
TORSDOF 18
ENDMDL
MODEL 2
REMARK VINA RESULT:     -10.9      4.076      8.976
REMARK SMILES COCC[C@]1(C(=O)NCCCCCCNC(=O)c2ccc(-c3c4nc(c(-c5c(F)cccc5F)c5ccc([nH]5)c(-c5c(F)cccc5F)c5nc(c(-c6c(F)cccc6F)c6ccc3[nH]6)C=C5)C=C4)cc2)CCCN(C(=O)c2ccc(=O)[nH]c2)C1
REMARK SMILES IDX 11 1 10 2 9 3 8 4 6 5 7 6 5 8 72 9 85 10 73 11 75 12 74 13
REMARK SMILES IDX 4 14 3 15 2 16 1 17 76 18 77 19 78 20 79 21 84 22 80 23
REMARK SMILES IDX 83 24 81 25 82 27 12 28 13 29 14 30 15 31 16 32 17 34 18 35
REMARK SMILES IDX 19 36 71 37 20 38 70 39 21 40 22 41 23 42 64 43 24 44 69 45
REMARK SMILES IDX 63 46 65 47 25 48 68 49 62 50 61 51 26 53 52 54 35 55 51 56
REMARK SMILES IDX 36 57 39 58 50 59 66 60 37 61 38 62 49 64 67 65 40 66 27 67
REMARK SMILES IDX 28 68 33 69 29 70 30 71 32 72 34 73 31 74 53 75 54 76 59 77
REMARK SMILES IDX 55 78 56 79 58 80 60 81 57 82 41 83 42 84 47 85 43 86 44 87
REMARK SMILES IDX 46 88 48 89 45 90
REMARK H PARENT 8 7 83 26 15 33 65 52 39 63
REMARK Flexibility Score: inf
ROOT
ATOM      1  C   UNL A   1      33.427  30.121  27.450  1.00  0.00     0.002 C 
ENDROOT
BRANCH   1   2
ATOM      2  C   UNL A   1      34.403  29.339  26.562  1.00  0.00     0.021 C 
BRANCH   2   3
ATOM      3  C   UNL A   1      33.788  28.135  25.847  1.00  0.00     0.116 C 
BRANCH   3   4
ATOM      4  N   UNL A   1      33.031  27.319  26.776  1.00  0.00    -0.356 N 
ATOM      5  C   UNL A   1      31.904  26.612  26.494  1.00  0.00     0.228 C 
ATOM      6  O   UNL A   1      30.931  26.852  27.211  1.00  0.00    -0.274 OA
ATOM      7  H   UNL A   1      33.366  27.272  27.701  1.00  0.00     0.163 HD
BRANCH   5   8
ATOM      8  C   UNL A   1      31.813  25.667  25.287  1.00  0.00     0.069 C 
ATOM      9  C   UNL A   1      31.076  26.492  24.180  1.00  0.00     0.021 C 
ATOM     10  C   UNL A   1      33.199  25.151  24.807  1.00  0.00     0.136 C 
ATOM     11  C   UNL A   1      31.225  25.949  22.761  1.00  0.00     0.023 C 
ATOM     12  N   UNL A   1      33.158  24.665  23.427  1.00  0.00    -0.338 N 
ATOM     13  C   UNL A   1      32.682  25.652  22.461  1.00  0.00     0.120 C 
BRANCH   8  14
ATOM     14  C   UNL A   1      30.899  24.450  25.679  1.00  0.00     0.047 C 
BRANCH  14  15
ATOM     15  C   UNL A   1      31.506  23.349  26.574  1.00  0.00     0.161 C 
BRANCH  15  16
ATOM     16  O   UNL A   1      30.631  22.943  27.626  1.00  0.00    -0.385 OA
ATOM     17  C   UNL A   1      29.269  22.792  27.249  1.00  0.00     0.194 C 
ENDBRANCH  15  16
ENDBRANCH  14  15
ENDBRANCH   8  14
BRANCH  12  18
ATOM     18  C   UNL A   1      33.360  23.317  23.165  1.00  0.00     0.255 C 
ATOM     19  O   UNL A   1      32.621  22.648  22.448  1.00  0.00    -0.269 OA
BRANCH  18  20
ATOM     20  C   UNL A   1      34.582  22.697  23.748  1.00  0.00     0.056 A 
ATOM     21  C   UNL A   1      35.920  23.145  23.412  1.00  0.00     0.021 A 
ATOM     22  C   UNL A   1      34.415  21.656  24.577  1.00  0.00     0.099 A 
ATOM     23  C   UNL A   1      36.994  22.474  23.857  1.00  0.00     0.072 A 
ATOM     24  N   UNL A   1      35.510  20.976  25.060  1.00  0.00    -0.328 N 
ATOM     25  C   UNL A   1      36.810  21.287  24.736  1.00  0.00     0.247 A 
ATOM     26  H   UNL A   1      35.353  20.223  25.673  1.00  0.00     0.169 HD
ATOM     27  O   UNL A   1      37.770  20.639  25.133  1.00  0.00    -0.270 OA
ENDBRANCH  18  20
ENDBRANCH  12  18
ENDBRANCH   5   8
ENDBRANCH   3   4
ENDBRANCH   2   3
ENDBRANCH   1   2
BRANCH   1  28
ATOM     28  C   UNL A   1      32.074  30.439  26.806  1.00  0.00     0.002 C 
BRANCH  28  29
ATOM     29  C   UNL A   1      31.657  31.907  26.873  1.00  0.00     0.021 C 
BRANCH  29  30
ATOM     30  C   UNL A   1      32.819  32.890  26.901  1.00  0.00     0.116 C 
BRANCH  30  31
ATOM     31  N   UNL A   1      32.507  34.085  27.665  1.00  0.00    -0.352 N 
ATOM     32  C   UNL A   1      33.125  34.552  28.804  1.00  0.00     0.251 C 
ATOM     33  H   UNL A   1      31.761  34.631  27.327  1.00  0.00     0.163 HD
ATOM     34  O   UNL A   1      32.654  35.473  29.446  1.00  0.00    -0.269 OA
BRANCH  32  35
ATOM     35  C   UNL A   1      34.369  33.888  29.248  1.00  0.00     0.039 A 
ATOM     36  C   UNL A   1      35.600  34.378  28.809  1.00  0.00     0.014 A 
ATOM     37  C   UNL A   1      34.307  32.814  30.139  1.00  0.00     0.014 A 
ATOM     38  C   UNL A   1      36.779  33.828  29.314  1.00  0.00     0.010 A 
ATOM     39  C   UNL A   1      35.478  32.317  30.695  1.00  0.00     0.010 A 
ATOM     40  C   UNL A   1      36.726  32.817  30.287  1.00  0.00    -0.014 A 
BRANCH  40  41
ATOM     41  C   UNL A   1      37.950  32.228  30.883  1.00  0.00     0.031 A 
ATOM     42  C   UNL A   1      38.645  31.103  30.169  1.00  0.00     0.074 A 
ATOM     43  C   UNL A   1      38.370  32.621  32.101  1.00  0.00     0.049 A 
ATOM     44  N   UNL A   1      39.599  30.315  30.592  1.00  0.00    -0.248 NA
ATOM     45  C   UNL A   1      38.176  30.805  28.806  1.00  0.00     0.031 C 
ATOM     46  C   UNL A   1      37.771  33.690  32.902  1.00  0.00     0.029 A 
ATOM     47  N   UNL A   1      39.387  32.145  32.889  1.00  0.00    -0.354 N 
ATOM     48  C   UNL A   1      39.823  29.411  29.562  1.00  0.00     0.074 A 
ATOM     49  C   UNL A   1      38.875  29.718  28.514  1.00  0.00     0.031 C 
ATOM     50  C   UNL A   1      38.436  33.791  34.064  1.00  0.00     0.029 A 
ATOM     51  C   UNL A   1      39.474  32.766  34.113  1.00  0.00     0.049 A 
ATOM     52  H   UNL A   1      39.998  31.427  32.605  1.00  0.00     0.167 HD
ATOM     53  C   UNL A   1      40.747  28.425  29.489  1.00  0.00     0.037 A 
ATOM     54  C   UNL A   1      40.282  32.517  35.161  1.00  0.00     0.037 A 
ATOM     55  C   UNL A   1      41.707  28.144  30.524  1.00  0.00     0.049 A 
ATOM     56  C   UNL A   1      41.285  31.401  35.067  1.00  0.00     0.074 A 
ATOM     57  C   UNL A   1      42.715  27.196  30.530  1.00  0.00     0.029 A 
ATOM     58  N   UNL A   1      41.779  28.817  31.734  1.00  0.00    -0.354 N 
ATOM     59  N   UNL A   1      41.511  30.573  34.076  1.00  0.00    -0.248 NA
ATOM     60  C   UNL A   1      42.146  31.180  36.238  1.00  0.00     0.031 C 
ATOM     61  C   UNL A   1      43.371  27.266  31.762  1.00  0.00     0.029 A 
ATOM     62  C   UNL A   1      42.805  28.293  32.503  1.00  0.00     0.049 A 
ATOM     63  H   UNL A   1      41.189  29.555  32.007  1.00  0.00     0.167 HD
ATOM     64  C   UNL A   1      42.564  29.764  34.485  1.00  0.00     0.074 A 
ATOM     65  C   UNL A   1      42.931  30.197  35.817  1.00  0.00     0.031 C 
ATOM     66  C   UNL A   1      43.175  28.757  33.815  1.00  0.00     0.037 A 
BRANCH  53  67
ATOM     67  C   UNL A   1      40.759  27.578  28.251  1.00  0.00     0.057 A 
ATOM     68  C   UNL A   1      40.027  26.386  28.162  1.00  0.00     0.134 A 
ATOM     69  C   UNL A   1      41.495  27.968  27.124  1.00  0.00     0.134 A 
ATOM     70  F   UNL A   1      39.312  25.949  29.210  1.00  0.00    -0.206 F 
ATOM     71  C   UNL A   1      40.051  25.598  27.011  1.00  0.00     0.040 A 
ATOM     72  C   UNL A   1      41.503  27.204  25.957  1.00  0.00     0.040 A 
ATOM     73  F   UNL A   1      42.214  29.100  27.139  1.00  0.00    -0.206 F 
ATOM     74  C   UNL A   1      40.785  26.010  25.900  1.00  0.00     0.006 A 
ENDBRANCH  53  67
BRANCH  54  75
ATOM     75  C   UNL A   1      40.187  33.350  36.387  1.00  0.00     0.057 A 
ATOM     76  C   UNL A   1      39.291  33.018  37.411  1.00  0.00     0.134 A 
ATOM     77  C   UNL A   1      40.972  34.495  36.563  1.00  0.00     0.134 A 
ATOM     78  F   UNL A   1      38.499  31.944  37.292  1.00  0.00    -0.206 F 
ATOM     79  C   UNL A   1      39.168  33.805  38.559  1.00  0.00     0.040 A 
ATOM     80  C   UNL A   1      40.877  35.276  37.716  1.00  0.00     0.040 A 
ATOM     81  F   UNL A   1      41.855  34.863  35.623  1.00  0.00    -0.206 F 
ATOM     82  C   UNL A   1      39.966  34.936  38.714  1.00  0.00     0.006 A 
ENDBRANCH  54  75
BRANCH  66  83
ATOM     83  C   UNL A   1      44.345  28.093  34.476  1.00  0.00     0.057 A 
ATOM     84  C   UNL A   1      45.646  28.595  34.363  1.00  0.00     0.134 A 
ATOM     85  C   UNL A   1      44.149  26.979  35.303  1.00  0.00     0.134 A 
ATOM     86  F   UNL A   1      45.902  29.651  33.577  1.00  0.00    -0.206 F 
ATOM     87  C   UNL A   1      46.714  28.007  35.044  1.00  0.00     0.040 A 
ATOM     88  C   UNL A   1      45.202  26.398  36.008  1.00  0.00     0.040 A 
ATOM     89  F   UNL A   1      42.923  26.455  35.461  1.00  0.00    -0.206 F 
ATOM     90  C   UNL A   1      46.491  26.912  35.878  1.00  0.00     0.006 A 
ENDBRANCH  66  83
ENDBRANCH  40  41
ENDBRANCH  32  35
ENDBRANCH  30  31
ENDBRANCH  29  30
ENDBRANCH  28  29
ENDBRANCH   1  28
TORSDOF 18
ENDMDL
MODEL 3
REMARK VINA RESULT:     -10.9      3.327      8.720
REMARK SMILES COCC[C@]1(C(=O)NCCCCCCNC(=O)c2ccc(-c3c4nc(c(-c5c(F)cccc5F)c5ccc([nH]5)c(-c5c(F)cccc5F)c5nc(c(-c6c(F)cccc6F)c6ccc3[nH]6)C=C5)C=C4)cc2)CCCN(C(=O)c2ccc(=O)[nH]c2)C1
REMARK SMILES IDX 11 1 10 2 9 3 8 4 6 5 7 6 5 8 72 9 85 10 73 11 75 12 74 13
REMARK SMILES IDX 4 14 3 15 2 16 1 17 76 18 77 19 78 20 79 21 84 22 80 23
REMARK SMILES IDX 83 24 81 25 82 27 12 28 13 29 14 30 15 31 16 32 17 34 18 35
REMARK SMILES IDX 19 36 71 37 20 38 70 39 21 40 22 41 23 42 64 43 24 44 69 45
REMARK SMILES IDX 63 46 65 47 25 48 68 49 62 50 61 51 26 53 52 54 35 55 51 56
REMARK SMILES IDX 36 57 39 58 50 59 66 60 37 61 38 62 49 64 67 65 40 66 27 67
REMARK SMILES IDX 28 68 33 69 29 70 30 71 32 72 34 73 31 74 53 75 54 76 59 77
REMARK SMILES IDX 55 78 56 79 58 80 60 81 57 82 41 83 42 84 47 85 43 86 44 87
REMARK SMILES IDX 46 88 48 89 45 90
REMARK H PARENT 8 7 83 26 15 33 65 52 39 63
REMARK Flexibility Score: inf
ROOT
ATOM      1  C   UNL A   1      32.800  29.799  25.772  1.00  0.00     0.002 C 
ENDROOT
BRANCH   1   2
ATOM      2  C   UNL A   1      32.599  29.007  24.474  1.00  0.00     0.021 C 
BRANCH   2   3
ATOM      3  C   UNL A   1      33.681  27.964  24.191  1.00  0.00     0.116 C 
BRANCH   3   4
ATOM      4  N   UNL A   1      33.264  27.069  23.128  1.00  0.00    -0.356 N 
ATOM      5  C   UNL A   1      33.551  25.743  23.032  1.00  0.00     0.228 C 
ATOM      6  O   UNL A   1      34.090  25.389  21.983  1.00  0.00    -0.274 OA
ATOM      7  H   UNL A   1      32.719  27.460  22.406  1.00  0.00     0.163 HD
BRANCH   5   8
ATOM      8  C   UNL A   1      33.328  24.773  24.202  1.00  0.00     0.069 C 
ATOM      9  C   UNL A   1      32.053  25.307  24.935  1.00  0.00     0.021 C 
ATOM     10  C   UNL A   1      33.168  23.294  23.751  1.00  0.00     0.136 C 
ATOM     11  C   UNL A   1      31.376  24.306  25.868  1.00  0.00     0.023 C 
ATOM     12  N   UNL A   1      32.503  22.477  24.767  1.00  0.00    -0.338 N 
ATOM     13  C   UNL A   1      31.189  22.974  25.166  1.00  0.00     0.120 C 
BRANCH   8  14
ATOM     14  C   UNL A   1      34.547  24.901  25.188  1.00  0.00     0.047 C 
BRANCH  14  15
ATOM     15  C   UNL A   1      35.824  24.097  24.865  1.00  0.00     0.161 C 
BRANCH  15  16
ATOM     16  O   UNL A   1      36.332  23.386  25.992  1.00  0.00    -0.385 OA
ATOM     17  C   UNL A   1      37.018  22.180  25.683  1.00  0.00     0.194 C 
ENDBRANCH  15  16
ENDBRANCH  14  15
ENDBRANCH   8  14
BRANCH  12  18
ATOM     18  C   UNL A   1      33.206  21.463  25.403  1.00  0.00     0.255 C 
ATOM     19  O   UNL A   1      33.656  21.562  26.542  1.00  0.00    -0.269 OA
BRANCH  18  20
ATOM     20  C   UNL A   1      33.347  20.179  24.662  1.00  0.00     0.056 A 
ATOM     21  C   UNL A   1      32.353  19.713  23.714  1.00  0.00     0.021 A 
ATOM     22  C   UNL A   1      34.419  19.420  24.933  1.00  0.00     0.099 A 
ATOM     23  C   UNL A   1      32.455  18.491  23.168  1.00  0.00     0.072 A 
ATOM     24  N   UNL A   1      34.546  18.175  24.359  1.00  0.00    -0.328 N 
ATOM     25  C   UNL A   1      33.617  17.626  23.506  1.00  0.00     0.247 A 
ATOM     26  H   UNL A   1      35.349  17.648  24.572  1.00  0.00     0.169 HD
ATOM     27  O   UNL A   1      33.721  16.496  23.046  1.00  0.00    -0.270 OA
ENDBRANCH  18  20
ENDBRANCH  12  18
ENDBRANCH   5   8
ENDBRANCH   3   4
ENDBRANCH   2   3
ENDBRANCH   1   2
BRANCH   1  28
ATOM     28  C   UNL A   1      31.518  30.352  26.402  1.00  0.00     0.002 C 
BRANCH  28  29
ATOM     29  C   UNL A   1      31.476  31.872  26.550  1.00  0.00     0.021 C 
BRANCH  29  30
ATOM     30  C   UNL A   1      32.701  32.472  27.225  1.00  0.00     0.116 C 
BRANCH  30  31
ATOM     31  N   UNL A   1      32.485  33.851  27.629  1.00  0.00    -0.352 N 
ATOM     32  C   UNL A   1      33.187  34.585  28.559  1.00  0.00     0.251 C 
ATOM     33  H   UNL A   1      31.745  34.320  27.180  1.00  0.00     0.163 HD
ATOM     34  O   UNL A   1      32.793  35.675  28.930  1.00  0.00    -0.269 OA
BRANCH  32  35
ATOM     35  C   UNL A   1      34.425  34.004  29.120  1.00  0.00     0.039 A 
ATOM     36  C   UNL A   1      34.352  33.233  30.282  1.00  0.00     0.014 A 
ATOM     37  C   UNL A   1      35.642  34.185  28.460  1.00  0.00     0.014 A 
ATOM     38  C   UNL A   1      35.498  32.587  30.751  1.00  0.00     0.010 A 
ATOM     39  C   UNL A   1      36.764  33.485  28.886  1.00  0.00     0.010 A 
ATOM     40  C   UNL A   1      36.704  32.681  30.038  1.00  0.00    -0.014 A 
BRANCH  40  41
ATOM     41  C   UNL A   1      37.938  31.983  30.473  1.00  0.00     0.031 A 
ATOM     42  C   UNL A   1      38.856  32.660  31.451  1.00  0.00     0.074 A 
ATOM     43  C   UNL A   1      38.285  30.806  29.917  1.00  0.00     0.049 A 
ATOM     44  N   UNL A   1      40.069  32.332  31.814  1.00  0.00    -0.248 NA
ATOM     45  C   UNL A   1      38.353  33.894  32.075  1.00  0.00     0.031 C 
ATOM     46  C   UNL A   1      37.487  30.057  28.946  1.00  0.00     0.029 A 
ATOM     47  N   UNL A   1      39.417  30.048  30.074  1.00  0.00    -0.354 N 
ATOM     48  C   UNL A   1      40.483  33.331  32.685  1.00  0.00     0.074 A 
ATOM     49  C   UNL A   1      39.412  34.301  32.758  1.00  0.00     0.031 C 
ATOM     50  C   UNL A   1      38.153  28.944  28.598  1.00  0.00     0.029 A 
ATOM     51  C   UNL A   1      39.443  28.924  29.282  1.00  0.00     0.049 A 
ATOM     52  H   UNL A   1      40.144  30.285  30.695  1.00  0.00     0.167 HD
ATOM     53  C   UNL A   1      41.644  33.423  33.374  1.00  0.00     0.037 A 
ATOM     54  C   UNL A   1      40.407  28.000  29.110  1.00  0.00     0.037 A 
ATOM     55  C   UNL A   1      42.693  32.440  33.319  1.00  0.00     0.049 A 
ATOM     56  C   UNL A   1      41.699  28.136  29.868  1.00  0.00     0.074 A 
ATOM     57  C   UNL A   1      43.890  32.417  34.013  1.00  0.00     0.029 A 
ATOM     58  N   UNL A   1      42.664  31.303  32.527  1.00  0.00    -0.354 N 
ATOM     59  N   UNL A   1      42.067  29.068  30.714  1.00  0.00    -0.248 NA
ATOM     60  C   UNL A   1      42.712  27.094  29.647  1.00  0.00     0.031 C 
ATOM     61  C   UNL A   1      44.605  31.286  33.609  1.00  0.00     0.029 A 
ATOM     62  C   UNL A   1      43.831  30.578  32.702  1.00  0.00     0.049 A 
ATOM     63  H   UNL A   1      41.926  31.048  31.928  1.00  0.00     0.167 HD
ATOM     64  C   UNL A   1      43.333  28.703  31.157  1.00  0.00     0.074 A 
ATOM     65  C   UNL A   1      43.672  27.466  30.484  1.00  0.00     0.031 C 
ATOM     66  C   UNL A   1      44.138  29.333  32.046  1.00  0.00     0.037 A 
BRANCH  53  67
ATOM     67  C   UNL A   1      41.839  34.632  34.243  1.00  0.00     0.057 A 
ATOM     68  C   UNL A   1      41.483  34.634  35.599  1.00  0.00     0.134 A 
ATOM     69  C   UNL A   1      42.408  35.801  33.723  1.00  0.00     0.134 A 
ATOM     70  F   UNL A   1      40.921  33.551  36.155  1.00  0.00    -0.206 F 
ATOM     71  C   UNL A   1      41.657  35.765  36.397  1.00  0.00     0.040 A 
ATOM     72  C   UNL A   1      42.615  36.929  34.519  1.00  0.00     0.040 A 
ATOM     73  F   UNL A   1      42.776  35.866  32.435  1.00  0.00    -0.206 F 
ATOM     74  C   UNL A   1      42.232  36.915  35.859  1.00  0.00     0.006 A 
ENDBRANCH  53  67
BRANCH  54  75
ATOM     75  C   UNL A   1      40.184  26.855  28.191  1.00  0.00     0.057 A 
ATOM     76  C   UNL A   1      39.410  25.757  28.588  1.00  0.00     0.134 A 
ATOM     77  C   UNL A   1      40.743  26.820  26.908  1.00  0.00     0.134 A 
ATOM     78  F   UNL A   1      38.864  25.724  29.812  1.00  0.00    -0.206 F 
ATOM     79  C   UNL A   1      39.213  24.659  27.748  1.00  0.00     0.040 A 
ATOM     80  C   UNL A   1      40.533  25.739  26.049  1.00  0.00     0.040 A 
ATOM     81  F   UNL A   1      41.487  27.843  26.465  1.00  0.00    -0.206 F 
ATOM     82  C   UNL A   1      39.772  24.651  26.473  1.00  0.00     0.006 A 
ENDBRANCH  54  75
BRANCH  66  83
ATOM     83  C   UNL A   1      45.437  28.672  32.397  1.00  0.00     0.057 A 
ATOM     84  C   UNL A   1      46.628  28.970  31.728  1.00  0.00     0.134 A 
ATOM     85  C   UNL A   1      45.504  27.782  33.478  1.00  0.00     0.134 A 
ATOM     86  F   UNL A   1      46.628  29.804  30.678  1.00  0.00    -0.206 F 
ATOM     87  C   UNL A   1      47.842  28.399  32.116  1.00  0.00     0.040 A 
ATOM     88  C   UNL A   1      46.714  27.225  33.890  1.00  0.00     0.040 A 
ATOM     89  F   UNL A   1      44.398  27.462  34.167  1.00  0.00    -0.206 F 
ATOM     90  C   UNL A   1      47.889  27.533  33.207  1.00  0.00     0.006 A 
ENDBRANCH  66  83
ENDBRANCH  40  41
ENDBRANCH  32  35
ENDBRANCH  30  31
ENDBRANCH  29  30
ENDBRANCH  28  29
ENDBRANCH   1  28
TORSDOF 18
ENDMDL
