MODEL 1
REMARK VINA RESULT:     -11.0      0.000      0.000
REMARK SMILES Cc1nc(C)c(C(=O)N[C@@H](CCS(C)(=O)=O)C(=O)NCCCCCCNC(=O)c2ccc(-c3c4nc(c(-c5c(F)cccc5F)c5ccc([nH]5)c(-c5c(F)cccc5F)c5nc(c(-c6c(F)cccc6F)c6ccc3[nH]6)C=C5)C=C4)cc2)s1
REMARK SMILES IDX 22 1 21 2 20 3 19 4 17 5 18 6 10 8 9 9 7 10 8 11 6 13 1 14
REMARK SMILES IDX 2 15 3 16 83 17 4 18 5 19 11 20 12 21 13 22 14 23 15 24
REMARK SMILES IDX 16 25 23 26 24 27 25 28 26 29 27 30 28 32 29 33 30 34 82 35
REMARK SMILES IDX 31 36 81 37 32 38 33 39 34 40 75 41 35 42 80 43 74 44 76 45
REMARK SMILES IDX 36 46 79 47 73 48 72 49 37 51 63 52 46 53 62 54 47 55 50 56
REMARK SMILES IDX 61 57 77 58 48 59 49 60 60 62 78 63 51 64 38 65 39 66 44 67
REMARK SMILES IDX 40 68 41 69 43 70 45 71 42 72 64 73 65 74 70 75 66 76 67 77
REMARK SMILES IDX 69 78 71 79 68 80 52 81 53 82 58 83 54 84 55 85 57 86 59 87
REMARK SMILES IDX 56 88
REMARK H PARENT 19 7 9 12 26 31 76 50 50 61
REMARK Flexibility Score: inf
ROOT
ATOM      1  C   UNL A   1      32.022  29.355  27.135  1.00  0.00     0.002 C 
ENDROOT
BRANCH   1   2
ATOM      2  C   UNL A   1      33.189  28.417  26.796  1.00  0.00     0.021 C 
BRANCH   2   3
ATOM      3  C   UNL A   1      32.810  27.072  26.185  1.00  0.00     0.116 C 
BRANCH   3   4
ATOM      4  N   UNL A   1      31.530  26.573  26.643  1.00  0.00    -0.354 N 
ATOM      5  C   UNL A   1      30.441  26.129  25.960  1.00  0.00     0.242 C 
ATOM      6  O   UNL A   1      29.620  25.441  26.578  1.00  0.00    -0.273 OA
ATOM      7  H   UNL A   1      31.431  26.550  27.622  1.00  0.00     0.163 HD
BRANCH   5   8
ATOM      8  C   UNL A   1      30.233  26.356  24.452  1.00  0.00     0.172 C 
BRANCH   8   9
ATOM      9  N   UNL A   1      30.222  25.119  23.670  1.00  0.00    -0.339 N 
ATOM     10  C   UNL A   1      31.090  24.044  23.604  1.00  0.00     0.263 C 
ATOM     11  O   UNL A   1      30.548  23.030  23.148  1.00  0.00    -0.268 OA
ATOM     12  H   UNL A   1      29.444  25.036  23.072  1.00  0.00     0.164 HD
BRANCH  10  13
ATOM     13  C   UNL A   1      32.509  24.059  23.965  1.00  0.00     0.115 A 
ATOM     14  C   UNL A   1      35.882  23.543  25.877  1.00  0.00     0.079 C 
ATOM     15  C   UNL A   1      34.728  23.876  24.998  1.00  0.00     0.091 A 
ATOM     16  N   UNL A   1      34.785  24.696  23.978  1.00  0.00    -0.246 NA
ATOM     17  S   UNL A   1      33.185  23.232  25.310  1.00  0.00    -0.113 S 
ATOM     18  C   UNL A   1      33.528  24.829  23.392  1.00  0.00     0.061 A 
ATOM     19  C   UNL A   1      33.453  25.816  22.276  1.00  0.00     0.068 C 
ENDBRANCH  10  13
ENDBRANCH   8   9
BRANCH   8  20
ATOM     20  C   UNL A   1      29.161  27.368  23.996  1.00  0.00     0.051 C 
BRANCH  20  21
ATOM     21  C   UNL A   1      29.460  28.429  22.948  1.00  0.00     0.139 C 
BRANCH  21  22
ATOM     22  S   UNL A   1      28.177  29.638  22.619  1.00  0.00     0.147 S 
ATOM     23  C   UNL A   1      28.639  31.115  23.485  1.00  0.00     0.158 C 
ATOM     24  O   UNL A   1      28.232  29.927  21.200  1.00  0.00    -0.229 OA
ATOM     25  O   UNL A   1      26.937  29.187  23.211  1.00  0.00    -0.229 OA
ENDBRANCH  21  22
ENDBRANCH  20  21
ENDBRANCH   8  20
ENDBRANCH   5   8
ENDBRANCH   3   4
ENDBRANCH   2   3
ENDBRANCH   1   2
BRANCH   1  26
ATOM     26  C   UNL A   1      31.621  30.385  26.075  1.00  0.00     0.002 C 
BRANCH  26  27
ATOM     27  C   UNL A   1      31.451  31.825  26.549  1.00  0.00     0.021 C 
BRANCH  27  28
ATOM     28  C   UNL A   1      32.710  32.464  27.112  1.00  0.00     0.116 C 
BRANCH  28  29
ATOM     29  N   UNL A   1      32.513  33.844  27.521  1.00  0.00    -0.352 N 
ATOM     30  C   UNL A   1      33.173  34.565  28.483  1.00  0.00     0.251 C 
ATOM     31  H   UNL A   1      31.805  34.330  27.039  1.00  0.00     0.163 HD
ATOM     32  O   UNL A   1      32.790  35.690  28.787  1.00  0.00    -0.269 OA
BRANCH  30  33
ATOM     33  C   UNL A   1      34.334  33.968  29.177  1.00  0.00     0.039 A 
ATOM     34  C   UNL A   1      34.102  33.028  30.183  1.00  0.00     0.014 A 
ATOM     35  C   UNL A   1      35.640  34.329  28.836  1.00  0.00     0.014 A 
ATOM     36  C   UNL A   1      35.185  32.414  30.814  1.00  0.00     0.010 A 
ATOM     37  C   UNL A   1      36.715  33.649  29.400  1.00  0.00     0.010 A 
ATOM     38  C   UNL A   1      36.499  32.697  30.407  1.00  0.00    -0.014 A 
BRANCH  38  39
ATOM     39  C   UNL A   1      37.658  32.027  31.045  1.00  0.00     0.031 A 
ATOM     40  C   UNL A   1      38.385  30.927  30.319  1.00  0.00     0.074 A 
ATOM     41  C   UNL A   1      38.027  32.376  32.292  1.00  0.00     0.049 A 
ATOM     42  N   UNL A   1      39.393  30.196  30.722  1.00  0.00    -0.248 NA
ATOM     43  C   UNL A   1      37.896  30.583  28.975  1.00  0.00     0.031 C 
ATOM     44  C   UNL A   1      37.369  33.393  33.117  1.00  0.00     0.029 A 
ATOM     45  N   UNL A   1      39.044  31.912  33.087  1.00  0.00    -0.354 N 
ATOM     46  C   UNL A   1      39.649  29.305  29.688  1.00  0.00     0.074 A 
ATOM     47  C   UNL A   1      38.651  29.539  28.669  1.00  0.00     0.031 C 
ATOM     48  C   UNL A   1      38.020  33.499  34.286  1.00  0.00     0.029 A 
ATOM     49  C   UNL A   1      39.113  32.531  34.312  1.00  0.00     0.049 A 
ATOM     50  H   UNL A   1      39.666  31.202  32.806  1.00  0.00     0.167 HD
ATOM     51  C   UNL A   1      40.644  28.393  29.584  1.00  0.00     0.037 A 
ATOM     52  C   UNL A   1      39.960  32.336  35.339  1.00  0.00     0.037 A 
ATOM     53  C   UNL A   1      41.647  28.176  30.593  1.00  0.00     0.049 A 
ATOM     54  C   UNL A   1      41.050  31.308  35.203  1.00  0.00     0.074 A 
ATOM     55  C   UNL A   1      42.728  27.313  30.565  1.00  0.00     0.029 A 
ATOM     56  N   UNL A   1      41.690  28.831  31.815  1.00  0.00    -0.354 N 
ATOM     57  N   UNL A   1      41.322  30.519  34.192  1.00  0.00    -0.248 NA
ATOM     58  C   UNL A   1      41.957  31.153  36.348  1.00  0.00     0.031 C 
ATOM     59  C   UNL A   1      43.392  27.405  31.792  1.00  0.00     0.029 A 
ATOM     60  C   UNL A   1      42.766  28.374  32.559  1.00  0.00     0.049 A 
ATOM     61  H   UNL A   1      41.051  29.520  32.110  1.00  0.00     0.167 HD
ATOM     62  C   UNL A   1      42.452  29.800  34.563  1.00  0.00     0.074 A 
ATOM     63  C   UNL A   1      42.820  30.259  35.887  1.00  0.00     0.031 C 
ATOM     64  C   UNL A   1      43.124  28.848  33.872  1.00  0.00     0.037 A 
BRANCH  51  65
ATOM     65  C   UNL A   1      40.696  27.561  28.333  1.00  0.00     0.057 A 
ATOM     66  C   UNL A   1      40.008  26.343  28.224  1.00  0.00     0.134 A 
ATOM     67  C   UNL A   1      41.416  27.995  27.214  1.00  0.00     0.134 A 
ATOM     68  F   UNL A   1      39.309  25.861  29.263  1.00  0.00    -0.206 F 
ATOM     69  C   UNL A   1      40.061  25.576  27.059  1.00  0.00     0.040 A 
ATOM     70  C   UNL A   1      41.450  27.252  26.032  1.00  0.00     0.040 A 
ATOM     71  F   UNL A   1      42.093  29.153  27.245  1.00  0.00    -0.206 F 
ATOM     72  C   UNL A   1      40.777  26.034  25.956  1.00  0.00     0.006 A 
ENDBRANCH  51  65
BRANCH  52  73
ATOM     73  C   UNL A   1      39.830  33.147  36.578  1.00  0.00     0.057 A 
ATOM     74  C   UNL A   1      40.578  34.318  36.758  1.00  0.00     0.134 A 
ATOM     75  C   UNL A   1      38.973  32.765  37.617  1.00  0.00     0.134 A 
ATOM     76  F   UNL A   1      41.429  34.728  35.807  1.00  0.00    -0.206 F 
ATOM     77  C   UNL A   1      40.498  35.063  37.936  1.00  0.00     0.040 A 
ATOM     78  C   UNL A   1      38.860  33.517  38.787  1.00  0.00     0.040 A 
ATOM     79  F   UNL A   1      38.222  31.659  37.504  1.00  0.00    -0.206 F 
ATOM     80  C   UNL A   1      39.633  34.665  38.953  1.00  0.00     0.006 A 
ENDBRANCH  52  73
BRANCH  64  81
ATOM     81  C   UNL A   1      44.356  28.276  34.512  1.00  0.00     0.057 A 
ATOM     82  C   UNL A   1      44.319  27.118  35.300  1.00  0.00     0.134 A 
ATOM     83  C   UNL A   1      45.605  28.880  34.312  1.00  0.00     0.134 A 
ATOM     84  F   UNL A   1      43.154  26.497  35.541  1.00  0.00    -0.206 F 
ATOM     85  C   UNL A   1      45.473  26.601  35.893  1.00  0.00     0.040 A 
ATOM     86  C   UNL A   1      46.769  28.353  34.872  1.00  0.00     0.040 A 
ATOM     87  F   UNL A   1      45.715  29.984  33.559  1.00  0.00    -0.206 F 
ATOM     88  C   UNL A   1      46.703  27.216  35.673  1.00  0.00     0.006 A 
ENDBRANCH  64  81
ENDBRANCH  38  39
ENDBRANCH  30  33
ENDBRANCH  28  29
ENDBRANCH  27  28
ENDBRANCH  26  27
ENDBRANCH   1  26
TORSDOF 18
ENDMDL
MODEL 2
REMARK VINA RESULT:     -11.0      1.079      6.350
REMARK SMILES Cc1nc(C)c(C(=O)N[C@@H](CCS(C)(=O)=O)C(=O)NCCCCCCNC(=O)c2ccc(-c3c4nc(c(-c5c(F)cccc5F)c5ccc([nH]5)c(-c5c(F)cccc5F)c5nc(c(-c6c(F)cccc6F)c6ccc3[nH]6)C=C5)C=C4)cc2)s1
REMARK SMILES IDX 22 1 21 2 20 3 19 4 17 5 18 6 10 8 9 9 7 10 8 11 6 13 1 14
REMARK SMILES IDX 2 15 3 16 83 17 4 18 5 19 11 20 12 21 13 22 14 23 15 24
REMARK SMILES IDX 16 25 23 26 24 27 25 28 26 29 27 30 28 32 29 33 30 34 82 35
REMARK SMILES IDX 31 36 81 37 32 38 33 39 34 40 75 41 35 42 80 43 74 44 76 45
REMARK SMILES IDX 36 46 79 47 73 48 72 49 37 51 63 52 46 53 62 54 47 55 50 56
REMARK SMILES IDX 61 57 77 58 48 59 49 60 60 62 78 63 51 64 38 65 39 66 44 67
REMARK SMILES IDX 40 68 41 69 43 70 45 71 42 72 64 73 65 74 70 75 66 76 67 77
REMARK SMILES IDX 69 78 71 79 68 80 52 81 53 82 58 83 54 84 55 85 57 86 59 87
REMARK SMILES IDX 56 88
REMARK H PARENT 19 7 9 12 26 31 76 50 50 61
REMARK Flexibility Score: inf
ROOT
ATOM      1  C   UNL A   1      32.878  29.974  27.029  1.00  0.00     0.002 C 
ENDROOT
BRANCH   1   2
ATOM      2  C   UNL A   1      32.791  28.462  27.278  1.00  0.00     0.021 C 
BRANCH   2   3
ATOM      3  C   UNL A   1      31.408  27.919  27.622  1.00  0.00     0.116 C 
BRANCH   3   4
ATOM      4  N   UNL A   1      31.057  26.727  26.877  1.00  0.00    -0.354 N 
ATOM      5  C   UNL A   1      30.936  26.505  25.540  1.00  0.00     0.242 C 
ATOM      6  O   UNL A   1      30.966  25.332  25.151  1.00  0.00    -0.273 OA
ATOM      7  H   UNL A   1      30.874  25.939  27.436  1.00  0.00     0.163 HD
BRANCH   5   8
ATOM      8  C   UNL A   1      30.862  27.633  24.496  1.00  0.00     0.172 C 
BRANCH   8   9
ATOM      9  N   UNL A   1      32.174  28.132  24.081  1.00  0.00    -0.339 N 
ATOM     10  C   UNL A   1      33.221  27.554  23.387  1.00  0.00     0.263 C 
ATOM     11  O   UNL A   1      33.974  28.396  22.883  1.00  0.00    -0.268 OA
ATOM     12  H   UNL A   1      32.346  29.064  24.349  1.00  0.00     0.164 HD
BRANCH  10  13
ATOM     13  C   UNL A   1      33.492  26.119  23.274  1.00  0.00     0.115 A 
ATOM     14  C   UNL A   1      34.911  22.526  23.892  1.00  0.00     0.079 C 
ATOM     15  C   UNL A   1      34.275  23.800  23.457  1.00  0.00     0.091 A 
ATOM     16  N   UNL A   1      33.629  23.958  22.328  1.00  0.00    -0.246 NA
ATOM     17  S   UNL A   1      34.401  25.203  24.408  1.00  0.00    -0.113 S 
ATOM     18  C   UNL A   1      33.196  25.276  22.197  1.00  0.00     0.061 A 
ATOM     19  C   UNL A   1      32.528  25.595  20.902  1.00  0.00     0.068 C 
ENDBRANCH  10  13
ENDBRANCH   8   9
BRANCH   8  20
ATOM     20  C   UNL A   1      29.872  27.492  23.321  1.00  0.00     0.051 C 
BRANCH  20  21
ATOM     21  C   UNL A   1      29.710  28.586  22.278  1.00  0.00     0.139 C 
BRANCH  21  22
ATOM     22  S   UNL A   1      28.275  29.651  22.424  1.00  0.00     0.147 S 
ATOM     23  C   UNL A   1      28.742  30.986  23.494  1.00  0.00     0.158 C 
ATOM     24  O   UNL A   1      28.034  30.208  21.108  1.00  0.00    -0.229 OA
ATOM     25  O   UNL A   1      27.218  28.933  23.102  1.00  0.00    -0.229 OA
ENDBRANCH  21  22
ENDBRANCH  20  21
ENDBRANCH   8  20
ENDBRANCH   5   8
ENDBRANCH   3   4
ENDBRANCH   2   3
ENDBRANCH   1   2
BRANCH   1  26
ATOM     26  C   UNL A   1      31.635  30.662  26.458  1.00  0.00     0.002 C 
BRANCH  26  27
ATOM     27  C   UNL A   1      31.445  32.133  26.811  1.00  0.00     0.021 C 
BRANCH  27  28
ATOM     28  C   UNL A   1      32.733  32.910  27.025  1.00  0.00     0.116 C 
BRANCH  28  29
ATOM     29  N   UNL A   1      32.517  34.215  27.627  1.00  0.00    -0.352 N 
ATOM     30  C   UNL A   1      33.153  34.791  28.697  1.00  0.00     0.251 C 
ATOM     31  H   UNL A   1      31.814  34.762  27.207  1.00  0.00     0.163 HD
ATOM     32  O   UNL A   1      32.755  35.858  29.154  1.00  0.00    -0.269 OA
BRANCH  30  33
ATOM     33  C   UNL A   1      34.305  34.106  29.319  1.00  0.00     0.039 A 
ATOM     34  C   UNL A   1      34.064  33.020  30.163  1.00  0.00     0.014 A 
ATOM     35  C   UNL A   1      35.614  34.527  29.070  1.00  0.00     0.014 A 
ATOM     36  C   UNL A   1      35.140  32.327  30.718  1.00  0.00     0.010 A 
ATOM     37  C   UNL A   1      36.685  33.779  29.548  1.00  0.00     0.010 A 
ATOM     38  C   UNL A   1      36.459  32.682  30.391  1.00  0.00    -0.014 A 
BRANCH  38  39
ATOM     39  C   UNL A   1      37.612  31.932  30.947  1.00  0.00     0.031 A 
ATOM     40  C   UNL A   1      38.113  32.240  32.332  1.00  0.00     0.074 A 
ATOM     41  C   UNL A   1      38.235  31.009  30.190  1.00  0.00     0.049 A 
ATOM     42  N   UNL A   1      39.127  31.724  32.979  1.00  0.00    -0.248 NA
ATOM     43  C   UNL A   1      37.398  33.287  33.079  1.00  0.00     0.031 C 
ATOM     44  C   UNL A   1      37.873  30.657  28.815  1.00  0.00     0.029 A 
ATOM     45  N   UNL A   1      39.306  30.198  30.469  1.00  0.00    -0.354 N 
ATOM     46  C   UNL A   1      39.175  32.388  34.197  1.00  0.00     0.074 A 
ATOM     47  C   UNL A   1      38.134  33.390  34.175  1.00  0.00     0.031 C 
ATOM     48  C   UNL A   1      38.686  29.679  28.383  1.00  0.00     0.029 A 
ATOM     49  C   UNL A   1      39.650  29.364  29.432  1.00  0.00     0.049 A 
ATOM     50  H   UNL A   1      39.782  30.212  31.330  1.00  0.00     0.167 HD
ATOM     51  C   UNL A   1      39.995  32.164  35.252  1.00  0.00     0.037 A 
ATOM     52  C   UNL A   1      40.635  28.452  29.339  1.00  0.00     0.037 A 
ATOM     53  C   UNL A   1      41.017  31.152  35.276  1.00  0.00     0.049 A 
ATOM     54  C   UNL A   1      41.540  28.231  30.521  1.00  0.00     0.074 A 
ATOM     55  C   UNL A   1      41.869  30.810  36.311  1.00  0.00     0.029 A 
ATOM     56  N   UNL A   1      41.329  30.320  34.211  1.00  0.00    -0.354 N 
ATOM     57  N   UNL A   1      41.531  28.820  31.692  1.00  0.00    -0.248 NA
ATOM     58  C   UNL A   1      42.585  27.209  30.370  1.00  0.00     0.031 C 
ATOM     59  C   UNL A   1      42.731  29.809  35.855  1.00  0.00     0.029 A 
ATOM     60  C   UNL A   1      42.375  29.480  34.557  1.00  0.00     0.049 A 
ATOM     61  H   UNL A   1      40.873  30.325  33.337  1.00  0.00     0.167 HD
ATOM     62  C   UNL A   1      42.542  28.216  32.429  1.00  0.00     0.074 A 
ATOM     63  C   UNL A   1      43.133  27.206  31.576  1.00  0.00     0.031 C 
ATOM     64  C   UNL A   1      42.945  28.473  33.698  1.00  0.00     0.037 A 
BRANCH  51  65
ATOM     65  C   UNL A   1      39.816  33.031  36.466  1.00  0.00     0.057 A 
ATOM     66  C   UNL A   1      40.562  34.203  36.657  1.00  0.00     0.134 A 
ATOM     67  C   UNL A   1      38.866  32.708  37.443  1.00  0.00     0.134 A 
ATOM     68  F   UNL A   1      41.499  34.565  35.767  1.00  0.00    -0.206 F 
ATOM     69  C   UNL A   1      40.391  35.003  37.788  1.00  0.00     0.040 A 
ATOM     70  C   UNL A   1      38.663  33.518  38.562  1.00  0.00     0.040 A 
ATOM     71  F   UNL A   1      38.112  31.605  37.322  1.00  0.00    -0.206 F 
ATOM     72  C   UNL A   1      39.433  34.665  38.741  1.00  0.00     0.006 A 
ENDBRANCH  51  65
BRANCH  52  73
ATOM     73  C   UNL A   1      40.805  27.661  28.094  1.00  0.00     0.057 A 
ATOM     74  C   UNL A   1      40.203  26.405  27.947  1.00  0.00     0.134 A 
ATOM     75  C   UNL A   1      41.584  28.128  27.029  1.00  0.00     0.134 A 
ATOM     76  F   UNL A   1      39.458  25.893  28.937  1.00  0.00    -0.206 F 
ATOM     77  C   UNL A   1      40.392  25.632  26.799  1.00  0.00     0.040 A 
ATOM     78  C   UNL A   1      41.757  27.381  25.863  1.00  0.00     0.040 A 
ATOM     79  F   UNL A   1      42.181  29.328  27.101  1.00  0.00    -0.206 F 
ATOM     80  C   UNL A   1      41.168  26.123  25.751  1.00  0.00     0.006 A 
ENDBRANCH  52  73
BRANCH  64  81
ATOM     81  C   UNL A   1      44.043  27.614  34.257  1.00  0.00     0.057 A 
ATOM     82  C   UNL A   1      45.391  27.989  34.191  1.00  0.00     0.134 A 
ATOM     83  C   UNL A   1      43.741  26.405  34.899  1.00  0.00     0.134 A 
ATOM     84  F   UNL A   1      45.751  29.129  33.580  1.00  0.00    -0.206 F 
ATOM     85  C   UNL A   1      46.401  27.177  34.711  1.00  0.00     0.040 A 
ATOM     86  C   UNL A   1      44.738  25.602  35.451  1.00  0.00     0.040 A 
ATOM     87  F   UNL A   1      42.469  25.991  35.008  1.00  0.00    -0.206 F 
ATOM     88  C   UNL A   1      46.074  25.983  35.349  1.00  0.00     0.006 A 
ENDBRANCH  64  81
ENDBRANCH  38  39
ENDBRANCH  30  33
ENDBRANCH  28  29
ENDBRANCH  27  28
ENDBRANCH  26  27
ENDBRANCH   1  26
TORSDOF 18
ENDMDL
MODEL 3
REMARK VINA RESULT:     -10.8      4.878      9.448
REMARK SMILES Cc1nc(C)c(C(=O)N[C@@H](CCS(C)(=O)=O)C(=O)NCCCCCCNC(=O)c2ccc(-c3c4nc(c(-c5c(F)cccc5F)c5ccc([nH]5)c(-c5c(F)cccc5F)c5nc(c(-c6c(F)cccc6F)c6ccc3[nH]6)C=C5)C=C4)cc2)s1
REMARK SMILES IDX 22 1 21 2 20 3 19 4 17 5 18 6 10 8 9 9 7 10 8 11 6 13 1 14
REMARK SMILES IDX 2 15 3 16 83 17 4 18 5 19 11 20 12 21 13 22 14 23 15 24
REMARK SMILES IDX 16 25 23 26 24 27 25 28 26 29 27 30 28 32 29 33 30 34 82 35
REMARK SMILES IDX 31 36 81 37 32 38 33 39 34 40 75 41 35 42 80 43 74 44 76 45
REMARK SMILES IDX 36 46 79 47 73 48 72 49 37 51 63 52 46 53 62 54 47 55 50 56
REMARK SMILES IDX 61 57 77 58 48 59 49 60 60 62 78 63 51 64 38 65 39 66 44 67
REMARK SMILES IDX 40 68 41 69 43 70 45 71 42 72 64 73 65 74 70 75 66 76 67 77
REMARK SMILES IDX 69 78 71 79 68 80 52 81 53 82 58 83 54 84 55 85 57 86 59 87
REMARK SMILES IDX 56 88
REMARK H PARENT 19 7 9 12 26 31 76 50 50 61
REMARK Flexibility Score: inf
ROOT
ATOM      1  C   UNL A   1      37.017  21.969  24.518  1.00  0.00     0.002 C 
ENDROOT
BRANCH   1   2
ATOM      2  C   UNL A   1      36.163  22.588  23.403  1.00  0.00     0.021 C 
BRANCH   2   3
ATOM      3  C   UNL A   1      34.727  22.941  23.778  1.00  0.00     0.116 C 
BRANCH   3   4
ATOM      4  N   UNL A   1      33.738  22.166  23.057  1.00  0.00    -0.354 N 
ATOM      5  C   UNL A   1      32.779  21.305  23.491  1.00  0.00     0.242 C 
ATOM      6  O   UNL A   1      31.851  21.046  22.716  1.00  0.00    -0.273 OA
ATOM      7  H   UNL A   1      33.764  22.284  22.081  1.00  0.00     0.163 HD
BRANCH   5   8
ATOM      8  C   UNL A   1      32.742  20.722  24.914  1.00  0.00     0.172 C 
BRANCH   8   9
ATOM      9  N   UNL A   1      31.621  21.210  25.718  1.00  0.00    -0.339 N 
ATOM     10  C   UNL A   1      31.136  22.479  25.977  1.00  0.00     0.263 C 
ATOM     11  O   UNL A   1      29.958  22.464  26.354  1.00  0.00    -0.268 OA
ATOM     12  H   UNL A   1      31.111  20.494  26.162  1.00  0.00     0.164 HD
BRANCH  10  13
ATOM     13  C   UNL A   1      31.897  23.727  25.888  1.00  0.00     0.115 A 
ATOM     14  C   UNL A   1      33.167  27.256  24.777  1.00  0.00     0.079 C 
ATOM     15  C   UNL A   1      32.880  25.909  25.340  1.00  0.00     0.091 A 
ATOM     16  N   UNL A   1      33.672  25.264  26.161  1.00  0.00    -0.246 NA
ATOM     17  S   UNL A   1      31.476  25.061  24.891  1.00  0.00    -0.113 S 
ATOM     18  C   UNL A   1      33.140  24.012  26.466  1.00  0.00     0.061 A 
ATOM     19  C   UNL A   1      34.005  23.149  27.321  1.00  0.00     0.068 C 
ENDBRANCH  10  13
ENDBRANCH   8   9
BRANCH   8  20
ATOM     20  C   UNL A   1      33.009  19.214  25.105  1.00  0.00     0.051 C 
BRANCH  20  21
ATOM     21  C   UNL A   1      34.013  18.466  24.242  1.00  0.00     0.139 C 
BRANCH  21  22
ATOM     22  S   UNL A   1      33.900  16.676  24.219  1.00  0.00     0.147 S 
ATOM     23  C   UNL A   1      35.231  16.072  25.222  1.00  0.00     0.158 C 
ATOM     24  O   UNL A   1      32.659  16.329  24.881  1.00  0.00    -0.229 OA
ATOM     25  O   UNL A   1      34.152  16.202  22.875  1.00  0.00    -0.229 OA
ENDBRANCH  21  22
ENDBRANCH  20  21
ENDBRANCH   8  20
ENDBRANCH   5   8
ENDBRANCH   3   4
ENDBRANCH   2   3
ENDBRANCH   1   2
BRANCH   1  26
ATOM     26  C   UNL A   1      36.711  20.521  24.911  1.00  0.00     0.002 C 
BRANCH  26  27
ATOM     27  C   UNL A   1      37.901  19.570  25.001  1.00  0.00     0.021 C 
BRANCH  27  28
ATOM     28  C   UNL A   1      39.115  20.133  25.723  1.00  0.00     0.116 C 
BRANCH  28  29
ATOM     29  N   UNL A   1      40.215  19.189  25.805  1.00  0.00    -0.352 N 
ATOM     30  C   UNL A   1      41.524  19.412  26.149  1.00  0.00     0.251 C 
ATOM     31  H   UNL A   1      39.989  18.257  25.583  1.00  0.00     0.163 HD
ATOM     32  O   UNL A   1      42.355  18.515  26.044  1.00  0.00    -0.269 OA
BRANCH  30  33
ATOM     33  C   UNL A   1      41.939  20.750  26.620  1.00  0.00     0.039 A 
ATOM     34  C   UNL A   1      42.253  21.727  25.673  1.00  0.00     0.014 A 
ATOM     35  C   UNL A   1      42.013  21.043  27.985  1.00  0.00     0.014 A 
ATOM     36  C   UNL A   1      42.595  23.011  26.095  1.00  0.00     0.010 A 
ATOM     37  C   UNL A   1      42.263  22.346  28.401  1.00  0.00     0.010 A 
ATOM     38  C   UNL A   1      42.574  23.340  27.461  1.00  0.00    -0.014 A 
BRANCH  38  39
ATOM     39  C   UNL A   1      42.902  24.711  27.922  1.00  0.00     0.031 A 
ATOM     40  C   UNL A   1      44.338  25.111  28.130  1.00  0.00     0.074 A 
ATOM     41  C   UNL A   1      41.910  25.578  28.197  1.00  0.00     0.049 A 
ATOM     42  N   UNL A   1      44.826  26.246  28.563  1.00  0.00    -0.248 NA
ATOM     43  C   UNL A   1      45.360  24.093  27.840  1.00  0.00     0.031 C 
ATOM     44  C   UNL A   1      40.478  25.290  28.083  1.00  0.00     0.029 A 
ATOM     45  N   UNL A   1      41.953  26.878  28.633  1.00  0.00    -0.354 N 
ATOM     46  C   UNL A   1      46.203  26.073  28.606  1.00  0.00     0.074 A 
ATOM     47  C   UNL A   1      46.470  24.706  28.220  1.00  0.00     0.031 C 
ATOM     48  C   UNL A   1      39.781  26.391  28.406  1.00  0.00     0.029 A 
ATOM     49  C   UNL A   1      40.712  27.448  28.790  1.00  0.00     0.049 A 
ATOM     50  H   UNL A   1      42.793  27.358  28.814  1.00  0.00     0.167 HD
ATOM     51  C   UNL A   1      47.161  26.979  28.911  1.00  0.00     0.037 A 
ATOM     52  C   UNL A   1      40.367  28.682  29.202  1.00  0.00     0.037 A 
ATOM     53  C   UNL A   1      46.891  28.345  29.275  1.00  0.00     0.049 A 
ATOM     54  C   UNL A   1      41.451  29.667  29.546  1.00  0.00     0.074 A 
ATOM     55  C   UNL A   1      47.790  29.358  29.555  1.00  0.00     0.029 A 
ATOM     56  N   UNL A   1      45.622  28.888  29.413  1.00  0.00    -0.354 N 
ATOM     57  N   UNL A   1      42.752  29.511  29.517  1.00  0.00    -0.248 NA
ATOM     58  C   UNL A   1      41.016  31.005  29.970  1.00  0.00     0.031 C 
ATOM     59  C   UNL A   1      47.066  30.498  29.915  1.00  0.00     0.029 A 
ATOM     60  C   UNL A   1      45.715  30.216  29.796  1.00  0.00     0.049 A 
ATOM     61  H   UNL A   1      44.779  28.401  29.261  1.00  0.00     0.167 HD
ATOM     62  C   UNL A   1      43.291  30.737  29.883  1.00  0.00     0.074 A 
ATOM     63  C   UNL A   1      42.175  31.631  30.114  1.00  0.00     0.031 C 
ATOM     64  C   UNL A   1      44.593  31.094  30.014  1.00  0.00     0.037 A 
BRANCH  51  65
ATOM     65  C   UNL A   1      48.592  26.521  28.861  1.00  0.00     0.057 A 
ATOM     66  C   UNL A   1      49.381  26.678  27.713  1.00  0.00     0.134 A 
ATOM     67  C   UNL A   1      49.197  25.942  29.983  1.00  0.00     0.134 A 
ATOM     68  F   UNL A   1      48.861  27.213  26.597  1.00  0.00    -0.206 F 
ATOM     69  C   UNL A   1      50.709  26.249  27.674  1.00  0.00     0.040 A 
ATOM     70  C   UNL A   1      50.533  25.538  29.967  1.00  0.00     0.040 A 
ATOM     71  F   UNL A   1      48.504  25.766  31.118  1.00  0.00    -0.206 F 
ATOM     72  C   UNL A   1      51.291  25.684  28.806  1.00  0.00     0.006 A 
ENDBRANCH  51  65
BRANCH  52  73
ATOM     73  C   UNL A   1      38.935  29.067  29.288  1.00  0.00     0.057 A 
ATOM     74  C   UNL A   1      38.233  28.978  30.497  1.00  0.00     0.134 A 
ATOM     75  C   UNL A   1      38.228  29.514  28.166  1.00  0.00     0.134 A 
ATOM     76  F   UNL A   1      38.849  28.541  31.604  1.00  0.00    -0.206 F 
ATOM     77  C   UNL A   1      36.875  29.294  30.580  1.00  0.00     0.040 A 
ATOM     78  C   UNL A   1      36.878  29.863  28.240  1.00  0.00     0.040 A 
ATOM     79  F   UNL A   1      38.843  29.631  26.979  1.00  0.00    -0.206 F 
ATOM     80  C   UNL A   1      36.195  29.742  29.449  1.00  0.00     0.006 A 
ENDBRANCH  52  73
BRANCH  64  81
ATOM     81  C   UNL A   1      44.880  32.523  30.375  1.00  0.00     0.057 A 
ATOM     82  C   UNL A   1      45.001  33.528  29.407  1.00  0.00     0.134 A 
ATOM     83  C   UNL A   1      45.010  32.902  31.718  1.00  0.00     0.134 A 
ATOM     84  F   UNL A   1      44.899  33.232  28.102  1.00  0.00    -0.206 F 
ATOM     85  C   UNL A   1      45.273  34.852  29.759  1.00  0.00     0.040 A 
ATOM     86  C   UNL A   1      45.249  34.227  32.083  1.00  0.00     0.040 A 
ATOM     87  F   UNL A   1      44.894  31.993  32.698  1.00  0.00    -0.206 F 
ATOM     88  C   UNL A   1      45.391  35.205  31.101  1.00  0.00     0.006 A 
ENDBRANCH  64  81
ENDBRANCH  38  39
ENDBRANCH  30  33
ENDBRANCH  28  29
ENDBRANCH  27  28
ENDBRANCH  26  27
ENDBRANCH   1  26
TORSDOF 18
ENDMDL
