MODEL 1
REMARK VINA RESULT:     -12.4      0.000      0.000
REMARK SMILES Cc1cc(C(=O)NCCCCCCNC(=O)c2ccc(-c3c4nc(c(-c5c(F)cccc5F)c5ccc([nH]5)c(-c5c(F)cccc5F)c5nc(c(-c6c(F)cccc6F)c6ccc3[nH]6)C=C5)C=C4)cc2)nc(N2CCN(c3ccccc3Cl)CC2)n1
REMARK SMILES IDX 10 1 9 2 8 3 7 4 5 5 6 6 4 8 1 9 2 10 3 11 86 12 72 13 71 14
REMARK SMILES IDX 73 15 74 16 85 17 75 18 84 19 76 20 77 21 78 22 82 23 79 24
REMARK SMILES IDX 81 25 83 26 80 27 11 28 12 29 13 30 14 31 15 32 16 34 17 35
REMARK SMILES IDX 18 36 70 37 19 38 69 39 20 40 21 41 22 42 63 43 23 44 68 45
REMARK SMILES IDX 62 46 64 47 24 48 67 49 61 50 60 51 25 53 51 54 34 55 50 56
REMARK SMILES IDX 35 57 38 58 49 59 65 60 36 61 37 62 48 64 66 65 39 66 26 67
REMARK SMILES IDX 27 68 32 69 28 70 29 71 31 72 33 73 30 74 52 75 53 76 58 77
REMARK SMILES IDX 54 78 55 79 57 80 59 81 56 82 40 83 41 84 46 85 42 86 43 87
REMARK SMILES IDX 45 88 47 89 44 90
REMARK H PARENT 7 7 14 33 64 52 38 63
REMARK Flexibility Score: inf
ROOT
ATOM      1  C   UNL A   1      32.743  30.183  27.296  1.00  0.00     0.002 C 
ENDROOT
BRANCH   1   2
ATOM      2  C   UNL A   1      32.906  28.674  27.059  1.00  0.00     0.021 C 
BRANCH   2   3
ATOM      3  C   UNL A   1      34.159  28.343  26.248  1.00  0.00     0.116 C 
BRANCH   3   4
ATOM      4  N   UNL A   1      34.047  28.956  24.946  1.00  0.00    -0.351 N 
ATOM      5  C   UNL A   1      33.274  28.678  23.849  1.00  0.00     0.270 C 
ATOM      6  O   UNL A   1      33.562  29.298  22.820  1.00  0.00    -0.268 OA
ATOM      7  H   UNL A   1      34.646  29.727  24.820  1.00  0.00     0.163 HD
BRANCH   5   8
ATOM      8  C   UNL A   1      32.093  27.752  23.858  1.00  0.00     0.133 A 
ATOM      9  C   UNL A   1      28.394  27.355  23.578  1.00  0.00     0.067 C 
ATOM     10  C   UNL A   1      29.865  27.075  23.682  1.00  0.00     0.044 A 
ATOM     11  C   UNL A   1      30.767  28.107  23.859  1.00  0.00     0.058 A 
ATOM     12  N   UNL A   1      30.242  25.781  23.631  1.00  0.00    -0.218 NA
ATOM     13  C   UNL A   1      31.544  25.516  23.790  1.00  0.00     0.226 A 
ATOM     14  N   UNL A   1      32.473  26.465  23.862  1.00  0.00    -0.208 NA
BRANCH  13  15
ATOM     15  N   UNL A   1      31.997  24.235  23.946  1.00  0.00    -0.337 N 
ATOM     16  C   UNL A   1      32.879  23.627  22.954  1.00  0.00     0.141 C 
ATOM     17  C   UNL A   1      31.011  23.342  24.576  1.00  0.00     0.141 C 
ATOM     18  C   UNL A   1      33.595  22.405  23.587  1.00  0.00     0.138 C 
ATOM     19  C   UNL A   1      31.699  22.103  25.174  1.00  0.00     0.138 C 
ATOM     20  N   UNL A   1      32.602  21.503  24.183  1.00  0.00    -0.367 N 
BRANCH  20  21
ATOM     21  C   UNL A   1      32.673  20.135  24.044  1.00  0.00     0.056 A 
ATOM     22  C   UNL A   1      33.133  19.346  25.108  1.00  0.00     0.027 A 
ATOM     23  C   UNL A   1      32.309  19.473  22.851  1.00  0.00     0.064 A 
ATOM     24  C   UNL A   1      33.225  17.954  24.996  1.00  0.00     0.002 A 
ATOM     25  C   UNL A   1      32.408  18.083  22.734  1.00  0.00     0.023 A 
ATOM     26  Cl  UNL A   1      31.793  20.344  21.444  1.00  0.00    -0.082 Cl
ATOM     27  C   UNL A   1      32.867  17.324  23.808  1.00  0.00     0.002 A 
ENDBRANCH  20  21
ENDBRANCH  13  15
ENDBRANCH   5   8
ENDBRANCH   3   4
ENDBRANCH   2   3
ENDBRANCH   1   2
BRANCH   1  28
ATOM     28  C   UNL A   1      31.556  30.815  26.558  1.00  0.00     0.002 C 
BRANCH  28  29
ATOM     29  C   UNL A   1      31.446  32.334  26.713  1.00  0.00     0.021 C 
BRANCH  29  30
ATOM     30  C   UNL A   1      32.731  32.999  27.191  1.00  0.00     0.116 C 
BRANCH  30  31
ATOM     31  N   UNL A   1      32.486  34.357  27.651  1.00  0.00    -0.352 N 
ATOM     32  C   UNL A   1      33.011  35.011  28.735  1.00  0.00     0.251 C 
ATOM     33  H   UNL A   1      31.852  34.880  27.108  1.00  0.00     0.163 HD
ATOM     34  O   UNL A   1      32.517  36.062  29.125  1.00  0.00    -0.269 OA
BRANCH  32  35
ATOM     35  C   UNL A   1      34.177  34.436  29.438  1.00  0.00     0.039 A 
ATOM     36  C   UNL A   1      33.974  33.752  30.638  1.00  0.00     0.014 A 
ATOM     37  C   UNL A   1      35.467  34.589  28.921  1.00  0.00     0.014 A 
ATOM     38  C   UNL A   1      35.062  33.179  31.298  1.00  0.00     0.010 A 
ATOM     39  C   UNL A   1      36.540  33.959  29.542  1.00  0.00     0.010 A 
ATOM     40  C   UNL A   1      36.349  33.255  30.741  1.00  0.00    -0.014 A 
BRANCH  40  41
ATOM     41  C   UNL A   1      37.510  32.611  31.402  1.00  0.00     0.031 A 
ATOM     42  C   UNL A   1      38.209  31.456  30.740  1.00  0.00     0.074 A 
ATOM     43  C   UNL A   1      37.896  33.028  32.623  1.00  0.00     0.049 A 
ATOM     44  N   UNL A   1      39.195  30.720  31.187  1.00  0.00    -0.248 NA
ATOM     45  C   UNL A   1      37.719  31.057  29.410  1.00  0.00     0.031 C 
ATOM     46  C   UNL A   1      37.270  34.109  33.386  1.00  0.00     0.029 A 
ATOM     47  N   UNL A   1      38.902  32.582  33.442  1.00  0.00    -0.354 N 
ATOM     48  C   UNL A   1      39.430  29.766  30.206  1.00  0.00     0.074 A 
ATOM     49  C   UNL A   1      38.453  29.983  29.161  1.00  0.00     0.031 C 
ATOM     50  C   UNL A   1      37.920  34.258  34.551  1.00  0.00     0.029 A 
ATOM     51  C   UNL A   1      38.982  33.261  34.635  1.00  0.00     0.049 A 
ATOM     52  H   UNL A   1      39.509  31.846  33.200  1.00  0.00     0.167 HD
ATOM     53  C   UNL A   1      40.386  28.808  30.169  1.00  0.00     0.037 A 
ATOM     54  C   UNL A   1      39.814  33.091  35.679  1.00  0.00     0.037 A 
ATOM     55  C   UNL A   1      41.376  28.615  31.196  1.00  0.00     0.049 A 
ATOM     56  C   UNL A   1      40.865  32.018  35.613  1.00  0.00     0.074 A 
ATOM     57  C   UNL A   1      42.429  27.716  31.221  1.00  0.00     0.029 A 
ATOM     58  N   UNL A   1      41.435  29.334  32.380  1.00  0.00    -0.354 N 
ATOM     59  N   UNL A   1      41.119  31.167  34.649  1.00  0.00    -0.248 NA
ATOM     60  C   UNL A   1      41.750  31.886  36.779  1.00  0.00     0.031 C 
ATOM     61  C   UNL A   1      43.098  27.861  32.439  1.00  0.00     0.029 A 
ATOM     62  C   UNL A   1      42.493  28.883  33.153  1.00  0.00     0.049 A 
ATOM     63  H   UNL A   1      40.817  30.057  32.634  1.00  0.00     0.167 HD
ATOM     64  C   UNL A   1      42.209  30.421  35.077  1.00  0.00     0.074 A 
ATOM     65  C   UNL A   1      42.576  30.929  36.383  1.00  0.00     0.031 C 
ATOM     66  C   UNL A   1      42.850  29.407  34.446  1.00  0.00     0.037 A 
BRANCH  53  67
ATOM     67  C   UNL A   1      40.413  27.897  28.976  1.00  0.00     0.057 A 
ATOM     68  C   UNL A   1      41.198  28.177  27.850  1.00  0.00     0.134 A 
ATOM     69  C   UNL A   1      39.681  26.703  28.972  1.00  0.00     0.134 A 
ATOM     70  F   UNL A   1      41.914  29.310  27.785  1.00  0.00    -0.206 F 
ATOM     71  C   UNL A   1      41.236  27.315  26.752  1.00  0.00     0.040 A 
ATOM     72  C   UNL A   1      39.731  25.819  27.893  1.00  0.00     0.040 A 
ATOM     73  F   UNL A   1      38.914  26.371  30.021  1.00  0.00    -0.206 F 
ATOM     74  C   UNL A   1      40.506  26.127  26.776  1.00  0.00     0.006 A 
ENDBRANCH  53  67
BRANCH  54  75
ATOM     75  C   UNL A   1      39.705  33.971  36.871  1.00  0.00     0.057 A 
ATOM     76  C   UNL A   1      40.408  35.179  36.939  1.00  0.00     0.134 A 
ATOM     77  C   UNL A   1      38.914  33.620  37.971  1.00  0.00     0.134 A 
ATOM     78  F   UNL A   1      41.196  35.560  35.924  1.00  0.00    -0.206 F 
ATOM     79  C   UNL A   1      40.348  35.996  38.070  1.00  0.00     0.040 A 
ATOM     80  C   UNL A   1      38.825  34.440  39.097  1.00  0.00     0.040 A 
ATOM     81  F   UNL A   1      38.210  32.479  37.963  1.00  0.00    -0.206 F 
ATOM     82  C   UNL A   1      39.551  35.629  39.151  1.00  0.00     0.006 A 
ENDBRANCH  54  75
BRANCH  66  83
ATOM     83  C   UNL A   1      44.037  28.807  35.141  1.00  0.00     0.057 A 
ATOM     84  C   UNL A   1      45.334  29.299  34.949  1.00  0.00     0.134 A 
ATOM     85  C   UNL A   1      43.871  27.748  36.043  1.00  0.00     0.134 A 
ATOM     86  F   UNL A   1      45.560  30.302  34.087  1.00  0.00    -0.206 F 
ATOM     87  C   UNL A   1      46.429  28.742  35.612  1.00  0.00     0.040 A 
ATOM     88  C   UNL A   1      44.954  27.202  36.733  1.00  0.00     0.040 A 
ATOM     89  F   UNL A   1      42.654  27.237  36.279  1.00  0.00    -0.206 F 
ATOM     90  C   UNL A   1      46.239  27.695  36.513  1.00  0.00     0.006 A 
ENDBRANCH  66  83
ENDBRANCH  40  41
ENDBRANCH  32  35
ENDBRANCH  30  31
ENDBRANCH  29  30
ENDBRANCH  28  29
ENDBRANCH   1  28
TORSDOF 15
ENDMDL
MODEL 2
REMARK VINA RESULT:     -12.2      7.133     13.246
REMARK SMILES Cc1cc(C(=O)NCCCCCCNC(=O)c2ccc(-c3c4nc(c(-c5c(F)cccc5F)c5ccc([nH]5)c(-c5c(F)cccc5F)c5nc(c(-c6c(F)cccc6F)c6ccc3[nH]6)C=C5)C=C4)cc2)nc(N2CCN(c3ccccc3Cl)CC2)n1
REMARK SMILES IDX 10 1 9 2 8 3 7 4 5 5 6 6 4 8 1 9 2 10 3 11 86 12 72 13 71 14
REMARK SMILES IDX 73 15 74 16 85 17 75 18 84 19 76 20 77 21 78 22 82 23 79 24
REMARK SMILES IDX 81 25 83 26 80 27 11 28 12 29 13 30 14 31 15 32 16 34 17 35
REMARK SMILES IDX 18 36 70 37 19 38 69 39 20 40 21 41 22 42 63 43 23 44 68 45
REMARK SMILES IDX 62 46 64 47 24 48 67 49 61 50 60 51 25 53 51 54 34 55 50 56
REMARK SMILES IDX 35 57 38 58 49 59 65 60 36 61 37 62 48 64 66 65 39 66 26 67
REMARK SMILES IDX 27 68 32 69 28 70 29 71 31 72 33 73 30 74 52 75 53 76 58 77
REMARK SMILES IDX 54 78 55 79 57 80 59 81 56 82 40 83 41 84 46 85 42 86 43 87
REMARK SMILES IDX 45 88 47 89 44 90
REMARK H PARENT 7 7 14 33 64 52 38 63
REMARK Flexibility Score: inf
ROOT
ATOM      1  C   UNL A   1      44.942  21.595  24.421  1.00  0.00     0.002 C 
ENDROOT
BRANCH   1   2
ATOM      2  C   UNL A   1      46.253  22.379  24.255  1.00  0.00     0.021 C 
BRANCH   2   3
ATOM      3  C   UNL A   1      46.277  23.659  25.090  1.00  0.00     0.116 C 
BRANCH   3   4
ATOM      4  N   UNL A   1      45.007  24.329  24.953  1.00  0.00    -0.351 N 
ATOM      5  C   UNL A   1      44.625  25.639  25.086  1.00  0.00     0.270 C 
ATOM      6  O   UNL A   1      43.407  25.845  25.076  1.00  0.00    -0.268 OA
ATOM      7  H   UNL A   1      44.266  23.726  24.717  1.00  0.00     0.163 HD
BRANCH   5   8
ATOM      8  C   UNL A   1      45.579  26.795  25.161  1.00  0.00     0.133 A 
ATOM      9  C   UNL A   1      46.679  29.862  26.979  1.00  0.00     0.067 C 
ATOM     10  C   UNL A   1      46.605  28.709  26.021  1.00  0.00     0.044 A 
ATOM     11  C   UNL A   1      45.510  27.866  26.017  1.00  0.00     0.058 A 
ATOM     12  N   UNL A   1      47.633  28.568  25.159  1.00  0.00    -0.218 NA
ATOM     13  C   UNL A   1      47.545  27.584  24.257  1.00  0.00     0.226 A 
ATOM     14  N   UNL A   1      46.570  26.679  24.264  1.00  0.00    -0.208 NA
BRANCH  13  15
ATOM     15  N   UNL A   1      48.436  27.481  23.224  1.00  0.00    -0.337 N 
ATOM     16  C   UNL A   1      49.870  27.627  23.456  1.00  0.00     0.141 C 
ATOM     17  C   UNL A   1      47.922  28.023  21.956  1.00  0.00     0.141 C 
ATOM     18  C   UNL A   1      50.646  27.013  22.260  1.00  0.00     0.138 C 
ATOM     19  C   UNL A   1      48.707  27.455  20.761  1.00  0.00     0.138 C 
ATOM     20  N   UNL A   1      50.150  27.584  21.002  1.00  0.00    -0.367 N 
BRANCH  20  21
ATOM     21  C   UNL A   1      50.995  27.969  19.985  1.00  0.00     0.056 A 
ATOM     22  C   UNL A   1      51.364  29.315  19.852  1.00  0.00     0.027 A 
ATOM     23  C   UNL A   1      51.512  27.055  19.041  1.00  0.00     0.064 A 
ATOM     24  C   UNL A   1      52.214  29.739  18.825  1.00  0.00     0.002 A 
ATOM     25  C   UNL A   1      52.355  27.478  18.009  1.00  0.00     0.023 A 
ATOM     26  Cl  UNL A   1      51.073  25.378  19.059  1.00  0.00    -0.082 Cl
ATOM     27  C   UNL A   1      52.706  28.821  17.902  1.00  0.00     0.002 A 
ENDBRANCH  20  21
ENDBRANCH  13  15
ENDBRANCH   5   8
ENDBRANCH   3   4
ENDBRANCH   2   3
ENDBRANCH   1   2
BRANCH   1  28
ATOM     28  C   UNL A   1      45.030  20.413  25.394  1.00  0.00     0.002 C 
BRANCH  28  29
ATOM     29  C   UNL A   1      44.217  19.184  24.977  1.00  0.00     0.021 C 
BRANCH  29  30
ATOM     30  C   UNL A   1      43.347  18.613  26.090  1.00  0.00     0.116 C 
BRANCH  30  31
ATOM     31  N   UNL A   1      41.945  18.579  25.703  1.00  0.00    -0.352 N 
ATOM     32  C   UNL A   1      40.943  19.463  26.006  1.00  0.00     0.251 C 
ATOM     33  H   UNL A   1      41.679  17.811  25.147  1.00  0.00     0.163 HD
ATOM     34  O   UNL A   1      39.771  19.162  25.813  1.00  0.00    -0.269 OA
BRANCH  32  35
ATOM     35  C   UNL A   1      41.283  20.784  26.575  1.00  0.00     0.039 A 
ATOM     36  C   UNL A   1      41.295  20.941  27.962  1.00  0.00     0.014 A 
ATOM     37  C   UNL A   1      41.572  21.867  25.738  1.00  0.00     0.014 A 
ATOM     38  C   UNL A   1      41.643  22.174  28.515  1.00  0.00     0.010 A 
ATOM     39  C   UNL A   1      41.986  23.075  26.290  1.00  0.00     0.010 A 
ATOM     40  C   UNL A   1      42.017  23.242  27.683  1.00  0.00    -0.014 A 
BRANCH  40  41
ATOM     41  C   UNL A   1      42.437  24.547  28.250  1.00  0.00     0.031 A 
ATOM     42  C   UNL A   1      41.429  25.648  28.434  1.00  0.00     0.074 A 
ATOM     43  C   UNL A   1      43.734  24.760  28.542  1.00  0.00     0.049 A 
ATOM     44  N   UNL A   1      41.612  26.876  28.848  1.00  0.00    -0.248 NA
ATOM     45  C   UNL A   1      40.034  25.336  28.082  1.00  0.00     0.031 C 
ATOM     46  C   UNL A   1      44.812  23.786  28.366  1.00  0.00     0.029 A 
ATOM     47  N   UNL A   1      44.367  25.871  29.038  1.00  0.00    -0.354 N 
ATOM     48  C   UNL A   1      40.365  27.485  28.790  1.00  0.00     0.074 A 
ATOM     49  C   UNL A   1      39.442  26.508  28.255  1.00  0.00     0.031 C 
ATOM     50  C   UNL A   1      45.970  24.334  28.770  1.00  0.00     0.029 A 
ATOM     51  C   UNL A   1      45.723  25.707  29.196  1.00  0.00     0.049 A 
ATOM     52  H   UNL A   1      43.897  26.706  29.260  1.00  0.00     0.167 HD
ATOM     53  C   UNL A   1      40.017  28.737  29.168  1.00  0.00     0.037 A 
ATOM     54  C   UNL A   1      46.660  26.570  29.629  1.00  0.00     0.037 A 
ATOM     55  C   UNL A   1      40.933  29.695  29.729  1.00  0.00     0.049 A 
ATOM     56  C   UNL A   1      46.246  27.957  30.040  1.00  0.00     0.074 A 
ATOM     57  C   UNL A   1      40.665  30.967  30.206  1.00  0.00     0.029 A 
ATOM     58  N   UNL A   1      42.294  29.486  29.890  1.00  0.00    -0.354 N 
ATOM     59  N   UNL A   1      45.052  28.497  30.044  1.00  0.00    -0.248 NA
ATOM     60  C   UNL A   1      47.312  28.852  30.513  1.00  0.00     0.031 C 
ATOM     61  C   UNL A   1      41.872  31.544  30.614  1.00  0.00     0.029 A 
ATOM     62  C   UNL A   1      42.883  30.614  30.437  1.00  0.00     0.049 A 
ATOM     63  H   UNL A   1      42.771  28.658  29.650  1.00  0.00     0.167 HD
ATOM     64  C   UNL A   1      45.216  29.780  30.546  1.00  0.00     0.074 A 
ATOM     65  C   UNL A   1      46.624  29.934  30.849  1.00  0.00     0.031 C 
ATOM     66  C   UNL A   1      44.285  30.746  30.741  1.00  0.00     0.037 A 
BRANCH  53  67
ATOM     67  C   UNL A   1      38.583  29.144  28.992  1.00  0.00     0.057 A 
ATOM     68  C   UNL A   1      37.670  29.112  30.055  1.00  0.00     0.134 A 
ATOM     69  C   UNL A   1      38.120  29.616  27.757  1.00  0.00     0.134 A 
ATOM     70  F   UNL A   1      38.046  28.660  31.261  1.00  0.00    -0.206 F 
ATOM     71  C   UNL A   1      36.342  29.512  29.890  1.00  0.00     0.040 A 
ATOM     72  C   UNL A   1      36.802  30.045  27.587  1.00  0.00     0.040 A 
ATOM     73  F   UNL A   1      38.943  29.678  26.700  1.00  0.00    -0.206 F 
ATOM     74  C   UNL A   1      35.908  29.988  28.654  1.00  0.00     0.006 A 
ENDBRANCH  53  67
BRANCH  54  75
ATOM     75  C   UNL A   1      48.080  26.147  29.720  1.00  0.00     0.057 A 
ATOM     76  C   UNL A   1      48.632  25.735  30.939  1.00  0.00     0.134 A 
ATOM     77  C   UNL A   1      48.922  26.160  28.602  1.00  0.00     0.134 A 
ATOM     78  F   UNL A   1      47.880  25.719  32.049  1.00  0.00    -0.206 F 
ATOM     79  C   UNL A   1      49.976  25.374  31.048  1.00  0.00     0.040 A 
ATOM     80  C   UNL A   1      50.261  25.777  28.692  1.00  0.00     0.040 A 
ATOM     81  F   UNL A   1      48.452  26.536  27.404  1.00  0.00    -0.206 F 
ATOM     82  C   UNL A   1      50.793  25.390  29.921  1.00  0.00     0.006 A 
ENDBRANCH  54  75
BRANCH  66  83
ATOM     83  C   UNL A   1      44.752  32.038  31.344  1.00  0.00     0.057 A 
ATOM     84  C   UNL A   1      44.745  32.254  32.728  1.00  0.00     0.134 A 
ATOM     85  C   UNL A   1      45.250  33.063  30.529  1.00  0.00     0.134 A 
ATOM     86  F   UNL A   1      44.267  31.317  33.561  1.00  0.00    -0.206 F 
ATOM     87  C   UNL A   1      45.196  33.455  33.279  1.00  0.00     0.040 A 
ATOM     88  C   UNL A   1      45.729  34.257  31.070  1.00  0.00     0.040 A 
ATOM     89  F   UNL A   1      45.292  32.915  29.197  1.00  0.00    -0.206 F 
ATOM     90  C   UNL A   1      45.697  34.457  32.449  1.00  0.00     0.006 A 
ENDBRANCH  66  83
ENDBRANCH  40  41
ENDBRANCH  32  35
ENDBRANCH  30  31
ENDBRANCH  29  30
ENDBRANCH  28  29
ENDBRANCH   1  28
TORSDOF 15
ENDMDL
MODEL 3
REMARK VINA RESULT:     -12.1      4.418      8.096
REMARK SMILES Cc1cc(C(=O)NCCCCCCNC(=O)c2ccc(-c3c4nc(c(-c5c(F)cccc5F)c5ccc([nH]5)c(-c5c(F)cccc5F)c5nc(c(-c6c(F)cccc6F)c6ccc3[nH]6)C=C5)C=C4)cc2)nc(N2CCN(c3ccccc3Cl)CC2)n1
REMARK SMILES IDX 10 1 9 2 8 3 7 4 5 5 6 6 4 8 1 9 2 10 3 11 86 12 72 13 71 14
REMARK SMILES IDX 73 15 74 16 85 17 75 18 84 19 76 20 77 21 78 22 82 23 79 24
REMARK SMILES IDX 81 25 83 26 80 27 11 28 12 29 13 30 14 31 15 32 16 34 17 35
REMARK SMILES IDX 18 36 70 37 19 38 69 39 20 40 21 41 22 42 63 43 23 44 68 45
REMARK SMILES IDX 62 46 64 47 24 48 67 49 61 50 60 51 25 53 51 54 34 55 50 56
REMARK SMILES IDX 35 57 38 58 49 59 65 60 36 61 37 62 48 64 66 65 39 66 26 67
REMARK SMILES IDX 27 68 32 69 28 70 29 71 31 72 33 73 30 74 52 75 53 76 58 77
REMARK SMILES IDX 54 78 55 79 57 80 59 81 56 82 40 83 41 84 46 85 42 86 43 87
REMARK SMILES IDX 45 88 47 89 44 90
REMARK H PARENT 7 7 14 33 64 52 38 63
REMARK Flexibility Score: inf
ROOT
ATOM      1  C   UNL A   1      35.396  32.036  27.994  1.00  0.00     0.002 C 
ENDROOT
BRANCH   1   2
ATOM      2  C   UNL A   1      34.951  30.599  27.684  1.00  0.00     0.021 C 
BRANCH   2   3
ATOM      3  C   UNL A   1      33.600  30.547  26.971  1.00  0.00     0.116 C 
BRANCH   3   4
ATOM      4  N   UNL A   1      32.744  29.613  27.660  1.00  0.00    -0.351 N 
ATOM      5  C   UNL A   1      31.860  28.661  27.222  1.00  0.00     0.270 C 
ATOM      6  O   UNL A   1      31.147  28.152  28.092  1.00  0.00    -0.268 OA
ATOM      7  H   UNL A   1      32.805  29.670  28.641  1.00  0.00     0.163 HD
BRANCH   5   8
ATOM      8  C   UNL A   1      31.777  28.172  25.805  1.00  0.00     0.133 A 
ATOM      9  C   UNL A   1      30.866  28.911  22.264  1.00  0.00     0.067 C 
ATOM     10  C   UNL A   1      31.394  28.249  23.503  1.00  0.00     0.044 A 
ATOM     11  C   UNL A   1      31.182  28.812  24.747  1.00  0.00     0.058 A 
ATOM     12  N   UNL A   1      32.044  27.078  23.337  1.00  0.00    -0.218 NA
ATOM     13  C   UNL A   1      32.459  26.447  24.441  1.00  0.00     0.226 A 
ATOM     14  N   UNL A   1      32.376  26.981  25.656  1.00  0.00    -0.208 NA
BRANCH  13  15
ATOM     15  N   UNL A   1      32.952  25.172  24.390  1.00  0.00    -0.337 N 
ATOM     16  C   UNL A   1      33.048  24.456  23.122  1.00  0.00     0.141 C 
ATOM     17  C   UNL A   1      32.597  24.365  25.569  1.00  0.00     0.141 C 
ATOM     18  C   UNL A   1      34.040  23.273  23.276  1.00  0.00     0.138 C 
ATOM     19  C   UNL A   1      33.547  23.164  25.715  1.00  0.00     0.138 C 
ATOM     20  N   UNL A   1      33.660  22.454  24.433  1.00  0.00    -0.367 N 
BRANCH  20  21
ATOM     21  C   UNL A   1      33.673  21.078  24.397  1.00  0.00     0.056 A 
ATOM     22  C   UNL A   1      32.531  20.377  23.985  1.00  0.00     0.027 A 
ATOM     23  C   UNL A   1      34.803  20.319  24.773  1.00  0.00     0.064 A 
ATOM     24  C   UNL A   1      32.509  18.979  23.945  1.00  0.00     0.002 A 
ATOM     25  C   UNL A   1      34.781  18.922  24.741  1.00  0.00     0.023 A 
ATOM     26  Cl  UNL A   1      36.250  21.069  25.366  1.00  0.00    -0.082 Cl
ATOM     27  C   UNL A   1      33.633  18.252  24.327  1.00  0.00     0.002 A 
ENDBRANCH  20  21
ENDBRANCH  13  15
ENDBRANCH   5   8
ENDBRANCH   3   4
ENDBRANCH   2   3
ENDBRANCH   1   2
BRANCH   1  28
ATOM     28  C   UNL A   1      34.293  32.927  28.581  1.00  0.00     0.002 C 
BRANCH  28  29
ATOM     29  C   UNL A   1      34.496  33.303  30.051  1.00  0.00     0.021 C 
BRANCH  29  30
ATOM     30  C   UNL A   1      34.761  32.111  30.962  1.00  0.00     0.116 C 
BRANCH  30  31
ATOM     31  N   UNL A   1      35.200  32.538  32.281  1.00  0.00    -0.352 N 
ATOM     32  C   UNL A   1      36.376  32.266  32.931  1.00  0.00     0.251 C 
ATOM     33  H   UNL A   1      34.563  33.101  32.778  1.00  0.00     0.163 HD
ATOM     34  O   UNL A   1      36.489  32.493  34.130  1.00  0.00    -0.269 OA
BRANCH  32  35
ATOM     35  C   UNL A   1      37.509  31.689  32.178  1.00  0.00     0.039 A 
ATOM     36  C   UNL A   1      37.635  31.979  30.818  1.00  0.00     0.014 A 
ATOM     37  C   UNL A   1      38.432  30.851  32.811  1.00  0.00     0.014 A 
ATOM     38  C   UNL A   1      38.716  31.464  30.100  1.00  0.00     0.010 A 
ATOM     39  C   UNL A   1      39.545  30.396  32.113  1.00  0.00     0.010 A 
ATOM     40  C   UNL A   1      39.694  30.692  30.749  1.00  0.00    -0.014 A 
BRANCH  40  41
ATOM     41  C   UNL A   1      40.875  30.176  30.016  1.00  0.00     0.031 A 
ATOM     42  C   UNL A   1      42.039  31.083  29.728  1.00  0.00     0.074 A 
ATOM     43  C   UNL A   1      40.873  28.909  29.557  1.00  0.00     0.049 A 
ATOM     44  N   UNL A   1      43.128  30.840  29.043  1.00  0.00    -0.248 NA
ATOM     45  C   UNL A   1      41.957  32.455  30.256  1.00  0.00     0.031 C 
ATOM     46  C   UNL A   1      39.785  27.947  29.734  1.00  0.00     0.029 A 
ATOM     47  N   UNL A   1      41.814  28.219  28.837  1.00  0.00    -0.354 N 
ATOM     48  C   UNL A   1      43.849  32.026  29.045  1.00  0.00     0.074 A 
ATOM     49  C   UNL A   1      43.054  33.004  29.756  1.00  0.00     0.031 C 
ATOM     50  C   UNL A   1      40.130  26.783  29.159  1.00  0.00     0.029 A 
ATOM     51  C   UNL A   1      41.443  26.929  28.541  1.00  0.00     0.049 A 
ATOM     52  H   UNL A   1      42.673  28.609  28.558  1.00  0.00     0.167 HD
ATOM     53  C   UNL A   1      45.073  32.273  28.521  1.00  0.00     0.037 A 
ATOM     54  C   UNL A   1      42.088  25.975  27.844  1.00  0.00     0.037 A 
ATOM     55  C   UNL A   1      45.875  31.289  27.843  1.00  0.00     0.049 A 
ATOM     56  C   UNL A   1      43.445  26.277  27.270  1.00  0.00     0.074 A 
ATOM     57  C   UNL A   1      47.155  31.422  27.334  1.00  0.00     0.029 A 
ATOM     58  N   UNL A   1      45.472  29.989  27.578  1.00  0.00    -0.354 N 
ATOM     59  N   UNL A   1      44.145  27.383  27.338  1.00  0.00    -0.248 NA
ATOM     60  C   UNL A   1      44.104  25.194  26.526  1.00  0.00     0.031 C 
ATOM     61  C   UNL A   1      47.510  30.215  26.723  1.00  0.00     0.029 A 
ATOM     62  C   UNL A   1      46.470  29.315  26.894  1.00  0.00     0.049 A 
ATOM     63  H   UNL A   1      44.604  29.602  27.839  1.00  0.00     0.167 HD
ATOM     64  C   UNL A   1      45.336  27.121  26.675  1.00  0.00     0.074 A 
ATOM     65  C   UNL A   1      45.270  25.747  26.223  1.00  0.00     0.031 C 
ATOM     66  C   UNL A   1      46.391  27.944  26.461  1.00  0.00     0.037 A 
BRANCH  53  67
ATOM     67  C   UNL A   1      45.624  33.662  28.664  1.00  0.00     0.057 A 
ATOM     68  C   UNL A   1      45.382  34.656  27.707  1.00  0.00     0.134 A 
ATOM     69  C   UNL A   1      46.367  34.023  29.796  1.00  0.00     0.134 A 
ATOM     70  F   UNL A   1      44.687  34.373  26.594  1.00  0.00    -0.206 F 
ATOM     71  C   UNL A   1      45.880  35.952  27.857  1.00  0.00     0.040 A 
ATOM     72  C   UNL A   1      46.846  35.322  29.971  1.00  0.00     0.040 A 
ATOM     73  F   UNL A   1      46.629  33.122  30.755  1.00  0.00    -0.206 F 
ATOM     74  C   UNL A   1      46.607  36.289  28.997  1.00  0.00     0.006 A 
ENDBRANCH  53  67
BRANCH  54  75
ATOM     75  C   UNL A   1      41.473  24.635  27.666  1.00  0.00     0.057 A 
ATOM     76  C   UNL A   1      40.472  24.423  26.711  1.00  0.00     0.134 A 
ATOM     77  C   UNL A   1      41.857  23.543  28.453  1.00  0.00     0.134 A 
ATOM     78  F   UNL A   1      40.050  25.435  25.940  1.00  0.00    -0.206 F 
ATOM     79  C   UNL A   1      39.857  23.179  26.561  1.00  0.00     0.040 A 
ATOM     80  C   UNL A   1      41.268  22.287  28.295  1.00  0.00     0.040 A 
ATOM     81  F   UNL A   1      42.817  23.679  29.379  1.00  0.00    -0.206 F 
ATOM     82  C   UNL A   1      40.258  22.105  27.352  1.00  0.00     0.006 A 
ENDBRANCH  54  75
BRANCH  66  83
ATOM     83  C   UNL A   1      47.575  27.369  25.739  1.00  0.00     0.057 A 
ATOM     84  C   UNL A   1      47.713  27.468  24.349  1.00  0.00     0.134 A 
ATOM     85  C   UNL A   1      48.606  26.743  26.451  1.00  0.00     0.134 A 
ATOM     86  F   UNL A   1      46.753  28.043  23.609  1.00  0.00    -0.206 F 
ATOM     87  C   UNL A   1      48.825  26.943  23.690  1.00  0.00     0.040 A 
ATOM     88  C   UNL A   1      49.736  26.239  25.806  1.00  0.00     0.040 A 
ATOM     89  F   UNL A   1      48.539  26.624  27.786  1.00  0.00    -0.206 F 
ATOM     90  C   UNL A   1      49.845  26.333  24.420  1.00  0.00     0.006 A 
ENDBRANCH  66  83
ENDBRANCH  40  41
ENDBRANCH  32  35
ENDBRANCH  30  31
ENDBRANCH  29  30
ENDBRANCH  28  29
ENDBRANCH   1  28
TORSDOF 15
ENDMDL
