MODEL 1
REMARK VINA RESULT:     -11.2      0.000      0.000
REMARK SMILES CC(C)Nc1cc2ccccc2cc1C(=O)NCCCCCCNC(=O)c1ccc(-c2c3nc(c(-c4c(F)cccc4F)c4ccc([nH]4)c(-c4c(F)cccc4F)c4nc(c(-c5c(F)cccc5F)c5ccc2[nH]5)C=C4)C=C3)cc1
REMARK SMILES IDX 20 1 19 2 18 3 17 4 15 5 16 6 14 8 5 9 6 10 7 11 13 12 8 13
REMARK SMILES IDX 12 14 9 15 11 16 10 17 4 18 2 20 1 21 3 22 21 23 22 24 23 25
REMARK SMILES IDX 24 26 25 27 26 29 27 30 28 31 80 32 29 33 79 34 30 35 31 36
REMARK SMILES IDX 32 37 73 38 33 39 78 40 72 41 74 42 34 43 77 44 71 45 70 46
REMARK SMILES IDX 35 48 61 49 44 50 60 51 45 52 48 53 59 54 75 55 46 56 47 57
REMARK SMILES IDX 58 59 76 60 49 61 36 62 37 63 42 64 38 65 39 66 41 67 43 68
REMARK SMILES IDX 40 69 62 70 63 71 68 72 64 73 65 74 67 75 69 76 66 77 50 78
REMARK SMILES IDX 51 79 56 80 52 81 53 82 55 83 57 84 54 85
REMARK H PARENT 17 7 4 19 24 28 74 47 48 58
REMARK Flexibility Score: inf
ROOT
ATOM      1  C   UNL A   1      38.378  22.290  25.748  1.00  0.00     0.002 C 
ENDROOT
BRANCH   1   2
ATOM      2  C   UNL A   1      37.633  23.624  25.891  1.00  0.00     0.021 C 
BRANCH   2   3
ATOM      3  C   UNL A   1      36.123  23.621  25.660  1.00  0.00     0.116 C 
BRANCH   3   4
ATOM      4  N   UNL A   1      35.326  23.232  26.805  1.00  0.00    -0.352 N 
ATOM      5  C   UNL A   1      34.381  22.231  26.909  1.00  0.00     0.253 C 
ATOM      6  O   UNL A   1      33.871  22.019  28.009  1.00  0.00    -0.269 OA
ATOM      7  H   UNL A   1      35.481  23.754  27.626  1.00  0.00     0.163 HD
BRANCH   5   8
ATOM      8  C   UNL A   1      33.879  21.478  25.724  1.00  0.00     0.063 A 
ATOM      9  C   UNL A   1      32.849  21.890  24.862  1.00  0.00     0.048 A 
ATOM     10  C   UNL A   1      32.331  20.936  23.962  1.00  0.00     0.035 A 
ATOM     11  C   UNL A   1      32.874  19.643  23.830  1.00  0.00    -0.016 A 
ATOM     12  C   UNL A   1      34.486  20.215  25.536  1.00  0.00     0.024 A 
ATOM     13  C   UNL A   1      32.327  18.697  22.945  1.00  0.00     0.009 A 
ATOM     14  C   UNL A   1      34.010  19.301  24.585  1.00  0.00    -0.017 A 
ATOM     15  C   UNL A   1      32.924  17.446  22.775  1.00  0.00     0.001 A 
ATOM     16  C   UNL A   1      34.621  18.050  24.380  1.00  0.00     0.009 A 
ATOM     17  C   UNL A   1      34.085  17.132  23.476  1.00  0.00     0.001 A 
BRANCH   9  18
ATOM     18  N   UNL A   1      32.368  23.197  24.738  1.00  0.00    -0.382 N 
ATOM     19  H   UNL A   1      32.992  23.931  24.534  1.00  0.00     0.160 HD
BRANCH  18  20
ATOM     20  C   UNL A   1      30.937  23.484  24.911  1.00  0.00     0.073 C 
ATOM     21  C   UNL A   1      30.666  23.652  26.411  1.00  0.00     0.030 C 
ATOM     22  C   UNL A   1      30.535  24.785  24.230  1.00  0.00     0.030 C 
ENDBRANCH  18  20
ENDBRANCH   9  18
ENDBRANCH   5   8
ENDBRANCH   3   4
ENDBRANCH   2   3
ENDBRANCH   1   2
BRANCH   1  23
ATOM     23  C   UNL A   1      37.798  21.216  24.824  1.00  0.00     0.002 C 
BRANCH  23  24
ATOM     24  C   UNL A   1      38.472  19.843  24.825  1.00  0.00     0.021 C 
BRANCH  24  25
ATOM     25  C   UNL A   1      39.227  19.475  26.097  1.00  0.00     0.116 C 
BRANCH  25  26
ATOM     26  N   UNL A   1      40.533  18.893  25.839  1.00  0.00    -0.352 N 
ATOM     27  C   UNL A   1      41.781  19.457  25.913  1.00  0.00     0.251 C 
ATOM     28  H   UNL A   1      40.521  17.946  25.568  1.00  0.00     0.163 HD
ATOM     29  O   UNL A   1      42.762  18.821  25.525  1.00  0.00    -0.269 OA
BRANCH  27  30
ATOM     30  C   UNL A   1      41.964  20.832  26.431  1.00  0.00     0.039 A 
ATOM     31  C   UNL A   1      41.867  21.048  27.809  1.00  0.00     0.014 A 
ATOM     32  C   UNL A   1      42.200  21.910  25.575  1.00  0.00     0.014 A 
ATOM     33  C   UNL A   1      42.063  22.330  28.331  1.00  0.00     0.010 A 
ATOM     34  C   UNL A   1      42.472  23.172  26.100  1.00  0.00     0.010 A 
ATOM     35  C   UNL A   1      42.400  23.397  27.483  1.00  0.00    -0.014 A 
BRANCH  35  36
ATOM     36  C   UNL A   1      42.676  24.754  28.022  1.00  0.00     0.031 A 
ATOM     37  C   UNL A   1      44.067  25.127  28.457  1.00  0.00     0.074 A 
ATOM     38  C   UNL A   1      41.662  25.629  28.174  1.00  0.00     0.049 A 
ATOM     39  N   UNL A   1      44.490  26.232  29.016  1.00  0.00    -0.248 NA
ATOM     40  C   UNL A   1      45.117  24.114  28.263  1.00  0.00     0.031 C 
ATOM     41  C   UNL A   1      40.262  25.371  27.829  1.00  0.00     0.029 A 
ATOM     42  N   UNL A   1      41.651  26.909  28.668  1.00  0.00    -0.354 N 
ATOM     43  C   UNL A   1      45.847  26.043  29.251  1.00  0.00     0.074 A 
ATOM     44  C   UNL A   1      46.165  24.697  28.826  1.00  0.00     0.031 C 
ATOM     45  C   UNL A   1      39.534  26.466  28.101  1.00  0.00     0.029 A 
ATOM     46  C   UNL A   1      40.403  27.486  28.676  1.00  0.00     0.049 A 
ATOM     47  H   UNL A   1      42.460  27.371  28.988  1.00  0.00     0.167 HD
ATOM     48  C   UNL A   1      46.750  26.919  29.751  1.00  0.00     0.037 A 
ATOM     49  C   UNL A   1      40.006  28.698  29.108  1.00  0.00     0.037 A 
ATOM     50  C   UNL A   1      46.434  28.265  30.152  1.00  0.00     0.049 A 
ATOM     51  C   UNL A   1      41.027  29.646  29.676  1.00  0.00     0.074 A 
ATOM     52  C   UNL A   1      47.288  29.248  30.621  1.00  0.00     0.029 A 
ATOM     53  N   UNL A   1      45.162  28.816  30.134  1.00  0.00    -0.354 N 
ATOM     54  N   UNL A   1      42.318  29.475  29.830  1.00  0.00    -0.248 NA
ATOM     55  C   UNL A   1      40.537  30.956  30.124  1.00  0.00     0.031 C 
ATOM     56  C   UNL A   1      46.525  30.377  30.933  1.00  0.00     0.029 A 
ATOM     57  C   UNL A   1      45.204  30.118  30.606  1.00  0.00     0.049 A 
ATOM     58  H   UNL A   1      44.349  28.351  29.830  1.00  0.00     0.167 HD
ATOM     59  C   UNL A   1      42.797  30.665  30.364  1.00  0.00     0.074 A 
ATOM     60  C   UNL A   1      41.661  31.553  30.491  1.00  0.00     0.031 C 
ATOM     61  C   UNL A   1      44.064  30.992  30.717  1.00  0.00     0.037 A 
BRANCH  48  62
ATOM     62  C   UNL A   1      48.171  26.450  29.889  1.00  0.00     0.057 A 
ATOM     63  C   UNL A   1      48.634  25.825  31.055  1.00  0.00     0.134 A 
ATOM     64  C   UNL A   1      49.077  26.586  28.829  1.00  0.00     0.134 A 
ATOM     65  F   UNL A   1      47.821  25.672  32.112  1.00  0.00    -0.206 F 
ATOM     66  C   UNL A   1      49.950  25.378  31.173  1.00  0.00     0.040 A 
ATOM     67  C   UNL A   1      50.389  26.116  28.924  1.00  0.00     0.040 A 
ATOM     68  F   UNL A   1      48.701  27.167  27.681  1.00  0.00    -0.206 F 
ATOM     69  C   UNL A   1      50.830  25.516  30.101  1.00  0.00     0.006 A 
ENDBRANCH  48  62
BRANCH  49  70
ATOM     70  C   UNL A   1      38.578  29.095  29.009  1.00  0.00     0.057 A 
ATOM     71  C   UNL A   1      38.054  29.618  27.820  1.00  0.00     0.134 A 
ATOM     72  C   UNL A   1      37.706  28.982  30.098  1.00  0.00     0.134 A 
ATOM     73  F   UNL A   1      38.841  29.768  26.745  1.00  0.00    -0.206 F 
ATOM     74  C   UNL A   1      36.726  30.036  27.726  1.00  0.00     0.040 A 
ATOM     75  C   UNL A   1      36.369  29.371  30.011  1.00  0.00     0.040 A 
ATOM     76  F   UNL A   1      38.142  28.482  31.264  1.00  0.00    -0.206 F 
ATOM     77  C   UNL A   1      35.877  29.909  28.823  1.00  0.00     0.006 A 
ENDBRANCH  49  70
BRANCH  61  78
ATOM     78  C   UNL A   1      44.294  32.381  31.239  1.00  0.00     0.057 A 
ATOM     79  C   UNL A   1      44.257  32.675  32.608  1.00  0.00     0.134 A 
ATOM     80  C   UNL A   1      44.597  33.430  30.360  1.00  0.00     0.134 A 
ATOM     81  F   UNL A   1      43.960  31.719  33.501  1.00  0.00    -0.206 F 
ATOM     82  C   UNL A   1      44.485  33.968  33.082  1.00  0.00     0.040 A 
ATOM     83  C   UNL A   1      44.857  34.719  30.825  1.00  0.00     0.040 A 
ATOM     84  F   UNL A   1      44.659  33.214  29.037  1.00  0.00    -0.206 F 
ATOM     85  C   UNL A   1      44.794  34.993  32.189  1.00  0.00     0.006 A 
ENDBRANCH  61  78
ENDBRANCH  35  36
ENDBRANCH  27  30
ENDBRANCH  25  26
ENDBRANCH  24  25
ENDBRANCH  23  24
ENDBRANCH   1  23
TORSDOF 15
ENDMDL
MODEL 2
REMARK VINA RESULT:     -11.0      1.245      6.415
REMARK SMILES CC(C)Nc1cc2ccccc2cc1C(=O)NCCCCCCNC(=O)c1ccc(-c2c3nc(c(-c4c(F)cccc4F)c4ccc([nH]4)c(-c4c(F)cccc4F)c4nc(c(-c5c(F)cccc5F)c5ccc2[nH]5)C=C4)C=C3)cc1
REMARK SMILES IDX 20 1 19 2 18 3 17 4 15 5 16 6 14 8 5 9 6 10 7 11 13 12 8 13
REMARK SMILES IDX 12 14 9 15 11 16 10 17 4 18 2 20 1 21 3 22 21 23 22 24 23 25
REMARK SMILES IDX 24 26 25 27 26 29 27 30 28 31 80 32 29 33 79 34 30 35 31 36
REMARK SMILES IDX 32 37 73 38 33 39 78 40 72 41 74 42 34 43 77 44 71 45 70 46
REMARK SMILES IDX 35 48 61 49 44 50 60 51 45 52 48 53 59 54 75 55 46 56 47 57
REMARK SMILES IDX 58 59 76 60 49 61 36 62 37 63 42 64 38 65 39 66 41 67 43 68
REMARK SMILES IDX 40 69 62 70 63 71 68 72 64 73 65 74 67 75 69 76 66 77 50 78
REMARK SMILES IDX 51 79 56 80 52 81 53 82 55 83 57 84 54 85
REMARK H PARENT 17 7 4 19 24 28 74 47 48 58
REMARK Flexibility Score: inf
ROOT
ATOM      1  C   UNL A   1      38.152  22.534  25.624  1.00  0.00     0.002 C 
ENDROOT
BRANCH   1   2
ATOM      2  C   UNL A   1      37.230  23.663  26.107  1.00  0.00     0.021 C 
BRANCH   2   3
ATOM      3  C   UNL A   1      35.777  23.640  25.638  1.00  0.00     0.116 C 
BRANCH   3   4
ATOM      4  N   UNL A   1      34.797  23.409  26.680  1.00  0.00    -0.352 N 
ATOM      5  C   UNL A   1      33.811  22.446  26.749  1.00  0.00     0.253 C 
ATOM      6  O   UNL A   1      33.128  22.380  27.772  1.00  0.00    -0.269 OA
ATOM      7  H   UNL A   1      34.842  24.025  27.447  1.00  0.00     0.163 HD
BRANCH   5   8
ATOM      8  C   UNL A   1      33.472  21.562  25.598  1.00  0.00     0.063 A 
ATOM      9  C   UNL A   1      32.453  21.789  24.658  1.00  0.00     0.048 A 
ATOM     10  C   UNL A   1      32.105  20.722  23.803  1.00  0.00     0.035 A 
ATOM     11  C   UNL A   1      32.804  19.499  23.791  1.00  0.00    -0.016 A 
ATOM     12  C   UNL A   1      34.235  20.373  25.531  1.00  0.00     0.024 A 
ATOM     13  C   UNL A   1      32.426  18.438  22.949  1.00  0.00     0.009 A 
ATOM     14  C   UNL A   1      33.927  19.348  24.624  1.00  0.00    -0.017 A 
ATOM     15  C   UNL A   1      33.176  17.261  22.899  1.00  0.00     0.001 A 
ATOM     16  C   UNL A   1      34.692  18.171  24.540  1.00  0.00     0.009 A 
ATOM     17  C   UNL A   1      34.323  17.137  23.678  1.00  0.00     0.001 A 
BRANCH   9  18
ATOM     18  N   UNL A   1      31.828  23.016  24.417  1.00  0.00    -0.382 N 
ATOM     19  H   UNL A   1      31.303  23.446  25.130  1.00  0.00     0.160 HD
BRANCH  18  20
ATOM     20  C   UNL A   1      31.949  23.668  23.105  1.00  0.00     0.073 C 
ATOM     21  C   UNL A   1      31.107  24.949  23.134  1.00  0.00     0.030 C 
ATOM     22  C   UNL A   1      33.385  24.078  22.809  1.00  0.00     0.030 C 
ENDBRANCH  18  20
ENDBRANCH   9  18
ENDBRANCH   5   8
ENDBRANCH   3   4
ENDBRANCH   2   3
ENDBRANCH   1   2
BRANCH   1  23
ATOM     23  C   UNL A   1      37.601  21.505  24.634  1.00  0.00     0.002 C 
BRANCH  23  24
ATOM     24  C   UNL A   1      38.146  20.078  24.721  1.00  0.00     0.021 C 
BRANCH  24  25
ATOM     25  C   UNL A   1      38.766  19.685  26.057  1.00  0.00     0.116 C 
BRANCH  25  26
ATOM     26  N   UNL A   1      39.965  18.876  25.914  1.00  0.00    -0.352 N 
ATOM     27  C   UNL A   1      41.287  19.233  26.010  1.00  0.00     0.251 C 
ATOM     28  H   UNL A   1      39.805  17.925  25.718  1.00  0.00     0.163 HD
ATOM     29  O   UNL A   1      42.161  18.413  25.725  1.00  0.00    -0.269 OA
BRANCH  27  30
ATOM     30  C   UNL A   1      41.678  20.598  26.426  1.00  0.00     0.039 A 
ATOM     31  C   UNL A   1      41.865  20.856  27.788  1.00  0.00     0.014 A 
ATOM     32  C   UNL A   1      41.833  21.629  25.497  1.00  0.00     0.014 A 
ATOM     33  C   UNL A   1      42.262  22.128  28.210  1.00  0.00     0.010 A 
ATOM     34  C   UNL A   1      42.303  22.875  25.909  1.00  0.00     0.010 A 
ATOM     35  C   UNL A   1      42.516  23.140  27.271  1.00  0.00    -0.014 A 
BRANCH  35  36
ATOM     36  C   UNL A   1      43.000  24.480  27.692  1.00  0.00     0.031 A 
ATOM     37  C   UNL A   1      42.018  25.549  28.088  1.00  0.00     0.074 A 
ATOM     38  C   UNL A   1      44.319  24.753  27.661  1.00  0.00     0.049 A 
ATOM     39  N   UNL A   1      42.241  26.796  28.416  1.00  0.00    -0.248 NA
ATOM     40  C   UNL A   1      40.594  25.174  28.092  1.00  0.00     0.031 C 
ATOM     41  C   UNL A   1      45.368  23.814  27.254  1.00  0.00     0.029 A 
ATOM     42  N   UNL A   1      45.004  25.902  27.966  1.00  0.00    -0.354 N 
ATOM     43  C   UNL A   1      40.990  27.356  28.650  1.00  0.00     0.074 A 
ATOM     44  C   UNL A   1      40.010  26.329  28.373  1.00  0.00     0.031 C 
ATOM     45  C   UNL A   1      46.562  24.418  27.358  1.00  0.00     0.029 A 
ATOM     46  C   UNL A   1      46.364  25.795  27.796  1.00  0.00     0.049 A 
ATOM     47  H   UNL A   1      44.563  26.726  28.277  1.00  0.00     0.167 HD
ATOM     48  C   UNL A   1      40.687  28.603  29.082  1.00  0.00     0.037 A 
ATOM     49  C   UNL A   1      47.339  26.709  27.966  1.00  0.00     0.037 A 
ATOM     50  C   UNL A   1      41.667  29.615  29.377  1.00  0.00     0.049 A 
ATOM     51  C   UNL A   1      46.974  28.093  28.429  1.00  0.00     0.074 A 
ATOM     52  C   UNL A   1      41.466  30.893  29.870  1.00  0.00     0.029 A 
ATOM     53  N   UNL A   1      43.035  29.465  29.204  1.00  0.00    -0.354 N 
ATOM     54  N   UNL A   1      45.791  28.586  28.710  1.00  0.00    -0.248 NA
ATOM     55  C   UNL A   1      48.078  29.045  28.604  1.00  0.00     0.031 C 
ATOM     56  C   UNL A   1      42.707  31.533  29.948  1.00  0.00     0.029 A 
ATOM     57  C   UNL A   1      43.687  30.635  29.558  1.00  0.00     0.049 A 
ATOM     58  H   UNL A   1      43.477  28.648  28.877  1.00  0.00     0.167 HD
ATOM     59  C   UNL A   1      46.014  29.894  29.122  1.00  0.00     0.074 A 
ATOM     60  C   UNL A   1      47.444  30.111  29.071  1.00  0.00     0.031 C 
ATOM     61  C   UNL A   1      45.114  30.831  29.509  1.00  0.00     0.037 A 
BRANCH  48  62
ATOM     62  C   UNL A   1      39.235  28.943  29.264  1.00  0.00     0.057 A 
ATOM     63  C   UNL A   1      38.455  29.445  28.213  1.00  0.00     0.134 A 
ATOM     64  C   UNL A   1      38.597  28.726  30.492  1.00  0.00     0.134 A 
ATOM     65  F   UNL A   1      39.006  29.685  27.013  1.00  0.00    -0.206 F 
ATOM     66  C   UNL A   1      37.103  29.745  28.383  1.00  0.00     0.040 A 
ATOM     67  C   UNL A   1      37.238  28.995  30.667  1.00  0.00     0.040 A 
ATOM     68  F   UNL A   1      39.280  28.241  31.539  1.00  0.00    -0.206 F 
ATOM     69  C   UNL A   1      36.489  29.512  29.612  1.00  0.00     0.006 A 
ENDBRANCH  48  62
BRANCH  49  70
ATOM     70  C   UNL A   1      48.756  26.345  27.713  1.00  0.00     0.057 A 
ATOM     71  C   UNL A   1      49.567  25.838  28.737  1.00  0.00     0.134 A 
ATOM     72  C   UNL A   1      49.343  26.510  26.453  1.00  0.00     0.134 A 
ATOM     73  F   UNL A   1      49.068  25.673  29.971  1.00  0.00    -0.206 F 
ATOM     74  C   UNL A   1      50.912  25.535  28.524  1.00  0.00     0.040 A 
ATOM     75  C   UNL A   1      50.680  26.185  26.219  1.00  0.00     0.040 A 
ATOM     76  F   UNL A   1      48.621  26.983  25.427  1.00  0.00    -0.206 F 
ATOM     77  C   UNL A   1      51.472  25.704  27.260  1.00  0.00     0.006 A 
ENDBRANCH  49  70
BRANCH  61  78
ATOM     78  C   UNL A   1      45.654  32.164  29.943  1.00  0.00     0.057 A 
ATOM     79  C   UNL A   1      45.800  33.232  29.049  1.00  0.00     0.134 A 
ATOM     80  C   UNL A   1      45.994  32.390  31.283  1.00  0.00     0.134 A 
ATOM     81  F   UNL A   1      45.504  33.076  27.749  1.00  0.00    -0.206 F 
ATOM     82  C   UNL A   1      46.291  34.470  29.467  1.00  0.00     0.040 A 
ATOM     83  C   UNL A   1      46.456  33.632  31.718  1.00  0.00     0.040 A 
ATOM     84  F   UNL A   1      45.868  31.413  32.193  1.00  0.00    -0.206 F 
ATOM     85  C   UNL A   1      46.614  34.674  30.807  1.00  0.00     0.006 A 
ENDBRANCH  61  78
ENDBRANCH  35  36
ENDBRANCH  27  30
ENDBRANCH  25  26
ENDBRANCH  24  25
ENDBRANCH  23  24
ENDBRANCH   1  23
TORSDOF 15
ENDMDL
MODEL 3
REMARK VINA RESULT:     -10.8      4.579      9.706
REMARK SMILES CC(C)Nc1cc2ccccc2cc1C(=O)NCCCCCCNC(=O)c1ccc(-c2c3nc(c(-c4c(F)cccc4F)c4ccc([nH]4)c(-c4c(F)cccc4F)c4nc(c(-c5c(F)cccc5F)c5ccc2[nH]5)C=C4)C=C3)cc1
REMARK SMILES IDX 20 1 19 2 18 3 17 4 15 5 16 6 14 8 5 9 6 10 7 11 13 12 8 13
REMARK SMILES IDX 12 14 9 15 11 16 10 17 4 18 2 20 1 21 3 22 21 23 22 24 23 25
REMARK SMILES IDX 24 26 25 27 26 29 27 30 28 31 80 32 29 33 79 34 30 35 31 36
REMARK SMILES IDX 32 37 73 38 33 39 78 40 72 41 74 42 34 43 77 44 71 45 70 46
REMARK SMILES IDX 35 48 61 49 44 50 60 51 45 52 48 53 59 54 75 55 46 56 47 57
REMARK SMILES IDX 58 59 76 60 49 61 36 62 37 63 42 64 38 65 39 66 41 67 43 68
REMARK SMILES IDX 40 69 62 70 63 71 68 72 64 73 65 74 67 75 69 76 66 77 50 78
REMARK SMILES IDX 51 79 56 80 52 81 53 82 55 83 57 84 54 85
REMARK H PARENT 17 7 4 19 24 28 74 47 48 58
REMARK Flexibility Score: inf
ROOT
ATOM      1  C   UNL A   1      33.870  30.308  27.386  1.00  0.00     0.002 C 
ENDROOT
BRANCH   1   2
ATOM      2  C   UNL A   1      34.534  28.946  27.144  1.00  0.00     0.021 C 
BRANCH   2   3
ATOM      3  C   UNL A   1      33.882  28.010  26.127  1.00  0.00     0.116 C 
BRANCH   3   4
ATOM      4  N   UNL A   1      34.290  28.215  24.753  1.00  0.00    -0.352 N 
ATOM      5  C   UNL A   1      33.510  28.435  23.636  1.00  0.00     0.253 C 
ATOM      6  O   UNL A   1      34.072  28.661  22.564  1.00  0.00    -0.269 OA
ATOM      7  H   UNL A   1      35.262  28.194  24.593  1.00  0.00     0.163 HD
BRANCH   5   8
ATOM      8  C   UNL A   1      32.025  28.301  23.658  1.00  0.00     0.063 A 
ATOM      9  C   UNL A   1      31.305  27.098  23.564  1.00  0.00     0.048 A 
ATOM     10  C   UNL A   1      29.916  27.187  23.333  1.00  0.00     0.035 A 
ATOM     11  C   UNL A   1      29.228  28.414  23.301  1.00  0.00    -0.016 A 
ATOM     12  C   UNL A   1      31.330  29.531  23.716  1.00  0.00     0.024 A 
ATOM     13  C   UNL A   1      27.847  28.483  23.045  1.00  0.00     0.009 A 
ATOM     14  C   UNL A   1      29.938  29.601  23.560  1.00  0.00    -0.017 A 
ATOM     15  C   UNL A   1      27.169  29.703  23.089  1.00  0.00     0.001 A 
ATOM     16  C   UNL A   1      29.238  30.818  23.635  1.00  0.00     0.009 A 
ATOM     17  C   UNL A   1      27.861  30.868  23.408  1.00  0.00     0.001 A 
BRANCH   9  18
ATOM     18  N   UNL A   1      31.825  25.820  23.792  1.00  0.00    -0.382 N 
ATOM     19  H   UNL A   1      32.278  25.622  24.643  1.00  0.00     0.160 HD
BRANCH  18  20
ATOM     20  C   UNL A   1      31.699  24.771  22.771  1.00  0.00     0.073 C 
ATOM     21  C   UNL A   1      33.107  24.428  22.270  1.00  0.00     0.030 C 
ATOM     22  C   UNL A   1      31.099  23.495  23.344  1.00  0.00     0.030 C 
ENDBRANCH  18  20
ENDBRANCH   9  18
ENDBRANCH   5   8
ENDBRANCH   3   4
ENDBRANCH   2   3
ENDBRANCH   1   2
BRANCH   1  23
ATOM     23  C   UNL A   1      32.372  30.459  27.107  1.00  0.00     0.002 C 
BRANCH  23  24
ATOM     24  C   UNL A   1      31.814  31.879  26.991  1.00  0.00     0.021 C 
BRANCH  24  25
ATOM     25  C   UNL A   1      32.848  32.986  26.815  1.00  0.00     0.116 C 
BRANCH  25  26
ATOM     26  N   UNL A   1      32.553  34.172  27.600  1.00  0.00    -0.352 N 
ATOM     27  C   UNL A   1      33.127  34.628  28.760  1.00  0.00     0.251 C 
ATOM     28  H   UNL A   1      31.828  34.737  27.246  1.00  0.00     0.163 HD
ATOM     29  O   UNL A   1      32.640  35.599  29.340  1.00  0.00    -0.269 OA
BRANCH  27  30
ATOM     30  C   UNL A   1      34.311  33.954  29.338  1.00  0.00     0.039 A 
ATOM     31  C   UNL A   1      34.112  32.935  30.276  1.00  0.00     0.014 A 
ATOM     32  C   UNL A   1      35.610  34.333  28.992  1.00  0.00     0.014 A 
ATOM     33  C   UNL A   1      35.208  32.261  30.819  1.00  0.00     0.010 A 
ATOM     34  C   UNL A   1      36.700  33.610  29.475  1.00  0.00     0.010 A 
ATOM     35  C   UNL A   1      36.511  32.571  30.398  1.00  0.00    -0.014 A 
BRANCH  35  36
ATOM     36  C   UNL A   1      37.688  31.824  30.914  1.00  0.00     0.031 A 
ATOM     37  C   UNL A   1      38.301  32.199  32.236  1.00  0.00     0.074 A 
ATOM     38  C   UNL A   1      38.238  30.847  30.166  1.00  0.00     0.049 A 
ATOM     39  N   UNL A   1      39.368  31.715  32.819  1.00  0.00    -0.248 NA
ATOM     40  C   UNL A   1      37.644  33.279  32.990  1.00  0.00     0.031 C 
ATOM     41  C   UNL A   1      37.761  30.419  28.849  1.00  0.00     0.029 A 
ATOM     42  N   UNL A   1      39.326  30.045  30.401  1.00  0.00    -0.354 N 
ATOM     43  C   UNL A   1      39.517  32.438  33.997  1.00  0.00     0.074 A 
ATOM     44  C   UNL A   1      38.465  33.430  34.019  1.00  0.00     0.031 C 
ATOM     45  C   UNL A   1      38.537  29.418  28.404  1.00  0.00     0.029 A 
ATOM     46  C   UNL A   1      39.590  29.162  29.381  1.00  0.00     0.049 A 
ATOM     47  H   UNL A   1      39.867  30.097  31.223  1.00  0.00     0.167 HD
ATOM     48  C   UNL A   1      40.431  32.273  34.982  1.00  0.00     0.037 A 
ATOM     49  C   UNL A   1      40.576  28.254  29.247  1.00  0.00     0.037 A 
ATOM     50  C   UNL A   1      41.464  31.270  34.967  1.00  0.00     0.049 A 
ATOM     51  C   UNL A   1      41.590  28.104  30.348  1.00  0.00     0.074 A 
ATOM     52  C   UNL A   1      42.406  30.987  35.940  1.00  0.00     0.029 A 
ATOM     53  N   UNL A   1      41.691  30.387  33.922  1.00  0.00    -0.354 N 
ATOM     54  N   UNL A   1      41.677  28.750  31.485  1.00  0.00    -0.248 NA
ATOM     55  C   UNL A   1      42.637  27.093  30.150  1.00  0.00     0.031 C 
ATOM     56  C   UNL A   1      43.234  29.966  35.464  1.00  0.00     0.029 A 
ATOM     57  C   UNL A   1      42.774  29.574  34.218  1.00  0.00     0.049 A 
ATOM     58  H   UNL A   1      41.162  30.344  33.093  1.00  0.00     0.167 HD
ATOM     59  C   UNL A   1      42.769  28.205  32.149  1.00  0.00     0.074 A 
ATOM     60  C   UNL A   1      43.301  27.165  31.295  1.00  0.00     0.031 C 
ATOM     61  C   UNL A   1      43.284  28.537  33.358  1.00  0.00     0.037 A 
BRANCH  48  62
ATOM     62  C   UNL A   1      40.354  33.197  36.164  1.00  0.00     0.057 A 
ATOM     63  C   UNL A   1      41.105  34.379  36.229  1.00  0.00     0.134 A 
ATOM     64  C   UNL A   1      39.489  32.925  37.232  1.00  0.00     0.134 A 
ATOM     65  F   UNL A   1      41.961  34.696  35.246  1.00  0.00    -0.206 F 
ATOM     66  C   UNL A   1      41.018  35.243  37.323  1.00  0.00     0.040 A 
ATOM     67  C   UNL A   1      39.372  33.795  38.318  1.00  0.00     0.040 A 
ATOM     68  F   UNL A   1      38.735  31.816  37.232  1.00  0.00    -0.206 F 
ATOM     69  C   UNL A   1      40.143  34.955  38.368  1.00  0.00     0.006 A 
ENDBRANCH  48  62
BRANCH  49  70
ATOM     70  C   UNL A   1      40.648  27.405  28.030  1.00  0.00     0.057 A 
ATOM     71  C   UNL A   1      40.033  26.147  27.989  1.00  0.00     0.134 A 
ATOM     72  C   UNL A   1      41.347  27.815  26.889  1.00  0.00     0.134 A 
ATOM     73  F   UNL A   1      39.363  25.689  29.057  1.00  0.00    -0.206 F 
ATOM     74  C   UNL A   1      40.131  25.320  26.869  1.00  0.00     0.040 A 
ATOM     75  C   UNL A   1      41.430  27.009  25.752  1.00  0.00     0.040 A 
ATOM     76  F   UNL A   1      41.952  29.011  26.858  1.00  0.00    -0.206 F 
ATOM     77  C   UNL A   1      40.828  25.753  25.744  1.00  0.00     0.006 A 
ENDBRANCH  49  70
BRANCH  61  78
ATOM     78  C   UNL A   1      44.461  27.740  33.844  1.00  0.00     0.057 A 
ATOM     79  C   UNL A   1      44.305  26.530  34.533  1.00  0.00     0.134 A 
ATOM     80  C   UNL A   1      45.769  28.173  33.584  1.00  0.00     0.134 A 
ATOM     81  F   UNL A   1      43.081  26.067  34.825  1.00  0.00    -0.206 F 
ATOM     82  C   UNL A   1      45.408  25.793  34.968  1.00  0.00     0.040 A 
ATOM     83  C   UNL A   1      46.877  27.429  33.987  1.00  0.00     0.040 A 
ATOM     84  F   UNL A   1      45.988  29.318  32.920  1.00  0.00    -0.206 F 
ATOM     85  C   UNL A   1      46.699  26.238  34.688  1.00  0.00     0.006 A 
ENDBRANCH  61  78
ENDBRANCH  35  36
ENDBRANCH  27  30
ENDBRANCH  25  26
ENDBRANCH  24  25
ENDBRANCH  23  24
ENDBRANCH   1  23
TORSDOF 15
ENDMDL
