MODEL 1
REMARK VINA RESULT:     -12.0      0.000      0.000
REMARK SMILES Cc1ccc(C)c(S(=O)(=O)N[C@H](CC2=c3ccccc3=NC2)C(=O)NCCCCCCNC(=O)c2ccc(-c3c4nc(c(-c5c(F)cccc5F)c5ccc([nH]5)c(-c5c(F)cccc5F)c5nc(c(-c6c(F)cccc6F)c6ccc3[nH]6)C=C5)C=C4)cc2)c1
REMARK SMILES IDX 28 1 27 2 26 3 25 4 23 5 24 6 12 8 11 9 8 11 9 12 10 13 7 14
REMARK SMILES IDX 1 15 2 16 3 17 89 18 4 19 5 20 6 21 13 22 14 23 15 24 22 25
REMARK SMILES IDX 16 26 20 27 21 28 17 29 19 30 18 31 29 32 30 33 31 34 32 35
REMARK SMILES IDX 33 36 34 38 35 39 36 40 88 41 37 42 87 43 38 44 39 45 40 46
REMARK SMILES IDX 81 47 41 48 86 49 80 50 82 51 42 52 85 53 79 54 78 55 43 57
REMARK SMILES IDX 69 58 52 59 68 60 53 61 56 62 67 63 83 64 54 65 55 66 66 68
REMARK SMILES IDX 84 69 57 70 44 71 45 72 50 73 46 74 47 75 49 76 51 77 48 78
REMARK SMILES IDX 70 79 71 80 76 81 72 82 73 83 75 84 77 85 74 86 58 87 59 88
REMARK SMILES IDX 64 89 60 90 61 91 63 92 65 93 62 94
REMARK H PARENT 25 7 11 10 32 37 82 56 56 67
REMARK Flexibility Score: inf
ROOT
ATOM      1  C   UNL A   1      39.690  21.582  26.435  1.00  0.00     0.002 C 
ENDROOT
BRANCH   1   2
ATOM      2  C   UNL A   1      39.217  23.038  26.467  1.00  0.00     0.021 C 
BRANCH   2   3
ATOM      3  C   UNL A   1      37.822  23.339  25.889  1.00  0.00     0.116 C 
BRANCH   3   4
ATOM      4  N   UNL A   1      37.082  22.191  25.378  1.00  0.00    -0.355 N 
ATOM      5  C   UNL A   1      35.833  21.985  24.861  1.00  0.00     0.238 C 
ATOM      6  O   UNL A   1      35.526  20.809  24.636  1.00  0.00    -0.273 OA
ATOM      7  H   UNL A   1      37.610  21.360  25.416  1.00  0.00     0.163 HD
BRANCH   5   8
ATOM      8  C   UNL A   1      34.816  23.104  24.592  1.00  0.00     0.163 C 
BRANCH   8   9
ATOM      9  N   UNL A   1      34.769  23.440  23.142  1.00  0.00    -0.198 NA
ATOM     10  H   UNL A   1      35.155  24.379  23.041  1.00  0.00     0.142 HD
BRANCH   9  11
ATOM     11  S   UNL A   1      33.288  23.431  22.336  1.00  0.00     0.241 S 
ATOM     12  O   UNL A   1      32.417  22.513  23.015  1.00  0.00    -0.207 OA
ATOM     13  O   UNL A   1      33.645  23.276  20.936  1.00  0.00    -0.207 OA
BRANCH  11  14
ATOM     14  C   UNL A   1      32.665  25.084  22.532  1.00  0.00     0.085 A 
ATOM     15  C   UNL A   1      34.126  28.601  22.421  1.00  0.00     0.044 C 
ATOM     16  C   UNL A   1      33.155  27.471  22.595  1.00  0.00    -0.050 A 
ATOM     17  C   UNL A   1      31.864  27.704  23.064  1.00  0.00     0.004 A 
ATOM     18  C   UNL A   1      33.533  26.162  22.296  1.00  0.00     0.025 A 
ATOM     19  C   UNL A   1      30.969  26.642  23.234  1.00  0.00     0.005 A 
ATOM     20  C   UNL A   1      31.353  25.315  22.974  1.00  0.00    -0.031 A 
ATOM     21  C   UNL A   1      30.316  24.242  23.165  1.00  0.00     0.046 C 
ENDBRANCH  11  14
ENDBRANCH   9  11
ENDBRANCH   8   9
BRANCH   8  22
ATOM     22  C   UNL A   1      34.943  24.407  25.443  1.00  0.00     0.063 C 
BRANCH  22  23
ATOM     23  C   UNL A   1      33.698  25.086  25.937  1.00  0.00    -0.037 C 
ATOM     24  C   UNL A   1      33.399  26.366  26.161  1.00  0.00     0.001 A 
ATOM     25  C   UNL A   1      32.559  24.232  26.394  1.00  0.00     0.174 C 
ATOM     26  C   UNL A   1      34.077  27.623  26.132  1.00  0.00     0.010 A 
ATOM     27  C   UNL A   1      31.981  26.295  26.571  1.00  0.00     0.065 A 
ATOM     28  N   UNL A   1      31.456  25.126  26.755  1.00  0.00    -0.280 NA
ATOM     29  C   UNL A   1      33.392  28.735  26.461  1.00  0.00     0.001 A 
ATOM     30  C   UNL A   1      31.261  27.566  26.746  1.00  0.00     0.028 A 
ATOM     31  C   UNL A   1      31.963  28.706  26.729  1.00  0.00     0.002 A 
ENDBRANCH  22  23
ENDBRANCH   8  22
ENDBRANCH   5   8
ENDBRANCH   3   4
ENDBRANCH   2   3
ENDBRANCH   1   2
BRANCH   1  32
ATOM     32  C   UNL A   1      40.727  21.191  27.488  1.00  0.00     0.002 C 
BRANCH  32  33
ATOM     33  C   UNL A   1      41.602  19.959  27.211  1.00  0.00     0.021 C 
BRANCH  33  34
ATOM     34  C   UNL A   1      41.778  19.525  25.753  1.00  0.00     0.116 C 
BRANCH  34  35
ATOM     35  N   UNL A   1      43.140  19.722  25.260  1.00  0.00    -0.352 N 
ATOM     36  C   UNL A   1      43.903  20.848  25.022  1.00  0.00     0.251 C 
ATOM     37  H   UNL A   1      43.609  18.881  25.054  1.00  0.00     0.163 HD
ATOM     38  O   UNL A   1      44.849  20.764  24.242  1.00  0.00    -0.269 OA
BRANCH  36  39
ATOM     39  C   UNL A   1      43.643  22.140  25.697  1.00  0.00     0.039 A 
ATOM     40  C   UNL A   1      42.838  23.126  25.104  1.00  0.00     0.014 A 
ATOM     41  C   UNL A   1      44.286  22.432  26.887  1.00  0.00     0.014 A 
ATOM     42  C   UNL A   1      42.705  24.377  25.718  1.00  0.00     0.010 A 
ATOM     43  C   UNL A   1      44.036  23.585  27.578  1.00  0.00     0.010 A 
ATOM     44  C   UNL A   1      43.327  24.595  26.950  1.00  0.00    -0.014 A 
BRANCH  44  45
ATOM     45  C   UNL A   1      43.275  25.859  27.665  1.00  0.00     0.031 A 
ATOM     46  C   UNL A   1      44.221  26.894  27.215  1.00  0.00     0.074 A 
ATOM     47  C   UNL A   1      42.195  26.201  28.402  1.00  0.00     0.049 A 
ATOM     48  N   UNL A   1      45.136  27.468  27.919  1.00  0.00    -0.248 NA
ATOM     49  C   UNL A   1      44.207  27.293  25.799  1.00  0.00     0.031 C 
ATOM     50  C   UNL A   1      40.998  25.389  28.631  1.00  0.00     0.029 A 
ATOM     51  N   UNL A   1      41.864  27.402  28.961  1.00  0.00    -0.354 N 
ATOM     52  C   UNL A   1      45.659  28.461  27.104  1.00  0.00     0.074 A 
ATOM     53  C   UNL A   1      45.221  28.159  25.766  1.00  0.00     0.031 C 
ATOM     54  C   UNL A   1      40.007  26.189  29.065  1.00  0.00     0.029 A 
ATOM     55  C   UNL A   1      40.517  27.523  29.269  1.00  0.00     0.049 A 
ATOM     56  H   UNL A   1      42.522  28.116  29.128  1.00  0.00     0.167 HD
ATOM     57  C   UNL A   1      46.156  29.609  27.639  1.00  0.00     0.037 A 
ATOM     58  C   UNL A   1      39.831  28.633  29.635  1.00  0.00     0.037 A 
ATOM     59  C   UNL A   1      46.379  29.479  29.062  1.00  0.00     0.049 A 
ATOM     60  C   UNL A   1      40.804  29.626  30.127  1.00  0.00     0.074 A 
ATOM     61  C   UNL A   1      47.043  28.568  29.866  1.00  0.00     0.029 A 
ATOM     62  N   UNL A   1      45.562  30.180  29.917  1.00  0.00    -0.354 N 
ATOM     63  N   UNL A   1      41.471  29.495  31.237  1.00  0.00    -0.248 NA
ATOM     64  C   UNL A   1      41.374  30.547  29.156  1.00  0.00     0.031 C 
ATOM     65  C   UNL A   1      46.227  28.430  31.030  1.00  0.00     0.029 A 
ATOM     66  C   UNL A   1      45.155  29.308  30.895  1.00  0.00     0.049 A 
ATOM     67  H   UNL A   1      45.315  31.129  29.842  1.00  0.00     0.167 HD
ATOM     68  C   UNL A   1      42.752  29.907  30.909  1.00  0.00     0.074 A 
ATOM     69  C   UNL A   1      42.604  30.659  29.664  1.00  0.00     0.031 C 
ATOM     70  C   UNL A   1      43.844  29.340  31.501  1.00  0.00     0.037 A 
BRANCH  57  71
ATOM     71  C   UNL A   1      46.082  30.953  26.956  1.00  0.00     0.057 A 
ATOM     72  C   UNL A   1      44.887  31.601  26.575  1.00  0.00     0.134 A 
ATOM     73  C   UNL A   1      47.232  31.761  26.923  1.00  0.00     0.134 A 
ATOM     74  F   UNL A   1      43.689  31.010  26.651  1.00  0.00    -0.206 F 
ATOM     75  C   UNL A   1      44.840  32.942  26.189  1.00  0.00     0.040 A 
ATOM     76  C   UNL A   1      47.185  33.122  26.601  1.00  0.00     0.040 A 
ATOM     77  F   UNL A   1      48.426  31.270  27.285  1.00  0.00    -0.206 F 
ATOM     78  C   UNL A   1      45.986  33.718  26.236  1.00  0.00     0.006 A 
ENDBRANCH  57  71
BRANCH  58  79
ATOM     79  C   UNL A   1      38.450  28.997  29.255  1.00  0.00     0.057 A 
ATOM     80  C   UNL A   1      38.171  29.457  27.955  1.00  0.00     0.134 A 
ATOM     81  C   UNL A   1      37.437  29.171  30.203  1.00  0.00     0.134 A 
ATOM     82  F   UNL A   1      39.109  29.418  26.997  1.00  0.00    -0.206 F 
ATOM     83  C   UNL A   1      36.956  30.059  27.618  1.00  0.00     0.040 A 
ATOM     84  C   UNL A   1      36.211  29.771  29.878  1.00  0.00     0.040 A 
ATOM     85  F   UNL A   1      37.635  28.817  31.481  1.00  0.00    -0.206 F 
ATOM     86  C   UNL A   1      35.971  30.224  28.583  1.00  0.00     0.006 A 
ENDBRANCH  58  79
BRANCH  70  87
ATOM     87  C   UNL A   1      43.620  28.468  32.706  1.00  0.00     0.057 A 
ATOM     88  C   UNL A   1      43.645  29.054  33.975  1.00  0.00     0.134 A 
ATOM     89  C   UNL A   1      43.507  27.069  32.662  1.00  0.00     0.134 A 
ATOM     90  F   UNL A   1      43.803  30.381  34.103  1.00  0.00    -0.206 F 
ATOM     91  C   UNL A   1      43.548  28.292  35.143  1.00  0.00     0.040 A 
ATOM     92  C   UNL A   1      43.378  26.297  33.820  1.00  0.00     0.040 A 
ATOM     93  F   UNL A   1      43.570  26.402  31.506  1.00  0.00    -0.206 F 
ATOM     94  C   UNL A   1      43.403  26.909  35.069  1.00  0.00     0.006 A 
ENDBRANCH  70  87
ENDBRANCH  44  45
ENDBRANCH  36  39
ENDBRANCH  34  35
ENDBRANCH  33  34
ENDBRANCH  32  33
ENDBRANCH   1  32
TORSDOF 18
ENDMDL
MODEL 2
REMARK VINA RESULT:     -11.3      1.266      1.937
REMARK SMILES Cc1ccc(C)c(S(=O)(=O)N[C@H](CC2=c3ccccc3=NC2)C(=O)NCCCCCCNC(=O)c2ccc(-c3c4nc(c(-c5c(F)cccc5F)c5ccc([nH]5)c(-c5c(F)cccc5F)c5nc(c(-c6c(F)cccc6F)c6ccc3[nH]6)C=C5)C=C4)cc2)c1
REMARK SMILES IDX 28 1 27 2 26 3 25 4 23 5 24 6 12 8 11 9 8 11 9 12 10 13 7 14
REMARK SMILES IDX 1 15 2 16 3 17 89 18 4 19 5 20 6 21 13 22 14 23 15 24 22 25
REMARK SMILES IDX 16 26 20 27 21 28 17 29 19 30 18 31 29 32 30 33 31 34 32 35
REMARK SMILES IDX 33 36 34 38 35 39 36 40 88 41 37 42 87 43 38 44 39 45 40 46
REMARK SMILES IDX 81 47 41 48 86 49 80 50 82 51 42 52 85 53 79 54 78 55 43 57
REMARK SMILES IDX 69 58 52 59 68 60 53 61 56 62 67 63 83 64 54 65 55 66 66 68
REMARK SMILES IDX 84 69 57 70 44 71 45 72 50 73 46 74 47 75 49 76 51 77 48 78
REMARK SMILES IDX 70 79 71 80 76 81 72 82 73 83 75 84 77 85 74 86 58 87 59 88
REMARK SMILES IDX 64 89 60 90 61 91 63 92 65 93 62 94
REMARK H PARENT 25 7 11 10 32 37 82 56 56 67
REMARK Flexibility Score: inf
ROOT
ATOM      1  C   UNL A   1      40.227  21.165  26.702  1.00  0.00     0.002 C 
ENDROOT
BRANCH   1   2
ATOM      2  C   UNL A   1      39.504  22.515  26.667  1.00  0.00     0.021 C 
BRANCH   2   3
ATOM      3  C   UNL A   1      38.227  22.609  25.814  1.00  0.00     0.116 C 
BRANCH   3   4
ATOM      4  N   UNL A   1      37.667  21.340  25.362  1.00  0.00    -0.355 N 
ATOM      5  C   UNL A   1      36.431  20.900  24.977  1.00  0.00     0.238 C 
ATOM      6  O   UNL A   1      36.329  19.687  24.762  1.00  0.00    -0.273 OA
ATOM      7  H   UNL A   1      38.343  20.626  25.325  1.00  0.00     0.163 HD
BRANCH   5   8
ATOM      8  C   UNL A   1      35.196  21.804  24.842  1.00  0.00     0.163 C 
BRANCH   8   9
ATOM      9  N   UNL A   1      33.974  20.995  24.574  1.00  0.00    -0.198 NA
ATOM     10  H   UNL A   1      33.700  21.181  23.609  1.00  0.00     0.142 HD
BRANCH   9  11
ATOM     11  S   UNL A   1      32.602  21.224  25.525  1.00  0.00     0.241 S 
ATOM     12  O   UNL A   1      33.033  21.560  26.854  1.00  0.00    -0.207 OA
ATOM     13  O   UNL A   1      31.776  20.062  25.245  1.00  0.00    -0.207 OA
BRANCH  11  14
ATOM     14  C   UNL A   1      31.787  22.626  24.800  1.00  0.00     0.085 A 
ATOM     15  C   UNL A   1      30.050  25.763  26.089  1.00  0.00     0.044 C 
ATOM     16  C   UNL A   1      30.570  24.708  25.158  1.00  0.00    -0.050 A 
ATOM     17  C   UNL A   1      30.268  24.743  23.798  1.00  0.00     0.004 A 
ATOM     18  C   UNL A   1      31.361  23.666  25.642  1.00  0.00     0.025 A 
ATOM     19  C   UNL A   1      30.748  23.748  22.940  1.00  0.00     0.005 A 
ATOM     20  C   UNL A   1      31.513  22.672  23.424  1.00  0.00    -0.031 A 
ATOM     21  C   UNL A   1      32.003  21.662  22.423  1.00  0.00     0.046 C 
ENDBRANCH  11  14
ENDBRANCH   9  11
ENDBRANCH   8   9
BRANCH   8  22
ATOM     22  C   UNL A   1      35.286  22.993  23.834  1.00  0.00     0.063 C 
BRANCH  22  23
ATOM     23  C   UNL A   1      34.713  24.326  24.219  1.00  0.00    -0.037 C 
ATOM     24  C   UNL A   1      34.077  25.269  23.521  1.00  0.00     0.001 A 
ATOM     25  C   UNL A   1      34.950  24.826  25.607  1.00  0.00     0.174 C 
ATOM     26  C   UNL A   1      33.727  25.507  22.157  1.00  0.00     0.010 A 
ATOM     27  C   UNL A   1      33.748  26.266  24.559  1.00  0.00     0.065 A 
ATOM     28  N   UNL A   1      34.236  26.097  25.746  1.00  0.00    -0.280 NA
ATOM     29  C   UNL A   1      33.073  26.643  21.846  1.00  0.00     0.001 A 
ATOM     30  C   UNL A   1      32.885  27.392  24.168  1.00  0.00     0.028 A 
ATOM     31  C   UNL A   1      32.615  27.569  22.869  1.00  0.00     0.002 A 
ENDBRANCH  22  23
ENDBRANCH   8  22
ENDBRANCH   5   8
ENDBRANCH   3   4
ENDBRANCH   2   3
ENDBRANCH   1   2
BRANCH   1  32
ATOM     32  C   UNL A   1      41.551  21.134  27.464  1.00  0.00     0.002 C 
BRANCH  32  33
ATOM     33  C   UNL A   1      42.516  19.971  27.180  1.00  0.00     0.021 C 
BRANCH  33  34
ATOM     34  C   UNL A   1      42.580  19.435  25.747  1.00  0.00     0.116 C 
BRANCH  34  35
ATOM     35  N   UNL A   1      43.825  19.784  25.063  1.00  0.00    -0.352 N 
ATOM     36  C   UNL A   1      44.412  20.989  24.733  1.00  0.00     0.251 C 
ATOM     37  H   UNL A   1      44.350  19.001  24.780  1.00  0.00     0.163 HD
ATOM     38  O   UNL A   1      45.238  21.010  23.822  1.00  0.00    -0.269 OA
BRANCH  36  39
ATOM     39  C   UNL A   1      44.110  22.245  25.456  1.00  0.00     0.039 A 
ATOM     40  C   UNL A   1      43.156  23.155  24.974  1.00  0.00     0.014 A 
ATOM     41  C   UNL A   1      44.851  22.587  26.574  1.00  0.00     0.014 A 
ATOM     42  C   UNL A   1      42.976  24.383  25.622  1.00  0.00     0.010 A 
ATOM     43  C   UNL A   1      44.573  23.705  27.309  1.00  0.00     0.010 A 
ATOM     44  C   UNL A   1      43.708  24.649  26.782  1.00  0.00    -0.014 A 
BRANCH  44  45
ATOM     45  C   UNL A   1      43.618  25.896  27.522  1.00  0.00     0.031 A 
ATOM     46  C   UNL A   1      44.537  26.965  27.096  1.00  0.00     0.074 A 
ATOM     47  C   UNL A   1      42.527  26.193  28.261  1.00  0.00     0.049 A 
ATOM     48  N   UNL A   1      45.434  27.550  27.816  1.00  0.00    -0.248 NA
ATOM     49  C   UNL A   1      44.516  27.392  25.689  1.00  0.00     0.031 C 
ATOM     50  C   UNL A   1      41.352  25.343  28.469  1.00  0.00     0.029 A 
ATOM     51  N   UNL A   1      42.161  27.373  28.842  1.00  0.00    -0.354 N 
ATOM     52  C   UNL A   1      45.931  28.573  27.022  1.00  0.00     0.074 A 
ATOM     53  C   UNL A   1      45.506  28.286  25.677  1.00  0.00     0.031 C 
ATOM     54  C   UNL A   1      40.337  26.107  28.915  1.00  0.00     0.029 A 
ATOM     55  C   UNL A   1      40.809  27.450  29.148  1.00  0.00     0.049 A 
ATOM     56  H   UNL A   1      42.798  28.101  29.027  1.00  0.00     0.167 HD
ATOM     57  C   UNL A   1      46.394  29.724  27.583  1.00  0.00     0.037 A 
ATOM     58  C   UNL A   1      40.092  28.533  29.533  1.00  0.00     0.037 A 
ATOM     59  C   UNL A   1      46.616  29.572  29.004  1.00  0.00     0.049 A 
ATOM     60  C   UNL A   1      41.035  29.543  30.049  1.00  0.00     0.074 A 
ATOM     61  C   UNL A   1      47.302  28.663  29.792  1.00  0.00     0.029 A 
ATOM     62  N   UNL A   1      45.776  30.232  29.869  1.00  0.00    -0.354 N 
ATOM     63  N   UNL A   1      41.702  29.407  31.159  1.00  0.00    -0.248 NA
ATOM     64  C   UNL A   1      41.582  30.498  29.099  1.00  0.00     0.031 C 
ATOM     65  C   UNL A   1      46.487  28.480  30.949  1.00  0.00     0.029 A 
ATOM     66  C   UNL A   1      45.390  29.330  30.828  1.00  0.00     0.049 A 
ATOM     67  H   UNL A   1      45.503  31.176  29.812  1.00  0.00     0.167 HD
ATOM     68  C   UNL A   1      42.972  29.861  30.844  1.00  0.00     0.074 A 
ATOM     69  C   UNL A   1      42.807  30.634  29.614  1.00  0.00     0.031 C 
ATOM     70  C   UNL A   1      44.077  29.313  31.429  1.00  0.00     0.037 A 
BRANCH  57  71
ATOM     71  C   UNL A   1      46.285  31.079  26.926  1.00  0.00     0.057 A 
ATOM     72  C   UNL A   1      45.074  31.705  26.563  1.00  0.00     0.134 A 
ATOM     73  C   UNL A   1      47.416  31.914  26.904  1.00  0.00     0.134 A 
ATOM     74  F   UNL A   1      43.890  31.086  26.634  1.00  0.00    -0.206 F 
ATOM     75  C   UNL A   1      44.993  33.053  26.204  1.00  0.00     0.040 A 
ATOM     76  C   UNL A   1      47.335  33.279  26.609  1.00  0.00     0.040 A 
ATOM     77  F   UNL A   1      48.623  31.444  27.251  1.00  0.00    -0.206 F 
ATOM     78  C   UNL A   1      46.120  33.855  26.261  1.00  0.00     0.006 A 
ENDBRANCH  57  71
BRANCH  58  79
ATOM     79  C   UNL A   1      38.702  28.866  29.154  1.00  0.00     0.057 A 
ATOM     80  C   UNL A   1      38.418  29.363  27.870  1.00  0.00     0.134 A 
ATOM     81  C   UNL A   1      37.677  28.974  30.100  1.00  0.00     0.134 A 
ATOM     82  F   UNL A   1      39.363  29.388  26.918  1.00  0.00    -0.206 F 
ATOM     83  C   UNL A   1      37.187  29.937  27.544  1.00  0.00     0.040 A 
ATOM     84  C   UNL A   1      36.435  29.546  29.786  1.00  0.00     0.040 A 
ATOM     85  F   UNL A   1      37.878  28.581  31.367  1.00  0.00    -0.206 F 
ATOM     86  C   UNL A   1      36.190  30.036  28.506  1.00  0.00     0.006 A 
ENDBRANCH  58  79
BRANCH  70  87
ATOM     87  C   UNL A   1      43.873  28.411  32.616  1.00  0.00     0.057 A 
ATOM     88  C   UNL A   1      43.975  28.954  33.900  1.00  0.00     0.134 A 
ATOM     89  C   UNL A   1      43.705  27.020  32.533  1.00  0.00     0.134 A 
ATOM     90  F   UNL A   1      44.189  30.270  34.062  1.00  0.00    -0.206 F 
ATOM     91  C   UNL A   1      43.901  28.159  35.047  1.00  0.00     0.040 A 
ATOM     92  C   UNL A   1      43.598  26.215  33.672  1.00  0.00     0.040 A 
ATOM     93  F   UNL A   1      43.692  26.388  31.356  1.00  0.00    -0.206 F 
ATOM     94  C   UNL A   1      43.701  26.785  34.936  1.00  0.00     0.006 A 
ENDBRANCH  70  87
ENDBRANCH  44  45
ENDBRANCH  36  39
ENDBRANCH  34  35
ENDBRANCH  33  34
ENDBRANCH  32  33
ENDBRANCH   1  32
TORSDOF 18
ENDMDL
MODEL 3
REMARK VINA RESULT:     -11.1      1.645      2.778
REMARK SMILES Cc1ccc(C)c(S(=O)(=O)N[C@H](CC2=c3ccccc3=NC2)C(=O)NCCCCCCNC(=O)c2ccc(-c3c4nc(c(-c5c(F)cccc5F)c5ccc([nH]5)c(-c5c(F)cccc5F)c5nc(c(-c6c(F)cccc6F)c6ccc3[nH]6)C=C5)C=C4)cc2)c1
REMARK SMILES IDX 28 1 27 2 26 3 25 4 23 5 24 6 12 8 11 9 8 11 9 12 10 13 7 14
REMARK SMILES IDX 1 15 2 16 3 17 89 18 4 19 5 20 6 21 13 22 14 23 15 24 22 25
REMARK SMILES IDX 16 26 20 27 21 28 17 29 19 30 18 31 29 32 30 33 31 34 32 35
REMARK SMILES IDX 33 36 34 38 35 39 36 40 88 41 37 42 87 43 38 44 39 45 40 46
REMARK SMILES IDX 81 47 41 48 86 49 80 50 82 51 42 52 85 53 79 54 78 55 43 57
REMARK SMILES IDX 69 58 52 59 68 60 53 61 56 62 67 63 83 64 54 65 55 66 66 68
REMARK SMILES IDX 84 69 57 70 44 71 45 72 50 73 46 74 47 75 49 76 51 77 48 78
REMARK SMILES IDX 70 79 71 80 76 81 72 82 73 83 75 84 77 85 74 86 58 87 59 88
REMARK SMILES IDX 64 89 60 90 61 91 63 92 65 93 62 94
REMARK H PARENT 25 7 11 10 32 37 82 56 56 67
REMARK Flexibility Score: inf
ROOT
ATOM      1  C   UNL A   1      39.975  22.275  26.650  1.00  0.00     0.002 C 
ENDROOT
BRANCH   1   2
ATOM      2  C   UNL A   1      39.342  23.651  26.873  1.00  0.00     0.021 C 
BRANCH   2   3
ATOM      3  C   UNL A   1      37.893  23.848  26.393  1.00  0.00     0.116 C 
BRANCH   3   4
ATOM      4  N   UNL A   1      37.671  23.696  24.959  1.00  0.00    -0.355 N 
ATOM      5  C   UNL A   1      36.577  23.575  24.147  1.00  0.00     0.238 C 
ATOM      6  O   UNL A   1      36.809  23.348  22.955  1.00  0.00    -0.273 OA
ATOM      7  H   UNL A   1      38.514  23.675  24.451  1.00  0.00     0.163 HD
BRANCH   5   8
ATOM      8  C   UNL A   1      35.124  23.666  24.638  1.00  0.00     0.163 C 
BRANCH   8   9
ATOM      9  N   UNL A   1      34.367  22.434  24.281  1.00  0.00    -0.198 NA
ATOM     10  H   UNL A   1      33.405  22.720  24.095  1.00  0.00     0.142 HD
BRANCH   9  11
ATOM     11  S   UNL A   1      34.294  21.158  25.380  1.00  0.00     0.241 S 
ATOM     12  O   UNL A   1      33.391  21.529  26.434  1.00  0.00    -0.207 OA
ATOM     13  O   UNL A   1      35.686  20.822  25.629  1.00  0.00    -0.207 OA
BRANCH  11  14
ATOM     14  C   UNL A   1      33.595  19.812  24.454  1.00  0.00     0.085 A 
ATOM     15  C   UNL A   1      34.311  16.093  24.047  1.00  0.00     0.044 C 
ATOM     16  C   UNL A   1      33.704  17.451  23.859  1.00  0.00    -0.050 A 
ATOM     17  C   UNL A   1      32.750  17.677  22.868  1.00  0.00     0.004 A 
ATOM     18  C   UNL A   1      34.092  18.518  24.671  1.00  0.00     0.025 A 
ATOM     19  C   UNL A   1      32.199  18.950  22.692  1.00  0.00     0.005 A 
ATOM     20  C   UNL A   1      32.611  20.040  23.479  1.00  0.00    -0.031 A 
ATOM     21  C   UNL A   1      31.946  21.366  23.232  1.00  0.00     0.046 C 
ENDBRANCH  11  14
ENDBRANCH   9  11
ENDBRANCH   8   9
BRANCH   8  22
ATOM     22  C   UNL A   1      34.311  24.935  24.232  1.00  0.00     0.063 C 
BRANCH  22  23
ATOM     23  C   UNL A   1      33.321  25.514  25.201  1.00  0.00    -0.037 C 
ATOM     24  C   UNL A   1      33.257  26.689  25.829  1.00  0.00     0.001 A 
ATOM     25  C   UNL A   1      32.222  24.634  25.702  1.00  0.00     0.174 C 
ATOM     26  C   UNL A   1      34.069  27.857  25.956  1.00  0.00     0.010 A 
ATOM     27  C   UNL A   1      31.981  26.586  26.567  1.00  0.00     0.065 A 
ATOM     28  N   UNL A   1      31.365  25.448  26.567  1.00  0.00    -0.280 NA
ATOM     29  C   UNL A   1      33.636  28.865  26.738  1.00  0.00     0.001 A 
ATOM     30  C   UNL A   1      31.499  27.792  27.259  1.00  0.00     0.028 A 
ATOM     31  C   UNL A   1      32.322  28.843  27.359  1.00  0.00     0.002 A 
ENDBRANCH  22  23
ENDBRANCH   8  22
ENDBRANCH   5   8
ENDBRANCH   3   4
ENDBRANCH   2   3
ENDBRANCH   1   2
BRANCH   1  32
ATOM     32  C   UNL A   1      40.908  21.780  27.755  1.00  0.00     0.002 C 
BRANCH  32  33
ATOM     33  C   UNL A   1      41.925  20.684  27.398  1.00  0.00     0.021 C 
BRANCH  33  34
ATOM     34  C   UNL A   1      41.798  20.015  26.026  1.00  0.00     0.116 C 
BRANCH  34  35
ATOM     35  N   UNL A   1      43.050  20.023  25.270  1.00  0.00    -0.352 N 
ATOM     36  C   UNL A   1      43.917  21.029  24.895  1.00  0.00     0.251 C 
ATOM     37  H   UNL A   1      43.330  19.130  24.966  1.00  0.00     0.163 HD
ATOM     38  O   UNL A   1      44.666  20.834  23.939  1.00  0.00    -0.269 OA
BRANCH  36  39
ATOM     39  C   UNL A   1      44.002  22.317  25.620  1.00  0.00     0.039 A 
ATOM     40  C   UNL A   1      44.867  22.486  26.714  1.00  0.00     0.014 A 
ATOM     41  C   UNL A   1      43.141  23.348  25.288  1.00  0.00     0.014 A 
ATOM     42  C   UNL A   1      44.840  23.679  27.445  1.00  0.00     0.010 A 
ATOM     43  C   UNL A   1      43.217  24.574  25.887  1.00  0.00     0.010 A 
ATOM     44  C   UNL A   1      43.993  24.709  27.026  1.00  0.00    -0.014 A 
BRANCH  44  45
ATOM     45  C   UNL A   1      43.868  25.980  27.720  1.00  0.00     0.031 A 
ATOM     46  C   UNL A   1      44.760  27.057  27.258  1.00  0.00     0.074 A 
ATOM     47  C   UNL A   1      42.767  26.274  28.446  1.00  0.00     0.049 A 
ATOM     48  N   UNL A   1      45.638  27.691  27.957  1.00  0.00    -0.248 NA
ATOM     49  C   UNL A   1      44.732  27.432  25.836  1.00  0.00     0.031 C 
ATOM     50  C   UNL A   1      41.615  25.401  28.682  1.00  0.00     0.029 A 
ATOM     51  N   UNL A   1      42.368  27.464  28.983  1.00  0.00    -0.354 N 
ATOM     52  C   UNL A   1      46.110  28.698  27.128  1.00  0.00     0.074 A 
ATOM     53  C   UNL A   1      45.697  28.351  25.793  1.00  0.00     0.031 C 
ATOM     54  C   UNL A   1      40.578  26.153  29.098  1.00  0.00     0.029 A 
ATOM     55  C   UNL A   1      41.014  27.516  29.282  1.00  0.00     0.049 A 
ATOM     56  H   UNL A   1      42.984  28.215  29.142  1.00  0.00     0.167 HD
ATOM     57  C   UNL A   1      46.541  29.881  27.647  1.00  0.00     0.037 A 
ATOM     58  C   UNL A   1      40.266  28.593  29.626  1.00  0.00     0.037 A 
ATOM     59  C   UNL A   1      46.762  29.786  29.073  1.00  0.00     0.049 A 
ATOM     60  C   UNL A   1      41.180  29.645  30.107  1.00  0.00     0.074 A 
ATOM     61  C   UNL A   1      47.470  28.925  29.895  1.00  0.00     0.029 A 
ATOM     62  N   UNL A   1      45.903  30.455  29.912  1.00  0.00    -0.354 N 
ATOM     63  N   UNL A   1      41.847  29.568  31.222  1.00  0.00    -0.248 NA
ATOM     64  C   UNL A   1      41.705  30.580  29.124  1.00  0.00     0.031 C 
ATOM     65  C   UNL A   1      46.656  28.762  31.057  1.00  0.00     0.029 A 
ATOM     66  C   UNL A   1      45.538  29.578  30.903  1.00  0.00     0.049 A 
ATOM     67  H   UNL A   1      45.604  31.388  29.820  1.00  0.00     0.167 HD
ATOM     68  C   UNL A   1      43.106  30.044  30.894  1.00  0.00     0.074 A 
ATOM     69  C   UNL A   1      42.924  30.768  29.636  1.00  0.00     0.031 C 
ATOM     70  C   UNL A   1      44.223  29.548  31.500  1.00  0.00     0.037 A 
BRANCH  57  71
ATOM     71  C   UNL A   1      46.398  31.207  26.942  1.00  0.00     0.057 A 
ATOM     72  C   UNL A   1      45.171  31.789  26.556  1.00  0.00     0.134 A 
ATOM     73  C   UNL A   1      47.507  32.069  26.888  1.00  0.00     0.134 A 
ATOM     74  F   UNL A   1      44.003  31.142  26.650  1.00  0.00    -0.206 F 
ATOM     75  C   UNL A   1      45.056  33.120  26.148  1.00  0.00     0.040 A 
ATOM     76  C   UNL A   1      47.391  33.420  26.544  1.00  0.00     0.040 A 
ATOM     77  F   UNL A   1      48.726  31.643  27.251  1.00  0.00    -0.206 F 
ATOM     78  C   UNL A   1      46.163  33.951  26.175  1.00  0.00     0.006 A 
ENDBRANCH  57  71
BRANCH  58  79
ATOM     79  C   UNL A   1      38.870  28.875  29.233  1.00  0.00     0.057 A 
ATOM     80  C   UNL A   1      38.578  29.332  27.935  1.00  0.00     0.134 A 
ATOM     81  C   UNL A   1      37.837  28.974  30.171  1.00  0.00     0.134 A 
ATOM     82  F   UNL A   1      39.528  29.363  26.988  1.00  0.00    -0.206 F 
ATOM     83  C   UNL A   1      37.332  29.861  27.590  1.00  0.00     0.040 A 
ATOM     84  C   UNL A   1      36.580  29.500  29.837  1.00  0.00     0.040 A 
ATOM     85  F   UNL A   1      38.041  28.617  31.447  1.00  0.00    -0.206 F 
ATOM     86  C   UNL A   1      36.327  29.952  28.544  1.00  0.00     0.006 A 
ENDBRANCH  58  79
BRANCH  70  87
ATOM     87  C   UNL A   1      44.040  28.684  32.719  1.00  0.00     0.057 A 
ATOM     88  C   UNL A   1      44.156  29.270  33.983  1.00  0.00     0.134 A 
ATOM     89  C   UNL A   1      43.879  27.290  32.685  1.00  0.00     0.134 A 
ATOM     90  F   UNL A   1      44.364  30.591  34.099  1.00  0.00    -0.206 F 
ATOM     91  C   UNL A   1      44.101  28.513  35.157  1.00  0.00     0.040 A 
ATOM     92  C   UNL A   1      43.791  26.523  33.851  1.00  0.00     0.040 A 
ATOM     93  F   UNL A   1      43.854  26.620  31.530  1.00  0.00    -0.206 F 
ATOM     94  C   UNL A   1      43.907  27.135  35.094  1.00  0.00     0.006 A 
ENDBRANCH  70  87
ENDBRANCH  44  45
ENDBRANCH  36  39
ENDBRANCH  34  35
ENDBRANCH  33  34
ENDBRANCH  32  33
ENDBRANCH   1  32
TORSDOF 18
ENDMDL
