MODEL 1
REMARK VINA RESULT:     -11.4      0.000      0.000
REMARK SMILES Cc1ccccc1N(CCC(=O)NCCCCCCNC(=O)c1ccc(-c2c3nc(c(-c4c(F)cccc4F)c4ccc([nH]4)c(-c4c(F)cccc4F)c4nc(c(-c5c(F)cccc5F)c5ccc2[nH]5)C=C4)C=C3)cc1)[C@@H](C)[C@@H](C)O
REMARK SMILES IDX 15 1 14 2 13 3 11 4 12 5 10 7 9 8 8 9 7 10 1 11 2 12 3 13
REMARK SMILES IDX 4 14 6 15 5 16 77 17 78 18 79 19 80 20 81 21 16 23 17 24
REMARK SMILES IDX 18 25 19 26 20 27 21 28 22 30 23 31 24 32 76 33 25 34 75 35
REMARK SMILES IDX 26 36 27 37 28 38 69 39 29 40 74 41 68 42 70 43 30 44 73 45
REMARK SMILES IDX 67 46 66 47 31 49 57 50 40 51 56 52 41 53 44 54 55 55 71 56
REMARK SMILES IDX 42 57 43 58 54 60 72 61 45 62 32 63 33 64 38 65 34 66 35 67
REMARK SMILES IDX 37 68 39 69 36 70 58 71 59 72 64 73 60 74 61 75 63 76 65 77
REMARK SMILES IDX 62 78 46 79 47 80 52 81 48 82 49 83 51 84 53 85 50 86
REMARK H PARENT 13 6 81 22 20 29 70 48 44 59
REMARK Flexibility Score: inf
ROOT
ATOM      1  C   UNL A   1      30.832  27.072  25.098  1.00  0.00     0.021 C 
ENDROOT
BRANCH   1   2
ATOM      2  C   UNL A   1      30.305  25.641  25.303  1.00  0.00     0.116 C 
BRANCH   2   3
ATOM      3  N   UNL A   1      31.008  25.002  26.426  1.00  0.00    -0.356 N 
ATOM      4  C   UNL A   1      31.430  23.737  26.706  1.00  0.00     0.221 C 
ATOM      5  O   UNL A   1      31.905  23.545  27.830  1.00  0.00    -0.275 OA
ATOM      6  H   UNL A   1      31.226  25.640  27.145  1.00  0.00     0.163 HD
BRANCH   4   7
ATOM      7  C   UNL A   1      31.372  22.599  25.702  1.00  0.00     0.121 C 
BRANCH   7   8
ATOM      8  C   UNL A   1      32.489  21.546  25.935  1.00  0.00     0.127 C 
BRANCH   8   9
ATOM      9  N   UNL A   1      33.509  21.469  24.827  1.00  0.00    -0.366 N 
BRANCH   9  10
ATOM     10  C   UNL A   1      34.814  21.989  24.915  1.00  0.00     0.040 A 
ATOM     11  C   UNL A   1      34.402  24.639  25.114  1.00  0.00     0.046 C 
ATOM     12  C   UNL A   1      35.210  23.355  25.112  1.00  0.00    -0.028 A 
ATOM     13  C   UNL A   1      36.584  23.689  25.316  1.00  0.00     0.005 A 
ATOM     14  C   UNL A   1      37.597  22.750  25.289  1.00  0.00     0.000 A 
ATOM     15  C   UNL A   1      35.913  21.089  24.834  1.00  0.00     0.026 A 
ATOM     16  C   UNL A   1      37.260  21.446  25.021  1.00  0.00     0.002 A 
ENDBRANCH   9  10
BRANCH   9  17
ATOM     17  C   UNL A   1      32.971  20.816  23.626  1.00  0.00     0.107 C 
ATOM     18  C   UNL A   1      32.473  19.412  23.989  1.00  0.00     0.034 C 
BRANCH  17  19
ATOM     19  C   UNL A   1      32.132  21.735  22.692  1.00  0.00     0.133 C 
ATOM     20  C   UNL A   1      32.942  22.930  22.178  1.00  0.00     0.040 C 
BRANCH  19  21
ATOM     21  O   UNL A   1      31.653  20.981  21.563  1.00  0.00    -0.391 OA
ATOM     22  H   UNL A   1      31.124  20.232  21.876  1.00  0.00     0.211 HD
ENDBRANCH  19  21
ENDBRANCH  17  19
ENDBRANCH   9  17
ENDBRANCH   8   9
ENDBRANCH   7   8
ENDBRANCH   4   7
ENDBRANCH   2   3
ENDBRANCH   1   2
BRANCH   1  23
ATOM     23  C   UNL A   1      31.517  27.814  26.257  1.00  0.00     0.002 C 
BRANCH  23  24
ATOM     24  C   UNL A   1      31.954  29.276  26.127  1.00  0.00     0.002 C 
BRANCH  24  25
ATOM     25  C   UNL A   1      32.564  29.990  27.333  1.00  0.00     0.021 C 
BRANCH  25  26
ATOM     26  C   UNL A   1      34.063  30.301  27.293  1.00  0.00     0.116 C 
BRANCH  26  27
ATOM     27  N   UNL A   1      34.527  31.099  28.434  1.00  0.00    -0.352 N 
ATOM     28  C   UNL A   1      35.685  31.013  29.180  1.00  0.00     0.251 C 
ATOM     29  H   UNL A   1      33.911  31.814  28.712  1.00  0.00     0.163 HD
ATOM     30  O   UNL A   1      35.919  31.842  30.038  1.00  0.00    -0.269 OA
BRANCH  28  31
ATOM     31  C   UNL A   1      36.711  29.980  28.862  1.00  0.00     0.039 A 
ATOM     32  C   UNL A   1      36.985  29.005  29.831  1.00  0.00     0.014 A 
ATOM     33  C   UNL A   1      37.474  30.036  27.699  1.00  0.00     0.014 A 
ATOM     34  C   UNL A   1      38.165  28.268  29.750  1.00  0.00     0.010 A 
ATOM     35  C   UNL A   1      38.678  29.353  27.648  1.00  0.00     0.010 A 
ATOM     36  C   UNL A   1      39.061  28.531  28.713  1.00  0.00    -0.014 A 
BRANCH  36  37
ATOM     37  C   UNL A   1      40.470  28.158  28.781  1.00  0.00     0.031 A 
ATOM     38  C   UNL A   1      40.996  26.911  28.202  1.00  0.00     0.074 A 
ATOM     39  C   UNL A   1      41.340  29.000  29.383  1.00  0.00     0.049 A 
ATOM     40  N   UNL A   1      42.030  26.291  28.674  1.00  0.00    -0.248 NA
ATOM     41  C   UNL A   1      40.391  26.252  27.051  1.00  0.00     0.031 C 
ATOM     42  C   UNL A   1      42.799  28.936  29.363  1.00  0.00     0.029 A 
ATOM     43  N   UNL A   1      41.047  29.978  30.343  1.00  0.00    -0.354 N 
ATOM     44  C   UNL A   1      42.389  25.347  27.751  1.00  0.00     0.074 A 
ATOM     45  C   UNL A   1      41.296  25.297  26.802  1.00  0.00     0.031 C 
ATOM     46  C   UNL A   1      43.271  29.583  30.438  1.00  0.00     0.029 A 
ATOM     47  C   UNL A   1      42.129  29.961  31.251  1.00  0.00     0.049 A 
ATOM     48  H   UNL A   1      40.252  30.558  30.376  1.00  0.00     0.167 HD
ATOM     49  C   UNL A   1      43.632  24.790  27.774  1.00  0.00     0.037 A 
ATOM     50  C   UNL A   1      41.949  29.637  32.564  1.00  0.00     0.037 A 
ATOM     51  C   UNL A   1      44.478  25.300  28.845  1.00  0.00     0.049 A 
ATOM     52  C   UNL A   1      42.769  28.464  33.060  1.00  0.00     0.074 A 
ATOM     53  C   UNL A   1      45.509  26.224  28.904  1.00  0.00     0.029 A 
ATOM     54  N   UNL A   1      44.127  25.048  30.160  1.00  0.00    -0.354 N 
ATOM     55  N   UNL A   1      43.510  27.708  32.299  1.00  0.00    -0.248 NA
ATOM     56  C   UNL A   1      42.727  27.985  34.443  1.00  0.00     0.031 C 
ATOM     57  C   UNL A   1      45.796  26.497  30.269  1.00  0.00     0.029 A 
ATOM     58  C   UNL A   1      44.932  25.746  31.040  1.00  0.00     0.049 A 
ATOM     59  H   UNL A   1      43.397  24.446  30.433  1.00  0.00     0.167 HD
ATOM     60  C   UNL A   1      43.968  26.641  33.028  1.00  0.00     0.074 A 
ATOM     61  C   UNL A   1      43.458  26.861  34.368  1.00  0.00     0.031 C 
ATOM     62  C   UNL A   1      44.690  25.630  32.466  1.00  0.00     0.037 A 
BRANCH  49  63
ATOM     63  C   UNL A   1      44.116  23.960  26.623  1.00  0.00     0.057 A 
ATOM     64  C   UNL A   1      43.853  22.583  26.540  1.00  0.00     0.134 A 
ATOM     65  C   UNL A   1      44.910  24.486  25.590  1.00  0.00     0.134 A 
ATOM     66  F   UNL A   1      43.066  21.962  27.426  1.00  0.00    -0.206 F 
ATOM     67  C   UNL A   1      44.420  21.768  25.554  1.00  0.00     0.040 A 
ATOM     68  C   UNL A   1      45.519  23.676  24.624  1.00  0.00     0.040 A 
ATOM     69  F   UNL A   1      45.135  25.806  25.499  1.00  0.00    -0.206 F 
ATOM     70  C   UNL A   1      45.284  22.307  24.612  1.00  0.00     0.006 A 
ENDBRANCH  49  63
BRANCH  50  71
ATOM     71  C   UNL A   1      40.603  29.990  33.080  1.00  0.00     0.057 A 
ATOM     72  C   UNL A   1      40.297  31.338  33.339  1.00  0.00     0.134 A 
ATOM     73  C   UNL A   1      39.531  29.097  33.005  1.00  0.00     0.134 A 
ATOM     74  F   UNL A   1      41.281  32.251  33.417  1.00  0.00    -0.206 F 
ATOM     75  C   UNL A   1      38.980  31.793  33.419  1.00  0.00     0.040 A 
ATOM     76  C   UNL A   1      38.208  29.538  33.100  1.00  0.00     0.040 A 
ATOM     77  F   UNL A   1      39.740  27.799  32.738  1.00  0.00    -0.206 F 
ATOM     78  C   UNL A   1      37.930  30.893  33.272  1.00  0.00     0.006 A 
ENDBRANCH  50  71
BRANCH  62  79
ATOM     79  C   UNL A   1      45.228  24.445  33.215  1.00  0.00     0.057 A 
ATOM     80  C   UNL A   1      44.525  23.241  33.346  1.00  0.00     0.134 A 
ATOM     81  C   UNL A   1      46.431  24.531  33.946  1.00  0.00     0.134 A 
ATOM     82  F   UNL A   1      43.332  23.068  32.759  1.00  0.00    -0.206 F 
ATOM     83  C   UNL A   1      45.008  22.174  34.119  1.00  0.00     0.040 A 
ATOM     84  C   UNL A   1      46.899  23.493  34.755  1.00  0.00     0.040 A 
ATOM     85  F   UNL A   1      47.209  25.622  33.893  1.00  0.00    -0.206 F 
ATOM     86  C   UNL A   1      46.193  22.303  34.835  1.00  0.00     0.006 A 
ENDBRANCH  62  79
ENDBRANCH  36  37
ENDBRANCH  28  31
ENDBRANCH  26  27
ENDBRANCH  25  26
ENDBRANCH  24  25
ENDBRANCH  23  24
ENDBRANCH   1  23
TORSDOF 19
ENDMDL
MODEL 2
REMARK VINA RESULT:     -11.3      1.122      2.081
REMARK SMILES Cc1ccccc1N(CCC(=O)NCCCCCCNC(=O)c1ccc(-c2c3nc(c(-c4c(F)cccc4F)c4ccc([nH]4)c(-c4c(F)cccc4F)c4nc(c(-c5c(F)cccc5F)c5ccc2[nH]5)C=C4)C=C3)cc1)[C@@H](C)[C@@H](C)O
REMARK SMILES IDX 15 1 14 2 13 3 11 4 12 5 10 7 9 8 8 9 7 10 1 11 2 12 3 13
REMARK SMILES IDX 4 14 6 15 5 16 77 17 78 18 79 19 80 20 81 21 16 23 17 24
REMARK SMILES IDX 18 25 19 26 20 27 21 28 22 30 23 31 24 32 76 33 25 34 75 35
REMARK SMILES IDX 26 36 27 37 28 38 69 39 29 40 74 41 68 42 70 43 30 44 73 45
REMARK SMILES IDX 67 46 66 47 31 49 57 50 40 51 56 52 41 53 44 54 55 55 71 56
REMARK SMILES IDX 42 57 43 58 54 60 72 61 45 62 32 63 33 64 38 65 34 66 35 67
REMARK SMILES IDX 37 68 39 69 36 70 58 71 59 72 64 73 60 74 61 75 63 76 65 77
REMARK SMILES IDX 62 78 46 79 47 80 52 81 48 82 49 83 51 84 53 85 50 86
REMARK H PARENT 13 6 81 22 20 29 70 48 44 59
REMARK Flexibility Score: inf
ROOT
ATOM      1  C   UNL A   1      31.967  27.042  25.702  1.00  0.00     0.021 C 
ENDROOT
BRANCH   1   2
ATOM      2  C   UNL A   1      33.406  26.596  25.390  1.00  0.00     0.116 C 
BRANCH   2   3
ATOM      3  N   UNL A   1      33.608  26.535  23.934  1.00  0.00    -0.356 N 
ATOM      4  C   UNL A   1      33.554  25.551  22.993  1.00  0.00     0.221 C 
ATOM      5  O   UNL A   1      33.898  25.857  21.847  1.00  0.00    -0.275 OA
ATOM      6  H   UNL A   1      33.835  27.412  23.549  1.00  0.00     0.163 HD
BRANCH   4   7
ATOM      7  C   UNL A   1      33.063  24.144  23.287  1.00  0.00     0.121 C 
BRANCH   7   8
ATOM      8  C   UNL A   1      34.216  23.103  23.287  1.00  0.00     0.127 C 
BRANCH   8   9
ATOM      9  N   UNL A   1      34.580  22.580  24.654  1.00  0.00    -0.366 N 
BRANCH   9  10
ATOM     10  C   UNL A   1      35.886  22.578  25.178  1.00  0.00     0.040 A 
ATOM     11  C   UNL A   1      36.652  20.016  24.893  1.00  0.00     0.046 C 
ATOM     12  C   UNL A   1      36.819  21.487  25.220  1.00  0.00    -0.028 A 
ATOM     13  C   UNL A   1      38.159  21.698  25.668  1.00  0.00     0.005 A 
ATOM     14  C   UNL A   1      38.616  22.919  26.121  1.00  0.00     0.000 A 
ATOM     15  C   UNL A   1      36.405  23.786  25.720  1.00  0.00     0.026 A 
ATOM     16  C   UNL A   1      37.725  23.963  26.170  1.00  0.00     0.002 A 
ENDBRANCH   9  10
BRANCH   9  17
ATOM     17  C   UNL A   1      33.413  22.041  25.366  1.00  0.00     0.107 C 
ATOM     18  C   UNL A   1      33.245  20.557  25.019  1.00  0.00     0.034 C 
BRANCH  17  19
ATOM     19  C   UNL A   1      33.246  22.534  26.832  1.00  0.00     0.133 C 
ATOM     20  C   UNL A   1      32.097  23.537  26.976  1.00  0.00     0.040 C 
BRANCH  19  21
ATOM     21  O   UNL A   1      32.994  21.414  27.701  1.00  0.00    -0.391 OA
ATOM     22  H   UNL A   1      32.952  21.722  28.619  1.00  0.00     0.211 HD
ENDBRANCH  19  21
ENDBRANCH  17  19
ENDBRANCH   9  17
ENDBRANCH   8   9
ENDBRANCH   7   8
ENDBRANCH   4   7
ENDBRANCH   2   3
ENDBRANCH   1   2
BRANCH   1  23
ATOM     23  C   UNL A   1      31.608  28.536  25.713  1.00  0.00     0.002 C 
BRANCH  23  24
ATOM     24  C   UNL A   1      32.629  29.610  25.321  1.00  0.00     0.002 C 
BRANCH  24  25
ATOM     25  C   UNL A   1      33.124  30.598  26.377  1.00  0.00     0.021 C 
BRANCH  25  26
ATOM     26  C   UNL A   1      33.820  30.027  27.616  1.00  0.00     0.116 C 
BRANCH  26  27
ATOM     27  N   UNL A   1      34.396  31.054  28.491  1.00  0.00    -0.352 N 
ATOM     28  C   UNL A   1      35.641  31.141  29.078  1.00  0.00     0.251 C 
ATOM     29  H   UNL A   1      33.794  31.807  28.691  1.00  0.00     0.163 HD
ATOM     30  O   UNL A   1      35.952  32.137  29.703  1.00  0.00    -0.269 OA
BRANCH  28  31
ATOM     31  C   UNL A   1      36.657  30.074  28.851  1.00  0.00     0.039 A 
ATOM     32  C   UNL A   1      36.899  29.165  29.890  1.00  0.00     0.014 A 
ATOM     33  C   UNL A   1      37.440  30.037  27.701  1.00  0.00     0.014 A 
ATOM     34  C   UNL A   1      38.068  28.407  29.882  1.00  0.00     0.010 A 
ATOM     35  C   UNL A   1      38.634  29.336  27.720  1.00  0.00     0.010 A 
ATOM     36  C   UNL A   1      38.986  28.584  28.846  1.00  0.00    -0.014 A 
BRANCH  36  37
ATOM     37  C   UNL A   1      40.388  28.197  28.966  1.00  0.00     0.031 A 
ATOM     38  C   UNL A   1      40.927  26.958  28.381  1.00  0.00     0.074 A 
ATOM     39  C   UNL A   1      41.237  29.016  29.624  1.00  0.00     0.049 A 
ATOM     40  N   UNL A   1      41.935  26.318  28.882  1.00  0.00    -0.248 NA
ATOM     41  C   UNL A   1      40.367  26.331  27.190  1.00  0.00     0.031 C 
ATOM     42  C   UNL A   1      42.695  28.939  29.665  1.00  0.00     0.029 A 
ATOM     43  N   UNL A   1      40.912  29.974  30.593  1.00  0.00    -0.354 N 
ATOM     44  C   UNL A   1      42.326  25.391  27.954  1.00  0.00     0.074 A 
ATOM     45  C   UNL A   1      41.273  25.374  26.958  1.00  0.00     0.031 C 
ATOM     46  C   UNL A   1      43.127  29.557  30.774  1.00  0.00     0.029 A 
ATOM     47  C   UNL A   1      41.954  29.927  31.546  1.00  0.00     0.049 A 
ATOM     48  H   UNL A   1      40.121  30.561  30.606  1.00  0.00     0.167 HD
ATOM     49  C   UNL A   1      43.561  24.823  28.017  1.00  0.00     0.037 A 
ATOM     50  C   UNL A   1      41.715  29.575  32.842  1.00  0.00     0.037 A 
ATOM     51  C   UNL A   1      44.365  25.300  29.135  1.00  0.00     0.049 A 
ATOM     52  C   UNL A   1      42.503  28.383  33.345  1.00  0.00     0.074 A 
ATOM     53  C   UNL A   1      45.400  26.213  29.259  1.00  0.00     0.029 A 
ATOM     54  N   UNL A   1      43.955  25.021  30.427  1.00  0.00    -0.354 N 
ATOM     55  N   UNL A   1      43.269  27.638  32.599  1.00  0.00    -0.248 NA
ATOM     56  C   UNL A   1      42.397  27.873  34.714  1.00  0.00     0.031 C 
ATOM     57  C   UNL A   1      45.630  26.452  30.641  1.00  0.00     0.029 A 
ATOM     58  C   UNL A   1      44.727  25.692  31.356  1.00  0.00     0.049 A 
ATOM     59  H   UNL A   1      43.209  24.421  30.655  1.00  0.00     0.167 HD
ATOM     60  C   UNL A   1      43.686  26.550  33.322  1.00  0.00     0.074 A 
ATOM     61  C   UNL A   1      43.121  26.744  34.643  1.00  0.00     0.031 C 
ATOM     62  C   UNL A   1      44.423  25.546  32.768  1.00  0.00     0.037 A 
BRANCH  49  63
ATOM     63  C   UNL A   1      44.088  24.015  26.869  1.00  0.00     0.057 A 
ATOM     64  C   UNL A   1      44.807  24.605  25.817  1.00  0.00     0.134 A 
ATOM     65  C   UNL A   1      43.849  22.636  26.738  1.00  0.00     0.134 A 
ATOM     66  F   UNL A   1      45.153  25.898  25.837  1.00  0.00    -0.206 F 
ATOM     67  C   UNL A   1      45.177  23.894  24.669  1.00  0.00     0.040 A 
ATOM     68  C   UNL A   1      44.174  21.924  25.577  1.00  0.00     0.040 A 
ATOM     69  F   UNL A   1      43.272  21.941  27.731  1.00  0.00    -0.206 F 
ATOM     70  C   UNL A   1      44.830  22.559  24.530  1.00  0.00     0.006 A 
ENDBRANCH  49  63
BRANCH  50  71
ATOM     71  C   UNL A   1      40.350  29.928  33.308  1.00  0.00     0.057 A 
ATOM     72  C   UNL A   1      40.050  31.271  33.598  1.00  0.00     0.134 A 
ATOM     73  C   UNL A   1      39.273  29.052  33.155  1.00  0.00     0.134 A 
ATOM     74  F   UNL A   1      41.039  32.168  33.750  1.00  0.00    -0.206 F 
ATOM     75  C   UNL A   1      38.736  31.741  33.633  1.00  0.00     0.040 A 
ATOM     76  C   UNL A   1      37.952  29.508  33.204  1.00  0.00     0.040 A 
ATOM     77  F   UNL A   1      39.479  27.761  32.855  1.00  0.00    -0.206 F 
ATOM     78  C   UNL A   1      37.683  30.860  33.408  1.00  0.00     0.006 A 
ENDBRANCH  50  71
BRANCH  62  79
ATOM     79  C   UNL A   1      44.919  24.339  33.512  1.00  0.00     0.057 A 
ATOM     80  C   UNL A   1      44.064  23.376  34.062  1.00  0.00     0.134 A 
ATOM     81  C   UNL A   1      46.288  24.179  33.811  1.00  0.00     0.134 A 
ATOM     82  F   UNL A   1      42.734  23.462  33.910  1.00  0.00    -0.206 F 
ATOM     83  C   UNL A   1      44.541  22.300  34.824  1.00  0.00     0.040 A 
ATOM     84  C   UNL A   1      46.771  23.138  34.607  1.00  0.00     0.040 A 
ATOM     85  F   UNL A   1      47.215  25.022  33.332  1.00  0.00    -0.206 F 
ATOM     86  C   UNL A   1      45.898  22.185  35.108  1.00  0.00     0.006 A 
ENDBRANCH  62  79
ENDBRANCH  36  37
ENDBRANCH  28  31
ENDBRANCH  26  27
ENDBRANCH  25  26
ENDBRANCH  24  25
ENDBRANCH  23  24
ENDBRANCH   1  23
TORSDOF 19
ENDMDL
MODEL 3
REMARK VINA RESULT:     -11.0      2.418      3.909
REMARK SMILES Cc1ccccc1N(CCC(=O)NCCCCCCNC(=O)c1ccc(-c2c3nc(c(-c4c(F)cccc4F)c4ccc([nH]4)c(-c4c(F)cccc4F)c4nc(c(-c5c(F)cccc5F)c5ccc2[nH]5)C=C4)C=C3)cc1)[C@@H](C)[C@@H](C)O
REMARK SMILES IDX 15 1 14 2 13 3 11 4 12 5 10 7 9 8 8 9 7 10 1 11 2 12 3 13
REMARK SMILES IDX 4 14 6 15 5 16 77 17 78 18 79 19 80 20 81 21 16 23 17 24
REMARK SMILES IDX 18 25 19 26 20 27 21 28 22 30 23 31 24 32 76 33 25 34 75 35
REMARK SMILES IDX 26 36 27 37 28 38 69 39 29 40 74 41 68 42 70 43 30 44 73 45
REMARK SMILES IDX 67 46 66 47 31 49 57 50 40 51 56 52 41 53 44 54 55 55 71 56
REMARK SMILES IDX 42 57 43 58 54 60 72 61 45 62 32 63 33 64 38 65 34 66 35 67
REMARK SMILES IDX 37 68 39 69 36 70 58 71 59 72 64 73 60 74 61 75 63 76 65 77
REMARK SMILES IDX 62 78 46 79 47 80 52 81 48 82 49 83 51 84 53 85 50 86
REMARK H PARENT 13 6 81 22 20 29 70 48 44 59
REMARK Flexibility Score: inf
ROOT
ATOM      1  C   UNL A   1      34.881  30.727  27.748  1.00  0.00     0.021 C 
ENDROOT
BRANCH   1   2
ATOM      2  C   UNL A   1      34.594  29.311  27.220  1.00  0.00     0.116 C 
BRANCH   2   3
ATOM      3  N   UNL A   1      33.303  28.833  27.738  1.00  0.00    -0.356 N 
ATOM      4  C   UNL A   1      32.282  28.081  27.239  1.00  0.00     0.221 C 
ATOM      5  O   UNL A   1      31.276  27.968  27.948  1.00  0.00    -0.275 OA
ATOM      6  H   UNL A   1      33.139  29.123  28.665  1.00  0.00     0.163 HD
BRANCH   4   7
ATOM      7  C   UNL A   1      32.350  27.368  25.900  1.00  0.00     0.121 C 
BRANCH   7   8
ATOM      8  C   UNL A   1      31.439  26.111  25.851  1.00  0.00     0.127 C 
BRANCH   8   9
ATOM      9  N   UNL A   1      31.518  25.339  24.558  1.00  0.00    -0.366 N 
BRANCH   9  10
ATOM     10  C   UNL A   1      32.263  24.158  24.386  1.00  0.00     0.040 A 
ATOM     11  C   UNL A   1      34.761  24.914  25.034  1.00  0.00     0.046 C 
ATOM     12  C   UNL A   1      33.657  23.945  24.659  1.00  0.00    -0.028 A 
ATOM     13  C   UNL A   1      34.223  22.637  24.556  1.00  0.00     0.005 A 
ATOM     14  C   UNL A   1      33.498  21.534  24.151  1.00  0.00     0.000 A 
ATOM     15  C   UNL A   1      31.596  22.994  23.913  1.00  0.00     0.026 A 
ATOM     16  C   UNL A   1      32.182  21.720  23.804  1.00  0.00     0.002 A 
ENDBRANCH   9  10
BRANCH   9  17
ATOM     17  C   UNL A   1      30.750  25.983  23.483  1.00  0.00     0.107 C 
ATOM     18  C   UNL A   1      29.445  26.547  24.057  1.00  0.00     0.034 C 
BRANCH  17  19
ATOM     19  C   UNL A   1      31.593  26.811  22.471  1.00  0.00     0.133 C 
ATOM     20  C   UNL A   1      32.347  25.918  21.481  1.00  0.00     0.040 C 
BRANCH  19  21
ATOM     21  O   UNL A   1      30.736  27.701  21.732  1.00  0.00    -0.391 OA
ATOM     22  H   UNL A   1      30.011  27.194  21.334  1.00  0.00     0.211 HD
ENDBRANCH  19  21
ENDBRANCH  17  19
ENDBRANCH   9  17
ENDBRANCH   8   9
ENDBRANCH   7   8
ENDBRANCH   4   7
ENDBRANCH   2   3
ENDBRANCH   1   2
BRANCH   1  23
ATOM     23  C   UNL A   1      33.720  31.692  28.036  1.00  0.00     0.002 C 
BRANCH  23  24
ATOM     24  C   UNL A   1      33.759  33.154  27.581  1.00  0.00     0.002 C 
BRANCH  24  25
ATOM     25  C   UNL A   1      33.079  34.226  28.431  1.00  0.00     0.021 C 
BRANCH  25  26
ATOM     26  C   UNL A   1      33.966  35.306  29.058  1.00  0.00     0.116 C 
BRANCH  26  27
ATOM     27  N   UNL A   1      34.071  35.204  30.518  1.00  0.00    -0.352 N 
ATOM     28  C   UNL A   1      34.832  34.368  31.309  1.00  0.00     0.251 C 
ATOM     29  H   UNL A   1      33.504  35.837  31.015  1.00  0.00     0.163 HD
ATOM     30  O   UNL A   1      34.839  34.512  32.516  1.00  0.00    -0.269 OA
BRANCH  28  31
ATOM     31  C   UNL A   1      35.743  33.365  30.687  1.00  0.00     0.039 A 
ATOM     32  C   UNL A   1      35.763  32.072  31.226  1.00  0.00     0.014 A 
ATOM     33  C   UNL A   1      36.643  33.713  29.684  1.00  0.00     0.014 A 
ATOM     34  C   UNL A   1      36.835  31.227  30.945  1.00  0.00     0.010 A 
ATOM     35  C   UNL A   1      37.742  32.903  29.453  1.00  0.00     0.010 A 
ATOM     36  C   UNL A   1      37.878  31.696  30.146  1.00  0.00    -0.014 A 
BRANCH  36  37
ATOM     37  C   UNL A   1      39.206  31.090  30.156  1.00  0.00     0.031 A 
ATOM     38  C   UNL A   1      39.511  29.822  29.474  1.00  0.00     0.074 A 
ATOM     39  C   UNL A   1      40.209  31.726  30.801  1.00  0.00     0.049 A 
ATOM     40  N   UNL A   1      40.431  29.004  29.875  1.00  0.00    -0.248 NA
ATOM     41  C   UNL A   1      38.795  29.363  28.289  1.00  0.00     0.031 C 
ATOM     42  C   UNL A   1      41.637  31.423  30.745  1.00  0.00     0.029 A 
ATOM     43  N   UNL A   1      40.092  32.661  31.838  1.00  0.00    -0.354 N 
ATOM     44  C   UNL A   1      40.620  28.087  28.877  1.00  0.00     0.074 A 
ATOM     45  C   UNL A   1      39.525  28.294  27.950  1.00  0.00     0.031 C 
ATOM     46  C   UNL A   1      42.220  31.897  31.856  1.00  0.00     0.029 A 
ATOM     47  C   UNL A   1      41.164  32.395  32.719  1.00  0.00     0.049 A 
ATOM     48  H   UNL A   1      39.405  33.361  31.932  1.00  0.00     0.167 HD
ATOM     49  C   UNL A   1      41.751  27.332  28.832  1.00  0.00     0.037 A 
ATOM     50  C   UNL A   1      40.943  32.004  34.007  1.00  0.00     0.037 A 
ATOM     51  C   UNL A   1      42.680  27.609  29.920  1.00  0.00     0.049 A 
ATOM     52  C   UNL A   1      41.559  30.676  34.396  1.00  0.00     0.074 A 
ATOM     53  C   UNL A   1      43.852  28.343  30.026  1.00  0.00     0.029 A 
ATOM     54  N   UNL A   1      42.302  27.318  31.219  1.00  0.00    -0.354 N 
ATOM     55  N   UNL A   1      42.157  29.869  33.564  1.00  0.00    -0.248 NA
ATOM     56  C   UNL A   1      41.449  30.105  35.740  1.00  0.00     0.031 C 
ATOM     57  C   UNL A   1      44.191  28.457  31.402  1.00  0.00     0.029 A 
ATOM     58  C   UNL A   1      43.220  27.802  32.132  1.00  0.00     0.049 A 
ATOM     59  H   UNL A   1      41.484  26.827  31.462  1.00  0.00     0.167 HD
ATOM     60  C   UNL A   1      42.436  28.688  34.202  1.00  0.00     0.074 A 
ATOM     61  C   UNL A   1      41.981  28.884  35.564  1.00  0.00     0.031 C 
ATOM     62  C   UNL A   1      42.974  27.618  33.550  1.00  0.00     0.037 A 
BRANCH  49  63
ATOM     63  C   UNL A   1      42.081  26.525  27.611  1.00  0.00     0.057 A 
ATOM     64  C   UNL A   1      41.918  25.131  27.579  1.00  0.00     0.134 A 
ATOM     65  C   UNL A   1      42.627  27.095  26.449  1.00  0.00     0.134 A 
ATOM     66  F   UNL A   1      41.359  24.463  28.596  1.00  0.00    -0.206 F 
ATOM     67  C   UNL A   1      42.357  24.347  26.506  1.00  0.00     0.040 A 
ATOM     68  C   UNL A   1      43.110  26.321  25.388  1.00  0.00     0.040 A 
ATOM     69  F   UNL A   1      42.725  28.428  26.318  1.00  0.00    -0.206 F 
ATOM     70  C   UNL A   1      42.987  24.938  25.420  1.00  0.00     0.006 A 
ENDBRANCH  49  63
BRANCH  50  71
ATOM     71  C   UNL A   1      39.678  32.534  34.577  1.00  0.00     0.057 A 
ATOM     72  C   UNL A   1      39.650  33.845  35.085  1.00  0.00     0.134 A 
ATOM     73  C   UNL A   1      38.448  31.919  34.331  1.00  0.00     0.134 A 
ATOM     74  F   UNL A   1      40.798  34.497  35.337  1.00  0.00    -0.206 F 
ATOM     75  C   UNL A   1      38.455  34.548  35.246  1.00  0.00     0.040 A 
ATOM     76  C   UNL A   1      37.244  32.607  34.504  1.00  0.00     0.040 A 
ATOM     77  F   UNL A   1      38.393  30.679  33.824  1.00  0.00    -0.206 F 
ATOM     78  C   UNL A   1      37.247  33.935  34.928  1.00  0.00     0.006 A 
ENDBRANCH  50  71
BRANCH  62  79
ATOM     79  C   UNL A   1      43.313  26.305  34.196  1.00  0.00     0.057 A 
ATOM     80  C   UNL A   1      44.602  25.757  34.181  1.00  0.00     0.134 A 
ATOM     81  C   UNL A   1      42.308  25.483  34.746  1.00  0.00     0.134 A 
ATOM     82  F   UNL A   1      45.627  26.412  33.617  1.00  0.00    -0.206 F 
ATOM     83  C   UNL A   1      44.882  24.492  34.718  1.00  0.00     0.040 A 
ATOM     84  C   UNL A   1      42.566  24.202  35.241  1.00  0.00     0.040 A 
ATOM     85  F   UNL A   1      41.035  25.894  34.837  1.00  0.00    -0.206 F 
ATOM     86  C   UNL A   1      43.860  23.706  35.240  1.00  0.00     0.006 A 
ENDBRANCH  62  79
ENDBRANCH  36  37
ENDBRANCH  28  31
ENDBRANCH  26  27
ENDBRANCH  25  26
ENDBRANCH  24  25
ENDBRANCH  23  24
ENDBRANCH   1  23
TORSDOF 19
ENDMDL
