MODEL 1
REMARK VINA RESULT:     -10.3      0.000      0.000
REMARK SMILES C#CCC1(C(=O)NCCCCCCNC(=O)c2ccc(-c3c4nc(c(-c5c(F)cccc5F)c5ccc([nH]5)c(-c5c(F)cccc5F)c5nc(c(-c6c(F)cccc6F)c6ccc3[nH]6)C=C5)C=C4)cc2)CC[NH2+]CC1
REMARK SMILES IDX 10 1 9 2 8 3 7 4 5 5 6 6 4 8 71 9 75 10 72 11 74 12 73 13
REMARK SMILES IDX 3 16 2 17 1 18 11 19 12 20 13 21 14 22 15 23 16 25 17 26
REMARK SMILES IDX 18 27 70 28 19 29 69 30 20 31 21 32 22 33 63 34 23 35 68 36
REMARK SMILES IDX 62 37 64 38 24 39 67 40 61 41 60 42 25 44 51 45 34 46 50 47
REMARK SMILES IDX 35 48 38 49 49 50 65 51 36 52 37 53 48 55 66 56 39 57 26 58
REMARK SMILES IDX 27 59 32 60 28 61 29 62 31 63 33 64 30 65 52 66 53 67 58 68
REMARK SMILES IDX 54 69 55 70 57 71 59 72 56 73 40 74 41 75 46 76 42 77 43 78
REMARK SMILES IDX 45 79 47 80 44 81
REMARK H PARENT 7 7 73 14 73 15 14 24 64 43 38 54
REMARK Flexibility Score: inf
ROOT
ATOM      1  C   UNL A   1      33.114  30.013  27.013  1.00  0.00     0.002 C 
ENDROOT
BRANCH   1   2
ATOM      2  C   UNL A   1      33.199  28.503  27.244  1.00  0.00     0.021 C 
BRANCH   2   3
ATOM      3  C   UNL A   1      34.047  27.789  26.205  1.00  0.00     0.116 C 
BRANCH   3   4
ATOM      4  N   UNL A   1      34.090  28.553  24.970  1.00  0.00    -0.356 N 
ATOM      5  C   UNL A   1      33.586  28.278  23.736  1.00  0.00     0.227 C 
ATOM      6  O   UNL A   1      33.890  29.062  22.833  1.00  0.00    -0.274 OA
ATOM      7  H   UNL A   1      34.564  29.413  25.037  1.00  0.00     0.163 HD
BRANCH   5   8
ATOM      8  C   UNL A   1      32.673  27.062  23.499  1.00  0.00     0.071 C 
ATOM      9  C   UNL A   1      32.190  27.058  22.025  1.00  0.00     0.079 C 
ATOM     10  C   UNL A   1      33.491  25.768  23.884  1.00  0.00     0.079 C 
ATOM     11  C   UNL A   1      31.757  25.682  21.539  1.00  0.00     0.261 C 
ATOM     12  C   UNL A   1      33.152  24.496  23.095  1.00  0.00     0.261 C 
ATOM     13  N   UNL A   1      32.855  24.732  21.685  1.00  0.00    -0.346 N 
ATOM     14  H   UNL A   1      33.686  25.107  21.227  1.00  0.00     0.346 HD
ATOM     15  H   UNL A   1      32.581  23.848  21.257  1.00  0.00     0.346 HD
BRANCH   8  16
ATOM     16  C   UNL A   1      31.404  27.245  24.414  1.00  0.00     0.106 C 
BRANCH  16  17
ATOM     17  C   UNL A   1      30.681  28.503  23.963  1.00  0.00    -0.106 C 
ATOM     18  C   UNL A   1      30.060  29.583  23.576  1.00  0.00     0.004 C 
ENDBRANCH  16  17
ENDBRANCH   8  16
ENDBRANCH   5   8
ENDBRANCH   3   4
ENDBRANCH   2   3
ENDBRANCH   1   2
BRANCH   1  19
ATOM     19  C   UNL A   1      31.693  30.545  26.799  1.00  0.00     0.002 C 
BRANCH  19  20
ATOM     20  C   UNL A   1      31.585  32.071  26.723  1.00  0.00     0.021 C 
BRANCH  20  21
ATOM     21  C   UNL A   1      32.762  32.812  27.345  1.00  0.00     0.116 C 
BRANCH  21  22
ATOM     22  N   UNL A   1      32.438  34.202  27.623  1.00  0.00    -0.352 N 
ATOM     23  C   UNL A   1      32.962  35.038  28.574  1.00  0.00     0.251 C 
ATOM     24  H   UNL A   1      31.745  34.599  27.048  1.00  0.00     0.163 HD
ATOM     25  O   UNL A   1      32.428  36.117  28.817  1.00  0.00    -0.269 OA
BRANCH  23  26
ATOM     26  C   UNL A   1      34.160  34.620  29.326  1.00  0.00     0.039 A 
ATOM     27  C   UNL A   1      34.007  34.139  30.627  1.00  0.00     0.014 A 
ATOM     28  C   UNL A   1      35.427  34.676  28.735  1.00  0.00     0.014 A 
ATOM     29  C   UNL A   1      35.116  33.640  31.311  1.00  0.00     0.010 A 
ATOM     30  C   UNL A   1      36.517  34.113  29.389  1.00  0.00     0.010 A 
ATOM     31  C   UNL A   1      36.369  33.579  30.678  1.00  0.00    -0.014 A 
BRANCH  31  32
ATOM     32  C   UNL A   1      37.524  32.913  31.330  1.00  0.00     0.031 A 
ATOM     33  C   UNL A   1      38.153  31.700  30.712  1.00  0.00     0.074 A 
ATOM     34  C   UNL A   1      37.954  33.368  32.525  1.00  0.00     0.049 A 
ATOM     35  N   UNL A   1      39.118  30.944  31.175  1.00  0.00    -0.248 NA
ATOM     36  C   UNL A   1      37.616  31.261  29.415  1.00  0.00     0.031 C 
ATOM     37  C   UNL A   1      37.395  34.513  33.245  1.00  0.00     0.029 A 
ATOM     38  N   UNL A   1      38.952  32.913  33.348  1.00  0.00    -0.354 N 
ATOM     39  C   UNL A   1      39.300  29.943  30.231  1.00  0.00     0.074 A 
ATOM     40  C   UNL A   1      38.312  30.154  29.196  1.00  0.00     0.031 C 
ATOM     41  C   UNL A   1      38.070  34.684  34.392  1.00  0.00     0.029 A 
ATOM     42  C   UNL A   1      39.077  33.635  34.511  1.00  0.00     0.049 A 
ATOM     43  H   UNL A   1      39.525  32.144  33.128  1.00  0.00     0.167 HD
ATOM     44  C   UNL A   1      40.220  28.949  30.220  1.00  0.00     0.037 A 
ATOM     45  C   UNL A   1      39.898  33.460  35.564  1.00  0.00     0.037 A 
ATOM     46  C   UNL A   1      41.204  28.748  31.252  1.00  0.00     0.049 A 
ATOM     47  C   UNL A   1      40.880  32.323  35.547  1.00  0.00     0.074 A 
ATOM     48  C   UNL A   1      42.216  27.804  31.304  1.00  0.00     0.029 A 
ATOM     49  N   UNL A   1      41.294  29.494  32.418  1.00  0.00    -0.354 N 
ATOM     50  N   UNL A   1      41.090  31.427  34.613  1.00  0.00    -0.248 NA
ATOM     51  C   UNL A   1      41.738  32.171  36.729  1.00  0.00     0.031 C 
ATOM     52  C   UNL A   1      42.879  27.941  32.527  1.00  0.00     0.029 A 
ATOM     53  C   UNL A   1      42.320  29.008  33.213  1.00  0.00     0.049 A 
ATOM     54  H   UNL A   1      40.715  30.256  32.647  1.00  0.00     0.167 HD
ATOM     55  C   UNL A   1      42.117  30.620  35.085  1.00  0.00     0.074 A 
ATOM     56  C   UNL A   1      42.501  31.146  36.379  1.00  0.00     0.031 C 
ATOM     57  C   UNL A   1      42.690  29.539  34.500  1.00  0.00     0.037 A 
BRANCH  44  58
ATOM     58  C   UNL A   1      40.204  28.000  29.058  1.00  0.00     0.057 A 
ATOM     59  C   UNL A   1      40.929  28.252  27.885  1.00  0.00     0.134 A 
ATOM     60  C   UNL A   1      39.489  26.797  29.126  1.00  0.00     0.134 A 
ATOM     61  F   UNL A   1      41.627  29.390  27.750  1.00  0.00    -0.206 F 
ATOM     62  C   UNL A   1      40.925  27.355  26.816  1.00  0.00     0.040 A 
ATOM     63  C   UNL A   1      39.500  25.879  28.074  1.00  0.00     0.040 A 
ATOM     64  F   UNL A   1      38.779  26.487  30.221  1.00  0.00    -0.206 F 
ATOM     65  C   UNL A   1      40.215  26.161  26.911  1.00  0.00     0.006 A 
ENDBRANCH  44  58
BRANCH  45  66
ATOM     66  C   UNL A   1      39.828  34.387  36.723  1.00  0.00     0.057 A 
ATOM     67  C   UNL A   1      39.028  34.098  37.833  1.00  0.00     0.134 A 
ATOM     68  C   UNL A   1      40.549  35.588  36.743  1.00  0.00     0.134 A 
ATOM     69  F   UNL A   1      38.298  32.973  37.865  1.00  0.00    -0.206 F 
ATOM     70  C   UNL A   1      38.932  34.975  38.914  1.00  0.00     0.040 A 
ATOM     71  C   UNL A   1      40.484  36.461  37.830  1.00  0.00     0.040 A 
ATOM     72  F   UNL A   1      41.340  35.922  35.713  1.00  0.00    -0.206 F 
ATOM     73  C   UNL A   1      39.666  36.159  38.917  1.00  0.00     0.006 A 
ENDBRANCH  45  66
BRANCH  57  74
ATOM     74  C   UNL A   1      43.805  28.864  35.245  1.00  0.00     0.057 A 
ATOM     75  C   UNL A   1      45.142  29.252  35.083  1.00  0.00     0.134 A 
ATOM     76  C   UNL A   1      43.535  27.845  36.166  1.00  0.00     0.134 A 
ATOM     77  F   UNL A   1      45.470  30.212  34.205  1.00  0.00    -0.206 F 
ATOM     78  C   UNL A   1      46.171  28.635  35.796  1.00  0.00     0.040 A 
ATOM     79  C   UNL A   1      44.552  27.241  36.907  1.00  0.00     0.040 A 
ATOM     80  F   UNL A   1      42.276  27.431  36.376  1.00  0.00    -0.206 F 
ATOM     81  C   UNL A   1      45.876  27.631  36.717  1.00  0.00     0.006 A 
ENDBRANCH  57  74
ENDBRANCH  31  32
ENDBRANCH  23  26
ENDBRANCH  21  22
ENDBRANCH  20  21
ENDBRANCH  19  20
ENDBRANCH   1  19
TORSDOF 15
ENDMDL
MODEL 2
REMARK VINA RESULT:     -10.2      5.865     10.805
REMARK SMILES C#CCC1(C(=O)NCCCCCCNC(=O)c2ccc(-c3c4nc(c(-c5c(F)cccc5F)c5ccc([nH]5)c(-c5c(F)cccc5F)c5nc(c(-c6c(F)cccc6F)c6ccc3[nH]6)C=C5)C=C4)cc2)CC[NH2+]CC1
REMARK SMILES IDX 10 1 9 2 8 3 7 4 5 5 6 6 4 8 71 9 75 10 72 11 74 12 73 13
REMARK SMILES IDX 3 16 2 17 1 18 11 19 12 20 13 21 14 22 15 23 16 25 17 26
REMARK SMILES IDX 18 27 70 28 19 29 69 30 20 31 21 32 22 33 63 34 23 35 68 36
REMARK SMILES IDX 62 37 64 38 24 39 67 40 61 41 60 42 25 44 51 45 34 46 50 47
REMARK SMILES IDX 35 48 38 49 49 50 65 51 36 52 37 53 48 55 66 56 39 57 26 58
REMARK SMILES IDX 27 59 32 60 28 61 29 62 31 63 33 64 30 65 52 66 53 67 58 68
REMARK SMILES IDX 54 69 55 70 57 71 59 72 56 73 40 74 41 75 46 76 42 77 43 78
REMARK SMILES IDX 45 79 47 80 44 81
REMARK H PARENT 7 7 73 14 73 15 14 24 64 43 38 54
REMARK Flexibility Score: inf
ROOT
ATOM      1  C   UNL A   1      37.033  22.260  24.186  1.00  0.00     0.002 C 
ENDROOT
BRANCH   1   2
ATOM      2  C   UNL A   1      36.861  23.572  24.954  1.00  0.00     0.021 C 
BRANCH   2   3
ATOM      3  C   UNL A   1      35.406  23.967  25.140  1.00  0.00     0.116 C 
BRANCH   3   4
ATOM      4  N   UNL A   1      34.837  24.424  23.883  1.00  0.00    -0.356 N 
ATOM      5  C   UNL A   1      33.671  24.096  23.263  1.00  0.00     0.227 C 
ATOM      6  O   UNL A   1      33.508  24.549  22.128  1.00  0.00    -0.274 OA
ATOM      7  H   UNL A   1      35.389  25.079  23.398  1.00  0.00     0.163 HD
BRANCH   5   8
ATOM      8  C   UNL A   1      32.615  23.220  23.961  1.00  0.00     0.071 C 
ATOM      9  C   UNL A   1      33.066  21.736  23.922  1.00  0.00     0.079 C 
ATOM     10  C   UNL A   1      32.432  23.770  25.430  1.00  0.00     0.079 C 
ATOM     11  C   UNL A   1      32.421  20.884  25.005  1.00  0.00     0.261 C 
ATOM     12  C   UNL A   1      32.064  22.732  26.499  1.00  0.00     0.261 C 
ATOM     13  N   UNL A   1      32.719  21.439  26.321  1.00  0.00    -0.346 N 
ATOM     14  H   UNL A   1      33.728  21.560  26.414  1.00  0.00     0.346 HD
ATOM     15  H   UNL A   1      32.371  20.797  27.033  1.00  0.00     0.346 HD
BRANCH   8  16
ATOM     16  C   UNL A   1      31.285  23.335  23.125  1.00  0.00     0.106 C 
BRANCH  16  17
ATOM     17  C   UNL A   1      30.578  24.613  23.546  1.00  0.00    -0.106 C 
ATOM     18  C   UNL A   1      29.973  25.710  23.907  1.00  0.00     0.004 C 
ENDBRANCH  16  17
ENDBRANCH   8  16
ENDBRANCH   5   8
ENDBRANCH   3   4
ENDBRANCH   2   3
ENDBRANCH   1   2
BRANCH   1  19
ATOM     19  C   UNL A   1      36.780  20.998  25.017  1.00  0.00     0.002 C 
BRANCH  19  20
ATOM     20  C   UNL A   1      37.897  19.954  24.954  1.00  0.00     0.021 C 
BRANCH  20  21
ATOM     21  C   UNL A   1      39.141  20.321  25.755  1.00  0.00     0.116 C 
BRANCH  21  22
ATOM     22  N   UNL A   1      40.052  19.196  25.882  1.00  0.00    -0.352 N 
ATOM     23  C   UNL A   1      41.409  19.200  26.075  1.00  0.00     0.251 C 
ATOM     24  H   UNL A   1      39.637  18.306  25.822  1.00  0.00     0.163 HD
ATOM     25  O   UNL A   1      42.060  18.166  25.946  1.00  0.00    -0.269 OA
BRANCH  23  26
ATOM     26  C   UNL A   1      42.089  20.465  26.413  1.00  0.00     0.039 A 
ATOM     27  C   UNL A   1      42.610  21.247  25.381  1.00  0.00     0.014 A 
ATOM     28  C   UNL A   1      42.185  20.888  27.742  1.00  0.00     0.014 A 
ATOM     29  C   UNL A   1      43.160  22.495  25.675  1.00  0.00     0.010 A 
ATOM     30  C   UNL A   1      42.667  22.161  28.026  1.00  0.00     0.010 A 
ATOM     31  C   UNL A   1      43.148  22.981  26.994  1.00  0.00    -0.014 A 
BRANCH  31  32
ATOM     32  C   UNL A   1      43.587  24.364  27.303  1.00  0.00     0.031 A 
ATOM     33  C   UNL A   1      42.591  25.403  27.729  1.00  0.00     0.074 A 
ATOM     34  C   UNL A   1      44.881  24.697  27.125  1.00  0.00     0.049 A 
ATOM     35  N   UNL A   1      42.779  26.677  27.968  1.00  0.00    -0.248 NA
ATOM     36  C   UNL A   1      41.197  24.960  27.888  1.00  0.00     0.031 C 
ATOM     37  C   UNL A   1      45.935  23.786  26.673  1.00  0.00     0.029 A 
ATOM     38  N   UNL A   1      45.528  25.895  27.288  1.00  0.00    -0.354 N 
ATOM     39  C   UNL A   1      41.531  27.187  28.300  1.00  0.00     0.074 A 
ATOM     40  C   UNL A   1      40.585  26.099  28.181  1.00  0.00     0.031 C 
ATOM     41  C   UNL A   1      47.098  24.452  26.616  1.00  0.00     0.029 A 
ATOM     42  C   UNL A   1      46.866  25.845  26.981  1.00  0.00     0.049 A 
ATOM     43  H   UNL A   1      45.077  26.714  27.598  1.00  0.00     0.167 HD
ATOM     44  C   UNL A   1      41.208  28.444  28.688  1.00  0.00     0.037 A 
ATOM     45  C   UNL A   1      47.798  26.817  26.973  1.00  0.00     0.037 A 
ATOM     46  C   UNL A   1      42.157  29.521  28.809  1.00  0.00     0.049 A 
ATOM     47  C   UNL A   1      47.404  28.213  27.365  1.00  0.00     0.074 A 
ATOM     48  C   UNL A   1      41.937  30.816  29.248  1.00  0.00     0.029 A 
ATOM     49  N   UNL A   1      43.501  29.433  28.480  1.00  0.00    -0.354 N 
ATOM     50  N   UNL A   1      46.234  28.666  27.747  1.00  0.00    -0.248 NA
ATOM     51  C   UNL A   1      48.458  29.235  27.322  1.00  0.00     0.031 C 
ATOM     52  C   UNL A   1      43.135  31.527  29.129  1.00  0.00     0.029 A 
ATOM     53  C   UNL A   1      44.116  30.661  28.670  1.00  0.00     0.049 A 
ATOM     54  H   UNL A   1      43.953  28.620  28.158  1.00  0.00     0.167 HD
ATOM     55  C   UNL A   1      46.417  30.016  28.011  1.00  0.00     0.074 A 
ATOM     56  C   UNL A   1      47.815  30.305  27.765  1.00  0.00     0.031 C 
ATOM     57  C   UNL A   1      45.508  30.936  28.419  1.00  0.00     0.037 A 
BRANCH  44  58
ATOM     58  C   UNL A   1      39.769  28.725  29.004  1.00  0.00     0.057 A 
ATOM     59  C   UNL A   1      39.254  28.582  30.300  1.00  0.00     0.134 A 
ATOM     60  C   UNL A   1      38.894  29.186  28.012  1.00  0.00     0.134 A 
ATOM     61  F   UNL A   1      40.034  28.135  31.296  1.00  0.00    -0.206 F 
ATOM     62  C   UNL A   1      37.918  28.864  30.592  1.00  0.00     0.040 A 
ATOM     63  C   UNL A   1      37.563  29.499  28.297  1.00  0.00     0.040 A 
ATOM     64  F   UNL A   1      39.321  29.354  26.751  1.00  0.00    -0.206 F 
ATOM     65  C   UNL A   1      37.070  29.331  29.590  1.00  0.00     0.006 A 
ENDBRANCH  44  58
BRANCH  45  66
ATOM     66  C   UNL A   1      49.197  26.502  26.585  1.00  0.00     0.057 A 
ATOM     67  C   UNL A   1      50.123  26.044  27.528  1.00  0.00     0.134 A 
ATOM     68  C   UNL A   1      49.645  26.662  25.267  1.00  0.00     0.134 A 
ATOM     69  F   UNL A   1      49.761  25.890  28.810  1.00  0.00    -0.206 F 
ATOM     70  C   UNL A   1      51.448  25.774  27.182  1.00  0.00     0.040 A 
ATOM     71  C   UNL A   1      50.959  26.369  24.901  1.00  0.00     0.040 A 
ATOM     72  F   UNL A   1      48.806  27.091  24.313  1.00  0.00    -0.206 F 
ATOM     73  C   UNL A   1      51.868  25.931  25.862  1.00  0.00     0.006 A 
ENDBRANCH  45  66
BRANCH  57  74
ATOM     74  C   UNL A   1      46.000  32.336  28.645  1.00  0.00     0.057 A 
ATOM     75  C   UNL A   1      46.528  32.744  29.876  1.00  0.00     0.134 A 
ATOM     76  C   UNL A   1      45.984  33.275  27.606  1.00  0.00     0.134 A 
ATOM     77  F   UNL A   1      46.559  31.898  30.917  1.00  0.00    -0.206 F 
ATOM     78  C   UNL A   1      47.005  34.042  30.071  1.00  0.00     0.040 A 
ATOM     79  C   UNL A   1      46.485  34.566  27.780  1.00  0.00     0.040 A 
ATOM     80  F   UNL A   1      45.499  32.948  26.399  1.00  0.00    -0.206 F 
ATOM     81  C   UNL A   1      46.991  34.955  29.018  1.00  0.00     0.006 A 
ENDBRANCH  57  74
ENDBRANCH  31  32
ENDBRANCH  23  26
ENDBRANCH  21  22
ENDBRANCH  20  21
ENDBRANCH  19  20
ENDBRANCH   1  19
TORSDOF 15
ENDMDL
MODEL 3
REMARK VINA RESULT:     -10.2      5.854     10.092
REMARK SMILES C#CCC1(C(=O)NCCCCCCNC(=O)c2ccc(-c3c4nc(c(-c5c(F)cccc5F)c5ccc([nH]5)c(-c5c(F)cccc5F)c5nc(c(-c6c(F)cccc6F)c6ccc3[nH]6)C=C5)C=C4)cc2)CC[NH2+]CC1
REMARK SMILES IDX 10 1 9 2 8 3 7 4 5 5 6 6 4 8 71 9 75 10 72 11 74 12 73 13
REMARK SMILES IDX 3 16 2 17 1 18 11 19 12 20 13 21 14 22 15 23 16 25 17 26
REMARK SMILES IDX 18 27 70 28 19 29 69 30 20 31 21 32 22 33 63 34 23 35 68 36
REMARK SMILES IDX 62 37 64 38 24 39 67 40 61 41 60 42 25 44 51 45 34 46 50 47
REMARK SMILES IDX 35 48 38 49 49 50 65 51 36 52 37 53 48 55 66 56 39 57 26 58
REMARK SMILES IDX 27 59 32 60 28 61 29 62 31 63 33 64 30 65 52 66 53 67 58 68
REMARK SMILES IDX 54 69 55 70 57 71 59 72 56 73 40 74 41 75 46 76 42 77 43 78
REMARK SMILES IDX 45 79 47 80 44 81
REMARK H PARENT 7 7 73 14 73 15 14 24 64 43 38 54
REMARK Flexibility Score: inf
ROOT
ATOM      1  C   UNL A   1      37.248  22.229  24.492  1.00  0.00     0.002 C 
ENDROOT
BRANCH   1   2
ATOM      2  C   UNL A   1      36.474  22.928  23.373  1.00  0.00     0.021 C 
BRANCH   2   3
ATOM      3  C   UNL A   1      35.173  23.552  23.848  1.00  0.00     0.116 C 
BRANCH   3   4
ATOM      4  N   UNL A   1      34.037  22.904  23.216  1.00  0.00    -0.356 N 
ATOM      5  C   UNL A   1      32.894  22.392  23.750  1.00  0.00     0.227 C 
ATOM      6  O   UNL A   1      32.156  21.778  22.976  1.00  0.00    -0.274 OA
ATOM      7  H   UNL A   1      34.105  22.821  22.238  1.00  0.00     0.163 HD
BRANCH   5   8
ATOM      8  C   UNL A   1      32.550  22.591  25.237  1.00  0.00     0.071 C 
ATOM      9  C   UNL A   1      32.860  24.054  25.648  1.00  0.00     0.079 C 
ATOM     10  C   UNL A   1      31.031  22.205  25.432  1.00  0.00     0.079 C 
ATOM     11  C   UNL A   1      32.086  24.510  26.876  1.00  0.00     0.261 C 
ATOM     12  C   UNL A   1      30.276  22.967  26.529  1.00  0.00     0.261 C 
ATOM     13  N   UNL A   1      30.652  24.374  26.641  1.00  0.00    -0.346 N 
ATOM     14  H   UNL A   1      30.406  24.855  25.776  1.00  0.00     0.346 HD
ATOM     15  H   UNL A   1      30.151  24.783  27.429  1.00  0.00     0.346 HD
BRANCH   8  16
ATOM     16  C   UNL A   1      33.502  21.652  26.068  1.00  0.00     0.106 C 
BRANCH  16  17
ATOM     17  C   UNL A   1      33.183  20.214  25.693  1.00  0.00    -0.106 C 
ATOM     18  C   UNL A   1      32.909  18.980  25.371  1.00  0.00     0.004 C 
ENDBRANCH  16  17
ENDBRANCH   8  16
ENDBRANCH   5   8
ENDBRANCH   3   4
ENDBRANCH   2   3
ENDBRANCH   1   2
BRANCH   1  19
ATOM     19  C   UNL A   1      36.719  20.840  24.861  1.00  0.00     0.002 C 
BRANCH  19  20
ATOM     20  C   UNL A   1      37.795  19.760  25.000  1.00  0.00     0.021 C 
BRANCH  20  21
ATOM     21  C   UNL A   1      39.058  20.225  25.713  1.00  0.00     0.116 C 
BRANCH  21  22
ATOM     22  N   UNL A   1      40.013  19.142  25.882  1.00  0.00    -0.352 N 
ATOM     23  C   UNL A   1      41.365  19.206  26.099  1.00  0.00     0.251 C 
ATOM     24  H   UNL A   1      39.636  18.234  25.834  1.00  0.00     0.163 HD
ATOM     25  O   UNL A   1      42.060  18.198  26.005  1.00  0.00    -0.269 OA
BRANCH  23  26
ATOM     26  C   UNL A   1      41.986  20.506  26.419  1.00  0.00     0.039 A 
ATOM     27  C   UNL A   1      42.433  21.315  25.375  1.00  0.00     0.014 A 
ATOM     28  C   UNL A   1      42.098  20.933  27.746  1.00  0.00     0.014 A 
ATOM     29  C   UNL A   1      42.924  22.591  25.656  1.00  0.00     0.010 A 
ATOM     30  C   UNL A   1      42.520  22.229  28.019  1.00  0.00     0.010 A 
ATOM     31  C   UNL A   1      42.925  23.075  26.975  1.00  0.00    -0.014 A 
BRANCH  31  32
ATOM     32  C   UNL A   1      43.298  24.479  27.275  1.00  0.00     0.031 A 
ATOM     33  C   UNL A   1      44.735  24.908  27.247  1.00  0.00     0.074 A 
ATOM     34  C   UNL A   1      42.336  25.349  27.646  1.00  0.00     0.049 A 
ATOM     35  N   UNL A   1      45.255  26.071  27.553  1.00  0.00    -0.248 NA
ATOM     36  C   UNL A   1      45.723  23.895  26.845  1.00  0.00     0.031 C 
ATOM     37  C   UNL A   1      40.910  25.038  27.751  1.00  0.00     0.029 A 
ATOM     38  N   UNL A   1      42.417  26.667  28.016  1.00  0.00    -0.354 N 
ATOM     39  C   UNL A   1      46.626  25.928  27.385  1.00  0.00     0.074 A 
ATOM     40  C   UNL A   1      46.863  24.553  27.001  1.00  0.00     0.031 C 
ATOM     41  C   UNL A   1      40.247  26.138  28.138  1.00  0.00     0.029 A 
ATOM     42  C   UNL A   1      41.204  27.218  28.353  1.00  0.00     0.049 A 
ATOM     43  H   UNL A   1      43.262  27.171  28.037  1.00  0.00     0.167 HD
ATOM     44  C   UNL A   1      47.596  26.864  27.518  1.00  0.00     0.037 A 
ATOM     45  C   UNL A   1      40.899  28.450  28.804  1.00  0.00     0.037 A 
ATOM     46  C   UNL A   1      47.351  28.232  27.895  1.00  0.00     0.049 A 
ATOM     47  C   UNL A   1      41.999  29.457  28.987  1.00  0.00     0.074 A 
ATOM     48  C   UNL A   1      48.261  29.271  28.003  1.00  0.00     0.029 A 
ATOM     49  N   UNL A   1      46.111  28.751  28.237  1.00  0.00    -0.354 N 
ATOM     50  N   UNL A   1      43.283  29.329  28.753  1.00  0.00    -0.248 NA
ATOM     51  C   UNL A   1      41.610  30.778  29.497  1.00  0.00     0.031 C 
ATOM     52  C   UNL A   1      47.581  30.401  28.467  1.00  0.00     0.029 A 
ATOM     53  C   UNL A   1      46.238  30.085  28.593  1.00  0.00     0.049 A 
ATOM     54  H   UNL A   1      45.266  28.247  28.229  1.00  0.00     0.167 HD
ATOM     55  C   UNL A   1      43.850  30.557  29.066  1.00  0.00     0.074 A 
ATOM     56  C   UNL A   1      42.768  31.423  29.487  1.00  0.00     0.031 C 
ATOM     57  C   UNL A   1      45.152  30.934  29.012  1.00  0.00     0.037 A 
BRANCH  44  58
ATOM     58  C   UNL A   1      49.012  26.439  27.260  1.00  0.00     0.057 A 
ATOM     59  C   UNL A   1      49.577  26.486  25.979  1.00  0.00     0.134 A 
ATOM     60  C   UNL A   1      49.836  26.019  28.312  1.00  0.00     0.134 A 
ATOM     61  F   UNL A   1      48.840  26.870  24.925  1.00  0.00    -0.206 F 
ATOM     62  C   UNL A   1      50.901  26.108  25.749  1.00  0.00     0.040 A 
ATOM     63  C   UNL A   1      51.170  25.665  28.099  1.00  0.00     0.040 A 
ATOM     64  F   UNL A   1      49.364  25.957  29.566  1.00  0.00    -0.206 F 
ATOM     65  C   UNL A   1      51.704  25.703  26.813  1.00  0.00     0.006 A 
ENDBRANCH  44  58
BRANCH  45  66
ATOM     66  C   UNL A   1      39.489  28.801  29.112  1.00  0.00     0.057 A 
ATOM     67  C   UNL A   1      38.647  29.336  28.131  1.00  0.00     0.134 A 
ATOM     68  C   UNL A   1      38.952  28.621  30.393  1.00  0.00     0.134 A 
ATOM     69  F   UNL A   1      39.108  29.550  26.890  1.00  0.00    -0.206 F 
ATOM     70  C   UNL A   1      37.330  29.698  28.416  1.00  0.00     0.040 A 
ATOM     71  C   UNL A   1      37.628  28.952  30.685  1.00  0.00     0.040 A 
ATOM     72  F   UNL A   1      39.704  28.106  31.377  1.00  0.00    -0.206 F 
ATOM     73  C   UNL A   1      36.815  29.500  29.696  1.00  0.00     0.006 A 
ENDBRANCH  45  66
BRANCH  57  74
ATOM     74  C   UNL A   1      45.475  32.348  29.398  1.00  0.00     0.057 A 
ATOM     75  C   UNL A   1      45.849  32.690  30.704  1.00  0.00     0.134 A 
ATOM     76  C   UNL A   1      45.452  33.373  28.444  1.00  0.00     0.134 A 
ATOM     77  F   UNL A   1      45.877  31.759  31.670  1.00  0.00    -0.206 F 
ATOM     78  C   UNL A   1      46.170  34.004  31.051  1.00  0.00     0.040 A 
ATOM     79  C   UNL A   1      45.799  34.685  28.771  1.00  0.00     0.040 A 
ATOM     80  F   UNL A   1      45.110  33.113  27.173  1.00  0.00    -0.206 F 
ATOM     81  C   UNL A   1      46.152  35.004  30.080  1.00  0.00     0.006 A 
ENDBRANCH  57  74
ENDBRANCH  31  32
ENDBRANCH  23  26
ENDBRANCH  21  22
ENDBRANCH  20  21
ENDBRANCH  19  20
ENDBRANCH   1  19
TORSDOF 15
ENDMDL
