MODEL 1
REMARK VINA RESULT:     -13.5      0.000      0.000
REMARK SMILES Cc1ccc(NC(=O)c2ccccc2NC(=O)[C@H]2CCCC[C@H]2C(=O)NCCCCCCNC(=O)c2ccc(-c3c4nc(c(-c5c(F)cccc5F)c5ccc([nH]5)c(-c5c(F)cccc5F)c5nc(c(-c6c(F)cccc6F)c6ccc3[nH]6)C=C5)C=C4)cc2)cc1
REMARK SMILES IDX 28 1 27 2 26 3 24 4 25 5 23 7 18 8 19 9 20 10 22 11 21 12
REMARK SMILES IDX 16 13 15 14 17 16 14 17 9 18 10 19 11 20 13 21 12 22 7 23
REMARK SMILES IDX 6 24 8 26 5 27 1 28 2 29 3 30 91 31 4 32 90 33 29 34 30 35
REMARK SMILES IDX 31 36 32 37 33 38 34 39 35 41 36 42 37 43 89 44 38 45 88 46
REMARK SMILES IDX 39 47 40 48 41 49 82 50 42 51 87 52 81 53 83 54 43 55 86 56
REMARK SMILES IDX 80 57 79 58 44 60 70 61 53 62 69 63 54 64 57 65 68 66 84 67
REMARK SMILES IDX 55 68 56 69 67 71 85 72 58 73 45 74 46 75 51 76 47 77 48 78
REMARK SMILES IDX 50 79 52 80 49 81 71 82 72 83 77 84 73 85 74 86 76 87 78 88
REMARK SMILES IDX 75 89 59 90 60 91 65 92 61 93 62 94 64 95 66 96 63 97
REMARK H PARENT 26 6 15 15 6 25 33 40 83 59 57 70
REMARK Flexibility Score: inf
ROOT
ATOM      1  C   UNL A   1      31.143  28.954  24.741  1.00  0.00     0.021 C 
ENDROOT
BRANCH   1   2
ATOM      2  C   UNL A   1      31.082  28.885  23.209  1.00  0.00     0.116 C 
BRANCH   2   3
ATOM      3  N   UNL A   1      32.348  28.474  22.631  1.00  0.00    -0.356 N 
ATOM      4  C   UNL A   1      32.887  27.276  22.304  1.00  0.00     0.223 C 
ATOM      5  O   UNL A   1      34.027  27.314  21.824  1.00  0.00    -0.275 OA
ATOM      6  H   UNL A   1      32.945  29.231  22.434  1.00  0.00     0.163 HD
BRANCH   4   7
ATOM      7  C   UNL A   1      32.245  25.906  22.542  1.00  0.00     0.091 C 
ATOM      8  C   UNL A   1      33.238  24.884  23.134  1.00  0.00     0.091 C 
ATOM      9  C   UNL A   1      32.624  23.475  23.210  1.00  0.00     0.014 C 
ATOM     10  C   UNL A   1      31.207  23.448  23.793  1.00  0.00     0.001 C 
ATOM     11  C   UNL A   1      30.834  25.862  23.127  1.00  0.00     0.014 C 
ATOM     12  C   UNL A   1      30.276  24.437  23.096  1.00  0.00     0.001 C 
BRANCH   8  13
ATOM     13  C   UNL A   1      33.712  25.286  24.509  1.00  0.00     0.228 C 
ATOM     14  N   UNL A   1      34.721  24.684  25.178  1.00  0.00    -0.325 N 
ATOM     15  H   UNL A   1      35.035  25.254  25.916  1.00  0.00     0.169 HD
ATOM     16  O   UNL A   1      33.188  26.249  25.084  1.00  0.00    -0.274 OA
BRANCH  14  17
ATOM     17  C   UNL A   1      35.454  23.485  25.134  1.00  0.00     0.054 A 
ATOM     18  C   UNL A   1      34.872  22.304  25.665  1.00  0.00     0.063 A 
ATOM     19  C   UNL A   1      35.620  21.111  25.720  1.00  0.00     0.016 A 
ATOM     20  C   UNL A   1      36.915  21.058  25.216  1.00  0.00     0.001 A 
ATOM     21  C   UNL A   1      36.727  23.382  24.563  1.00  0.00     0.027 A 
ATOM     22  C   UNL A   1      37.458  22.189  24.622  1.00  0.00     0.002 A 
BRANCH  18  23
ATOM     23  C   UNL A   1      33.548  22.215  26.340  1.00  0.00     0.257 C 
ATOM     24  N   UNL A   1      32.636  21.198  26.182  1.00  0.00    -0.322 N 
ATOM     25  H   UNL A   1      31.785  21.374  26.645  1.00  0.00     0.170 HD
ATOM     26  O   UNL A   1      33.204  23.174  27.037  1.00  0.00    -0.269 OA
BRANCH  24  27
ATOM     27  C   UNL A   1      32.643  19.967  25.513  1.00  0.00     0.041 A 
ATOM     28  C   UNL A   1      33.664  16.578  23.076  1.00  0.00     0.044 C 
ATOM     29  C   UNL A   1      33.184  17.725  23.918  1.00  0.00    -0.051 A 
ATOM     30  C   UNL A   1      33.182  17.623  25.316  1.00  0.00     0.005 A 
ATOM     31  C   UNL A   1      32.815  18.933  23.325  1.00  0.00     0.005 A 
ATOM     32  C   UNL A   1      32.903  18.740  26.114  1.00  0.00     0.026 A 
ATOM     33  C   UNL A   1      32.527  20.041  24.120  1.00  0.00     0.026 A 
ENDBRANCH  24  27
ENDBRANCH  18  23
ENDBRANCH  14  17
ENDBRANCH   8  13
ENDBRANCH   4   7
ENDBRANCH   2   3
ENDBRANCH   1   2
BRANCH   1  34
ATOM     34  C   UNL A   1      32.344  29.698  25.335  1.00  0.00     0.002 C 
BRANCH  34  35
ATOM     35  C   UNL A   1      32.213  30.182  26.787  1.00  0.00     0.002 C 
BRANCH  35  36
ATOM     36  C   UNL A   1      33.255  31.199  27.255  1.00  0.00     0.021 C 
BRANCH  36  37
ATOM     37  C   UNL A   1      34.602  30.594  27.633  1.00  0.00     0.116 C 
BRANCH  37  38
ATOM     38  N   UNL A   1      35.371  31.419  28.558  1.00  0.00    -0.352 N 
ATOM     39  C   UNL A   1      36.573  31.153  29.196  1.00  0.00     0.251 C 
ATOM     40  H   UNL A   1      34.975  32.298  28.760  1.00  0.00     0.163 HD
ATOM     41  O   UNL A   1      37.077  31.978  29.928  1.00  0.00    -0.269 OA
BRANCH  39  42
ATOM     42  C   UNL A   1      37.297  29.897  28.873  1.00  0.00     0.039 A 
ATOM     43  C   UNL A   1      37.452  28.953  29.895  1.00  0.00     0.014 A 
ATOM     44  C   UNL A   1      37.951  29.728  27.657  1.00  0.00     0.014 A 
ATOM     45  C   UNL A   1      38.456  27.993  29.789  1.00  0.00     0.010 A 
ATOM     46  C   UNL A   1      38.990  28.822  27.577  1.00  0.00     0.010 A 
ATOM     47  C   UNL A   1      39.295  28.014  28.675  1.00  0.00    -0.014 A 
BRANCH  47  48
ATOM     48  C   UNL A   1      40.588  27.340  28.650  1.00  0.00     0.031 A 
ATOM     49  C   UNL A   1      40.692  25.898  28.351  1.00  0.00     0.074 A 
ATOM     50  C   UNL A   1      41.714  28.054  28.876  1.00  0.00     0.049 A 
ATOM     51  N   UNL A   1      41.618  25.134  28.828  1.00  0.00    -0.248 NA
ATOM     52  C   UNL A   1      39.736  25.196  27.501  1.00  0.00     0.031 C 
ATOM     53  C   UNL A   1      43.091  27.605  28.694  1.00  0.00     0.029 A 
ATOM     54  N   UNL A   1      41.831  29.282  29.543  1.00  0.00    -0.354 N 
ATOM     55  C   UNL A   1      41.543  23.937  28.161  1.00  0.00     0.074 A 
ATOM     56  C   UNL A   1      40.319  23.997  27.393  1.00  0.00     0.031 C 
ATOM     57  C   UNL A   1      43.891  28.347  29.475  1.00  0.00     0.029 A 
ATOM     58  C   UNL A   1      43.038  29.211  30.272  1.00  0.00     0.049 A 
ATOM     59  H   UNL A   1      41.201  30.040  29.510  1.00  0.00     0.167 HD
ATOM     60  C   UNL A   1      42.584  23.060  28.202  1.00  0.00     0.037 A 
ATOM     61  C   UNL A   1      43.072  29.317  31.628  1.00  0.00     0.037 A 
ATOM     62  C   UNL A   1      43.694  23.559  29.001  1.00  0.00     0.049 A 
ATOM     63  C   UNL A   1      43.699  28.128  32.310  1.00  0.00     0.074 A 
ATOM     64  C   UNL A   1      44.850  24.241  28.659  1.00  0.00     0.029 A 
ATOM     65  N   UNL A   1      43.553  23.688  30.379  1.00  0.00    -0.354 N 
ATOM     66  N   UNL A   1      43.822  26.956  31.752  1.00  0.00    -0.248 NA
ATOM     67  C   UNL A   1      44.214  28.152  33.676  1.00  0.00     0.031 C 
ATOM     68  C   UNL A   1      45.379  24.829  29.831  1.00  0.00     0.029 A 
ATOM     69  C   UNL A   1      44.560  24.483  30.890  1.00  0.00     0.049 A 
ATOM     70  H   UNL A   1      42.839  23.271  30.913  1.00  0.00     0.167 HD
ATOM     71  C   UNL A   1      44.403  26.087  32.637  1.00  0.00     0.074 A 
ATOM     72  C   UNL A   1      44.640  26.885  33.825  1.00  0.00     0.031 C 
ATOM     73  C   UNL A   1      44.640  24.783  32.311  1.00  0.00     0.037 A 
BRANCH  60  74
ATOM     74  C   UNL A   1      42.665  21.910  27.239  1.00  0.00     0.057 A 
ATOM     75  C   UNL A   1      41.888  20.750  27.405  1.00  0.00     0.134 A 
ATOM     76  C   UNL A   1      43.557  21.882  26.154  1.00  0.00     0.134 A 
ATOM     77  F   UNL A   1      40.954  20.657  28.359  1.00  0.00    -0.206 F 
ATOM     78  C   UNL A   1      42.057  19.609  26.611  1.00  0.00     0.040 A 
ATOM     79  C   UNL A   1      43.768  20.732  25.381  1.00  0.00     0.040 A 
ATOM     80  F   UNL A   1      44.262  22.973  25.816  1.00  0.00    -0.206 F 
ATOM     81  C   UNL A   1      43.023  19.585  25.617  1.00  0.00     0.006 A 
ENDBRANCH  60  74
BRANCH  61  82
ATOM     82  C   UNL A   1      41.983  30.155  32.189  1.00  0.00     0.057 A 
ATOM     83  C   UNL A   1      42.125  31.553  32.158  1.00  0.00     0.134 A 
ATOM     84  C   UNL A   1      40.697  29.651  32.399  1.00  0.00     0.134 A 
ATOM     85  F   UNL A   1      43.335  32.104  31.967  1.00  0.00    -0.206 F 
ATOM     86  C   UNL A   1      41.023  32.410  32.215  1.00  0.00     0.040 A 
ATOM     87  C   UNL A   1      39.586  30.501  32.471  1.00  0.00     0.040 A 
ATOM     88  F   UNL A   1      40.477  28.328  32.420  1.00  0.00    -0.206 F 
ATOM     89  C   UNL A   1      39.743  31.881  32.339  1.00  0.00     0.006 A 
ENDBRANCH  61  82
BRANCH  73  90
ATOM     90  C   UNL A   1      45.077  23.696  33.260  1.00  0.00     0.057 A 
ATOM     91  C   UNL A   1      46.361  23.605  33.814  1.00  0.00     0.134 A 
ATOM     92  C   UNL A   1      44.137  22.769  33.769  1.00  0.00     0.134 A 
ATOM     93  F   UNL A   1      47.322  24.486  33.504  1.00  0.00    -0.206 F 
ATOM     94  C   UNL A   1      46.702  22.631  34.763  1.00  0.00     0.040 A 
ATOM     95  C   UNL A   1      44.452  21.828  34.751  1.00  0.00     0.040 A 
ATOM     96  F   UNL A   1      42.862  22.755  33.349  1.00  0.00    -0.206 F 
ATOM     97  C   UNL A   1      45.745  21.746  35.243  1.00  0.00     0.006 A 
ENDBRANCH  73  90
ENDBRANCH  47  48
ENDBRANCH  39  42
ENDBRANCH  37  38
ENDBRANCH  36  37
ENDBRANCH  35  36
ENDBRANCH  34  35
ENDBRANCH   1  34
TORSDOF 17
ENDMDL
MODEL 2
REMARK VINA RESULT:     -13.2      2.920      4.792
REMARK SMILES Cc1ccc(NC(=O)c2ccccc2NC(=O)[C@H]2CCCC[C@H]2C(=O)NCCCCCCNC(=O)c2ccc(-c3c4nc(c(-c5c(F)cccc5F)c5ccc([nH]5)c(-c5c(F)cccc5F)c5nc(c(-c6c(F)cccc6F)c6ccc3[nH]6)C=C5)C=C4)cc2)cc1
REMARK SMILES IDX 28 1 27 2 26 3 24 4 25 5 23 7 18 8 19 9 20 10 22 11 21 12
REMARK SMILES IDX 16 13 15 14 17 16 14 17 9 18 10 19 11 20 13 21 12 22 7 23
REMARK SMILES IDX 6 24 8 26 5 27 1 28 2 29 3 30 91 31 4 32 90 33 29 34 30 35
REMARK SMILES IDX 31 36 32 37 33 38 34 39 35 41 36 42 37 43 89 44 38 45 88 46
REMARK SMILES IDX 39 47 40 48 41 49 82 50 42 51 87 52 81 53 83 54 43 55 86 56
REMARK SMILES IDX 80 57 79 58 44 60 70 61 53 62 69 63 54 64 57 65 68 66 84 67
REMARK SMILES IDX 55 68 56 69 67 71 85 72 58 73 45 74 46 75 51 76 47 77 48 78
REMARK SMILES IDX 50 79 52 80 49 81 71 82 72 83 77 84 73 85 74 86 76 87 78 88
REMARK SMILES IDX 75 89 59 90 60 91 65 92 61 93 62 94 64 95 66 96 63 97
REMARK H PARENT 26 6 15 15 6 25 33 40 83 59 57 70
REMARK Flexibility Score: inf
ROOT
ATOM      1  C   UNL A   1      34.569  30.501  27.255  1.00  0.00     0.021 C 
ENDROOT
BRANCH   1   2
ATOM      2  C   UNL A   1      34.497  29.022  27.658  1.00  0.00     0.116 C 
BRANCH   2   3
ATOM      3  N   UNL A   1      33.130  28.577  27.853  1.00  0.00    -0.356 N 
ATOM      4  C   UNL A   1      32.135  28.202  27.015  1.00  0.00     0.223 C 
ATOM      5  O   UNL A   1      31.069  27.882  27.557  1.00  0.00    -0.275 OA
ATOM      6  H   UNL A   1      32.869  28.538  28.801  1.00  0.00     0.163 HD
BRANCH   4   7
ATOM      7  C   UNL A   1      32.197  28.210  25.484  1.00  0.00     0.091 C 
ATOM      8  C   UNL A   1      33.076  27.073  24.924  1.00  0.00     0.091 C 
ATOM      9  C   UNL A   1      33.262  27.197  23.401  1.00  0.00     0.014 C 
ATOM     10  C   UNL A   1      31.961  27.477  22.640  1.00  0.00     0.001 C 
ATOM     11  C   UNL A   1      30.907  28.482  24.711  1.00  0.00     0.014 C 
ATOM     12  C   UNL A   1      31.196  28.665  23.219  1.00  0.00     0.001 C 
BRANCH   8  13
ATOM     13  C   UNL A   1      32.509  25.711  25.238  1.00  0.00     0.228 C 
ATOM     14  N   UNL A   1      33.233  24.571  25.281  1.00  0.00    -0.325 N 
ATOM     15  H   UNL A   1      32.737  23.863  25.754  1.00  0.00     0.169 HD
ATOM     16  O   UNL A   1      31.307  25.593  25.513  1.00  0.00    -0.274 OA
BRANCH  14  17
ATOM     17  C   UNL A   1      34.484  24.093  24.851  1.00  0.00     0.054 A 
ATOM     18  C   UNL A   1      34.594  23.525  23.554  1.00  0.00     0.063 A 
ATOM     19  C   UNL A   1      35.811  22.954  23.134  1.00  0.00     0.016 A 
ATOM     20  C   UNL A   1      36.931  22.978  23.957  1.00  0.00     0.001 A 
ATOM     21  C   UNL A   1      35.646  24.175  25.624  1.00  0.00     0.027 A 
ATOM     22  C   UNL A   1      36.851  23.605  25.193  1.00  0.00     0.002 A 
BRANCH  18  23
ATOM     23  C   UNL A   1      33.471  23.320  22.597  1.00  0.00     0.257 C 
ATOM     24  N   UNL A   1      32.638  22.226  22.563  1.00  0.00    -0.322 N 
ATOM     25  H   UNL A   1      32.020  22.242  21.796  1.00  0.00     0.170 HD
ATOM     26  O   UNL A   1      33.327  24.163  21.708  1.00  0.00    -0.269 OA
BRANCH  24  27
ATOM     27  C   UNL A   1      32.469  21.095  23.372  1.00  0.00     0.041 A 
ATOM     28  C   UNL A   1      32.901  17.295  25.330  1.00  0.00     0.044 C 
ATOM     29  C   UNL A   1      32.624  18.617  24.677  1.00  0.00    -0.051 A 
ATOM     30  C   UNL A   1      32.823  19.811  25.384  1.00  0.00     0.005 A 
ATOM     31  C   UNL A   1      32.248  18.679  23.334  1.00  0.00     0.005 A 
ATOM     32  C   UNL A   1      32.737  21.050  24.736  1.00  0.00     0.026 A 
ATOM     33  C   UNL A   1      32.152  19.913  22.692  1.00  0.00     0.026 A 
ENDBRANCH  24  27
ENDBRANCH  18  23
ENDBRANCH  14  17
ENDBRANCH   8  13
ENDBRANCH   4   7
ENDBRANCH   2   3
ENDBRANCH   1   2
BRANCH   1  34
ATOM     34  C   UNL A   1      35.860  31.239  27.626  1.00  0.00     0.002 C 
BRANCH  34  35
ATOM     35  C   UNL A   1      35.715  32.681  28.133  1.00  0.00     0.002 C 
BRANCH  35  36
ATOM     36  C   UNL A   1      34.488  32.970  28.999  1.00  0.00     0.021 C 
BRANCH  36  37
ATOM     37  C   UNL A   1      34.494  34.342  29.663  1.00  0.00     0.116 C 
BRANCH  37  38
ATOM     38  N   UNL A   1      33.651  34.416  30.852  1.00  0.00    -0.352 N 
ATOM     39  C   UNL A   1      33.959  34.145  32.177  1.00  0.00     0.251 C 
ATOM     40  H   UNL A   1      32.723  34.701  30.687  1.00  0.00     0.163 HD
ATOM     41  O   UNL A   1      33.122  34.280  33.043  1.00  0.00    -0.269 OA
BRANCH  39  42
ATOM     42  C   UNL A   1      35.360  33.809  32.536  1.00  0.00     0.039 A 
ATOM     43  C   UNL A   1      36.381  34.580  31.968  1.00  0.00     0.014 A 
ATOM     44  C   UNL A   1      35.668  32.666  33.268  1.00  0.00     0.014 A 
ATOM     45  C   UNL A   1      37.675  34.065  31.915  1.00  0.00     0.010 A 
ATOM     46  C   UNL A   1      36.934  32.123  33.159  1.00  0.00     0.010 A 
ATOM     47  C   UNL A   1      37.911  32.783  32.410  1.00  0.00    -0.014 A 
BRANCH  47  48
ATOM     48  C   UNL A   1      39.095  32.008  32.054  1.00  0.00     0.031 A 
ATOM     49  C   UNL A   1      38.991  30.794  31.221  1.00  0.00     0.074 A 
ATOM     50  C   UNL A   1      40.312  32.426  32.470  1.00  0.00     0.049 A 
ATOM     51  N   UNL A   1      39.799  29.791  31.315  1.00  0.00    -0.248 NA
ATOM     52  C   UNL A   1      37.942  30.606  30.225  1.00  0.00     0.031 C 
ATOM     53  C   UNL A   1      41.610  31.906  32.050  1.00  0.00     0.029 A 
ATOM     54  N   UNL A   1      40.605  33.274  33.548  1.00  0.00    -0.354 N 
ATOM     55  C   UNL A   1      39.553  28.965  30.246  1.00  0.00     0.074 A 
ATOM     56  C   UNL A   1      38.347  29.477  29.633  1.00  0.00     0.031 C 
ATOM     57  C   UNL A   1      42.510  32.178  33.008  1.00  0.00     0.029 A 
ATOM     58  C   UNL A   1      41.792  32.770  34.123  1.00  0.00     0.049 A 
ATOM     59  H   UNL A   1      40.090  34.060  33.844  1.00  0.00     0.167 HD
ATOM     60  C   UNL A   1      40.458  28.013  29.889  1.00  0.00     0.037 A 
ATOM     61  C   UNL A   1      41.845  32.337  35.412  1.00  0.00     0.037 A 
ATOM     62  C   UNL A   1      41.630  28.015  30.752  1.00  0.00     0.049 A 
ATOM     63  C   UNL A   1      42.298  30.906  35.550  1.00  0.00     0.074 A 
ATOM     64  C   UNL A   1      42.871  28.619  30.630  1.00  0.00     0.029 A 
ATOM     65  N   UNL A   1      41.514  27.618  32.080  1.00  0.00    -0.354 N 
ATOM     66  N   UNL A   1      42.251  30.036  34.580  1.00  0.00    -0.248 NA
ATOM     67  C   UNL A   1      42.816  30.333  36.789  1.00  0.00     0.031 C 
ATOM     68  C   UNL A   1      43.482  28.634  31.905  1.00  0.00     0.029 A 
ATOM     69  C   UNL A   1      42.625  28.015  32.797  1.00  0.00     0.049 A 
ATOM     70  H   UNL A   1      40.749  27.124  32.455  1.00  0.00     0.167 HD
ATOM     71  C   UNL A   1      42.705  28.825  35.030  1.00  0.00     0.074 A 
ATOM     72  C   UNL A   1      43.057  29.063  36.417  1.00  0.00     0.031 C 
ATOM     73  C   UNL A   1      42.752  27.729  34.217  1.00  0.00     0.037 A 
BRANCH  60  74
ATOM     74  C   UNL A   1      40.371  27.326  28.556  1.00  0.00     0.057 A 
ATOM     75  C   UNL A   1      39.645  26.133  28.385  1.00  0.00     0.134 A 
ATOM     76  C   UNL A   1      41.051  27.781  27.414  1.00  0.00     0.134 A 
ATOM     77  F   UNL A   1      38.901  25.614  29.369  1.00  0.00    -0.206 F 
ATOM     78  C   UNL A   1      39.675  25.395  27.196  1.00  0.00     0.040 A 
ATOM     79  C   UNL A   1      41.126  27.030  26.233  1.00  0.00     0.040 A 
ATOM     80  F   UNL A   1      41.675  28.968  27.414  1.00  0.00    -0.206 F 
ATOM     81  C   UNL A   1      40.445  25.825  26.125  1.00  0.00     0.006 A 
ENDBRANCH  60  74
BRANCH  61  82
ATOM     82  C   UNL A   1      40.889  33.027  36.313  1.00  0.00     0.057 A 
ATOM     83  C   UNL A   1      41.260  34.263  36.870  1.00  0.00     0.134 A 
ATOM     84  C   UNL A   1      39.531  32.702  36.336  1.00  0.00     0.134 A 
ATOM     85  F   UNL A   1      42.550  34.635  36.886  1.00  0.00    -0.206 F 
ATOM     86  C   UNL A   1      40.313  35.185  37.323  1.00  0.00     0.040 A 
ATOM     87  C   UNL A   1      38.573  33.612  36.801  1.00  0.00     0.040 A 
ATOM     88  F   UNL A   1      39.095  31.550  35.806  1.00  0.00    -0.206 F 
ATOM     89  C   UNL A   1      38.960  34.873  37.258  1.00  0.00     0.006 A 
ENDBRANCH  61  82
BRANCH  73  90
ATOM     90  C   UNL A   1      43.032  26.313  34.651  1.00  0.00     0.057 A 
ATOM     91  C   UNL A   1      42.057  25.432  35.138  1.00  0.00     0.134 A 
ATOM     92  C   UNL A   1      44.307  25.739  34.441  1.00  0.00     0.134 A 
ATOM     93  F   UNL A   1      40.780  25.812  35.285  1.00  0.00    -0.206 F 
ATOM     94  C   UNL A   1      42.340  24.094  35.446  1.00  0.00     0.040 A 
ATOM     95  C   UNL A   1      44.588  24.395  34.696  1.00  0.00     0.040 A 
ATOM     96  F   UNL A   1      45.333  26.455  33.954  1.00  0.00    -0.206 F 
ATOM     97  C   UNL A   1      43.604  23.567  35.215  1.00  0.00     0.006 A 
ENDBRANCH  73  90
ENDBRANCH  47  48
ENDBRANCH  39  42
ENDBRANCH  37  38
ENDBRANCH  36  37
ENDBRANCH  35  36
ENDBRANCH  34  35
ENDBRANCH   1  34
TORSDOF 17
ENDMDL
MODEL 3
REMARK VINA RESULT:     -13.1      3.789      9.351
REMARK SMILES Cc1ccc(NC(=O)c2ccccc2NC(=O)[C@H]2CCCC[C@H]2C(=O)NCCCCCCNC(=O)c2ccc(-c3c4nc(c(-c5c(F)cccc5F)c5ccc([nH]5)c(-c5c(F)cccc5F)c5nc(c(-c6c(F)cccc6F)c6ccc3[nH]6)C=C5)C=C4)cc2)cc1
REMARK SMILES IDX 28 1 27 2 26 3 24 4 25 5 23 7 18 8 19 9 20 10 22 11 21 12
REMARK SMILES IDX 16 13 15 14 17 16 14 17 9 18 10 19 11 20 13 21 12 22 7 23
REMARK SMILES IDX 6 24 8 26 5 27 1 28 2 29 3 30 91 31 4 32 90 33 29 34 30 35
REMARK SMILES IDX 31 36 32 37 33 38 34 39 35 41 36 42 37 43 89 44 38 45 88 46
REMARK SMILES IDX 39 47 40 48 41 49 82 50 42 51 87 52 81 53 83 54 43 55 86 56
REMARK SMILES IDX 80 57 79 58 44 60 70 61 53 62 69 63 54 64 57 65 68 66 84 67
REMARK SMILES IDX 55 68 56 69 67 71 85 72 58 73 45 74 46 75 51 76 47 77 48 78
REMARK SMILES IDX 50 79 52 80 49 81 71 82 72 83 77 84 73 85 74 86 76 87 78 88
REMARK SMILES IDX 75 89 59 90 60 91 65 92 61 93 62 94 64 95 66 96 63 97
REMARK H PARENT 26 6 15 15 6 25 33 40 83 59 57 70
REMARK Flexibility Score: inf
ROOT
ATOM      1  C   UNL A   1      35.146  23.881  23.385  1.00  0.00     0.021 C 
ENDROOT
BRANCH   1   2
ATOM      2  C   UNL A   1      34.002  23.811  22.365  1.00  0.00     0.116 C 
BRANCH   2   3
ATOM      3  N   UNL A   1      33.303  22.540  22.417  1.00  0.00    -0.356 N 
ATOM      4  C   UNL A   1      32.932  21.712  23.422  1.00  0.00     0.223 C 
ATOM      5  O   UNL A   1      32.339  20.682  23.076  1.00  0.00    -0.275 OA
ATOM      6  H   UNL A   1      33.040  22.208  21.528  1.00  0.00     0.163 HD
BRANCH   4   7
ATOM      7  C   UNL A   1      33.244  21.906  24.909  1.00  0.00     0.091 C 
ATOM      8  C   UNL A   1      32.731  23.259  25.446  1.00  0.00     0.091 C 
ATOM      9  C   UNL A   1      33.196  23.508  26.892  1.00  0.00     0.014 C 
ATOM     10  C   UNL A   1      33.007  22.303  27.819  1.00  0.00     0.001 C 
ATOM     11  C   UNL A   1      33.055  20.715  25.848  1.00  0.00     0.014 C 
ATOM     12  C   UNL A   1      33.612  21.026  27.238  1.00  0.00     0.001 C 
BRANCH   8  13
ATOM     13  C   UNL A   1      31.226  23.355  25.394  1.00  0.00     0.228 C 
ATOM     14  N   UNL A   1      30.542  24.279  24.682  1.00  0.00    -0.325 N 
ATOM     15  H   UNL A   1      29.602  24.005  24.573  1.00  0.00     0.169 HD
ATOM     16  O   UNL A   1      30.534  22.530  26.004  1.00  0.00    -0.274 OA
BRANCH  14  17
ATOM     17  C   UNL A   1      30.772  25.514  24.051  1.00  0.00     0.054 A 
ATOM     18  C   UNL A   1      30.851  26.688  24.846  1.00  0.00     0.063 A 
ATOM     19  C   UNL A   1      30.986  27.948  24.232  1.00  0.00     0.016 A 
ATOM     20  C   UNL A   1      31.092  28.062  22.851  1.00  0.00     0.001 A 
ATOM     21  C   UNL A   1      30.962  25.650  22.671  1.00  0.00     0.027 A 
ATOM     22  C   UNL A   1      31.099  26.910  22.075  1.00  0.00     0.002 A 
BRANCH  18  23
ATOM     23  C   UNL A   1      30.645  26.755  26.319  1.00  0.00     0.257 C 
ATOM     24  N   UNL A   1      31.365  27.536  27.193  1.00  0.00    -0.322 N 
ATOM     25  H   UNL A   1      31.135  27.365  28.135  1.00  0.00     0.170 HD
ATOM     26  O   UNL A   1      29.815  25.984  26.809  1.00  0.00    -0.269 OA
BRANCH  24  27
ATOM     27  C   UNL A   1      32.351  28.520  27.046  1.00  0.00     0.041 A 
ATOM     28  C   UNL A   1      35.103  31.760  27.677  1.00  0.00     0.044 C 
ATOM     29  C   UNL A   1      34.150  30.653  27.330  1.00  0.00    -0.051 A 
ATOM     30  C   UNL A   1      34.617  29.339  27.180  1.00  0.00     0.005 A 
ATOM     31  C   UNL A   1      32.780  30.901  27.236  1.00  0.00     0.005 A 
ATOM     32  C   UNL A   1      33.720  28.274  27.028  1.00  0.00     0.026 A 
ATOM     33  C   UNL A   1      31.889  29.842  27.075  1.00  0.00     0.026 A 
ENDBRANCH  24  27
ENDBRANCH  18  23
ENDBRANCH  14  17
ENDBRANCH   8  13
ENDBRANCH   4   7
ENDBRANCH   2   3
ENDBRANCH   1   2
BRANCH   1  34
ATOM     34  C   UNL A   1      36.343  22.962  23.120  1.00  0.00     0.002 C 
BRANCH  34  35
ATOM     35  C   UNL A   1      37.042  22.359  24.348  1.00  0.00     0.002 C 
BRANCH  35  36
ATOM     36  C   UNL A   1      37.797  23.342  25.244  1.00  0.00     0.021 C 
BRANCH  36  37
ATOM     37  C   UNL A   1      38.615  22.686  26.350  1.00  0.00     0.116 C 
BRANCH  37  38
ATOM     38  N   UNL A   1      40.056  22.846  26.180  1.00  0.00    -0.352 N 
ATOM     39  C   UNL A   1      40.862  23.948  26.423  1.00  0.00     0.251 C 
ATOM     40  H   UNL A   1      40.525  22.050  25.840  1.00  0.00     0.163 HD
ATOM     41  O   UNL A   1      42.058  23.888  26.236  1.00  0.00    -0.269 OA
BRANCH  39  42
ATOM     42  C   UNL A   1      40.259  25.160  27.035  1.00  0.00     0.039 A 
ATOM     43  C   UNL A   1      40.447  26.382  26.380  1.00  0.00     0.014 A 
ATOM     44  C   UNL A   1      39.677  25.122  28.298  1.00  0.00     0.014 A 
ATOM     45  C   UNL A   1      40.293  27.568  27.095  1.00  0.00     0.010 A 
ATOM     46  C   UNL A   1      39.588  26.291  29.028  1.00  0.00     0.010 A 
ATOM     47  C   UNL A   1      39.978  27.502  28.452  1.00  0.00    -0.014 A 
BRANCH  47  48
ATOM     48  C   UNL A   1      40.183  28.623  29.363  1.00  0.00     0.031 A 
ATOM     49  C   UNL A   1      39.112  29.605  29.620  1.00  0.00     0.074 A 
ATOM     50  C   UNL A   1      41.366  28.747  30.007  1.00  0.00     0.049 A 
ATOM     51  N   UNL A   1      39.332  30.843  29.914  1.00  0.00    -0.248 NA
ATOM     52  C   UNL A   1      37.694  29.268  29.540  1.00  0.00     0.031 C 
ATOM     53  C   UNL A   1      41.682  29.669  31.094  1.00  0.00     0.029 A 
ATOM     54  N   UNL A   1      42.604  28.200  29.639  1.00  0.00    -0.354 N 
ATOM     55  C   UNL A   1      38.137  31.388  30.313  1.00  0.00     0.074 A 
ATOM     56  C   UNL A   1      37.135  30.392  30.001  1.00  0.00     0.031 C 
ATOM     57  C   UNL A   1      43.009  29.868  31.114  1.00  0.00     0.029 A 
ATOM     58  C   UNL A   1      43.569  29.177  29.966  1.00  0.00     0.049 A 
ATOM     59  H   UNL A   1      42.768  27.316  29.236  1.00  0.00     0.167 HD
ATOM     60  C   UNL A   1      38.111  32.565  30.996  1.00  0.00     0.037 A 
ATOM     61  C   UNL A   1      44.377  29.739  29.025  1.00  0.00     0.037 A 
ATOM     62  C   UNL A   1      39.445  33.104  31.215  1.00  0.00     0.049 A 
ATOM     63  C   UNL A   1      44.266  31.241  28.956  1.00  0.00     0.074 A 
ATOM     64  C   UNL A   1      40.321  33.006  32.285  1.00  0.00     0.029 A 
ATOM     65  N   UNL A   1      40.189  33.574  30.139  1.00  0.00    -0.354 N 
ATOM     66  N   UNL A   1      43.248  31.913  29.416  1.00  0.00    -0.248 NA
ATOM     67  C   UNL A   1      45.274  32.103  28.345  1.00  0.00     0.031 C 
ATOM     68  C   UNL A   1      41.611  33.367  31.833  1.00  0.00     0.029 A 
ATOM     69  C   UNL A   1      41.516  33.711  30.497  1.00  0.00     0.049 A 
ATOM     70  H   UNL A   1      39.822  33.781  29.249  1.00  0.00     0.167 HD
ATOM     71  C   UNL A   1      43.436  33.248  29.176  1.00  0.00     0.074 A 
ATOM     72  C   UNL A   1      44.724  33.319  28.512  1.00  0.00     0.031 C 
ATOM     73  C   UNL A   1      42.512  34.182  29.547  1.00  0.00     0.037 A 
BRANCH  60  74
ATOM     74  C   UNL A   1      36.871  33.014  31.715  1.00  0.00     0.057 A 
ATOM     75  C   UNL A   1      35.925  33.856  31.104  1.00  0.00     0.134 A 
ATOM     76  C   UNL A   1      36.601  32.684  33.054  1.00  0.00     0.134 A 
ATOM     77  F   UNL A   1      36.020  34.205  29.815  1.00  0.00    -0.206 F 
ATOM     78  C   UNL A   1      34.844  34.409  31.801  1.00  0.00     0.040 A 
ATOM     79  C   UNL A   1      35.551  33.266  33.777  1.00  0.00     0.040 A 
ATOM     80  F   UNL A   1      37.360  31.791  33.708  1.00  0.00    -0.206 F 
ATOM     81  C   UNL A   1      34.673  34.142  33.152  1.00  0.00     0.006 A 
ENDBRANCH  60  74
BRANCH  61  82
ATOM     82  C   UNL A   1      44.671  28.845  27.879  1.00  0.00     0.057 A 
ATOM     83  C   UNL A   1      45.604  27.808  28.056  1.00  0.00     0.134 A 
ATOM     84  C   UNL A   1      43.817  28.750  26.778  1.00  0.00     0.134 A 
ATOM     85  F   UNL A   1      46.459  27.840  29.091  1.00  0.00    -0.206 F 
ATOM     86  C   UNL A   1      45.609  26.670  27.245  1.00  0.00     0.040 A 
ATOM     87  C   UNL A   1      43.821  27.621  25.949  1.00  0.00     0.040 A 
ATOM     88  F   UNL A   1      42.886  29.688  26.553  1.00  0.00    -0.206 F 
ATOM     89  C   UNL A   1      44.691  26.560  26.206  1.00  0.00     0.006 A 
ENDBRANCH  61  82
BRANCH  73  90
ATOM     90  C   UNL A   1      42.513  35.637  29.156  1.00  0.00     0.057 A 
ATOM     91  C   UNL A   1      43.374  36.599  29.704  1.00  0.00     0.134 A 
ATOM     92  C   UNL A   1      41.720  36.089  28.076  1.00  0.00     0.134 A 
ATOM     93  F   UNL A   1      44.256  36.284  30.661  1.00  0.00    -0.206 F 
ATOM     94  C   UNL A   1      43.405  37.924  29.249  1.00  0.00     0.040 A 
ATOM     95  C   UNL A   1      41.780  37.393  27.581  1.00  0.00     0.040 A 
ATOM     96  F   UNL A   1      40.867  35.273  27.437  1.00  0.00    -0.206 F 
ATOM     97  C   UNL A   1      42.617  38.324  28.178  1.00  0.00     0.006 A 
ENDBRANCH  73  90
ENDBRANCH  47  48
ENDBRANCH  39  42
ENDBRANCH  37  38
ENDBRANCH  36  37
ENDBRANCH  35  36
ENDBRANCH  34  35
ENDBRANCH   1  34
TORSDOF 17
ENDMDL
