MODEL 1
REMARK VINA RESULT:     -13.7      0.000      0.000
REMARK SMILES O=C(NCCCCCCNC(=O)[C@H]1CCCN(c2cc(-c3ccccn3)nc(-c3ccccc3F)n2)C1)c1ccc(-c2c3nc(c(-c4c(F)cccc4F)c4ccc([nH]4)c(-c4c(F)cccc4F)c4nc(c(-c5c(F)cccc5F)c5ccc2[nH]5)C=C4)C=C3)cc1
REMARK SMILES IDX 6 1 5 2 4 3 3 4 1 5 2 6 38 8 39 9 91 10 40 11 90 12 41 13
REMARK SMILES IDX 42 14 43 15 84 16 44 17 89 18 83 19 85 20 45 21 88 22 82 23
REMARK SMILES IDX 81 24 46 26 72 27 55 28 71 29 56 30 59 31 70 32 86 33 57 34
REMARK SMILES IDX 58 35 69 37 87 38 60 39 47 40 48 41 53 42 49 43 50 44 52 45
REMARK SMILES IDX 54 46 51 47 73 48 74 49 79 50 75 51 76 52 78 53 80 54 77 55
REMARK SMILES IDX 61 56 62 57 67 58 63 59 64 60 66 61 68 62 65 63 7 64 8 65
REMARK SMILES IDX 9 66 10 67 11 68 12 70 13 71 14 72 37 73 15 74 17 75 16 76
REMARK SMILES IDX 18 77 19 78 36 79 20 80 28 81 27 82 21 83 22 84 26 85 23 86
REMARK SMILES IDX 25 87 24 88 29 89 30 90 34 91 31 92 33 93 35 94 32 95
REMARK H PARENT 3 7 85 25 59 36 10 69
REMARK Flexibility Score: inf
ROOT
ATOM      1  C   UNL A   1      31.131  30.827  25.376  1.00  0.00     0.002 C 
ENDROOT
BRANCH   1   2
ATOM      2  C   UNL A   1      31.013  31.929  26.429  1.00  0.00     0.021 C 
BRANCH   2   3
ATOM      3  C   UNL A   1      32.343  32.378  27.015  1.00  0.00     0.116 C 
BRANCH   3   4
ATOM      4  N   UNL A   1      32.333  33.787  27.372  1.00  0.00    -0.352 N 
ATOM      5  O   UNL A   1      32.845  35.600  28.617  1.00  0.00    -0.269 OA
ATOM      6  C   UNL A   1      33.109  34.446  28.291  1.00  0.00     0.251 C 
ATOM      7  H   UNL A   1      31.681  34.343  26.888  1.00  0.00     0.163 HD
BRANCH   6   8
ATOM      8  C   UNL A   1      34.260  33.750  28.901  1.00  0.00     0.039 A 
ATOM      9  C   UNL A   1      35.544  34.292  28.806  1.00  0.00     0.014 A 
ATOM     10  C   UNL A   1      34.051  32.548  29.582  1.00  0.00     0.014 A 
ATOM     11  C   UNL A   1      36.634  33.573  29.280  1.00  0.00     0.010 A 
ATOM     12  C   UNL A   1      35.138  31.868  30.135  1.00  0.00     0.010 A 
ATOM     13  C   UNL A   1      36.439  32.366  29.971  1.00  0.00    -0.014 A 
BRANCH  13  14
ATOM     14  C   UNL A   1      37.605  31.693  30.594  1.00  0.00     0.031 A 
ATOM     15  C   UNL A   1      37.966  31.922  32.032  1.00  0.00     0.074 A 
ATOM     16  C   UNL A   1      38.333  30.850  29.835  1.00  0.00     0.049 A 
ATOM     17  N   UNL A   1      38.951  31.404  32.722  1.00  0.00    -0.248 NA
ATOM     18  C   UNL A   1      37.121  32.852  32.796  1.00  0.00     0.031 C 
ATOM     19  C   UNL A   1      38.080  30.565  28.421  1.00  0.00     0.029 A 
ATOM     20  N   UNL A   1      39.418  30.072  30.143  1.00  0.00    -0.354 N 
ATOM     21  C   UNL A   1      38.858  31.958  33.992  1.00  0.00     0.074 A 
ATOM     22  C   UNL A   1      37.733  32.867  33.974  1.00  0.00     0.031 C 
ATOM     23  C   UNL A   1      38.954  29.642  27.997  1.00  0.00     0.029 A 
ATOM     24  C   UNL A   1      39.869  29.320  29.086  1.00  0.00     0.049 A 
ATOM     25  H   UNL A   1      39.834  30.053  31.036  1.00  0.00     0.167 HD
ATOM     26  C   UNL A   1      39.640  31.720  35.071  1.00  0.00     0.037 A 
ATOM     27  C   UNL A   1      40.914  28.480  28.992  1.00  0.00     0.037 A 
ATOM     28  C   UNL A   1      40.748  30.797  35.082  1.00  0.00     0.049 A 
ATOM     29  C   UNL A   1      41.778  28.253  30.196  1.00  0.00     0.074 A 
ATOM     30  C   UNL A   1      41.567  30.451  36.142  1.00  0.00     0.029 A 
ATOM     31  N   UNL A   1      41.197  30.082  33.980  1.00  0.00    -0.354 N 
ATOM     32  N   UNL A   1      41.657  28.756  31.399  1.00  0.00    -0.248 NA
ATOM     33  C   UNL A   1      42.924  27.350  30.030  1.00  0.00     0.031 C 
ATOM     34  C   UNL A   1      42.543  29.567  35.671  1.00  0.00     0.029 A 
ATOM     35  C   UNL A   1      42.300  29.320  34.330  1.00  0.00     0.049 A 
ATOM     36  H   UNL A   1      40.792  30.113  33.083  1.00  0.00     0.167 HD
ATOM     37  C   UNL A   1      42.705  28.229  32.138  1.00  0.00     0.074 A 
ATOM     38  C   UNL A   1      43.441  27.349  31.252  1.00  0.00     0.031 C 
ATOM     39  C   UNL A   1      43.028  28.456  33.435  1.00  0.00     0.037 A 
BRANCH  26  40
ATOM     40  C   UNL A   1      39.344  32.472  36.336  1.00  0.00     0.057 A 
ATOM     41  C   UNL A   1      38.392  31.989  37.243  1.00  0.00     0.134 A 
ATOM     42  C   UNL A   1      39.935  33.709  36.619  1.00  0.00     0.134 A 
ATOM     43  F   UNL A   1      37.780  30.814  37.028  1.00  0.00    -0.206 F 
ATOM     44  C   UNL A   1      38.029  32.715  38.380  1.00  0.00     0.040 A 
ATOM     45  C   UNL A   1      39.599  34.433  37.765  1.00  0.00     0.040 A 
ATOM     46  F   UNL A   1      40.861  34.224  35.797  1.00  0.00    -0.206 F 
ATOM     47  C   UNL A   1      38.635  33.941  38.643  1.00  0.00     0.006 A 
ENDBRANCH  26  40
BRANCH  27  48
ATOM     48  C   UNL A   1      41.182  27.802  27.700  1.00  0.00     0.057 A 
ATOM     49  C   UNL A   1      40.756  26.488  27.466  1.00  0.00     0.134 A 
ATOM     50  C   UNL A   1      41.931  28.426  26.698  1.00  0.00     0.134 A 
ATOM     51  F   UNL A   1      40.046  25.832  28.396  1.00  0.00    -0.206 F 
ATOM     52  C   UNL A   1      41.091  25.809  26.296  1.00  0.00     0.040 A 
ATOM     53  C   UNL A   1      42.251  27.767  25.510  1.00  0.00     0.040 A 
ATOM     54  F   UNL A   1      42.355  29.689  26.860  1.00  0.00    -0.206 F 
ATOM     55  C   UNL A   1      41.841  26.450  25.312  1.00  0.00     0.006 A 
ENDBRANCH  27  48
BRANCH  39  56
ATOM     56  C   UNL A   1      44.225  27.739  33.983  1.00  0.00     0.057 A 
ATOM     57  C   UNL A   1      44.101  26.457  34.534  1.00  0.00     0.134 A 
ATOM     58  C   UNL A   1      45.486  28.346  34.029  1.00  0.00     0.134 A 
ATOM     59  F   UNL A   1      42.917  25.825  34.528  1.00  0.00    -0.206 F 
ATOM     60  C   UNL A   1      45.185  25.811  35.129  1.00  0.00     0.040 A 
ATOM     61  C   UNL A   1      46.584  27.699  34.599  1.00  0.00     0.040 A 
ATOM     62  F   UNL A   1      45.673  29.567  33.507  1.00  0.00    -0.206 F 
ATOM     63  C   UNL A   1      46.432  26.433  35.161  1.00  0.00     0.006 A 
ENDBRANCH  39  56
ENDBRANCH  13  14
ENDBRANCH   6   8
ENDBRANCH   3   4
ENDBRANCH   2   3
ENDBRANCH   1   2
BRANCH   1  64
ATOM     64  C   UNL A   1      32.250  29.809  25.631  1.00  0.00     0.002 C 
BRANCH  64  65
ATOM     65  C   UNL A   1      32.181  28.538  24.772  1.00  0.00     0.021 C 
BRANCH  65  66
ATOM     66  C   UNL A   1      33.536  28.089  24.229  1.00  0.00     0.116 C 
BRANCH  66  67
ATOM     67  N   UNL A   1      33.441  27.787  22.815  1.00  0.00    -0.356 N 
ATOM     68  C   UNL A   1      33.288  26.582  22.203  1.00  0.00     0.224 C 
ATOM     69  H   UNL A   1      33.494  28.564  22.212  1.00  0.00     0.163 HD
ATOM     70  O   UNL A   1      33.440  26.525  20.981  1.00  0.00    -0.275 OA
BRANCH  68  71
ATOM     71  C   UNL A   1      32.842  25.383  23.015  1.00  0.00     0.098 C 
ATOM     72  C   UNL A   1      31.314  25.440  23.164  1.00  0.00     0.017 C 
ATOM     73  C   UNL A   1      33.273  24.102  22.312  1.00  0.00     0.131 C 
ATOM     74  C   UNL A   1      30.785  24.191  23.870  1.00  0.00     0.022 C 
ATOM     75  N   UNL A   1      32.697  22.947  22.991  1.00  0.00    -0.356 N 
ATOM     76  C   UNL A   1      31.251  22.911  23.172  1.00  0.00     0.118 C 
BRANCH  75  77
ATOM     77  C   UNL A   1      33.512  22.118  23.737  1.00  0.00     0.133 A 
ATOM     78  C   UNL A   1      33.087  20.828  23.975  1.00  0.00     0.077 A 
ATOM     79  N   UNL A   1      34.719  22.546  24.143  1.00  0.00    -0.211 NA
ATOM     80  C   UNL A   1      33.966  19.966  24.598  1.00  0.00     0.095 A 
ATOM     81  C   UNL A   1      35.497  21.651  24.791  1.00  0.00     0.165 A 
ATOM     82  N   UNL A   1      35.175  20.370  25.028  1.00  0.00    -0.226 NA
BRANCH  80  83
ATOM     83  C   UNL A   1      33.647  18.538  24.726  1.00  0.00     0.089 A 
ATOM     84  C   UNL A   1      34.259  17.592  23.901  1.00  0.00     0.030 A 
ATOM     85  N   UNL A   1      32.707  18.196  25.645  1.00  0.00    -0.255 NA
ATOM     86  C   UNL A   1      33.903  16.253  24.022  1.00  0.00     0.004 A 
ATOM     87  C   UNL A   1      32.391  16.887  25.747  1.00  0.00     0.112 A 
ATOM     88  C   UNL A   1      32.950  15.890  24.964  1.00  0.00     0.020 A 
ENDBRANCH  80  83
BRANCH  81  89
ATOM     89  C   UNL A   1      36.775  22.110  25.328  1.00  0.00     0.055 A 
ATOM     90  C   UNL A   1      36.913  23.394  25.891  1.00  0.00     0.015 A 
ATOM     91  C   UNL A   1      37.891  21.267  25.356  1.00  0.00     0.134 A 
ATOM     92  C   UNL A   1      38.119  23.799  26.476  1.00  0.00     0.001 A 
ATOM     93  C   UNL A   1      39.100  21.668  25.929  1.00  0.00     0.040 A 
ATOM     94  F   UNL A   1      37.831  20.041  24.812  1.00  0.00    -0.206 F 
ATOM     95  C   UNL A   1      39.212  22.934  26.497  1.00  0.00     0.003 A 
ENDBRANCH  81  89
ENDBRANCH  75  77
ENDBRANCH  68  71
ENDBRANCH  66  67
ENDBRANCH  65  66
ENDBRANCH  64  65
ENDBRANCH   1  64
TORSDOF 16
ENDMDL
MODEL 2
REMARK VINA RESULT:     -13.4      3.207      8.661
REMARK SMILES O=C(NCCCCCCNC(=O)[C@H]1CCCN(c2cc(-c3ccccn3)nc(-c3ccccc3F)n2)C1)c1ccc(-c2c3nc(c(-c4c(F)cccc4F)c4ccc([nH]4)c(-c4c(F)cccc4F)c4nc(c(-c5c(F)cccc5F)c5ccc2[nH]5)C=C4)C=C3)cc1
REMARK SMILES IDX 6 1 5 2 4 3 3 4 1 5 2 6 38 8 39 9 91 10 40 11 90 12 41 13
REMARK SMILES IDX 42 14 43 15 84 16 44 17 89 18 83 19 85 20 45 21 88 22 82 23
REMARK SMILES IDX 81 24 46 26 72 27 55 28 71 29 56 30 59 31 70 32 86 33 57 34
REMARK SMILES IDX 58 35 69 37 87 38 60 39 47 40 48 41 53 42 49 43 50 44 52 45
REMARK SMILES IDX 54 46 51 47 73 48 74 49 79 50 75 51 76 52 78 53 80 54 77 55
REMARK SMILES IDX 61 56 62 57 67 58 63 59 64 60 66 61 68 62 65 63 7 64 8 65
REMARK SMILES IDX 9 66 10 67 11 68 12 70 13 71 14 72 37 73 15 74 17 75 16 76
REMARK SMILES IDX 18 77 19 78 36 79 20 80 28 81 27 82 21 83 22 84 26 85 23 86
REMARK SMILES IDX 25 87 24 88 29 89 30 90 34 91 31 92 33 93 35 94 32 95
REMARK H PARENT 3 7 85 25 59 36 10 69
REMARK Flexibility Score: inf
ROOT
ATOM      1  C   UNL A   1      37.677  24.039  26.132  1.00  0.00     0.002 C 
ENDROOT
BRANCH   1   2
ATOM      2  C   UNL A   1      38.757  23.009  26.461  1.00  0.00     0.021 C 
BRANCH   2   3
ATOM      3  C   UNL A   1      40.031  23.605  27.042  1.00  0.00     0.116 C 
BRANCH   3   4
ATOM      4  N   UNL A   1      40.856  24.230  26.021  1.00  0.00    -0.352 N 
ATOM      5  O   UNL A   1      41.805  25.951  24.909  1.00  0.00    -0.269 OA
ATOM      6  C   UNL A   1      41.278  25.532  25.936  1.00  0.00     0.251 C 
ATOM      7  H   UNL A   1      41.150  23.638  25.291  1.00  0.00     0.163 HD
BRANCH   6   8
ATOM      8  C   UNL A   1      41.079  26.436  27.087  1.00  0.00     0.039 A 
ATOM      9  C   UNL A   1      41.659  27.707  27.095  1.00  0.00     0.014 A 
ATOM     10  C   UNL A   1      40.297  26.011  28.164  1.00  0.00     0.014 A 
ATOM     11  C   UNL A   1      41.563  28.501  28.231  1.00  0.00     0.010 A 
ATOM     12  C   UNL A   1      40.129  26.847  29.270  1.00  0.00     0.010 A 
ATOM     13  C   UNL A   1      40.777  28.091  29.318  1.00  0.00    -0.014 A 
BRANCH  13  14
ATOM     14  C   UNL A   1      40.573  29.020  30.456  1.00  0.00     0.031 A 
ATOM     15  C   UNL A   1      39.493  30.062  30.432  1.00  0.00     0.074 A 
ATOM     16  C   UNL A   1      41.377  28.899  31.530  1.00  0.00     0.049 A 
ATOM     17  N   UNL A   1      39.185  30.945  31.349  1.00  0.00    -0.248 NA
ATOM     18  C   UNL A   1      38.653  30.130  29.227  1.00  0.00     0.031 C 
ATOM     19  C   UNL A   1      42.468  27.930  31.654  1.00  0.00     0.029 A 
ATOM     20  N   UNL A   1      41.396  29.576  32.720  1.00  0.00    -0.354 N 
ATOM     21  C   UNL A   1      38.133  31.684  30.827  1.00  0.00     0.074 A 
ATOM     22  C   UNL A   1      37.866  31.162  29.504  1.00  0.00     0.031 C 
ATOM     23  C   UNL A   1      43.021  28.044  32.869  1.00  0.00     0.029 A 
ATOM     24  C   UNL A   1      42.369  29.136  33.584  1.00  0.00     0.049 A 
ATOM     25  H   UNL A   1      40.774  30.308  32.936  1.00  0.00     0.167 HD
ATOM     26  C   UNL A   1      37.452  32.701  31.407  1.00  0.00     0.037 A 
ATOM     27  C   UNL A   1      42.717  29.571  34.808  1.00  0.00     0.037 A 
ATOM     28  C   UNL A   1      37.716  33.201  32.733  1.00  0.00     0.049 A 
ATOM     29  C   UNL A   1      41.962  30.714  35.417  1.00  0.00     0.074 A 
ATOM     30  C   UNL A   1      37.045  34.194  33.427  1.00  0.00     0.029 A 
ATOM     31  N   UNL A   1      38.734  32.753  33.563  1.00  0.00    -0.354 N 
ATOM     32  N   UNL A   1      40.946  31.381  34.926  1.00  0.00    -0.248 NA
ATOM     33  C   UNL A   1      42.402  31.170  36.740  1.00  0.00     0.031 C 
ATOM     34  C   UNL A   1      37.689  34.383  34.653  1.00  0.00     0.029 A 
ATOM     35  C   UNL A   1      38.728  33.471  34.748  1.00  0.00     0.049 A 
ATOM     36  H   UNL A   1      39.368  32.032  33.342  1.00  0.00     0.167 HD
ATOM     37  C   UNL A   1      40.619  32.331  35.881  1.00  0.00     0.074 A 
ATOM     38  C   UNL A   1      41.533  32.141  36.990  1.00  0.00     0.031 C 
ATOM     39  C   UNL A   1      39.649  33.277  35.840  1.00  0.00     0.037 A 
BRANCH  26  40
ATOM     40  C   UNL A   1      36.359  33.360  30.616  1.00  0.00     0.057 A 
ATOM     41  C   UNL A   1      35.014  33.096  30.906  1.00  0.00     0.134 A 
ATOM     42  C   UNL A   1      36.632  34.186  29.520  1.00  0.00     0.134 A 
ATOM     43  F   UNL A   1      34.682  32.305  31.938  1.00  0.00    -0.206 F 
ATOM     44  C   UNL A   1      33.981  33.621  30.127  1.00  0.00     0.040 A 
ATOM     45  C   UNL A   1      35.607  34.736  28.747  1.00  0.00     0.040 A 
ATOM     46  F   UNL A   1      37.899  34.485  29.193  1.00  0.00    -0.206 F 
ATOM     47  C   UNL A   1      34.277  34.445  29.045  1.00  0.00     0.006 A 
ENDBRANCH  26  40
BRANCH  27  48
ATOM     48  C   UNL A   1      43.836  28.908  35.520  1.00  0.00     0.057 A 
ATOM     49  C   UNL A   1      43.606  27.859  36.420  1.00  0.00     0.134 A 
ATOM     50  C   UNL A   1      45.153  29.355  35.371  1.00  0.00     0.134 A 
ATOM     51  F   UNL A   1      42.363  27.396  36.616  1.00  0.00    -0.206 F 
ATOM     52  C   UNL A   1      44.640  27.299  37.168  1.00  0.00     0.040 A 
ATOM     53  C   UNL A   1      46.202  28.785  36.094  1.00  0.00     0.040 A 
ATOM     54  F   UNL A   1      45.436  30.348  34.514  1.00  0.00    -0.206 F 
ATOM     55  C   UNL A   1      45.944  27.762  37.006  1.00  0.00     0.006 A 
ENDBRANCH  27  48
BRANCH  39  56
ATOM     56  C   UNL A   1      39.515  34.179  37.030  1.00  0.00     0.057 A 
ATOM     57  C   UNL A   1      38.801  33.768  38.162  1.00  0.00     0.134 A 
ATOM     58  C   UNL A   1      40.031  35.481  37.025  1.00  0.00     0.134 A 
ATOM     59  F   UNL A   1      38.274  32.536  38.224  1.00  0.00    -0.206 F 
ATOM     60  C   UNL A   1      38.590  34.626  39.242  1.00  0.00     0.040 A 
ATOM     61  C   UNL A   1      39.848  36.340  38.110  1.00  0.00     0.040 A 
ATOM     62  F   UNL A   1      40.735  35.930  35.976  1.00  0.00    -0.206 F 
ATOM     63  C   UNL A   1      39.116  35.916  39.218  1.00  0.00     0.006 A 
ENDBRANCH  39  56
ENDBRANCH  13  14
ENDBRANCH   6   8
ENDBRANCH   3   4
ENDBRANCH   2   3
ENDBRANCH   1   2
BRANCH   1  64
ATOM     64  C   UNL A   1      36.405  23.459  25.499  1.00  0.00     0.002 C 
BRANCH  64  65
ATOM     65  C   UNL A   1      35.266  23.161  26.486  1.00  0.00     0.021 C 
BRANCH  65  66
ATOM     66  C   UNL A   1      34.293  22.090  25.995  1.00  0.00     0.116 C 
BRANCH  66  67
ATOM     67  N   UNL A   1      33.093  22.087  26.806  1.00  0.00    -0.356 N 
ATOM     68  C   UNL A   1      32.042  22.951  26.789  1.00  0.00     0.224 C 
ATOM     69  H   UNL A   1      33.029  21.356  27.464  1.00  0.00     0.163 HD
ATOM     70  O   UNL A   1      31.221  22.888  27.705  1.00  0.00    -0.275 OA
BRANCH  68  71
ATOM     71  C   UNL A   1      31.860  23.880  25.607  1.00  0.00     0.098 C 
ATOM     72  C   UNL A   1      31.583  23.029  24.358  1.00  0.00     0.017 C 
ATOM     73  C   UNL A   1      30.705  24.835  25.882  1.00  0.00     0.131 C 
ATOM     74  C   UNL A   1      31.267  23.913  23.151  1.00  0.00     0.022 C 
ATOM     75  N   UNL A   1      30.408  25.612  24.684  1.00  0.00    -0.356 N 
ATOM     76  C   UNL A   1      30.126  24.888  23.451  1.00  0.00     0.118 C 
BRANCH  75  77
ATOM     77  C   UNL A   1      30.736  26.953  24.643  1.00  0.00     0.133 A 
ATOM     78  C   UNL A   1      30.039  27.768  23.777  1.00  0.00     0.077 A 
ATOM     79  N   UNL A   1      31.656  27.449  25.487  1.00  0.00    -0.211 NA
ATOM     80  C   UNL A   1      30.274  29.126  23.842  1.00  0.00     0.095 A 
ATOM     81  C   UNL A   1      31.860  28.784  25.451  1.00  0.00     0.165 A 
ATOM     82  N   UNL A   1      31.199  29.649  24.667  1.00  0.00    -0.226 NA
BRANCH  80  83
ATOM     83  C   UNL A   1      29.446  30.065  23.075  1.00  0.00     0.089 A 
ATOM     84  C   UNL A   1      28.962  31.237  23.663  1.00  0.00     0.030 A 
ATOM     85  N   UNL A   1      29.142  29.720  21.798  1.00  0.00    -0.255 NA
ATOM     86  C   UNL A   1      28.146  32.084  22.921  1.00  0.00     0.004 A 
ATOM     87  C   UNL A   1      28.358  30.568  21.098  1.00  0.00     0.112 A 
ATOM     88  C   UNL A   1      27.836  31.745  21.611  1.00  0.00     0.020 A 
ENDBRANCH  80  83
BRANCH  81  89
ATOM     89  C   UNL A   1      32.919  29.342  26.288  1.00  0.00     0.055 A 
ATOM     90  C   UNL A   1      34.152  28.682  26.444  1.00  0.00     0.015 A 
ATOM     91  C   UNL A   1      32.764  30.584  26.915  1.00  0.00     0.134 A 
ATOM     92  C   UNL A   1      35.191  29.261  27.184  1.00  0.00     0.001 A 
ATOM     93  C   UNL A   1      33.792  31.162  27.662  1.00  0.00     0.040 A 
ATOM     94  F   UNL A   1      31.602  31.250  26.826  1.00  0.00    -0.206 F 
ATOM     95  C   UNL A   1      35.012  30.502  27.791  1.00  0.00     0.003 A 
ENDBRANCH  81  89
ENDBRANCH  75  77
ENDBRANCH  68  71
ENDBRANCH  66  67
ENDBRANCH  65  66
ENDBRANCH  64  65
ENDBRANCH   1  64
TORSDOF 16
ENDMDL
MODEL 3
REMARK VINA RESULT:     -13.4      3.172      8.697
REMARK SMILES O=C(NCCCCCCNC(=O)[C@H]1CCCN(c2cc(-c3ccccn3)nc(-c3ccccc3F)n2)C1)c1ccc(-c2c3nc(c(-c4c(F)cccc4F)c4ccc([nH]4)c(-c4c(F)cccc4F)c4nc(c(-c5c(F)cccc5F)c5ccc2[nH]5)C=C4)C=C3)cc1
REMARK SMILES IDX 6 1 5 2 4 3 3 4 1 5 2 6 38 8 39 9 91 10 40 11 90 12 41 13
REMARK SMILES IDX 42 14 43 15 84 16 44 17 89 18 83 19 85 20 45 21 88 22 82 23
REMARK SMILES IDX 81 24 46 26 72 27 55 28 71 29 56 30 59 31 70 32 86 33 57 34
REMARK SMILES IDX 58 35 69 37 87 38 60 39 47 40 48 41 53 42 49 43 50 44 52 45
REMARK SMILES IDX 54 46 51 47 73 48 74 49 79 50 75 51 76 52 78 53 80 54 77 55
REMARK SMILES IDX 61 56 62 57 67 58 63 59 64 60 66 61 68 62 65 63 7 64 8 65
REMARK SMILES IDX 9 66 10 67 11 68 12 70 13 71 14 72 37 73 15 74 17 75 16 76
REMARK SMILES IDX 18 77 19 78 36 79 20 80 28 81 27 82 21 83 22 84 26 85 23 86
REMARK SMILES IDX 25 87 24 88 29 89 30 90 34 91 31 92 33 93 35 94 32 95
REMARK H PARENT 3 7 85 25 59 36 10 69
REMARK Flexibility Score: inf
ROOT
ATOM      1  C   UNL A   1      37.957  23.973  26.138  1.00  0.00     0.002 C 
ENDROOT
BRANCH   1   2
ATOM      2  C   UNL A   1      38.926  22.838  26.468  1.00  0.00     0.021 C 
BRANCH   2   3
ATOM      3  C   UNL A   1      40.253  23.301  27.052  1.00  0.00     0.116 C 
BRANCH   3   4
ATOM      4  N   UNL A   1      41.119  23.884  26.040  1.00  0.00    -0.352 N 
ATOM      5  O   UNL A   1      42.147  25.557  24.924  1.00  0.00    -0.269 OA
ATOM      6  C   UNL A   1      41.585  25.170  25.945  1.00  0.00     0.251 C 
ATOM      7  H   UNL A   1      41.410  23.272  25.325  1.00  0.00     0.163 HD
BRANCH   6   8
ATOM      8  C   UNL A   1      41.390  26.098  27.079  1.00  0.00     0.039 A 
ATOM      9  C   UNL A   1      40.457  25.806  28.076  1.00  0.00     0.014 A 
ATOM     10  C   UNL A   1      42.155  27.264  27.148  1.00  0.00     0.014 A 
ATOM     11  C   UNL A   1      40.198  26.738  29.073  1.00  0.00     0.010 A 
ATOM     12  C   UNL A   1      41.956  28.161  28.200  1.00  0.00     0.010 A 
ATOM     13  C   UNL A   1      40.962  27.913  29.159  1.00  0.00    -0.014 A 
BRANCH  13  14
ATOM     14  C   UNL A   1      40.766  28.820  30.316  1.00  0.00     0.031 A 
ATOM     15  C   UNL A   1      41.647  28.746  31.528  1.00  0.00     0.074 A 
ATOM     16  C   UNL A   1      39.777  29.733  30.248  1.00  0.00     0.049 A 
ATOM     17  N   UNL A   1      41.606  29.473  32.617  1.00  0.00    -0.248 NA
ATOM     18  C   UNL A   1      42.707  27.727  31.526  1.00  0.00     0.031 C 
ATOM     19  C   UNL A   1      38.852  29.884  29.123  1.00  0.00     0.029 A 
ATOM     20  N   UNL A   1      39.394  30.711  31.128  1.00  0.00    -0.354 N 
ATOM     21  C   UNL A   1      42.617  28.988  33.436  1.00  0.00     0.074 A 
ATOM     22  C   UNL A   1      43.243  27.892  32.729  1.00  0.00     0.031 C 
ATOM     23  C   UNL A   1      38.038  30.922  29.360  1.00  0.00     0.029 A 
ATOM     24  C   UNL A   1      38.338  31.467  30.679  1.00  0.00     0.049 A 
ATOM     25  H   UNL A   1      39.831  30.857  31.998  1.00  0.00     0.167 HD
ATOM     26  C   UNL A   1      42.986  29.427  34.663  1.00  0.00     0.037 A 
ATOM     27  C   UNL A   1      37.670  32.474  31.267  1.00  0.00     0.037 A 
ATOM     28  C   UNL A   1      42.366  30.532  35.349  1.00  0.00     0.049 A 
ATOM     29  C   UNL A   1      38.085  32.924  32.635  1.00  0.00     0.074 A 
ATOM     30  C   UNL A   1      42.705  31.083  36.573  1.00  0.00     0.029 A 
ATOM     31  N   UNL A   1      41.275  31.250  34.877  1.00  0.00    -0.354 N 
ATOM     32  N   UNL A   1      39.064  32.480  33.383  1.00  0.00    -0.248 NA
ATOM     33  C   UNL A   1      37.302  34.006  33.244  1.00  0.00     0.031 C 
ATOM     34  C   UNL A   1      41.789  32.098  36.866  1.00  0.00     0.029 A 
ATOM     35  C   UNL A   1      40.911  32.217  35.800  1.00  0.00     0.049 A 
ATOM     36  H   UNL A   1      40.827  31.093  34.015  1.00  0.00     0.167 HD
ATOM     37  C   UNL A   1      39.023  33.230  34.548  1.00  0.00     0.074 A 
ATOM     38  C   UNL A   1      37.932  34.173  34.400  1.00  0.00     0.031 C 
ATOM     39  C   UNL A   1      39.818  33.143  35.643  1.00  0.00     0.037 A 
BRANCH  26  40
ATOM     40  C   UNL A   1      44.107  28.711  35.359  1.00  0.00     0.057 A 
ATOM     41  C   UNL A   1      45.440  29.039  35.082  1.00  0.00     0.134 A 
ATOM     42  C   UNL A   1      43.874  27.647  36.238  1.00  0.00     0.134 A 
ATOM     43  F   UNL A   1      45.735  30.043  34.242  1.00  0.00    -0.206 F 
ATOM     44  C   UNL A   1      46.501  28.326  35.645  1.00  0.00     0.040 A 
ATOM     45  C   UNL A   1      44.926  26.941  36.825  1.00  0.00     0.040 A 
ATOM     46  F   UNL A   1      42.620  27.287  36.552  1.00  0.00    -0.206 F 
ATOM     47  C   UNL A   1      46.245  27.275  36.520  1.00  0.00     0.006 A 
ENDBRANCH  26  40
BRANCH  27  48
ATOM     48  C   UNL A   1      36.541  33.111  30.545  1.00  0.00     0.057 A 
ATOM     49  C   UNL A   1      36.765  34.000  29.487  1.00  0.00     0.134 A 
ATOM     50  C   UNL A   1      35.217  32.899  30.943  1.00  0.00     0.134 A 
ATOM     51  F   UNL A   1      38.013  34.254  29.068  1.00  0.00    -0.206 F 
ATOM     52  C   UNL A   1      35.715  34.680  28.870  1.00  0.00     0.040 A 
ATOM     53  C   UNL A   1      34.155  33.553  30.318  1.00  0.00     0.040 A 
ATOM     54  F   UNL A   1      34.941  32.048  31.943  1.00  0.00    -0.206 F 
ATOM     55  C   UNL A   1      34.404  34.456  29.285  1.00  0.00     0.006 A 
ENDBRANCH  27  48
BRANCH  39  56
ATOM     56  C   UNL A   1      39.546  34.094  36.769  1.00  0.00     0.057 A 
ATOM     57  C   UNL A   1      40.075  35.391  36.753  1.00  0.00     0.134 A 
ATOM     58  C   UNL A   1      38.822  33.703  37.902  1.00  0.00     0.134 A 
ATOM     59  F   UNL A   1      40.785  35.823  35.699  1.00  0.00    -0.206 F 
ATOM     60  C   UNL A   1      39.908  36.260  37.831  1.00  0.00     0.040 A 
ATOM     61  C   UNL A   1      38.627  34.572  38.977  1.00  0.00     0.040 A 
ATOM     62  F   UNL A   1      38.280  32.478  37.974  1.00  0.00    -0.206 F 
ATOM     63  C   UNL A   1      39.181  35.851  38.947  1.00  0.00     0.006 A 
ENDBRANCH  39  56
ENDBRANCH  13  14
ENDBRANCH   6   8
ENDBRANCH   3   4
ENDBRANCH   2   3
ENDBRANCH   1   2
BRANCH   1  64
ATOM     64  C   UNL A   1      36.652  23.531  25.463  1.00  0.00     0.002 C 
BRANCH  64  65
ATOM     65  C   UNL A   1      35.490  23.238  26.425  1.00  0.00     0.021 C 
BRANCH  65  66
ATOM     66  C   UNL A   1      34.526  22.169  25.914  1.00  0.00     0.116 C 
BRANCH  66  67
ATOM     67  N   UNL A   1      33.335  22.126  26.738  1.00  0.00    -0.356 N 
ATOM     68  C   UNL A   1      32.262  22.963  26.739  1.00  0.00     0.224 C 
ATOM     69  H   UNL A   1      33.297  21.389  27.389  1.00  0.00     0.163 HD
ATOM     70  O   UNL A   1      31.452  22.871  27.664  1.00  0.00    -0.275 OA
BRANCH  68  71
ATOM     71  C   UNL A   1      32.042  23.898  25.568  1.00  0.00     0.098 C 
ATOM     72  C   UNL A   1      31.787  23.052  24.312  1.00  0.00     0.017 C 
ATOM     73  C   UNL A   1      30.858  24.812  25.859  1.00  0.00     0.131 C 
ATOM     74  C   UNL A   1      31.435  23.937  23.116  1.00  0.00     0.022 C 
ATOM     75  N   UNL A   1      30.530  25.591  24.670  1.00  0.00    -0.356 N 
ATOM     76  C   UNL A   1      30.264  24.871  23.432  1.00  0.00     0.118 C 
BRANCH  75  77
ATOM     77  C   UNL A   1      30.814  26.943  24.642  1.00  0.00     0.133 A 
ATOM     78  C   UNL A   1      30.096  27.741  23.777  1.00  0.00     0.077 A 
ATOM     79  N   UNL A   1      31.712  27.462  25.496  1.00  0.00    -0.211 NA
ATOM     80  C   UNL A   1      30.285  29.105  23.855  1.00  0.00     0.095 A 
ATOM     81  C   UNL A   1      31.872  28.803  25.471  1.00  0.00     0.165 A 
ATOM     82  N   UNL A   1      31.188  29.652  24.690  1.00  0.00    -0.226 NA
BRANCH  80  83
ATOM     83  C   UNL A   1      29.432  30.023  23.090  1.00  0.00     0.089 A 
ATOM     84  C   UNL A   1      29.114  31.288  23.589  1.00  0.00     0.030 A 
ATOM     85  N   UNL A   1      28.938  29.568  21.909  1.00  0.00    -0.255 NA
ATOM     86  C   UNL A   1      28.268  32.116  22.858  1.00  0.00     0.004 A 
ATOM     87  C   UNL A   1      28.130  30.398  21.216  1.00  0.00     0.112 A 
ATOM     88  C   UNL A   1      27.765  31.664  21.645  1.00  0.00     0.020 A 
ENDBRANCH  80  83
BRANCH  81  89
ATOM     89  C   UNL A   1      32.906  29.389  26.319  1.00  0.00     0.055 A 
ATOM     90  C   UNL A   1      34.135  28.735  26.533  1.00  0.00     0.015 A 
ATOM     91  C   UNL A   1      32.735  30.651  26.900  1.00  0.00     0.134 A 
ATOM     92  C   UNL A   1      35.152  29.338  27.282  1.00  0.00     0.001 A 
ATOM     93  C   UNL A   1      33.741  31.254  27.656  1.00  0.00     0.040 A 
ATOM     94  F   UNL A   1      31.576  31.314  26.755  1.00  0.00    -0.206 F 
ATOM     95  C   UNL A   1      34.956  30.599  27.842  1.00  0.00     0.003 A 
ENDBRANCH  81  89
ENDBRANCH  75  77
ENDBRANCH  68  71
ENDBRANCH  66  67
ENDBRANCH  65  66
ENDBRANCH  64  65
ENDBRANCH   1  64
TORSDOF 16
ENDMDL
