MODEL 1
REMARK VINA RESULT:     -11.0      0.000      0.000
REMARK SMILES CC[C@@H](C)[C@@H](NC(N)=O)C(=O)N1CCC[C@H](C(=O)NCCCCCCNC(=O)c2ccc(-c3c4nc(c(-c5c(F)cccc5F)c5ccc([nH]5)c(-c5c(F)cccc5F)c5nc(c(-c6c(F)cccc6F)c6ccc3[nH]6)C=C5)C=C4)cc2)C1
REMARK SMILES IDX 21 1 20 2 19 3 17 4 18 5 16 7 12 8 13 9 83 10 14 11 15 12
REMARK SMILES IDX 10 13 11 14 5 15 3 16 4 17 2 18 1 19 6 20 7 21 8 23 9 24
REMARK SMILES IDX 22 27 23 28 24 29 25 30 26 31 27 32 28 34 29 35 30 36 82 37
REMARK SMILES IDX 31 38 81 39 32 40 33 41 34 42 75 43 35 44 80 45 74 46 76 47
REMARK SMILES IDX 36 48 79 49 73 50 72 51 37 53 63 54 46 55 62 56 47 57 50 58
REMARK SMILES IDX 61 59 77 60 48 61 49 62 60 64 78 65 51 66 38 67 39 68 44 69
REMARK SMILES IDX 40 70 41 71 43 72 45 73 42 74 64 75 65 76 70 77 66 78 67 79
REMARK SMILES IDX 69 80 71 81 68 82 52 83 53 84 58 85 54 86 55 87 57 88 59 89
REMARK SMILES IDX 56 90
REMARK H PARENT 19 6 6 22 8 25 8 26 26 33 76 52 50 63
REMARK Flexibility Score: inf
ROOT
ATOM      1  C   UNL A   1      32.770  29.271  24.694  1.00  0.00     0.021 C 
ENDROOT
BRANCH   1   2
ATOM      2  C   UNL A   1      33.502  28.392  25.700  1.00  0.00     0.116 C 
BRANCH   2   3
ATOM      3  N   UNL A   1      34.032  27.163  25.160  1.00  0.00    -0.356 N 
ATOM      4  C   UNL A   1      33.385  26.037  24.761  1.00  0.00     0.224 C 
ATOM      5  O   UNL A   1      34.020  25.281  24.015  1.00  0.00    -0.275 OA
ATOM      6  H   UNL A   1      35.011  27.136  25.067  1.00  0.00     0.163 HD
BRANCH   4   7
ATOM      7  C   UNL A   1      31.950  25.652  25.162  1.00  0.00     0.098 C 
ATOM      8  N   UNL A   1      31.880  23.429  26.284  1.00  0.00    -0.340 N 
ATOM      9  C   UNL A   1      30.959  22.868  25.298  1.00  0.00     0.119 C 
ATOM     10  C   UNL A   1      31.832  24.868  26.467  1.00  0.00     0.133 C 
ATOM     11  C   UNL A   1      30.931  23.605  23.954  1.00  0.00     0.022 C 
ATOM     12  C   UNL A   1      31.048  25.123  24.049  1.00  0.00     0.017 C 
BRANCH   8  13
ATOM     13  C   UNL A   1      32.799  22.583  26.904  1.00  0.00     0.245 C 
ATOM     14  O   UNL A   1      33.001  22.658  28.122  1.00  0.00    -0.272 OA
BRANCH  13  15
ATOM     15  C   UNL A   1      33.662  21.601  26.043  1.00  0.00     0.176 C 
BRANCH  15  16
ATOM     16  C   UNL A   1      35.181  21.918  25.979  1.00  0.00     0.018 C 
ATOM     17  C   UNL A   1      35.452  23.422  26.160  1.00  0.00     0.010 C 
BRANCH  16  18
ATOM     18  C   UNL A   1      35.861  21.431  24.677  1.00  0.00     0.002 C 
ATOM     19  C   UNL A   1      36.844  22.464  24.124  1.00  0.00     0.004 C 
ENDBRANCH  16  18
ENDBRANCH  15  16
BRANCH  15  20
ATOM     20  N   UNL A   1      33.411  20.237  26.537  1.00  0.00    -0.326 N 
ATOM     21  C   UNL A   1      32.770  19.298  25.780  1.00  0.00     0.312 C 
ATOM     22  H   UNL A   1      33.716  19.993  27.441  1.00  0.00     0.166 HD
ATOM     23  N   UNL A   1      32.728  18.083  26.372  1.00  0.00    -0.352 N 
ATOM     24  O   UNL A   1      32.227  19.481  24.707  1.00  0.00    -0.249 OA
ATOM     25  H   UNL A   1      33.170  17.942  27.240  1.00  0.00     0.161 HD
ATOM     26  H   UNL A   1      32.256  17.337  25.934  1.00  0.00     0.161 HD
ENDBRANCH  15  20
ENDBRANCH  13  15
ENDBRANCH   8  13
ENDBRANCH   4   7
ENDBRANCH   2   3
ENDBRANCH   1   2
BRANCH   1  27
ATOM     27  C   UNL A   1      31.535  29.964  25.267  1.00  0.00     0.002 C 
BRANCH  27  28
ATOM     28  C   UNL A   1      31.673  30.479  26.708  1.00  0.00     0.002 C 
BRANCH  28  29
ATOM     29  C   UNL A   1      31.453  31.981  26.913  1.00  0.00     0.021 C 
BRANCH  29  30
ATOM     30  C   UNL A   1      32.712  32.839  26.844  1.00  0.00     0.116 C 
BRANCH  30  31
ATOM     31  N   UNL A   1      32.545  34.115  27.524  1.00  0.00    -0.352 N 
ATOM     32  C   UNL A   1      33.153  34.609  28.647  1.00  0.00     0.251 C 
ATOM     33  H   UNL A   1      31.889  34.721  27.109  1.00  0.00     0.163 HD
ATOM     34  O   UNL A   1      32.713  35.623  29.182  1.00  0.00    -0.269 OA
BRANCH  32  35
ATOM     35  C   UNL A   1      34.335  33.933  29.221  1.00  0.00     0.039 A 
ATOM     36  C   UNL A   1      34.136  32.816  30.036  1.00  0.00     0.014 A 
ATOM     37  C   UNL A   1      35.626  34.423  29.007  1.00  0.00     0.014 A 
ATOM     38  C   UNL A   1      35.234  32.166  30.601  1.00  0.00     0.010 A 
ATOM     39  C   UNL A   1      36.725  33.729  29.509  1.00  0.00     0.010 A 
ATOM     40  C   UNL A   1      36.540  32.602  30.323  1.00  0.00    -0.014 A 
BRANCH  40  41
ATOM     41  C   UNL A   1      37.714  31.887  30.883  1.00  0.00     0.031 A 
ATOM     42  C   UNL A   1      38.234  32.237  32.251  1.00  0.00     0.074 A 
ATOM     43  C   UNL A   1      38.333  30.949  30.141  1.00  0.00     0.049 A 
ATOM     44  N   UNL A   1      39.260  31.741  32.895  1.00  0.00    -0.248 NA
ATOM     45  C   UNL A   1      37.526  33.299  32.985  1.00  0.00     0.031 C 
ATOM     46  C   UNL A   1      37.953  30.558  28.782  1.00  0.00     0.029 A 
ATOM     47  N   UNL A   1      39.417  30.155  30.422  1.00  0.00    -0.354 N 
ATOM     48  C   UNL A   1      39.327  32.435  34.097  1.00  0.00     0.074 A 
ATOM     49  C   UNL A   1      38.269  33.421  34.074  1.00  0.00     0.031 C 
ATOM     50  C   UNL A   1      38.774  29.584  28.357  1.00  0.00     0.029 A 
ATOM     51  C   UNL A   1      39.761  29.309  29.395  1.00  0.00     0.049 A 
ATOM     52  H   UNL A   1      39.902  30.188  31.279  1.00  0.00     0.167 HD
ATOM     53  C   UNL A   1      40.178  32.250  35.133  1.00  0.00     0.037 A 
ATOM     54  C   UNL A   1      40.766  28.418  29.299  1.00  0.00     0.037 A 
ATOM     55  C   UNL A   1      41.210  31.248  35.162  1.00  0.00     0.049 A 
ATOM     56  C   UNL A   1      41.698  28.239  30.466  1.00  0.00     0.074 A 
ATOM     57  C   UNL A   1      42.078  30.937  36.194  1.00  0.00     0.029 A 
ATOM     58  N   UNL A   1      41.517  30.399  34.109  1.00  0.00    -0.354 N 
ATOM     59  N   UNL A   1      41.694  28.843  31.630  1.00  0.00    -0.248 NA
ATOM     60  C   UNL A   1      42.771  27.245  30.312  1.00  0.00     0.031 C 
ATOM     61  C   UNL A   1      42.947  29.937  35.746  1.00  0.00     0.029 A 
ATOM     62  C   UNL A   1      42.580  29.583  34.459  1.00  0.00     0.049 A 
ATOM     63  H   UNL A   1      41.048  30.379  33.244  1.00  0.00     0.167 HD
ATOM     64  C   UNL A   1      42.737  28.283  32.355  1.00  0.00     0.074 A 
ATOM     65  C   UNL A   1      43.341  27.276  31.508  1.00  0.00     0.031 C 
ATOM     66  C   UNL A   1      43.160  28.575  33.608  1.00  0.00     0.037 A 
BRANCH  53  67
ATOM     67  C   UNL A   1      40.031  33.144  36.331  1.00  0.00     0.057 A 
ATOM     68  C   UNL A   1      40.734  34.351  36.445  1.00  0.00     0.134 A 
ATOM     69  C   UNL A   1      39.118  32.831  37.347  1.00  0.00     0.134 A 
ATOM     70  F   UNL A   1      41.630  34.706  35.512  1.00  0.00    -0.206 F 
ATOM     71  C   UNL A   1      40.546  35.206  37.532  1.00  0.00     0.040 A 
ATOM     72  C   UNL A   1      38.901  33.690  38.425  1.00  0.00     0.040 A 
ATOM     73  F   UNL A   1      38.407  31.694  37.296  1.00  0.00    -0.206 F 
ATOM     74  C   UNL A   1      39.618  34.882  38.521  1.00  0.00     0.006 A 
ENDBRANCH  53  67
BRANCH  54  75
ATOM     75  C   UNL A   1      40.950  27.622  28.057  1.00  0.00     0.057 A 
ATOM     76  C   UNL A   1      41.702  28.112  26.983  1.00  0.00     0.134 A 
ATOM     77  C   UNL A   1      40.345  26.369  27.899  1.00  0.00     0.134 A 
ATOM     78  F   UNL A   1      42.292  29.314  27.064  1.00  0.00    -0.206 F 
ATOM     79  C   UNL A   1      41.816  27.404  25.785  1.00  0.00     0.040 A 
ATOM     80  C   UNL A   1      40.477  25.636  26.720  1.00  0.00     0.040 A 
ATOM     81  F   UNL A   1      39.616  25.837  28.892  1.00  0.00    -0.206 F 
ATOM     82  C   UNL A   1      41.204  26.159  25.653  1.00  0.00     0.006 A 
ENDBRANCH  54  75
BRANCH  66  83
ATOM     83  C   UNL A   1      44.300  27.768  34.157  1.00  0.00     0.057 A 
ATOM     84  C   UNL A   1      45.627  28.210  34.084  1.00  0.00     0.134 A 
ATOM     85  C   UNL A   1      44.060  26.547  34.804  1.00  0.00     0.134 A 
ATOM     86  F   UNL A   1      45.927  29.363  33.469  1.00  0.00    -0.206 F 
ATOM     87  C   UNL A   1      46.676  27.455  34.610  1.00  0.00     0.040 A 
ATOM     88  C   UNL A   1      45.097  25.799  35.361  1.00  0.00     0.040 A 
ATOM     89  F   UNL A   1      42.811  26.071  34.918  1.00  0.00    -0.206 F 
ATOM     90  C   UNL A   1      46.411  26.250  35.258  1.00  0.00     0.006 A 
ENDBRANCH  66  83
ENDBRANCH  40  41
ENDBRANCH  32  35
ENDBRANCH  30  31
ENDBRANCH  29  30
ENDBRANCH  28  29
ENDBRANCH  27  28
ENDBRANCH   1  27
TORSDOF 18
ENDMDL
MODEL 2
REMARK VINA RESULT:     -10.8      6.921     11.627
REMARK SMILES CC[C@@H](C)[C@@H](NC(N)=O)C(=O)N1CCC[C@H](C(=O)NCCCCCCNC(=O)c2ccc(-c3c4nc(c(-c5c(F)cccc5F)c5ccc([nH]5)c(-c5c(F)cccc5F)c5nc(c(-c6c(F)cccc6F)c6ccc3[nH]6)C=C5)C=C4)cc2)C1
REMARK SMILES IDX 21 1 20 2 19 3 17 4 18 5 16 7 12 8 13 9 83 10 14 11 15 12
REMARK SMILES IDX 10 13 11 14 5 15 3 16 4 17 2 18 1 19 6 20 7 21 8 23 9 24
REMARK SMILES IDX 22 27 23 28 24 29 25 30 26 31 27 32 28 34 29 35 30 36 82 37
REMARK SMILES IDX 31 38 81 39 32 40 33 41 34 42 75 43 35 44 80 45 74 46 76 47
REMARK SMILES IDX 36 48 79 49 73 50 72 51 37 53 63 54 46 55 62 56 47 57 50 58
REMARK SMILES IDX 61 59 77 60 48 61 49 62 60 64 78 65 51 66 38 67 39 68 44 69
REMARK SMILES IDX 40 70 41 71 43 72 45 73 42 74 64 75 65 76 70 77 66 78 67 79
REMARK SMILES IDX 69 80 71 81 68 82 52 83 53 84 58 85 54 86 55 87 57 88 59 89
REMARK SMILES IDX 56 90
REMARK H PARENT 19 6 6 22 8 25 8 26 26 33 76 52 50 63
REMARK Flexibility Score: inf
ROOT
ATOM      1  C   UNL A   1      39.520  29.264  27.893  1.00  0.00     0.021 C 
ENDROOT
BRANCH   1   2
ATOM      2  C   UNL A   1      39.658  30.046  29.193  1.00  0.00     0.116 C 
BRANCH   2   3
ATOM      3  N   UNL A   1      38.501  30.002  30.053  1.00  0.00    -0.356 N 
ATOM      4  C   UNL A   1      37.224  30.401  29.817  1.00  0.00     0.224 C 
ATOM      5  O   UNL A   1      36.360  29.934  30.569  1.00  0.00    -0.275 OA
ATOM      6  H   UNL A   1      38.660  29.626  30.949  1.00  0.00     0.163 HD
BRANCH   4   7
ATOM      7  C   UNL A   1      36.792  31.368  28.700  1.00  0.00     0.098 C 
ATOM      8  N   UNL A   1      34.965  32.882  29.458  1.00  0.00    -0.340 N 
ATOM      9  C   UNL A   1      34.051  32.441  28.406  1.00  0.00     0.119 C 
ATOM     10  C   UNL A   1      36.383  32.761  29.173  1.00  0.00     0.133 C 
ATOM     11  C   UNL A   1      34.387  31.076  27.796  1.00  0.00     0.022 C 
ATOM     12  C   UNL A   1      35.877  30.798  27.619  1.00  0.00     0.017 C 
BRANCH   8  13
ATOM     13  C   UNL A   1      34.436  33.290  30.682  1.00  0.00     0.245 C 
ATOM     14  O   UNL A   1      34.543  32.574  31.685  1.00  0.00    -0.272 OA
BRANCH  13  15
ATOM     15  C   UNL A   1      33.606  34.615  30.771  1.00  0.00     0.176 C 
BRANCH  15  16
ATOM     16  C   UNL A   1      33.471  35.230  32.190  1.00  0.00     0.018 C 
ATOM     17  C   UNL A   1      32.081  35.858  32.403  1.00  0.00     0.010 C 
BRANCH  16  18
ATOM     18  C   UNL A   1      34.560  36.282  32.516  1.00  0.00     0.002 C 
ATOM     19  C   UNL A   1      33.954  37.634  32.895  1.00  0.00     0.004 C 
ENDBRANCH  16  18
ENDBRANCH  15  16
BRANCH  15  20
ATOM     20  N   UNL A   1      34.190  35.572  29.816  1.00  0.00    -0.326 N 
ATOM     21  C   UNL A   1      33.422  36.273  28.932  1.00  0.00     0.312 C 
ATOM     22  H   UNL A   1      35.165  35.711  29.816  1.00  0.00     0.166 HD
ATOM     23  N   UNL A   1      34.132  37.172  28.213  1.00  0.00    -0.352 N 
ATOM     24  O   UNL A   1      32.232  36.120  28.725  1.00  0.00    -0.249 OA
ATOM     25  H   UNL A   1      35.094  37.291  28.387  1.00  0.00     0.161 HD
ATOM     26  H   UNL A   1      33.688  37.709  27.517  1.00  0.00     0.161 HD
ENDBRANCH  15  20
ENDBRANCH  13  15
ENDBRANCH   8  13
ENDBRANCH   4   7
ENDBRANCH   2   3
ENDBRANCH   1   2
BRANCH   1  27
ATOM     27  C   UNL A   1      40.459  28.064  27.795  1.00  0.00     0.002 C 
BRANCH  27  28
ATOM     28  C   UNL A   1      40.363  27.051  28.946  1.00  0.00     0.002 C 
BRANCH  28  29
ATOM     29  C   UNL A   1      39.593  25.761  28.649  1.00  0.00     0.021 C 
BRANCH  29  30
ATOM     30  C   UNL A   1      39.518  25.371  27.176  1.00  0.00     0.116 C 
BRANCH  30  31
ATOM     31  N   UNL A   1      40.124  24.073  26.920  1.00  0.00    -0.352 N 
ATOM     32  C   UNL A   1      41.394  23.748  26.527  1.00  0.00     0.251 C 
ATOM     33  H   UNL A   1      39.523  23.304  27.051  1.00  0.00     0.163 HD
ATOM     34  O   UNL A   1      41.643  22.604  26.156  1.00  0.00    -0.269 OA
BRANCH  32  35
ATOM     35  C   UNL A   1      42.469  24.761  26.545  1.00  0.00     0.039 A 
ATOM     36  C   UNL A   1      42.799  25.407  25.351  1.00  0.00     0.014 A 
ATOM     37  C   UNL A   1      43.186  25.038  27.712  1.00  0.00     0.014 A 
ATOM     38  C   UNL A   1      43.818  26.360  25.337  1.00  0.00     0.010 A 
ATOM     39  C   UNL A   1      44.151  26.043  27.713  1.00  0.00     0.010 A 
ATOM     40  C   UNL A   1      44.487  26.704  26.523  1.00  0.00    -0.014 A 
BRANCH  40  41
ATOM     41  C   UNL A   1      45.541  27.750  26.524  1.00  0.00     0.031 A 
ATOM     42  C   UNL A   1      45.171  29.200  26.678  1.00  0.00     0.074 A 
ATOM     43  C   UNL A   1      46.827  27.392  26.349  1.00  0.00     0.049 A 
ATOM     44  N   UNL A   1      45.948  30.254  26.678  1.00  0.00    -0.248 NA
ATOM     45  C   UNL A   1      43.741  29.514  26.828  1.00  0.00     0.031 C 
ATOM     46  C   UNL A   1      47.304  26.023  26.138  1.00  0.00     0.029 A 
ATOM     47  N   UNL A   1      47.972  28.149  26.313  1.00  0.00    -0.354 N 
ATOM     48  C   UNL A   1      45.104  31.349  26.815  1.00  0.00     0.074 A 
ATOM     49  C   UNL A   1      43.751  30.838  26.845  1.00  0.00     0.031 C 
ATOM     50  C   UNL A   1      48.642  26.036  26.021  1.00  0.00     0.029 A 
ATOM     51  C   UNL A   1      49.114  27.414  26.107  1.00  0.00     0.049 A 
ATOM     52  H   UNL A   1      47.974  29.128  26.426  1.00  0.00     0.167 HD
ATOM     53  C   UNL A   1      45.430  32.658  26.928  1.00  0.00     0.037 A 
ATOM     54  C   UNL A   1      50.396  27.808  25.989  1.00  0.00     0.037 A 
ATOM     55  C   UNL A   1      46.779  33.158  26.925  1.00  0.00     0.049 A 
ATOM     56  C   UNL A   1      50.726  29.270  26.115  1.00  0.00     0.074 A 
ATOM     57  C   UNL A   1      47.215  34.459  27.102  1.00  0.00     0.029 A 
ATOM     58  N   UNL A   1      47.910  32.379  26.730  1.00  0.00    -0.354 N 
ATOM     59  N   UNL A   1      49.923  30.284  26.331  1.00  0.00    -0.248 NA
ATOM     60  C   UNL A   1      52.142  29.644  25.991  1.00  0.00     0.031 C 
ATOM     61  C   UNL A   1      48.605  34.477  26.960  1.00  0.00     0.029 A 
ATOM     62  C   UNL A   1      49.041  33.178  26.755  1.00  0.00     0.049 A 
ATOM     63  H   UNL A   1      47.909  31.404  26.595  1.00  0.00     0.167 HD
ATOM     64  C   UNL A   1      50.737  31.407  26.400  1.00  0.00     0.074 A 
ATOM     65  C   UNL A   1      52.098  30.947  26.224  1.00  0.00     0.031 C 
ATOM     66  C   UNL A   1      50.391  32.703  26.591  1.00  0.00     0.037 A 
BRANCH  53  67
ATOM     67  C   UNL A   1      44.312  33.651  27.071  1.00  0.00     0.057 A 
ATOM     68  C   UNL A   1      43.790  34.002  28.323  1.00  0.00     0.134 A 
ATOM     69  C   UNL A   1      43.806  34.321  25.950  1.00  0.00     0.134 A 
ATOM     70  F   UNL A   1      44.224  33.392  29.436  1.00  0.00    -0.206 F 
ATOM     71  C   UNL A   1      42.794  34.971  28.453  1.00  0.00     0.040 A 
ATOM     72  C   UNL A   1      42.830  35.312  26.069  1.00  0.00     0.040 A 
ATOM     73  F   UNL A   1      44.267  34.039  24.722  1.00  0.00    -0.206 F 
ATOM     74  C   UNL A   1      42.319  35.638  27.325  1.00  0.00     0.006 A 
ENDBRANCH  53  67
BRANCH  54  75
ATOM     75  C   UNL A   1      51.470  26.810  25.742  1.00  0.00     0.057 A 
ATOM     76  C   UNL A   1      52.095  26.138  26.799  1.00  0.00     0.134 A 
ATOM     77  C   UNL A   1      51.924  26.533  24.447  1.00  0.00     0.134 A 
ATOM     78  F   UNL A   1      51.719  26.372  28.065  1.00  0.00    -0.206 F 
ATOM     79  C   UNL A   1      53.156  25.257  26.582  1.00  0.00     0.040 A 
ATOM     80  C   UNL A   1      52.961  25.631  24.212  1.00  0.00     0.040 A 
ATOM     81  F   UNL A   1      51.364  27.137  23.388  1.00  0.00    -0.206 F 
ATOM     82  C   UNL A   1      53.589  24.998  25.283  1.00  0.00     0.006 A 
ENDBRANCH  54  75
BRANCH  66  83
ATOM     83  C   UNL A   1      51.501  33.710  26.665  1.00  0.00     0.057 A 
ATOM     84  C   UNL A   1      51.960  34.393  25.532  1.00  0.00     0.134 A 
ATOM     85  C   UNL A   1      52.092  34.028  27.895  1.00  0.00     0.134 A 
ATOM     86  F   UNL A   1      51.446  34.128  24.322  1.00  0.00    -0.206 F 
ATOM     87  C   UNL A   1      52.986  35.337  25.616  1.00  0.00     0.040 A 
ATOM     88  C   UNL A   1      53.095  34.992  27.997  1.00  0.00     0.040 A 
ATOM     89  F   UNL A   1      51.692  33.418  29.022  1.00  0.00    -0.206 F 
ATOM     90  C   UNL A   1      53.550  35.643  26.853  1.00  0.00     0.006 A 
ENDBRANCH  66  83
ENDBRANCH  40  41
ENDBRANCH  32  35
ENDBRANCH  30  31
ENDBRANCH  29  30
ENDBRANCH  28  29
ENDBRANCH  27  28
ENDBRANCH   1  27
TORSDOF 18
ENDMDL
MODEL 3
REMARK VINA RESULT:     -10.8      3.885      9.431
REMARK SMILES CC[C@@H](C)[C@@H](NC(N)=O)C(=O)N1CCC[C@H](C(=O)NCCCCCCNC(=O)c2ccc(-c3c4nc(c(-c5c(F)cccc5F)c5ccc([nH]5)c(-c5c(F)cccc5F)c5nc(c(-c6c(F)cccc6F)c6ccc3[nH]6)C=C5)C=C4)cc2)C1
REMARK SMILES IDX 21 1 20 2 19 3 17 4 18 5 16 7 12 8 13 9 83 10 14 11 15 12
REMARK SMILES IDX 10 13 11 14 5 15 3 16 4 17 2 18 1 19 6 20 7 21 8 23 9 24
REMARK SMILES IDX 22 27 23 28 24 29 25 30 26 31 27 32 28 34 29 35 30 36 82 37
REMARK SMILES IDX 31 38 81 39 32 40 33 41 34 42 75 43 35 44 80 45 74 46 76 47
REMARK SMILES IDX 36 48 79 49 73 50 72 51 37 53 63 54 46 55 62 56 47 57 50 58
REMARK SMILES IDX 61 59 77 60 48 61 49 62 60 64 78 65 51 66 38 67 39 68 44 69
REMARK SMILES IDX 40 70 41 71 43 72 45 73 42 74 64 75 65 76 70 77 66 78 67 79
REMARK SMILES IDX 69 80 71 81 68 82 52 83 53 84 58 85 54 86 55 87 57 88 59 89
REMARK SMILES IDX 56 90
REMARK H PARENT 19 6 6 22 8 25 8 26 26 33 76 52 50 63
REMARK Flexibility Score: inf
ROOT
ATOM      1  C   UNL A   1      34.703  20.609  25.320  1.00  0.00     0.021 C 
ENDROOT
BRANCH   1   2
ATOM      2  C   UNL A   1      33.854  21.095  26.487  1.00  0.00     0.116 C 
BRANCH   2   3
ATOM      3  N   UNL A   1      32.640  21.779  26.112  1.00  0.00    -0.356 N 
ATOM      4  C   UNL A   1      32.472  22.961  25.464  1.00  0.00     0.224 C 
ATOM      5  O   UNL A   1      31.361  23.148  24.952  1.00  0.00    -0.275 OA
ATOM      6  H   UNL A   1      31.807  21.321  26.365  1.00  0.00     0.163 HD
BRANCH   4   7
ATOM      7  C   UNL A   1      33.548  24.053  25.322  1.00  0.00     0.098 C 
ATOM      8  N   UNL A   1      32.550  26.236  24.655  1.00  0.00    -0.340 N 
ATOM      9  C   UNL A   1      33.359  26.329  23.441  1.00  0.00     0.119 C 
ATOM     10  C   UNL A   1      33.107  25.453  25.743  1.00  0.00     0.133 C 
ATOM     11  C   UNL A   1      33.922  24.994  22.942  1.00  0.00     0.022 C 
ATOM     12  C   UNL A   1      34.375  24.034  24.039  1.00  0.00     0.017 C 
BRANCH   8  13
ATOM     13  C   UNL A   1      31.279  26.808  24.661  1.00  0.00     0.245 C 
ATOM     14  O   UNL A   1      30.283  26.134  24.371  1.00  0.00    -0.272 OA
BRANCH  13  15
ATOM     15  C   UNL A   1      31.113  28.341  24.934  1.00  0.00     0.176 C 
BRANCH  15  16
ATOM     16  C   UNL A   1      31.908  28.899  26.145  1.00  0.00     0.018 C 
ATOM     17  C   UNL A   1      31.422  28.286  27.471  1.00  0.00     0.010 C 
BRANCH  16  18
ATOM     18  C   UNL A   1      31.870  30.443  26.254  1.00  0.00     0.002 C 
ATOM     19  C   UNL A   1      32.994  30.983  27.139  1.00  0.00     0.004 C 
ENDBRANCH  16  18
ENDBRANCH  15  16
BRANCH  15  20
ATOM     20  N   UNL A   1      31.446  29.054  23.689  1.00  0.00    -0.326 N 
ATOM     21  C   UNL A   1      30.515  29.294  22.720  1.00  0.00     0.312 C 
ATOM     22  H   UNL A   1      32.370  29.367  23.552  1.00  0.00     0.166 HD
ATOM     23  N   UNL A   1      30.994  30.049  21.705  1.00  0.00    -0.352 N 
ATOM     24  O   UNL A   1      29.377  28.864  22.686  1.00  0.00    -0.249 OA
ATOM     25  H   UNL A   1      31.915  30.394  21.740  1.00  0.00     0.161 HD
ATOM     26  H   UNL A   1      30.421  30.254  20.931  1.00  0.00     0.161 HD
ENDBRANCH  15  20
ENDBRANCH  13  15
ENDBRANCH   8  13
ENDBRANCH   4   7
ENDBRANCH   2   3
ENDBRANCH   1   2
BRANCH   1  27
ATOM     27  C   UNL A   1      36.165  21.040  25.402  1.00  0.00     0.002 C 
BRANCH  27  28
ATOM     28  C   UNL A   1      37.103  20.406  24.363  1.00  0.00     0.002 C 
BRANCH  28  29
ATOM     29  C   UNL A   1      38.092  19.363  24.893  1.00  0.00     0.021 C 
BRANCH  29  30
ATOM     30  C   UNL A   1      39.103  19.881  25.911  1.00  0.00     0.116 C 
BRANCH  30  31
ATOM     31  N   UNL A   1      40.366  19.161  25.845  1.00  0.00    -0.352 N 
ATOM     32  C   UNL A   1      41.652  19.608  25.993  1.00  0.00     0.251 C 
ATOM     33  H   UNL A   1      40.282  18.196  25.667  1.00  0.00     0.163 HD
ATOM     34  O   UNL A   1      42.590  18.877  25.686  1.00  0.00    -0.269 OA
BRANCH  32  35
ATOM     35  C   UNL A   1      41.921  20.962  26.517  1.00  0.00     0.039 A 
ATOM     36  C   UNL A   1      41.885  21.164  27.899  1.00  0.00     0.014 A 
ATOM     37  C   UNL A   1      42.153  22.040  25.658  1.00  0.00     0.014 A 
ATOM     38  C   UNL A   1      42.123  22.436  28.420  1.00  0.00     0.010 A 
ATOM     39  C   UNL A   1      42.466  23.292  26.182  1.00  0.00     0.010 A 
ATOM     40  C   UNL A   1      42.440  23.507  27.568  1.00  0.00    -0.014 A 
BRANCH  40  41
ATOM     41  C   UNL A   1      42.740  24.852  28.119  1.00  0.00     0.031 A 
ATOM     42  C   UNL A   1      44.141  25.205  28.540  1.00  0.00     0.074 A 
ATOM     43  C   UNL A   1      41.740  25.741  28.273  1.00  0.00     0.049 A 
ATOM     44  N   UNL A   1      44.589  26.318  29.064  1.00  0.00    -0.248 NA
ATOM     45  C   UNL A   1      45.171  24.167  28.374  1.00  0.00     0.031 C 
ATOM     46  C   UNL A   1      40.333  25.498  27.949  1.00  0.00     0.029 A 
ATOM     47  N   UNL A   1      41.752  27.029  28.747  1.00  0.00    -0.354 N 
ATOM     48  C   UNL A   1      45.942  26.109  29.300  1.00  0.00     0.074 A 
ATOM     49  C   UNL A   1      46.234  24.748  28.909  1.00  0.00     0.031 C 
ATOM     50  C   UNL A   1      39.622  26.606  28.210  1.00  0.00     0.029 A 
ATOM     51  C   UNL A   1      40.513  27.624  28.757  1.00  0.00     0.049 A 
ATOM     52  H   UNL A   1      42.570  27.485  29.051  1.00  0.00     0.167 HD
ATOM     53  C   UNL A   1      46.861  26.982  29.778  1.00  0.00     0.037 A 
ATOM     54  C   UNL A   1      40.137  28.849  29.170  1.00  0.00     0.037 A 
ATOM     55  C   UNL A   1      46.570  28.344  30.139  1.00  0.00     0.049 A 
ATOM     56  C   UNL A   1      41.180  29.795  29.700  1.00  0.00     0.074 A 
ATOM     57  C   UNL A   1      47.446  29.326  30.567  1.00  0.00     0.029 A 
ATOM     58  N   UNL A   1      45.306  28.915  30.118  1.00  0.00    -0.354 N 
ATOM     59  N   UNL A   1      42.472  29.611  29.836  1.00  0.00    -0.248 NA
ATOM     60  C   UNL A   1      40.717  31.124  30.125  1.00  0.00     0.031 C 
ATOM     61  C   UNL A   1      46.704  30.475  30.859  1.00  0.00     0.029 A 
ATOM     62  C   UNL A   1      45.376  30.227  30.554  1.00  0.00     0.049 A 
ATOM     63  H   UNL A   1      44.483  28.455  29.836  1.00  0.00     0.167 HD
ATOM     64  C   UNL A   1      42.977  30.806  30.330  1.00  0.00     0.074 A 
ATOM     65  C   UNL A   1      41.857  31.715  30.451  1.00  0.00     0.031 C 
ATOM     66  C   UNL A   1      44.253  31.124  30.656  1.00  0.00     0.037 A 
BRANCH  53  67
ATOM     67  C   UNL A   1      48.274  26.499  29.935  1.00  0.00     0.057 A 
ATOM     68  C   UNL A   1      48.717  25.878  31.110  1.00  0.00     0.134 A 
ATOM     69  C   UNL A   1      49.180  26.585  28.870  1.00  0.00     0.134 A 
ATOM     70  F   UNL A   1      47.904  25.771  32.171  1.00  0.00    -0.206 F 
ATOM     71  C   UNL A   1      50.015  25.376  31.226  1.00  0.00     0.040 A 
ATOM     72  C   UNL A   1      50.471  26.063  28.964  1.00  0.00     0.040 A 
ATOM     73  F   UNL A   1      48.818  27.161  27.713  1.00  0.00    -0.206 F 
ATOM     74  C   UNL A   1      50.892  25.457  30.146  1.00  0.00     0.006 A 
ENDBRANCH  53  67
BRANCH  54  75
ATOM     75  C   UNL A   1      38.711  29.262  29.100  1.00  0.00     0.057 A 
ATOM     76  C   UNL A   1      37.880  29.205  30.226  1.00  0.00     0.134 A 
ATOM     77  C   UNL A   1      38.132  29.686  27.897  1.00  0.00     0.134 A 
ATOM     78  F   UNL A   1      38.368  28.790  31.404  1.00  0.00    -0.206 F 
ATOM     79  C   UNL A   1      36.522  29.518  30.151  1.00  0.00     0.040 A 
ATOM     80  C   UNL A   1      36.784  30.033  27.814  1.00  0.00     0.040 A 
ATOM     81  F   UNL A   1      38.873  29.770  26.781  1.00  0.00    -0.206 F 
ATOM     82  C   UNL A   1      35.971  29.937  28.941  1.00  0.00     0.006 A 
ENDBRANCH  54  75
BRANCH  66  83
ATOM     83  C   UNL A   1      44.515  32.523  31.132  1.00  0.00     0.057 A 
ATOM     84  C   UNL A   1      44.773  33.574  30.243  1.00  0.00     0.134 A 
ATOM     85  C   UNL A   1      44.470  32.829  32.499  1.00  0.00     0.134 A 
ATOM     86  F   UNL A   1      44.842  33.347  28.923  1.00  0.00    -0.206 F 
ATOM     87  C   UNL A   1      45.003  34.873  30.698  1.00  0.00     0.040 A 
ATOM     88  C   UNL A   1      44.666  34.130  32.963  1.00  0.00     0.040 A 
ATOM     89  F   UNL A   1      44.217  31.871  33.404  1.00  0.00    -0.206 F 
ATOM     90  C   UNL A   1      44.941  35.155  32.061  1.00  0.00     0.006 A 
ENDBRANCH  66  83
ENDBRANCH  40  41
ENDBRANCH  32  35
ENDBRANCH  30  31
ENDBRANCH  29  30
ENDBRANCH  28  29
ENDBRANCH  27  28
ENDBRANCH   1  27
TORSDOF 18
ENDMDL
