MODEL 1
REMARK VINA RESULT:     -11.8      0.000      0.000
REMARK SMILES CC1=C2C(=O)CC(C)(C)CC2=N[C@@H]1C(=O)NCCCCCCNC(=O)c1ccc(-c2c3nc(c(-c4c(F)cccc4F)c4ccc([nH]4)c(-c4c(F)cccc4F)c4nc(c(-c5c(F)cccc5F)c5ccc2[nH]5)C=C4)C=C3)cc1
REMARK SMILES IDX 20 1 19 2 18 3 17 4 16 5 14 6 15 7 13 9 1 10 2 11 3 12 4 13
REMARK SMILES IDX 11 14 12 15 5 16 6 17 10 18 7 19 8 20 9 21 21 22 22 23 23 24
REMARK SMILES IDX 24 25 25 27 26 28 27 29 79 30 28 31 78 32 29 33 30 34 31 35
REMARK SMILES IDX 72 36 32 37 77 38 71 39 73 40 33 41 76 42 70 43 69 44 34 46
REMARK SMILES IDX 60 47 43 48 59 49 44 50 47 51 58 52 74 53 45 54 46 55 57 57
REMARK SMILES IDX 75 58 48 59 35 60 36 61 41 62 37 63 38 64 40 65 42 66 39 67
REMARK SMILES IDX 61 68 62 69 67 70 63 71 64 72 66 73 68 74 65 75 49 76 50 77
REMARK SMILES IDX 55 78 51 79 52 80 54 81 56 82 53 83
REMARK H PARENT 16 8 23 26 73 45 47 56
REMARK Flexibility Score: inf
ROOT
ATOM      1  C   UNL A   1      41.605  21.299  27.687  1.00  0.00     0.002 C 
ENDROOT
BRANCH   1   2
ATOM      2  C   UNL A   1      40.871  22.149  26.633  1.00  0.00     0.002 C 
BRANCH   2   3
ATOM      3  C   UNL A   1      39.380  21.858  26.461  1.00  0.00     0.021 C 
BRANCH   3   4
ATOM      4  C   UNL A   1      38.559  23.081  26.060  1.00  0.00     0.116 C 
BRANCH   4   5
ATOM      5  N   UNL A   1      37.811  22.948  24.834  1.00  0.00    -0.354 N 
ATOM      6  C   UNL A   1      36.582  23.459  24.511  1.00  0.00     0.249 C 
ATOM      7  O   UNL A   1      36.288  23.474  23.309  1.00  0.00    -0.272 OA
ATOM      8  H   UNL A   1      38.244  22.412  24.131  1.00  0.00     0.163 HD
BRANCH   6   9
ATOM      9  C   UNL A   1      35.591  24.053  25.565  1.00  0.00     0.221 C 
ATOM     10  C   UNL A   1      34.881  21.660  26.407  1.00  0.00     0.043 C 
ATOM     11  C   UNL A   1      34.587  23.101  26.175  1.00  0.00    -0.027 C 
ATOM     12  C   UNL A   1      33.389  23.688  26.282  1.00  0.00     0.040 C 
ATOM     13  C   UNL A   1      32.037  23.258  26.702  1.00  0.00     0.165 C 
ATOM     14  C   UNL A   1      33.552  24.702  25.248  1.00  0.00     0.048 C 
ATOM     15  N   UNL A   1      34.745  25.120  24.944  1.00  0.00    -0.271 NA
ATOM     16  O   UNL A   1      31.820  22.920  27.861  1.00  0.00    -0.294 OA
ATOM     17  C   UNL A   1      30.921  23.361  25.657  1.00  0.00     0.088 C 
ATOM     18  C   UNL A   1      32.349  24.989  24.401  1.00  0.00     0.063 C 
ATOM     19  C   UNL A   1      31.477  23.692  24.251  1.00  0.00    -0.023 C 
ATOM     20  C   UNL A   1      32.159  22.395  23.723  1.00  0.00     0.012 C 
ATOM     21  C   UNL A   1      30.380  24.004  23.218  1.00  0.00     0.012 C 
ENDBRANCH   6   9
ENDBRANCH   4   5
ENDBRANCH   3   4
ENDBRANCH   2   3
ENDBRANCH   1   2
BRANCH   1  22
ATOM     22  C   UNL A   1      42.297  20.018  27.193  1.00  0.00     0.021 C 
BRANCH  22  23
ATOM     23  C   UNL A   1      42.333  19.895  25.679  1.00  0.00     0.116 C 
BRANCH  23  24
ATOM     24  N   UNL A   1      43.686  19.652  25.174  1.00  0.00    -0.352 N 
ATOM     25  C   UNL A   1      44.651  20.565  24.789  1.00  0.00     0.251 C 
ATOM     26  H   UNL A   1      43.946  18.706  25.097  1.00  0.00     0.163 HD
ATOM     27  O   UNL A   1      45.589  20.233  24.083  1.00  0.00    -0.269 OA
BRANCH  25  28
ATOM     28  C   UNL A   1      44.525  21.955  25.257  1.00  0.00     0.039 A 
ATOM     29  C   UNL A   1      43.718  22.884  24.592  1.00  0.00     0.014 A 
ATOM     30  C   UNL A   1      45.214  22.309  26.410  1.00  0.00     0.014 A 
ATOM     31  C   UNL A   1      43.557  24.147  25.153  1.00  0.00     0.010 A 
ATOM     32  C   UNL A   1      44.895  23.466  27.061  1.00  0.00     0.010 A 
ATOM     33  C   UNL A   1      44.135  24.423  26.403  1.00  0.00    -0.014 A 
BRANCH  33  34
ATOM     34  C   UNL A   1      43.877  25.673  27.102  1.00  0.00     0.031 A 
ATOM     35  C   UNL A   1      44.834  26.761  26.774  1.00  0.00     0.074 A 
ATOM     36  C   UNL A   1      42.744  25.897  27.806  1.00  0.00     0.049 A 
ATOM     37  N   UNL A   1      45.713  27.296  27.553  1.00  0.00    -0.248 NA
ATOM     38  C   UNL A   1      44.935  27.205  25.372  1.00  0.00     0.031 C 
ATOM     39  C   UNL A   1      41.569  25.027  27.956  1.00  0.00     0.029 A 
ATOM     40  N   UNL A   1      42.358  27.020  28.468  1.00  0.00    -0.354 N 
ATOM     41  C   UNL A   1      46.325  28.300  26.808  1.00  0.00     0.074 A 
ATOM     42  C   UNL A   1      45.952  28.067  25.438  1.00  0.00     0.031 C 
ATOM     43  C   UNL A   1      40.531  25.739  28.448  1.00  0.00     0.029 A 
ATOM     44  C   UNL A   1      41.013  27.055  28.821  1.00  0.00     0.049 A 
ATOM     45  H   UNL A   1      42.983  27.751  28.682  1.00  0.00     0.167 HD
ATOM     46  C   UNL A   1      46.867  29.388  27.423  1.00  0.00     0.037 A 
ATOM     47  C   UNL A   1      40.345  28.103  29.366  1.00  0.00     0.037 A 
ATOM     48  C   UNL A   1      47.064  29.137  28.832  1.00  0.00     0.049 A 
ATOM     49  C   UNL A   1      41.364  29.011  29.949  1.00  0.00     0.074 A 
ATOM     50  C   UNL A   1      47.776  28.207  29.564  1.00  0.00     0.029 A 
ATOM     51  N   UNL A   1      46.152  29.674  29.707  1.00  0.00    -0.354 N 
ATOM     52  N   UNL A   1      42.092  28.707  30.985  1.00  0.00    -0.248 NA
ATOM     53  C   UNL A   1      41.900  30.055  29.090  1.00  0.00     0.031 C 
ATOM     54  C   UNL A   1      46.931  27.883  30.668  1.00  0.00     0.029 A 
ATOM     55  C   UNL A   1      45.795  28.688  30.590  1.00  0.00     0.049 A 
ATOM     56  H   UNL A   1      45.815  30.599  29.701  1.00  0.00     0.167 HD
ATOM     57  C   UNL A   1      43.358  29.179  30.673  1.00  0.00     0.074 A 
ATOM     58  C   UNL A   1      43.160  30.072  29.532  1.00  0.00     0.031 C 
ATOM     59  C   UNL A   1      44.478  28.575  31.172  1.00  0.00     0.037 A 
BRANCH  46  60
ATOM     60  C   UNL A   1      46.834  30.789  26.858  1.00  0.00     0.057 A 
ATOM     61  C   UNL A   1      48.009  31.562  26.891  1.00  0.00     0.134 A 
ATOM     62  C   UNL A   1      45.656  31.510  26.574  1.00  0.00     0.134 A 
ATOM     63  F   UNL A   1      49.198  30.998  27.153  1.00  0.00    -0.206 F 
ATOM     64  C   UNL A   1      47.998  32.955  26.748  1.00  0.00     0.040 A 
ATOM     65  C   UNL A   1      45.641  32.894  26.379  1.00  0.00     0.040 A 
ATOM     66  F   UNL A   1      44.444  30.944  26.568  1.00  0.00    -0.206 F 
ATOM     67  C   UNL A   1      46.808  33.627  26.502  1.00  0.00     0.006 A 
ENDBRANCH  46  60
BRANCH  47  68
ATOM     68  C   UNL A   1      38.942  28.529  29.162  1.00  0.00     0.057 A 
ATOM     69  C   UNL A   1      38.041  28.582  30.238  1.00  0.00     0.134 A 
ATOM     70  C   UNL A   1      38.534  29.176  27.984  1.00  0.00     0.134 A 
ATOM     71  F   UNL A   1      38.355  28.025  31.416  1.00  0.00    -0.206 F 
ATOM     72  C   UNL A   1      36.825  29.275  30.160  1.00  0.00     0.040 A 
ATOM     73  C   UNL A   1      37.319  29.867  27.891  1.00  0.00     0.040 A 
ATOM     74  F   UNL A   1      39.340  29.243  26.915  1.00  0.00    -0.206 F 
ATOM     75  C   UNL A   1      36.468  29.934  28.988  1.00  0.00     0.006 A 
ENDBRANCH  47  68
BRANCH  59  76
ATOM     76  C   UNL A   1      44.294  27.548  32.260  1.00  0.00     0.057 A 
ATOM     77  C   UNL A   1      44.187  26.165  32.040  1.00  0.00     0.134 A 
ATOM     78  C   UNL A   1      44.359  27.967  33.592  1.00  0.00     0.134 A 
ATOM     79  F   UNL A   1      44.218  25.653  30.805  1.00  0.00    -0.206 F 
ATOM     80  C   UNL A   1      44.097  25.251  33.096  1.00  0.00     0.040 A 
ATOM     81  C   UNL A   1      44.305  27.061  34.657  1.00  0.00     0.040 A 
ATOM     82  F   UNL A   1      44.518  29.267  33.885  1.00  0.00    -0.206 F 
ATOM     83  C   UNL A   1      44.160  25.699  34.410  1.00  0.00     0.006 A 
ENDBRANCH  59  76
ENDBRANCH  33  34
ENDBRANCH  25  28
ENDBRANCH  23  24
ENDBRANCH  22  23
ENDBRANCH   1  22
TORSDOF 13
ENDMDL
MODEL 2
REMARK VINA RESULT:     -11.4      4.480      9.908
REMARK SMILES CC1=C2C(=O)CC(C)(C)CC2=N[C@@H]1C(=O)NCCCCCCNC(=O)c1ccc(-c2c3nc(c(-c4c(F)cccc4F)c4ccc([nH]4)c(-c4c(F)cccc4F)c4nc(c(-c5c(F)cccc5F)c5ccc2[nH]5)C=C4)C=C3)cc1
REMARK SMILES IDX 20 1 19 2 18 3 17 4 16 5 14 6 15 7 13 9 1 10 2 11 3 12 4 13
REMARK SMILES IDX 11 14 12 15 5 16 6 17 10 18 7 19 8 20 9 21 21 22 22 23 23 24
REMARK SMILES IDX 24 25 25 27 26 28 27 29 79 30 28 31 78 32 29 33 30 34 31 35
REMARK SMILES IDX 72 36 32 37 77 38 71 39 73 40 33 41 76 42 70 43 69 44 34 46
REMARK SMILES IDX 60 47 43 48 59 49 44 50 47 51 58 52 74 53 45 54 46 55 57 57
REMARK SMILES IDX 75 58 48 59 35 60 36 61 41 62 37 63 38 64 40 65 42 66 39 67
REMARK SMILES IDX 61 68 62 69 67 70 63 71 64 72 66 73 68 74 65 75 49 76 50 77
REMARK SMILES IDX 55 78 51 79 52 80 54 81 56 82 53 83
REMARK H PARENT 16 8 23 26 73 45 47 56
REMARK Flexibility Score: inf
ROOT
ATOM      1  C   UNL A   1      34.395  34.499  27.990  1.00  0.00     0.002 C 
ENDROOT
BRANCH   1   2
ATOM      2  C   UNL A   1      34.882  33.038  27.978  1.00  0.00     0.002 C 
BRANCH   2   3
ATOM      3  C   UNL A   1      33.837  31.983  28.345  1.00  0.00     0.021 C 
BRANCH   3   4
ATOM      4  C   UNL A   1      33.889  30.738  27.463  1.00  0.00     0.116 C 
BRANCH   4   5
ATOM      5  N   UNL A   1      32.771  29.837  27.600  1.00  0.00    -0.354 N 
ATOM      6  C   UNL A   1      32.643  28.545  27.163  1.00  0.00     0.249 C 
ATOM      7  O   UNL A   1      31.727  27.881  27.665  1.00  0.00    -0.272 OA
ATOM      8  H   UNL A   1      31.990  30.203  28.073  1.00  0.00     0.163 HD
BRANCH   6   9
ATOM      9  C   UNL A   1      33.611  27.885  26.128  1.00  0.00     0.221 C 
ATOM     10  C   UNL A   1      32.667  29.348  24.150  1.00  0.00     0.043 C 
ATOM     11  C   UNL A   1      33.300  28.102  24.664  1.00  0.00    -0.027 C 
ATOM     12  C   UNL A   1      33.492  26.972  23.971  1.00  0.00     0.040 C 
ATOM     13  C   UNL A   1      33.280  26.543  22.572  1.00  0.00     0.165 C 
ATOM     14  C   UNL A   1      33.342  26.020  25.065  1.00  0.00     0.048 C 
ATOM     15  N   UNL A   1      33.605  26.397  26.281  1.00  0.00    -0.271 NA
ATOM     16  O   UNL A   1      33.923  27.048  21.658  1.00  0.00    -0.294 OA
ATOM     17  C   UNL A   1      32.308  25.379  22.342  1.00  0.00     0.088 C 
ATOM     18  C   UNL A   1      32.617  24.748  24.745  1.00  0.00     0.063 C 
ATOM     19  C   UNL A   1      31.539  25.009  23.634  1.00  0.00    -0.023 C 
ATOM     20  C   UNL A   1      30.489  26.134  23.868  1.00  0.00     0.012 C 
ATOM     21  C   UNL A   1      30.708  23.721  23.501  1.00  0.00     0.012 C 
ENDBRANCH   6   9
ENDBRANCH   4   5
ENDBRANCH   3   4
ENDBRANCH   2   3
ENDBRANCH   1   2
BRANCH   1  22
ATOM     22  C   UNL A   1      33.199  34.829  28.898  1.00  0.00     0.021 C 
BRANCH  22  23
ATOM     23  C   UNL A   1      33.338  36.158  29.623  1.00  0.00     0.116 C 
BRANCH  23  24
ATOM     24  N   UNL A   1      32.641  36.163  30.910  1.00  0.00    -0.352 N 
ATOM     25  C   UNL A   1      32.794  35.312  31.990  1.00  0.00     0.251 C 
ATOM     26  H   UNL A   1      31.967  36.872  31.024  1.00  0.00     0.163 HD
ATOM     27  O   UNL A   1      31.933  35.219  32.848  1.00  0.00    -0.269 OA
BRANCH  25  28
ATOM     28  C   UNL A   1      34.031  34.519  32.084  1.00  0.00     0.039 A 
ATOM     29  C   UNL A   1      34.028  33.131  31.925  1.00  0.00     0.014 A 
ATOM     30  C   UNL A   1      35.218  35.206  32.307  1.00  0.00     0.014 A 
ATOM     31  C   UNL A   1      35.246  32.459  31.914  1.00  0.00     0.010 A 
ATOM     32  C   UNL A   1      36.413  34.581  32.093  1.00  0.00     0.010 A 
ATOM     33  C   UNL A   1      36.439  33.198  31.979  1.00  0.00    -0.014 A 
BRANCH  33  34
ATOM     34  C   UNL A   1      37.739  32.561  31.824  1.00  0.00     0.031 A 
ATOM     35  C   UNL A   1      38.512  32.445  33.088  1.00  0.00     0.074 A 
ATOM     36  C   UNL A   1      38.113  31.929  30.689  1.00  0.00     0.049 A 
ATOM     37  N   UNL A   1      39.606  33.055  33.398  1.00  0.00    -0.248 NA
ATOM     38  C   UNL A   1      37.923  31.681  34.201  1.00  0.00     0.031 C 
ATOM     39  C   UNL A   1      37.328  31.691  29.469  1.00  0.00     0.029 A 
ATOM     40  N   UNL A   1      39.269  31.264  30.423  1.00  0.00    -0.354 N 
ATOM     41  C   UNL A   1      39.967  32.580  34.655  1.00  0.00     0.074 A 
ATOM     42  C   UNL A   1      38.809  31.901  35.175  1.00  0.00     0.031 C 
ATOM     43  C   UNL A   1      37.933  30.749  28.712  1.00  0.00     0.029 A 
ATOM     44  C   UNL A   1      39.228  30.453  29.293  1.00  0.00     0.049 A 
ATOM     45  H   UNL A   1      40.072  31.350  30.986  1.00  0.00     0.167 HD
ATOM     46  C   UNL A   1      41.273  32.560  35.041  1.00  0.00     0.037 A 
ATOM     47  C   UNL A   1      40.189  29.589  28.880  1.00  0.00     0.037 A 
ATOM     48  C   UNL A   1      42.071  33.420  34.199  1.00  0.00     0.049 A 
ATOM     49  C   UNL A   1      41.451  29.994  29.547  1.00  0.00     0.074 A 
ATOM     50  C   UNL A   1      42.050  34.765  33.883  1.00  0.00     0.029 A 
ATOM     51  N   UNL A   1      42.832  32.824  33.222  1.00  0.00    -0.354 N 
ATOM     52  N   UNL A   1      42.084  31.103  29.282  1.00  0.00    -0.248 NA
ATOM     53  C   UNL A   1      41.748  29.397  30.839  1.00  0.00     0.031 C 
ATOM     54  C   UNL A   1      42.362  34.820  32.491  1.00  0.00     0.029 A 
ATOM     55  C   UNL A   1      42.632  33.522  32.059  1.00  0.00     0.049 A 
ATOM     56  H   UNL A   1      43.414  32.038  33.337  1.00  0.00     0.167 HD
ATOM     57  C   UNL A   1      42.496  31.574  30.519  1.00  0.00     0.074 A 
ATOM     58  C   UNL A   1      42.334  30.441  31.430  1.00  0.00     0.031 C 
ATOM     59  C   UNL A   1      42.644  32.913  30.749  1.00  0.00     0.037 A 
BRANCH  46  60
ATOM     60  C   UNL A   1      41.893  31.475  35.891  1.00  0.00     0.057 A 
ATOM     61  C   UNL A   1      42.747  31.844  36.946  1.00  0.00     0.134 A 
ATOM     62  C   UNL A   1      41.939  30.110  35.539  1.00  0.00     0.134 A 
ATOM     63  F   UNL A   1      42.802  33.114  37.377  1.00  0.00    -0.206 F 
ATOM     64  C   UNL A   1      43.645  30.946  37.538  1.00  0.00     0.040 A 
ATOM     65  C   UNL A   1      42.794  29.194  36.157  1.00  0.00     0.040 A 
ATOM     66  F   UNL A   1      41.241  29.602  34.517  1.00  0.00    -0.206 F 
ATOM     67  C   UNL A   1      43.677  29.617  37.135  1.00  0.00     0.006 A 
ENDBRANCH  46  60
BRANCH  47  68
ATOM     68  C   UNL A   1      40.046  28.280  28.204  1.00  0.00     0.057 A 
ATOM     69  C   UNL A   1      40.693  28.023  26.985  1.00  0.00     0.134 A 
ATOM     70  C   UNL A   1      39.528  27.160  28.875  1.00  0.00     0.134 A 
ATOM     71  F   UNL A   1      41.251  29.023  26.287  1.00  0.00    -0.206 F 
ATOM     72  C   UNL A   1      40.852  26.724  26.484  1.00  0.00     0.040 A 
ATOM     73  C   UNL A   1      39.676  25.857  28.382  1.00  0.00     0.040 A 
ATOM     74  F   UNL A   1      38.946  27.279  30.077  1.00  0.00    -0.206 F 
ATOM     75  C   UNL A   1      40.356  25.634  27.191  1.00  0.00     0.006 A 
ENDBRANCH  47  68
BRANCH  59  76
ATOM     76  C   UNL A   1      42.590  33.838  29.561  1.00  0.00     0.057 A 
ATOM     77  C   UNL A   1      41.465  34.589  29.187  1.00  0.00     0.134 A 
ATOM     78  C   UNL A   1      43.767  34.075  28.845  1.00  0.00     0.134 A 
ATOM     79  F   UNL A   1      40.317  34.511  29.871  1.00  0.00    -0.206 F 
ATOM     80  C   UNL A   1      41.497  35.493  28.119  1.00  0.00     0.040 A 
ATOM     81  C   UNL A   1      43.823  35.001  27.798  1.00  0.00     0.040 A 
ATOM     82  F   UNL A   1      44.901  33.439  29.177  1.00  0.00    -0.206 F 
ATOM     83  C   UNL A   1      42.681  35.703  27.424  1.00  0.00     0.006 A 
ENDBRANCH  59  76
ENDBRANCH  33  34
ENDBRANCH  25  28
ENDBRANCH  23  24
ENDBRANCH  22  23
ENDBRANCH   1  22
TORSDOF 13
ENDMDL
MODEL 3
REMARK VINA RESULT:     -11.2      1.450      1.992
REMARK SMILES CC1=C2C(=O)CC(C)(C)CC2=N[C@@H]1C(=O)NCCCCCCNC(=O)c1ccc(-c2c3nc(c(-c4c(F)cccc4F)c4ccc([nH]4)c(-c4c(F)cccc4F)c4nc(c(-c5c(F)cccc5F)c5ccc2[nH]5)C=C4)C=C3)cc1
REMARK SMILES IDX 20 1 19 2 18 3 17 4 16 5 14 6 15 7 13 9 1 10 2 11 3 12 4 13
REMARK SMILES IDX 11 14 12 15 5 16 6 17 10 18 7 19 8 20 9 21 21 22 22 23 23 24
REMARK SMILES IDX 24 25 25 27 26 28 27 29 79 30 28 31 78 32 29 33 30 34 31 35
REMARK SMILES IDX 72 36 32 37 77 38 71 39 73 40 33 41 76 42 70 43 69 44 34 46
REMARK SMILES IDX 60 47 43 48 59 49 44 50 47 51 58 52 74 53 45 54 46 55 57 57
REMARK SMILES IDX 75 58 48 59 35 60 36 61 41 62 37 63 38 64 40 65 42 66 39 67
REMARK SMILES IDX 61 68 62 69 67 70 63 71 64 72 66 73 68 74 65 75 49 76 50 77
REMARK SMILES IDX 55 78 51 79 52 80 54 81 56 82 53 83
REMARK H PARENT 16 8 23 26 73 45 47 56
REMARK Flexibility Score: inf
ROOT
ATOM      1  C   UNL A   1      40.116  21.564  26.496  1.00  0.00     0.002 C 
ENDROOT
BRANCH   1   2
ATOM      2  C   UNL A   1      38.751  21.877  25.854  1.00  0.00     0.002 C 
BRANCH   2   3
ATOM      3  C   UNL A   1      38.158  23.248  26.183  1.00  0.00     0.021 C 
BRANCH   3   4
ATOM      4  C   UNL A   1      36.931  23.601  25.346  1.00  0.00     0.116 C 
BRANCH   4   5
ATOM      5  N   UNL A   1      35.674  23.584  26.054  1.00  0.00    -0.354 N 
ATOM      6  C   UNL A   1      34.478  24.152  25.706  1.00  0.00     0.249 C 
ATOM      7  O   UNL A   1      33.477  23.743  26.308  1.00  0.00    -0.272 OA
ATOM      8  H   UNL A   1      35.678  23.096  26.908  1.00  0.00     0.163 HD
BRANCH   6   9
ATOM      9  C   UNL A   1      34.328  25.224  24.578  1.00  0.00     0.221 C 
ATOM     10  C   UNL A   1      34.169  27.194  26.321  1.00  0.00     0.043 C 
ATOM     11  C   UNL A   1      33.848  26.596  24.995  1.00  0.00    -0.027 C 
ATOM     12  C   UNL A   1      32.969  27.076  24.107  1.00  0.00     0.040 C 
ATOM     13  C   UNL A   1      32.116  28.280  24.012  1.00  0.00     0.165 C 
ATOM     14  C   UNL A   1      32.523  25.810  23.538  1.00  0.00     0.048 C 
ATOM     15  N   UNL A   1      33.318  24.781  23.566  1.00  0.00    -0.271 NA
ATOM     16  O   UNL A   1      32.616  29.396  23.910  1.00  0.00    -0.294 OA
ATOM     17  C   UNL A   1      30.601  28.054  23.939  1.00  0.00     0.088 C 
ATOM     18  C   UNL A   1      31.064  25.702  23.214  1.00  0.00     0.063 C 
ATOM     19  C   UNL A   1      30.226  26.577  24.214  1.00  0.00    -0.023 C 
ATOM     20  C   UNL A   1      30.415  26.344  25.741  1.00  0.00     0.012 C 
ATOM     21  C   UNL A   1      28.743  26.264  23.951  1.00  0.00     0.012 C 
ENDBRANCH   6   9
ENDBRANCH   4   5
ENDBRANCH   3   4
ENDBRANCH   2   3
ENDBRANCH   1   2
BRANCH   1  22
ATOM     22  C   UNL A   1      40.683  20.152  26.277  1.00  0.00     0.021 C 
BRANCH  22  23
ATOM     23  C   UNL A   1      41.997  19.909  27.002  1.00  0.00     0.116 C 
BRANCH  23  24
ATOM     24  N   UNL A   1      43.111  19.697  26.074  1.00  0.00    -0.352 N 
ATOM     25  C   UNL A   1      43.819  20.626  25.334  1.00  0.00     0.251 C 
ATOM     26  H   UNL A   1      43.394  18.761  25.961  1.00  0.00     0.163 HD
ATOM     27  O   UNL A   1      44.481  20.291  24.366  1.00  0.00    -0.269 OA
BRANCH  25  28
ATOM     28  C   UNL A   1      43.763  22.038  25.746  1.00  0.00     0.039 A 
ATOM     29  C   UNL A   1      43.068  22.994  24.999  1.00  0.00     0.014 A 
ATOM     30  C   UNL A   1      44.401  22.387  26.931  1.00  0.00     0.014 A 
ATOM     31  C   UNL A   1      42.962  24.286  25.506  1.00  0.00     0.010 A 
ATOM     32  C   UNL A   1      44.124  23.587  27.520  1.00  0.00     0.010 A 
ATOM     33  C   UNL A   1      43.477  24.568  26.782  1.00  0.00    -0.014 A 
BRANCH  33  34
ATOM     34  C   UNL A   1      43.265  25.859  27.421  1.00  0.00     0.031 A 
ATOM     35  C   UNL A   1      44.245  26.902  27.022  1.00  0.00     0.074 A 
ATOM     36  C   UNL A   1      42.151  26.149  28.130  1.00  0.00     0.049 A 
ATOM     37  N   UNL A   1      45.151  27.451  27.759  1.00  0.00    -0.248 NA
ATOM     38  C   UNL A   1      44.333  27.272  25.598  1.00  0.00     0.031 C 
ATOM     39  C   UNL A   1      40.955  25.321  28.343  1.00  0.00     0.029 A 
ATOM     40  N   UNL A   1      41.806  27.314  28.741  1.00  0.00    -0.354 N 
ATOM     41  C   UNL A   1      45.777  28.399  26.955  1.00  0.00     0.074 A 
ATOM     42  C   UNL A   1      45.374  28.108  25.604  1.00  0.00     0.031 C 
ATOM     43  C   UNL A   1      39.946  26.085  28.815  1.00  0.00     0.029 A 
ATOM     44  C   UNL A   1      40.469  27.404  29.113  1.00  0.00     0.049 A 
ATOM     45  H   UNL A   1      42.454  28.038  28.907  1.00  0.00     0.167 HD
ATOM     46  C   UNL A   1      46.358  29.501  27.504  1.00  0.00     0.037 A 
ATOM     47  C   UNL A   1      39.839  28.497  29.614  1.00  0.00     0.037 A 
ATOM     48  C   UNL A   1      46.573  29.316  28.920  1.00  0.00     0.049 A 
ATOM     49  C   UNL A   1      40.891  29.404  30.134  1.00  0.00     0.074 A 
ATOM     50  C   UNL A   1      47.272  28.405  29.688  1.00  0.00     0.029 A 
ATOM     51  N   UNL A   1      45.690  29.922  29.782  1.00  0.00    -0.354 N 
ATOM     52  N   UNL A   1      41.630  29.133  31.173  1.00  0.00    -0.248 NA
ATOM     53  C   UNL A   1      41.440  30.388  29.214  1.00  0.00     0.031 C 
ATOM     54  C   UNL A   1      46.438  28.161  30.821  1.00  0.00     0.029 A 
ATOM     55  C   UNL A   1      45.323  28.992  30.719  1.00  0.00     0.049 A 
ATOM     56  H   UNL A   1      45.379  30.855  29.734  1.00  0.00     0.167 HD
ATOM     57  C   UNL A   1      42.902  29.553  30.817  1.00  0.00     0.074 A 
ATOM     58  C   UNL A   1      42.708  30.393  29.635  1.00  0.00     0.031 C 
ATOM     59  C   UNL A   1      44.013  28.944  31.328  1.00  0.00     0.037 A 
BRANCH  46  60
ATOM     60  C   UNL A   1      46.352  30.873  26.870  1.00  0.00     0.057 A 
ATOM     61  C   UNL A   1      47.553  31.607  26.828  1.00  0.00     0.134 A 
ATOM     62  C   UNL A   1      45.190  31.618  26.583  1.00  0.00     0.134 A 
ATOM     63  F   UNL A   1      48.730  31.016  27.084  1.00  0.00    -0.206 F 
ATOM     64  C   UNL A   1      47.582  32.990  26.614  1.00  0.00     0.040 A 
ATOM     65  C   UNL A   1      45.214  32.990  26.318  1.00  0.00     0.040 A 
ATOM     66  F   UNL A   1      43.961  31.094  26.642  1.00  0.00    -0.206 F 
ATOM     67  C   UNL A   1      46.408  33.689  26.369  1.00  0.00     0.006 A 
ENDBRANCH  46  60
BRANCH  47  68
ATOM     68  C   UNL A   1      38.444  28.949  29.411  1.00  0.00     0.057 A 
ATOM     69  C   UNL A   1      37.554  29.050  30.493  1.00  0.00     0.134 A 
ATOM     70  C   UNL A   1      38.041  29.578  28.222  1.00  0.00     0.134 A 
ATOM     71  F   UNL A   1      37.865  28.513  31.682  1.00  0.00    -0.206 F 
ATOM     72  C   UNL A   1      36.354  29.769  30.408  1.00  0.00     0.040 A 
ATOM     73  C   UNL A   1      36.842  30.295  28.122  1.00  0.00     0.040 A 
ATOM     74  F   UNL A   1      38.840  29.600  27.145  1.00  0.00    -0.206 F 
ATOM     75  C   UNL A   1      36.002  30.408  29.223  1.00  0.00     0.006 A 
ENDBRANCH  47  68
BRANCH  59  76
ATOM     76  C   UNL A   1      43.821  27.979  32.469  1.00  0.00     0.057 A 
ATOM     77  C   UNL A   1      43.736  26.585  32.327  1.00  0.00     0.134 A 
ATOM     78  C   UNL A   1      43.856  28.474  33.776  1.00  0.00     0.134 A 
ATOM     79  F   UNL A   1      43.796  26.003  31.124  1.00  0.00    -0.206 F 
ATOM     80  C   UNL A   1      43.636  25.731  33.432  1.00  0.00     0.040 A 
ATOM     81  C   UNL A   1      43.792  27.631  34.889  1.00  0.00     0.040 A 
ATOM     82  F   UNL A   1      43.993  29.791  33.997  1.00  0.00    -0.206 F 
ATOM     83  C   UNL A   1      43.668  26.255  34.718  1.00  0.00     0.006 A 
ENDBRANCH  59  76
ENDBRANCH  33  34
ENDBRANCH  25  28
ENDBRANCH  23  24
ENDBRANCH  22  23
ENDBRANCH   1  22
TORSDOF 13
ENDMDL
