MODEL 1
REMARK VINA RESULT:     -11.6      0.000      0.000
REMARK SMILES COc1ccc2c(c1)C=C(C(=O)NCCCCCCNC(=O)c1ccc(-c3c4nc(c(-c5c(F)cccc5F)c5ccc([nH]5)c(-c5c(F)cccc5F)c5nc(c(-c6c(F)cccc6F)c6ccc3[nH]6)C=C5)C=C4)cc1)[C@H](C(F)(F)F)O2
REMARK SMILES IDX 17 1 16 2 15 3 14 4 13 5 11 6 12 7 10 9 3 10 4 11 8 12 5 13
REMARK SMILES IDX 7 14 6 15 9 16 82 17 77 18 2 19 1 20 78 21 79 22 80 23 81 24
REMARK SMILES IDX 18 25 19 26 20 27 21 28 22 30 23 31 24 32 76 33 25 34 75 35
REMARK SMILES IDX 26 36 27 37 28 38 69 39 29 40 74 41 68 42 70 43 30 44 73 45
REMARK SMILES IDX 67 46 66 47 31 49 57 50 40 51 56 52 41 53 44 54 55 55 71 56
REMARK SMILES IDX 42 57 43 58 54 60 72 61 45 62 32 63 33 64 38 65 34 66 35 67
REMARK SMILES IDX 37 68 39 69 36 70 58 71 59 72 64 73 60 74 61 75 63 76 65 77
REMARK SMILES IDX 62 78 46 79 47 80 52 81 48 82 49 83 51 84 53 85 50 86
REMARK H PARENT 13 8 20 29 70 48 44 59
REMARK Flexibility Score: inf
ROOT
ATOM      1  C   UNL A   1      37.443  21.351  24.544  1.00  0.00     0.002 C 
ENDROOT
BRANCH   1   2
ATOM      2  C   UNL A   1      37.527  22.303  25.743  1.00  0.00     0.002 C 
BRANCH   2   3
ATOM      3  C   UNL A   1      37.208  23.770  25.422  1.00  0.00     0.021 C 
BRANCH   3   4
ATOM      4  C   UNL A   1      35.753  23.991  24.989  1.00  0.00     0.116 C 
BRANCH   4   5
ATOM      5  N   UNL A   1      34.868  23.697  26.104  1.00  0.00    -0.352 N 
ATOM      6  C   UNL A   1      33.817  22.849  26.250  1.00  0.00     0.251 C 
ATOM      7  O   UNL A   1      33.107  22.974  27.244  1.00  0.00    -0.270 OA
ATOM      8  H   UNL A   1      35.071  24.217  26.915  1.00  0.00     0.163 HD
BRANCH   6   9
ATOM      9  C   UNL A   1      33.551  21.730  25.309  1.00  0.00     0.067 C 
ATOM     10  C   UNL A   1      33.759  17.123  23.895  1.00  0.00     0.119 A 
ATOM     11  C   UNL A   1      32.807  17.370  22.908  1.00  0.00     0.050 A 
ATOM     12  C   UNL A   1      34.202  18.155  24.721  1.00  0.00     0.058 A 
ATOM     13  C   UNL A   1      32.310  18.664  22.739  1.00  0.00     0.051 A 
ATOM     14  C   UNL A   1      33.710  19.453  24.546  1.00  0.00     0.021 A 
ATOM     15  C   UNL A   1      32.760  19.701  23.560  1.00  0.00     0.128 A 
ATOM     16  C   UNL A   1      34.103  20.518  25.454  1.00  0.00     0.025 C 
ATOM     17  O   UNL A   1      32.164  20.913  23.386  1.00  0.00    -0.475 OA
ATOM     18  C   UNL A   1      32.729  22.072  24.067  1.00  0.00     0.314 C 
BRANCH  10  19
ATOM     19  O   UNL A   1      34.221  15.866  24.177  1.00  0.00    -0.497 OA
ATOM     20  C   UNL A   1      35.200  15.871  25.213  1.00  0.00     0.278 C 
ENDBRANCH  10  19
BRANCH  18  21
ATOM     21  C   UNL A   1      31.581  23.090  24.256  1.00  0.00     0.429 C 
ATOM     22  F   UNL A   1      32.025  24.350  24.466  1.00  0.00    -0.167 F 
ATOM     23  F   UNL A   1      30.808  23.164  23.138  1.00  0.00    -0.167 F 
ATOM     24  F   UNL A   1      30.757  22.757  25.276  1.00  0.00    -0.167 F 
ENDBRANCH  18  21
ENDBRANCH   6   9
ENDBRANCH   4   5
ENDBRANCH   3   4
ENDBRANCH   2   3
ENDBRANCH   1   2
BRANCH   1  25
ATOM     25  C   UNL A   1      38.196  20.029  24.714  1.00  0.00     0.021 C 
BRANCH  25  26
ATOM     26  C   UNL A   1      38.957  19.903  26.030  1.00  0.00     0.116 C 
BRANCH  26  27
ATOM     27  N   UNL A   1      40.174  19.123  25.876  1.00  0.00    -0.352 N 
ATOM     28  C   UNL A   1      41.482  19.523  25.973  1.00  0.00     0.251 C 
ATOM     29  H   UNL A   1      40.039  18.169  25.670  1.00  0.00     0.163 HD
ATOM     30  O   UNL A   1      42.384  18.784  25.595  1.00  0.00    -0.269 OA
BRANCH  28  31
ATOM     31  C   UNL A   1      41.805  20.856  26.529  1.00  0.00     0.039 A 
ATOM     32  C   UNL A   1      42.152  21.886  25.651  1.00  0.00     0.014 A 
ATOM     33  C   UNL A   1      41.799  21.080  27.909  1.00  0.00     0.014 A 
ATOM     34  C   UNL A   1      42.449  23.153  26.155  1.00  0.00     0.010 A 
ATOM     35  C   UNL A   1      42.030  22.360  28.405  1.00  0.00     0.010 A 
ATOM     36  C   UNL A   1      42.368  23.406  27.534  1.00  0.00    -0.014 A 
BRANCH  36  37
ATOM     37  C   UNL A   1      42.650  24.757  28.080  1.00  0.00     0.031 A 
ATOM     38  C   UNL A   1      44.048  25.131  28.490  1.00  0.00     0.074 A 
ATOM     39  C   UNL A   1      41.640  25.631  28.249  1.00  0.00     0.049 A 
ATOM     40  N   UNL A   1      44.484  26.246  29.019  1.00  0.00    -0.248 NA
ATOM     41  C   UNL A   1      45.089  24.108  28.303  1.00  0.00     0.031 C 
ATOM     42  C   UNL A   1      40.234  25.371  27.934  1.00  0.00     0.029 A 
ATOM     43  N   UNL A   1      41.640  26.915  28.733  1.00  0.00    -0.354 N 
ATOM     44  C   UNL A   1      45.843  26.054  29.239  1.00  0.00     0.074 A 
ATOM     45  C   UNL A   1      46.148  24.699  28.836  1.00  0.00     0.031 C 
ATOM     46  C   UNL A   1      39.512  26.469  28.207  1.00  0.00     0.029 A 
ATOM     47  C   UNL A   1      40.396  27.498  28.743  1.00  0.00     0.049 A 
ATOM     48  H   UNL A   1      42.454  27.374  29.041  1.00  0.00     0.167 HD
ATOM     49  C   UNL A   1      46.758  26.936  29.708  1.00  0.00     0.037 A 
ATOM     50  C   UNL A   1      40.015  28.726  29.141  1.00  0.00     0.037 A 
ATOM     51  C   UNL A   1      46.456  28.292  30.085  1.00  0.00     0.049 A 
ATOM     52  C   UNL A   1      41.050  29.688  29.653  1.00  0.00     0.074 A 
ATOM     53  C   UNL A   1      47.321  29.278  30.526  1.00  0.00     0.029 A 
ATOM     54  N   UNL A   1      45.188  28.852  30.064  1.00  0.00    -0.354 N 
ATOM     55  N   UNL A   1      42.341  29.514  29.797  1.00  0.00    -0.248 NA
ATOM     56  C   UNL A   1      40.576  31.021  30.050  1.00  0.00     0.031 C 
ATOM     57  C   UNL A   1      46.571  30.425  30.807  1.00  0.00     0.029 A 
ATOM     58  C   UNL A   1      45.244  30.167  30.497  1.00  0.00     0.049 A 
ATOM     59  H   UNL A   1      44.369  28.385  29.782  1.00  0.00     0.167 HD
ATOM     60  C   UNL A   1      42.839  30.721  30.270  1.00  0.00     0.074 A 
ATOM     61  C   UNL A   1      41.711  31.624  30.376  1.00  0.00     0.031 C 
ATOM     62  C   UNL A   1      44.113  31.054  30.588  1.00  0.00     0.037 A 
BRANCH  49  63
ATOM     63  C   UNL A   1      48.176  26.458  29.829  1.00  0.00     0.057 A 
ATOM     64  C   UNL A   1      48.646  25.828  30.990  1.00  0.00     0.134 A 
ATOM     65  C   UNL A   1      49.076  26.605  28.765  1.00  0.00     0.134 A 
ATOM     66  F   UNL A   1      47.839  25.667  32.049  1.00  0.00    -0.206 F 
ATOM     67  C   UNL A   1      49.965  25.385  31.097  1.00  0.00     0.040 A 
ATOM     68  C   UNL A   1      50.390  26.142  28.853  1.00  0.00     0.040 A 
ATOM     69  F   UNL A   1      48.691  27.194  27.623  1.00  0.00    -0.206 F 
ATOM     70  C   UNL A   1      50.840  25.536  30.023  1.00  0.00     0.006 A 
ENDBRANCH  49  63
BRANCH  50  71
ATOM     71  C   UNL A   1      38.591  29.133  29.036  1.00  0.00     0.057 A 
ATOM     72  C   UNL A   1      38.068  29.623  27.834  1.00  0.00     0.134 A 
ATOM     73  C   UNL A   1      37.724  29.054  30.132  1.00  0.00     0.134 A 
ATOM     74  F   UNL A   1      38.855  29.738  26.753  1.00  0.00    -0.206 F 
ATOM     75  C   UNL A   1      36.740  30.039  27.728  1.00  0.00     0.040 A 
ATOM     76  C   UNL A   1      36.388  29.443  30.034  1.00  0.00     0.040 A 
ATOM     77  F   UNL A   1      38.162  28.585  31.310  1.00  0.00    -0.206 F 
ATOM     78  C   UNL A   1      35.895  29.945  28.831  1.00  0.00     0.006 A 
ENDBRANCH  50  71
BRANCH  62  79
ATOM     79  C   UNL A   1      44.359  32.462  31.042  1.00  0.00     0.057 A 
ATOM     80  C   UNL A   1      44.633  33.494  30.136  1.00  0.00     0.134 A 
ATOM     81  C   UNL A   1      44.296  32.793  32.402  1.00  0.00     0.134 A 
ATOM     82  F   UNL A   1      44.721  33.240  28.822  1.00  0.00    -0.206 F 
ATOM     83  C   UNL A   1      44.864  34.801  30.569  1.00  0.00     0.040 A 
ATOM     84  C   UNL A   1      44.498  34.101  32.845  1.00  0.00     0.040 A 
ATOM     85  F   UNL A   1      44.029  31.853  33.320  1.00  0.00    -0.206 F 
ATOM     86  C   UNL A   1      44.791  35.108  31.926  1.00  0.00     0.006 A 
ENDBRANCH  62  79
ENDBRANCH  36  37
ENDBRANCH  28  31
ENDBRANCH  26  27
ENDBRANCH  25  26
ENDBRANCH   1  25
TORSDOF 15
ENDMDL
MODEL 2
REMARK VINA RESULT:     -11.5      0.581      1.428
REMARK SMILES COc1ccc2c(c1)C=C(C(=O)NCCCCCCNC(=O)c1ccc(-c3c4nc(c(-c5c(F)cccc5F)c5ccc([nH]5)c(-c5c(F)cccc5F)c5nc(c(-c6c(F)cccc6F)c6ccc3[nH]6)C=C5)C=C4)cc1)[C@H](C(F)(F)F)O2
REMARK SMILES IDX 17 1 16 2 15 3 14 4 13 5 11 6 12 7 10 9 3 10 4 11 8 12 5 13
REMARK SMILES IDX 7 14 6 15 9 16 82 17 77 18 2 19 1 20 78 21 79 22 80 23 81 24
REMARK SMILES IDX 18 25 19 26 20 27 21 28 22 30 23 31 24 32 76 33 25 34 75 35
REMARK SMILES IDX 26 36 27 37 28 38 69 39 29 40 74 41 68 42 70 43 30 44 73 45
REMARK SMILES IDX 67 46 66 47 31 49 57 50 40 51 56 52 41 53 44 54 55 55 71 56
REMARK SMILES IDX 42 57 43 58 54 60 72 61 45 62 32 63 33 64 38 65 34 66 35 67
REMARK SMILES IDX 37 68 39 69 36 70 58 71 59 72 64 73 60 74 61 75 63 76 65 77
REMARK SMILES IDX 62 78 46 79 47 80 52 81 48 82 49 83 51 84 53 85 50 86
REMARK H PARENT 13 8 20 29 70 48 44 59
REMARK Flexibility Score: inf
ROOT
ATOM      1  C   UNL A   1      37.435  21.336  24.528  1.00  0.00     0.002 C 
ENDROOT
BRANCH   1   2
ATOM      2  C   UNL A   1      37.492  22.298  25.720  1.00  0.00     0.002 C 
BRANCH   2   3
ATOM      3  C   UNL A   1      37.201  23.766  25.376  1.00  0.00     0.021 C 
BRANCH   3   4
ATOM      4  C   UNL A   1      35.737  24.017  24.994  1.00  0.00     0.116 C 
BRANCH   4   5
ATOM      5  N   UNL A   1      34.882  23.701  26.125  1.00  0.00    -0.352 N 
ATOM      6  C   UNL A   1      33.830  22.855  26.279  1.00  0.00     0.251 C 
ATOM      7  O   UNL A   1      33.149  22.959  27.295  1.00  0.00    -0.270 OA
ATOM      8  H   UNL A   1      35.110  24.198  26.943  1.00  0.00     0.163 HD
BRANCH   6   9
ATOM      9  C   UNL A   1      33.531  21.761  25.318  1.00  0.00     0.067 C 
ATOM     10  C   UNL A   1      33.755  17.210  23.735  1.00  0.00     0.119 A 
ATOM     11  C   UNL A   1      32.738  17.467  22.818  1.00  0.00     0.050 A 
ATOM     12  C   UNL A   1      34.225  18.225  24.567  1.00  0.00     0.058 A 
ATOM     13  C   UNL A   1      32.203  18.753  22.725  1.00  0.00     0.051 A 
ATOM     14  C   UNL A   1      33.694  19.515  24.469  1.00  0.00     0.021 A 
ATOM     15  C   UNL A   1      32.679  19.772  23.551  1.00  0.00     0.128 A 
ATOM     16  C   UNL A   1      34.119  20.559  25.386  1.00  0.00     0.025 C 
ATOM     17  O   UNL A   1      32.046  20.974  23.457  1.00  0.00    -0.475 OA
ATOM     18  C   UNL A   1      32.626  22.124  24.142  1.00  0.00     0.314 C 
BRANCH  10  19
ATOM     19  O   UNL A   1      34.262  15.957  23.944  1.00  0.00    -0.497 OA
ATOM     20  C   UNL A   1      35.031  15.879  25.142  1.00  0.00     0.278 C 
ENDBRANCH  10  19
BRANCH  18  21
ATOM     21  C   UNL A   1      31.470  23.106  24.436  1.00  0.00     0.429 C 
ATOM     22  F   UNL A   1      31.899  24.359  24.709  1.00  0.00    -0.167 F 
ATOM     23  F   UNL A   1      30.654  23.236  23.354  1.00  0.00    -0.167 F 
ATOM     24  F   UNL A   1      30.689  22.694  25.462  1.00  0.00    -0.167 F 
ENDBRANCH  18  21
ENDBRANCH   6   9
ENDBRANCH   4   5
ENDBRANCH   3   4
ENDBRANCH   2   3
ENDBRANCH   1   2
BRANCH   1  25
ATOM     25  C   UNL A   1      38.249  20.051  24.695  1.00  0.00     0.021 C 
BRANCH  25  26
ATOM     26  C   UNL A   1      38.975  19.933  26.031  1.00  0.00     0.116 C 
BRANCH  26  27
ATOM     27  N   UNL A   1      40.168  19.110  25.926  1.00  0.00    -0.352 N 
ATOM     28  C   UNL A   1      41.487  19.477  26.003  1.00  0.00     0.251 C 
ATOM     29  H   UNL A   1      40.006  18.150  25.777  1.00  0.00     0.163 HD
ATOM     30  O   UNL A   1      42.368  18.691  25.671  1.00  0.00    -0.269 OA
BRANCH  28  31
ATOM     31  C   UNL A   1      41.850  20.830  26.479  1.00  0.00     0.039 A 
ATOM     32  C   UNL A   1      42.157  21.816  25.537  1.00  0.00     0.014 A 
ATOM     33  C   UNL A   1      41.918  21.117  27.846  1.00  0.00     0.014 A 
ATOM     34  C   UNL A   1      42.490  23.102  25.967  1.00  0.00     0.010 A 
ATOM     35  C   UNL A   1      42.185  22.416  28.270  1.00  0.00     0.010 A 
ATOM     36  C   UNL A   1      42.484  23.418  27.336  1.00  0.00    -0.014 A 
BRANCH  36  37
ATOM     37  C   UNL A   1      42.805  24.789  27.804  1.00  0.00     0.031 A 
ATOM     38  C   UNL A   1      44.236  25.203  28.010  1.00  0.00     0.074 A 
ATOM     39  C   UNL A   1      41.805  25.647  28.086  1.00  0.00     0.049 A 
ATOM     40  N   UNL A   1      44.712  26.342  28.447  1.00  0.00    -0.248 NA
ATOM     41  C   UNL A   1      45.266  24.197  27.709  1.00  0.00     0.031 C 
ATOM     42  C   UNL A   1      40.377  25.349  27.973  1.00  0.00     0.029 A 
ATOM     43  N   UNL A   1      41.839  26.944  28.533  1.00  0.00    -0.354 N 
ATOM     44  C   UNL A   1      46.092  26.184  28.484  1.00  0.00     0.074 A 
ATOM     45  C   UNL A   1      46.373  24.825  28.077  1.00  0.00     0.031 C 
ATOM     46  C   UNL A   1      39.672  26.439  28.314  1.00  0.00     0.029 A 
ATOM     47  C   UNL A   1      40.595  27.501  28.699  1.00  0.00     0.049 A 
ATOM     48  H   UNL A   1      42.677  27.428  28.716  1.00  0.00     0.167 HD
ATOM     49  C   UNL A   1      47.041  27.097  28.802  1.00  0.00     0.037 A 
ATOM     50  C   UNL A   1      40.241  28.732  29.113  1.00  0.00     0.037 A 
ATOM     51  C   UNL A   1      46.760  28.457  29.182  1.00  0.00     0.049 A 
ATOM     52  C   UNL A   1      41.313  29.729  29.455  1.00  0.00     0.074 A 
ATOM     53  C   UNL A   1      47.653  29.473  29.476  1.00  0.00     0.029 A 
ATOM     54  N   UNL A   1      45.487  28.990  29.319  1.00  0.00    -0.354 N 
ATOM     55  N   UNL A   1      42.616  29.585  29.426  1.00  0.00    -0.248 NA
ATOM     56  C   UNL A   1      40.865  31.062  29.879  1.00  0.00     0.031 C 
ATOM     57  C   UNL A   1      46.920  30.612  29.827  1.00  0.00     0.029 A 
ATOM     58  C   UNL A   1      45.570  30.318  29.707  1.00  0.00     0.049 A 
ATOM     59  H   UNL A   1      44.649  28.499  29.163  1.00  0.00     0.167 HD
ATOM     60  C   UNL A   1      43.143  30.815  29.796  1.00  0.00     0.074 A 
ATOM     61  C   UNL A   1      42.019  31.697  30.032  1.00  0.00     0.031 C 
ATOM     62  C   UNL A   1      44.441  31.183  29.930  1.00  0.00     0.037 A 
BRANCH  49  63
ATOM     63  C   UNL A   1      48.474  26.653  28.740  1.00  0.00     0.057 A 
ATOM     64  C   UNL A   1      49.220  26.733  27.557  1.00  0.00     0.134 A 
ATOM     65  C   UNL A   1      49.123  26.166  29.882  1.00  0.00     0.134 A 
ATOM     66  F   UNL A   1      48.655  27.178  26.425  1.00  0.00    -0.206 F 
ATOM     67  C   UNL A   1      50.552  26.319  27.504  1.00  0.00     0.040 A 
ATOM     68  C   UNL A   1      50.463  25.775  29.847  1.00  0.00     0.040 A 
ATOM     69  F   UNL A   1      48.470  26.069  31.049  1.00  0.00    -0.206 F 
ATOM     70  C   UNL A   1      51.180  25.844  28.655  1.00  0.00     0.006 A 
ENDBRANCH  49  63
BRANCH  50  71
ATOM     71  C   UNL A   1      38.807  29.106  29.193  1.00  0.00     0.057 A 
ATOM     72  C   UNL A   1      38.145  29.661  28.092  1.00  0.00     0.134 A 
ATOM     73  C   UNL A   1      38.069  28.930  30.369  1.00  0.00     0.134 A 
ATOM     74  F   UNL A   1      38.805  29.870  26.942  1.00  0.00    -0.206 F 
ATOM     75  C   UNL A   1      36.806  30.047  28.161  1.00  0.00     0.040 A 
ATOM     76  C   UNL A   1      36.723  29.289  30.445  1.00  0.00     0.040 A 
ATOM     77  F   UNL A   1      38.643  28.396  31.456  1.00  0.00    -0.206 F 
ATOM     78  C   UNL A   1      36.089  29.857  29.341  1.00  0.00     0.006 A 
ENDBRANCH  50  71
BRANCH  62  79
ATOM     79  C   UNL A   1      44.711  32.609  30.310  1.00  0.00     0.057 A 
ATOM     80  C   UNL A   1      44.906  32.996  31.642  1.00  0.00     0.134 A 
ATOM     81  C   UNL A   1      44.800  33.603  29.327  1.00  0.00     0.134 A 
ATOM     82  F   UNL A   1      44.820  32.093  32.631  1.00  0.00    -0.206 F 
ATOM     83  C   UNL A   1      45.153  34.325  31.985  1.00  0.00     0.040 A 
ATOM     84  C   UNL A   1      45.074  34.931  29.655  1.00  0.00     0.040 A 
ATOM     85  F   UNL A   1      44.632  33.297  28.032  1.00  0.00    -0.206 F 
ATOM     86  C   UNL A   1      45.244  35.297  30.990  1.00  0.00     0.006 A 
ENDBRANCH  62  79
ENDBRANCH  36  37
ENDBRANCH  28  31
ENDBRANCH  26  27
ENDBRANCH  25  26
ENDBRANCH   1  25
TORSDOF 15
ENDMDL
MODEL 3
REMARK VINA RESULT:     -11.4      0.599      6.077
REMARK SMILES COc1ccc2c(c1)C=C(C(=O)NCCCCCCNC(=O)c1ccc(-c3c4nc(c(-c5c(F)cccc5F)c5ccc([nH]5)c(-c5c(F)cccc5F)c5nc(c(-c6c(F)cccc6F)c6ccc3[nH]6)C=C5)C=C4)cc1)[C@H](C(F)(F)F)O2
REMARK SMILES IDX 17 1 16 2 15 3 14 4 13 5 11 6 12 7 10 9 3 10 4 11 8 12 5 13
REMARK SMILES IDX 7 14 6 15 9 16 82 17 77 18 2 19 1 20 78 21 79 22 80 23 81 24
REMARK SMILES IDX 18 25 19 26 20 27 21 28 22 30 23 31 24 32 76 33 25 34 75 35
REMARK SMILES IDX 26 36 27 37 28 38 69 39 29 40 74 41 68 42 70 43 30 44 73 45
REMARK SMILES IDX 67 46 66 47 31 49 57 50 40 51 56 52 41 53 44 54 55 55 71 56
REMARK SMILES IDX 42 57 43 58 54 60 72 61 45 62 32 63 33 64 38 65 34 66 35 67
REMARK SMILES IDX 37 68 39 69 36 70 58 71 59 72 64 73 60 74 61 75 63 76 65 77
REMARK SMILES IDX 62 78 46 79 47 80 52 81 48 82 49 83 51 84 53 85 50 86
REMARK H PARENT 13 8 20 29 70 48 44 59
REMARK Flexibility Score: inf
ROOT
ATOM      1  C   UNL A   1      37.400  21.365  24.513  1.00  0.00     0.002 C 
ENDROOT
BRANCH   1   2
ATOM      2  C   UNL A   1      37.318  22.315  25.713  1.00  0.00     0.002 C 
BRANCH   2   3
ATOM      3  C   UNL A   1      37.093  23.790  25.351  1.00  0.00     0.021 C 
BRANCH   3   4
ATOM      4  C   UNL A   1      35.636  24.106  24.988  1.00  0.00     0.116 C 
BRANCH   4   5
ATOM      5  N   UNL A   1      34.775  23.766  26.108  1.00  0.00    -0.352 N 
ATOM      6  C   UNL A   1      33.756  22.879  26.252  1.00  0.00     0.251 C 
ATOM      7  O   UNL A   1      33.053  22.965  27.256  1.00  0.00    -0.270 OA
ATOM      8  H   UNL A   1      34.968  24.281  26.924  1.00  0.00     0.163 HD
BRANCH   6   9
ATOM      9  C   UNL A   1      33.519  21.765  25.298  1.00  0.00     0.067 C 
ATOM     10  C   UNL A   1      33.858  17.184  23.826  1.00  0.00     0.119 A 
ATOM     11  C   UNL A   1      32.895  17.416  22.846  1.00  0.00     0.050 A 
ATOM     12  C   UNL A   1      34.274  18.218  24.663  1.00  0.00     0.058 A 
ATOM     13  C   UNL A   1      32.359  18.696  22.695  1.00  0.00     0.051 A 
ATOM     14  C   UNL A   1      33.743  19.503  24.506  1.00  0.00     0.021 A 
ATOM     15  C   UNL A   1      32.781  19.735  23.527  1.00  0.00     0.128 A 
ATOM     16  C   UNL A   1      34.108  20.568  25.426  1.00  0.00     0.025 C 
ATOM     17  O   UNL A   1      32.149  20.931  23.371  1.00  0.00    -0.475 OA
ATOM     18  C   UNL A   1      32.683  22.098  24.064  1.00  0.00     0.314 C 
BRANCH  10  19
ATOM     19  O   UNL A   1      34.357  15.938  24.089  1.00  0.00    -0.497 OA
ATOM     20  C   UNL A   1      35.215  15.931  25.228  1.00  0.00     0.278 C 
ENDBRANCH  10  19
BRANCH  18  21
ATOM     21  C   UNL A   1      31.506  23.079  24.271  1.00  0.00     0.429 C 
ATOM     22  F   UNL A   1      31.913  24.350  24.491  1.00  0.00    -0.167 F 
ATOM     23  F   UNL A   1      30.724  23.141  23.158  1.00  0.00    -0.167 F 
ATOM     24  F   UNL A   1      30.698  22.711  25.292  1.00  0.00    -0.167 F 
ENDBRANCH  18  21
ENDBRANCH   6   9
ENDBRANCH   4   5
ENDBRANCH   3   4
ENDBRANCH   2   3
ENDBRANCH   1   2
BRANCH   1  25
ATOM     25  C   UNL A   1      38.183  20.073  24.763  1.00  0.00     0.021 C 
BRANCH  25  26
ATOM     26  C   UNL A   1      39.022  20.081  26.037  1.00  0.00     0.116 C 
BRANCH  26  27
ATOM     27  N   UNL A   1      40.172  19.199  25.931  1.00  0.00    -0.352 N 
ATOM     28  C   UNL A   1      41.507  19.495  26.027  1.00  0.00     0.251 C 
ATOM     29  H   UNL A   1      39.961  18.251  25.765  1.00  0.00     0.163 HD
ATOM     30  O   UNL A   1      42.349  18.669  25.691  1.00  0.00    -0.269 OA
BRANCH  28  31
ATOM     31  C   UNL A   1      41.934  20.819  26.528  1.00  0.00     0.039 A 
ATOM     32  C   UNL A   1      42.278  21.811  25.606  1.00  0.00     0.014 A 
ATOM     33  C   UNL A   1      42.027  21.073  27.901  1.00  0.00     0.014 A 
ATOM     34  C   UNL A   1      42.672  23.071  26.060  1.00  0.00     0.010 A 
ATOM     35  C   UNL A   1      42.356  22.349  28.351  1.00  0.00     0.010 A 
ATOM     36  C   UNL A   1      42.692  23.356  27.435  1.00  0.00    -0.014 A 
BRANCH  36  37
ATOM     37  C   UNL A   1      43.078  24.702  27.929  1.00  0.00     0.031 A 
ATOM     38  C   UNL A   1      42.024  25.739  28.201  1.00  0.00     0.074 A 
ATOM     39  C   UNL A   1      44.381  25.004  28.090  1.00  0.00     0.049 A 
ATOM     40  N   UNL A   1      42.167  26.978  28.599  1.00  0.00    -0.248 NA
ATOM     41  C   UNL A   1      40.627  25.340  27.970  1.00  0.00     0.031 C 
ATOM     42  C   UNL A   1      45.499  24.100  27.814  1.00  0.00     0.029 A 
ATOM     43  N   UNL A   1      44.985  26.159  28.518  1.00  0.00    -0.354 N 
ATOM     44  C   UNL A   1      40.883  27.507  28.655  1.00  0.00     0.074 A 
ATOM     45  C   UNL A   1      39.980  26.473  28.199  1.00  0.00     0.031 C 
ATOM     46  C   UNL A   1      46.651  24.725  28.106  1.00  0.00     0.029 A 
ATOM     47  C   UNL A   1      46.355  26.080  28.559  1.00  0.00     0.049 A 
ATOM     48  H   UNL A   1      44.483  26.966  28.772  1.00  0.00     0.167 HD
ATOM     49  C   UNL A   1      40.489  28.733  29.074  1.00  0.00     0.037 A 
ATOM     50  C   UNL A   1      47.269  26.999  28.923  1.00  0.00     0.037 A 
ATOM     51  C   UNL A   1      41.388  29.752  29.552  1.00  0.00     0.049 A 
ATOM     52  C   UNL A   1      46.807  28.351  29.389  1.00  0.00     0.074 A 
ATOM     53  C   UNL A   1      41.084  31.010  30.044  1.00  0.00     0.029 A 
ATOM     54  N   UNL A   1      42.768  29.628  29.598  1.00  0.00    -0.354 N 
ATOM     55  N   UNL A   1      45.586  28.816  29.496  1.00  0.00    -0.248 NA
ATOM     56  C   UNL A   1      47.850  29.303  29.795  1.00  0.00     0.031 C 
ATOM     57  C   UNL A   1      42.283  31.660  30.354  1.00  0.00     0.029 A 
ATOM     58  C   UNL A   1      43.331  30.791  30.097  1.00  0.00     0.049 A 
ATOM     59  H   UNL A   1      43.273  28.831  29.317  1.00  0.00     0.167 HD
ATOM     60  C   UNL A   1      45.711  30.100  30.009  1.00  0.00     0.074 A 
ATOM     61  C   UNL A   1      47.127  30.335  30.205  1.00  0.00     0.031 C 
ATOM     62  C   UNL A   1      44.742  31.005  30.292  1.00  0.00     0.037 A 
BRANCH  49  63
ATOM     63  C   UNL A   1      39.019  29.034  29.043  1.00  0.00     0.057 A 
ATOM     64  C   UNL A   1      38.208  28.867  30.175  1.00  0.00     0.134 A 
ATOM     65  C   UNL A   1      38.410  29.520  27.879  1.00  0.00     0.134 A 
ATOM     66  F   UNL A   1      38.725  28.393  31.317  1.00  0.00    -0.206 F 
ATOM     67  C   UNL A   1      36.841  29.149  30.141  1.00  0.00     0.040 A 
ATOM     68  C   UNL A   1      37.050  29.831  27.843  1.00  0.00     0.040 A 
ATOM     69  F   UNL A   1      39.128  29.709  26.762  1.00  0.00    -0.206 F 
ATOM     70  C   UNL A   1      36.259  29.638  28.973  1.00  0.00     0.006 A 
ENDBRANCH  49  63
BRANCH  50  71
ATOM     71  C   UNL A   1      48.715  26.661  28.897  1.00  0.00     0.057 A 
ATOM     72  C   UNL A   1      49.479  26.856  27.741  1.00  0.00     0.134 A 
ATOM     73  C   UNL A   1      49.362  26.127  30.017  1.00  0.00     0.134 A 
ATOM     74  F   UNL A   1      48.910  27.349  26.630  1.00  0.00    -0.206 F 
ATOM     75  C   UNL A   1      50.831  26.514  27.691  1.00  0.00     0.040 A 
ATOM     76  C   UNL A   1      50.719  25.803  29.989  1.00  0.00     0.040 A 
ATOM     77  F   UNL A   1      48.687  25.924  31.157  1.00  0.00    -0.206 F 
ATOM     78  C   UNL A   1      51.456  25.989  28.821  1.00  0.00     0.006 A 
ENDBRANCH  50  71
BRANCH  62  79
ATOM     79  C   UNL A   1      45.180  32.313  30.881  1.00  0.00     0.057 A 
ATOM     80  C   UNL A   1      45.462  33.427  30.081  1.00  0.00     0.134 A 
ATOM     81  C   UNL A   1      45.298  32.465  32.269  1.00  0.00     0.134 A 
ATOM     82  F   UNL A   1      45.382  33.342  28.744  1.00  0.00    -0.206 F 
ATOM     83  C   UNL A   1      45.873  34.639  30.639  1.00  0.00     0.040 A 
ATOM     84  C   UNL A   1      45.681  33.679  32.839  1.00  0.00     0.040 A 
ATOM     85  F   UNL A   1      45.034  31.439  33.091  1.00  0.00    -0.206 F 
ATOM     86  C   UNL A   1      45.977  34.769  32.022  1.00  0.00     0.006 A 
ENDBRANCH  62  79
ENDBRANCH  36  37
ENDBRANCH  28  31
ENDBRANCH  26  27
ENDBRANCH  25  26
ENDBRANCH   1  25
TORSDOF 15
ENDMDL
