MODEL 1
REMARK VINA RESULT:     -11.3      0.000      0.000
REMARK SMILES COc1ccc(-c2c(C)n[nH]c2C)c(C(=O)NCCCCCCNC(=O)c2ccc(-c3c4nc(c(-c5c(F)cccc5F)c5ccc([nH]5)c(-c5c(F)cccc5F)c5nc(c(-c6c(F)cccc6F)c6ccc3[nH]6)C=C5)C=C4)cc2)c1
REMARK SMILES IDX 21 1 20 2 19 3 18 4 17 5 15 6 16 7 14 9 3 10 4 11 81 12 5 13
REMARK SMILES IDX 6 14 2 15 1 16 7 17 8 18 12 19 9 20 10 21 11 22 13 23 22 25
REMARK SMILES IDX 23 26 24 27 25 28 26 30 27 31 28 32 80 33 29 34 79 35 30 36
REMARK SMILES IDX 31 37 32 38 73 39 33 40 78 41 72 42 74 43 34 44 77 45 71 46
REMARK SMILES IDX 70 47 35 49 61 50 44 51 60 52 45 53 48 54 59 55 75 56 46 57
REMARK SMILES IDX 47 58 58 60 76 61 49 62 36 63 37 64 42 65 38 66 39 67 41 68
REMARK SMILES IDX 43 69 40 70 62 71 63 72 68 73 64 74 65 75 67 76 69 77 66 78
REMARK SMILES IDX 50 79 51 80 56 81 52 82 53 83 55 84 57 85 54 86
REMARK H PARENT 17 8 11 24 24 29 74 48 48 59
REMARK Flexibility Score: inf
ROOT
ATOM      1  C   UNL A   1      31.511  30.717  26.188  1.00  0.00     0.002 C 
ENDROOT
BRANCH   1   2
ATOM      2  C   UNL A   1      32.226  29.774  27.157  1.00  0.00     0.002 C 
BRANCH   2   3
ATOM      3  C   UNL A   1      33.640  29.340  26.771  1.00  0.00     0.021 C 
BRANCH   3   4
ATOM      4  C   UNL A   1      33.768  28.081  25.923  1.00  0.00     0.116 C 
BRANCH   4   5
ATOM      5  N   UNL A   1      34.232  28.298  24.563  1.00  0.00    -0.352 N 
ATOM      6  C   UNL A   1      33.544  28.393  23.366  1.00  0.00     0.252 C 
ATOM      7  O   UNL A   1      34.183  28.728  22.373  1.00  0.00    -0.269 OA
ATOM      8  H   UNL A   1      35.208  28.393  24.478  1.00  0.00     0.163 HD
BRANCH   6   9
ATOM      9  C   UNL A   1      32.085  28.075  23.281  1.00  0.00     0.051 A 
ATOM     10  C   UNL A   1      29.793  28.917  23.258  1.00  0.00     0.119 A 
ATOM     11  C   UNL A   1      29.319  27.619  23.409  1.00  0.00     0.047 A 
ATOM     12  C   UNL A   1      31.166  29.129  23.139  1.00  0.00     0.060 A 
ATOM     13  C   UNL A   1      30.207  26.544  23.407  1.00  0.00     0.013 A 
ATOM     14  C   UNL A   1      31.595  26.755  23.322  1.00  0.00    -0.002 A 
BRANCH  10  15
ATOM     15  O   UNL A   1      28.835  29.892  23.245  1.00  0.00    -0.497 OA
ATOM     16  C   UNL A   1      27.887  29.848  22.184  1.00  0.00     0.278 C 
ENDBRANCH  10  15
BRANCH  14  17
ATOM     17  C   UNL A   1      32.418  25.577  23.109  1.00  0.00     0.026 A 
ATOM     18  C   UNL A   1      32.864  25.036  21.870  1.00  0.00     0.067 A 
ATOM     19  C   UNL A   1      32.902  24.712  24.070  1.00  0.00     0.040 A 
ATOM     20  C   UNL A   1      32.620  25.566  20.504  1.00  0.00     0.069 C 
ATOM     21  N   UNL A   1      33.574  23.915  22.045  1.00  0.00    -0.180 NA
ATOM     22  N   UNL A   1      33.628  23.779  23.378  1.00  0.00    -0.282 N 
ATOM     23  C   UNL A   1      32.796  24.675  25.544  1.00  0.00     0.067 C 
ATOM     24  H   UNL A   1      34.144  23.067  23.822  1.00  0.00     0.190 HD
ENDBRANCH  14  17
ENDBRANCH   6   9
ENDBRANCH   4   5
ENDBRANCH   3   4
ENDBRANCH   2   3
ENDBRANCH   1   2
BRANCH   1  25
ATOM     25  C   UNL A   1      31.420  32.184  26.610  1.00  0.00     0.021 C 
BRANCH  25  26
ATOM     26  C   UNL A   1      32.707  32.801  27.144  1.00  0.00     0.116 C 
BRANCH  26  27
ATOM     27  N   UNL A   1      32.511  34.132  27.691  1.00  0.00    -0.352 N 
ATOM     28  C   UNL A   1      33.153  34.753  28.737  1.00  0.00     0.251 C 
ATOM     29  H   UNL A   1      31.815  34.670  27.248  1.00  0.00     0.163 HD
ATOM     30  O   UNL A   1      32.745  35.827  29.160  1.00  0.00    -0.269 OA
BRANCH  28  31
ATOM     31  C   UNL A   1      34.325  34.110  29.372  1.00  0.00     0.039 A 
ATOM     32  C   UNL A   1      34.110  33.169  30.383  1.00  0.00     0.014 A 
ATOM     33  C   UNL A   1      35.627  34.434  28.983  1.00  0.00     0.014 A 
ATOM     34  C   UNL A   1      35.198  32.511  30.960  1.00  0.00     0.010 A 
ATOM     35  C   UNL A   1      36.704  33.722  29.502  1.00  0.00     0.010 A 
ATOM     36  C   UNL A   1      36.502  32.755  30.500  1.00  0.00    -0.014 A 
BRANCH  36  37
ATOM     37  C   UNL A   1      37.664  32.008  31.047  1.00  0.00     0.031 A 
ATOM     38  C   UNL A   1      38.215  32.350  32.403  1.00  0.00     0.074 A 
ATOM     39  C   UNL A   1      38.262  31.063  30.296  1.00  0.00     0.049 A 
ATOM     40  N   UNL A   1      39.256  31.851  33.023  1.00  0.00    -0.248 NA
ATOM     41  C   UNL A   1      37.524  33.412  33.150  1.00  0.00     0.031 C 
ATOM     42  C   UNL A   1      37.851  30.670  28.946  1.00  0.00     0.029 A 
ATOM     43  N   UNL A   1      39.349  30.266  30.556  1.00  0.00    -0.354 N 
ATOM     44  C   UNL A   1      39.349  32.545  34.223  1.00  0.00     0.074 A 
ATOM     45  C   UNL A   1      38.299  33.539  34.217  1.00  0.00     0.031 C 
ATOM     46  C   UNL A   1      38.660  29.694  28.507  1.00  0.00     0.029 A 
ATOM     47  C   UNL A   1      39.669  29.417  29.525  1.00  0.00     0.049 A 
ATOM     48  H   UNL A   1      39.850  30.300  31.402  1.00  0.00     0.167 HD
ATOM     49  C   UNL A   1      40.217  32.356  35.246  1.00  0.00     0.037 A 
ATOM     50  C   UNL A   1      40.670  28.525  29.407  1.00  0.00     0.037 A 
ATOM     51  C   UNL A   1      41.252  31.356  35.253  1.00  0.00     0.049 A 
ATOM     52  C   UNL A   1      41.632  28.343  30.549  1.00  0.00     0.074 A 
ATOM     53  C   UNL A   1      42.144  31.045  36.264  1.00  0.00     0.029 A 
ATOM     54  N   UNL A   1      41.540  30.508  34.192  1.00  0.00    -0.354 N 
ATOM     55  N   UNL A   1      41.665  28.957  31.707  1.00  0.00    -0.248 NA
ATOM     56  C   UNL A   1      42.691  27.340  30.370  1.00  0.00     0.031 C 
ATOM     57  C   UNL A   1      43.008  30.051  35.795  1.00  0.00     0.029 A 
ATOM     58  C   UNL A   1      42.616  29.696  34.515  1.00  0.00     0.049 A 
ATOM     59  H   UNL A   1      41.053  30.488  33.338  1.00  0.00     0.167 HD
ATOM     60  C   UNL A   1      42.727  28.396  32.406  1.00  0.00     0.074 A 
ATOM     61  C   UNL A   1      43.303  27.383  31.546  1.00  0.00     0.031 C 
ATOM     62  C   UNL A   1      43.179  28.690  33.648  1.00  0.00     0.037 A 
BRANCH  49  63
ATOM     63  C   UNL A   1      40.085  33.260  36.440  1.00  0.00     0.057 A 
ATOM     64  C   UNL A   1      40.836  34.436  36.568  1.00  0.00     0.134 A 
ATOM     65  C   UNL A   1      39.180  32.960  37.467  1.00  0.00     0.134 A 
ATOM     66  F   UNL A   1      41.729  34.779  35.627  1.00  0.00    -0.206 F 
ATOM     67  C   UNL A   1      40.719  35.261  37.690  1.00  0.00     0.040 A 
ATOM     68  C   UNL A   1      39.031  33.794  38.577  1.00  0.00     0.040 A 
ATOM     69  F   UNL A   1      38.422  31.854  37.407  1.00  0.00    -0.206 F 
ATOM     70  C   UNL A   1      39.809  34.942  38.695  1.00  0.00     0.006 A 
ENDBRANCH  49  63
BRANCH  50  71
ATOM     71  C   UNL A   1      40.798  27.716  28.167  1.00  0.00     0.057 A 
ATOM     72  C   UNL A   1      40.193  26.459  28.057  1.00  0.00     0.134 A 
ATOM     73  C   UNL A   1      41.521  28.182  27.061  1.00  0.00     0.134 A 
ATOM     74  F   UNL A   1      39.501  25.951  29.088  1.00  0.00    -0.206 F 
ATOM     75  C   UNL A   1      40.314  25.687  26.901  1.00  0.00     0.040 A 
ATOM     76  C   UNL A   1      41.628  27.432  25.889  1.00  0.00     0.040 A 
ATOM     77  F   UNL A   1      42.117  29.383  27.099  1.00  0.00    -0.206 F 
ATOM     78  C   UNL A   1      41.029  26.177  25.810  1.00  0.00     0.006 A 
ENDBRANCH  50  71
BRANCH  62  79
ATOM     79  C   UNL A   1      44.334  27.883  34.171  1.00  0.00     0.057 A 
ATOM     80  C   UNL A   1      45.659  28.321  34.056  1.00  0.00     0.134 A 
ATOM     81  C   UNL A   1      44.109  26.670  34.837  1.00  0.00     0.134 A 
ATOM     82  F   UNL A   1      45.944  29.466  33.419  1.00  0.00    -0.206 F 
ATOM     83  C   UNL A   1      46.722  27.568  34.562  1.00  0.00     0.040 A 
ATOM     84  C   UNL A   1      45.160  25.926  35.374  1.00  0.00     0.040 A 
ATOM     85  F   UNL A   1      42.863  26.198  34.990  1.00  0.00    -0.206 F 
ATOM     86  C   UNL A   1      46.471  26.372  35.231  1.00  0.00     0.006 A 
ENDBRANCH  62  79
ENDBRANCH  36  37
ENDBRANCH  28  31
ENDBRANCH  26  27
ENDBRANCH  25  26
ENDBRANCH   1  25
TORSDOF 15
ENDMDL
MODEL 2
REMARK VINA RESULT:     -11.3      4.051      5.921
REMARK SMILES COc1ccc(-c2c(C)n[nH]c2C)c(C(=O)NCCCCCCNC(=O)c2ccc(-c3c4nc(c(-c5c(F)cccc5F)c5ccc([nH]5)c(-c5c(F)cccc5F)c5nc(c(-c6c(F)cccc6F)c6ccc3[nH]6)C=C5)C=C4)cc2)c1
REMARK SMILES IDX 21 1 20 2 19 3 18 4 17 5 15 6 16 7 14 9 3 10 4 11 81 12 5 13
REMARK SMILES IDX 6 14 2 15 1 16 7 17 8 18 12 19 9 20 10 21 11 22 13 23 22 25
REMARK SMILES IDX 23 26 24 27 25 28 26 30 27 31 28 32 80 33 29 34 79 35 30 36
REMARK SMILES IDX 31 37 32 38 73 39 33 40 78 41 72 42 74 43 34 44 77 45 71 46
REMARK SMILES IDX 70 47 35 49 61 50 44 51 60 52 45 53 48 54 59 55 75 56 46 57
REMARK SMILES IDX 47 58 58 60 76 61 49 62 36 63 37 64 42 65 38 66 39 67 41 68
REMARK SMILES IDX 43 69 40 70 62 71 63 72 68 73 64 74 65 75 67 76 69 77 66 78
REMARK SMILES IDX 50 79 51 80 56 81 52 82 53 83 55 84 57 85 54 86
REMARK H PARENT 17 8 11 24 24 29 74 48 48 59
REMARK Flexibility Score: inf
ROOT
ATOM      1  C   UNL A   1      32.958  27.115  25.215  1.00  0.00     0.002 C 
ENDROOT
BRANCH   1   2
ATOM      2  C   UNL A   1      33.167  25.905  26.128  1.00  0.00     0.002 C 
BRANCH   2   3
ATOM      3  C   UNL A   1      31.911  25.147  26.557  1.00  0.00     0.021 C 
BRANCH   3   4
ATOM      4  C   UNL A   1      32.054  23.648  26.785  1.00  0.00     0.116 C 
BRANCH   4   5
ATOM      5  N   UNL A   1      33.421  23.169  26.905  1.00  0.00    -0.352 N 
ATOM      6  C   UNL A   1      34.101  22.168  26.234  1.00  0.00     0.252 C 
ATOM      7  O   UNL A   1      35.308  22.072  26.438  1.00  0.00    -0.269 OA
ATOM      8  H   UNL A   1      33.956  23.639  27.584  1.00  0.00     0.163 HD
BRANCH   6   9
ATOM      9  C   UNL A   1      33.390  21.225  25.316  1.00  0.00     0.051 A 
ATOM     10  C   UNL A   1      32.441  19.001  24.982  1.00  0.00     0.119 A 
ATOM     11  C   UNL A   1      32.310  19.265  23.623  1.00  0.00     0.047 A 
ATOM     12  C   UNL A   1      32.925  20.001  25.824  1.00  0.00     0.060 A 
ATOM     13  C   UNL A   1      32.630  20.526  23.121  1.00  0.00     0.013 A 
ATOM     14  C   UNL A   1      33.152  21.527  23.960  1.00  0.00    -0.002 A 
BRANCH  10  15
ATOM     15  O   UNL A   1      32.073  17.743  25.371  1.00  0.00    -0.497 OA
ATOM     16  C   UNL A   1      33.121  16.807  25.598  1.00  0.00     0.278 C 
ENDBRANCH  10  15
BRANCH  14  17
ATOM     17  C   UNL A   1      33.248  22.861  23.396  1.00  0.00     0.026 A 
ATOM     18  C   UNL A   1      34.428  23.575  23.039  1.00  0.00     0.067 A 
ATOM     19  C   UNL A   1      32.211  23.731  23.128  1.00  0.00     0.040 A 
ATOM     20  C   UNL A   1      35.836  23.111  23.130  1.00  0.00     0.069 C 
ATOM     21  N   UNL A   1      34.146  24.802  22.583  1.00  0.00    -0.180 NA
ATOM     22  N   UNL A   1      32.806  24.844  22.595  1.00  0.00    -0.282 N 
ATOM     23  C   UNL A   1      30.743  23.634  23.280  1.00  0.00     0.067 C 
ATOM     24  H   UNL A   1      32.292  25.611  22.250  1.00  0.00     0.190 HD
ENDBRANCH  14  17
ENDBRANCH   6   9
ENDBRANCH   4   5
ENDBRANCH   3   4
ENDBRANCH   2   3
ENDBRANCH   1   2
BRANCH   1  25
ATOM     25  C   UNL A   1      33.535  28.444  25.706  1.00  0.00     0.021 C 
BRANCH  25  26
ATOM     26  C   UNL A   1      33.811  28.534  27.202  1.00  0.00     0.116 C 
BRANCH  26  27
ATOM     27  N   UNL A   1      33.745  29.894  27.708  1.00  0.00    -0.352 N 
ATOM     28  C   UNL A   1      34.693  30.624  28.384  1.00  0.00     0.251 C 
ATOM     29  H   UNL A   1      32.895  30.362  27.543  1.00  0.00     0.163 HD
ATOM     30  O   UNL A   1      34.403  31.709  28.872  1.00  0.00    -0.269 OA
BRANCH  28  31
ATOM     31  C   UNL A   1      36.063  30.088  28.546  1.00  0.00     0.039 A 
ATOM     32  C   UNL A   1      36.953  30.182  27.472  1.00  0.00     0.014 A 
ATOM     33  C   UNL A   1      36.469  29.489  29.741  1.00  0.00     0.014 A 
ATOM     34  C   UNL A   1      38.267  29.730  27.619  1.00  0.00     0.010 A 
ATOM     35  C   UNL A   1      37.798  29.113  29.913  1.00  0.00     0.010 A 
ATOM     36  C   UNL A   1      38.711  29.225  28.852  1.00  0.00    -0.014 A 
BRANCH  36  37
ATOM     37  C   UNL A   1      40.124  28.813  29.051  1.00  0.00     0.031 A 
ATOM     38  C   UNL A   1      41.117  29.770  29.649  1.00  0.00     0.074 A 
ATOM     39  C   UNL A   1      40.527  27.596  28.636  1.00  0.00     0.049 A 
ATOM     40  N   UNL A   1      42.403  29.612  29.847  1.00  0.00    -0.248 NA
ATOM     41  C   UNL A   1      40.606  31.088  30.052  1.00  0.00     0.031 C 
ATOM     42  C   UNL A   1      39.671  26.593  27.999  1.00  0.00     0.029 A 
ATOM     43  N   UNL A   1      41.762  26.998  28.678  1.00  0.00    -0.354 N 
ATOM     44  C   UNL A   1      42.852  30.811  30.385  1.00  0.00     0.074 A 
ATOM     45  C   UNL A   1      41.717  31.707  30.425  1.00  0.00     0.031 C 
ATOM     46  C   UNL A   1      40.400  25.498  27.732  1.00  0.00     0.029 A 
ATOM     47  C   UNL A   1      41.781  25.734  28.141  1.00  0.00     0.049 A 
ATOM     48  H   UNL A   1      42.558  27.435  29.059  1.00  0.00     0.167 HD
ATOM     49  C   UNL A   1      44.092  31.131  30.825  1.00  0.00     0.037 A 
ATOM     50  C   UNL A   1      42.799  24.867  27.986  1.00  0.00     0.037 A 
ATOM     51  C   UNL A   1      45.217  30.232  30.795  1.00  0.00     0.049 A 
ATOM     52  C   UNL A   1      44.171  25.249  28.467  1.00  0.00     0.074 A 
ATOM     53  C   UNL A   1      46.499  30.439  31.272  1.00  0.00     0.029 A 
ATOM     54  N   UNL A   1      45.194  28.955  30.251  1.00  0.00    -0.354 N 
ATOM     55  N   UNL A   1      44.567  26.360  29.038  1.00  0.00    -0.248 NA
ATOM     56  C   UNL A   1      45.237  24.253  28.288  1.00  0.00     0.031 C 
ATOM     57  C   UNL A   1      47.268  29.312  30.963  1.00  0.00     0.029 A 
ATOM     58  C   UNL A   1      46.449  28.376  30.353  1.00  0.00     0.049 A 
ATOM     59  H   UNL A   1      44.404  28.526  29.852  1.00  0.00     0.167 HD
ATOM     60  C   UNL A   1      45.918  26.187  29.314  1.00  0.00     0.074 A 
ATOM     61  C   UNL A   1      46.269  24.859  28.859  1.00  0.00     0.031 C 
ATOM     62  C   UNL A   1      46.786  27.050  29.896  1.00  0.00     0.037 A 
BRANCH  49  63
ATOM     63  C   UNL A   1      44.298  32.517  31.370  1.00  0.00     0.057 A 
ATOM     64  C   UNL A   1      44.694  33.585  30.553  1.00  0.00     0.134 A 
ATOM     65  C   UNL A   1      44.076  32.793  32.726  1.00  0.00     0.134 A 
ATOM     66  F   UNL A   1      44.933  33.390  29.247  1.00  0.00    -0.206 F 
ATOM     67  C   UNL A   1      44.898  34.866  31.071  1.00  0.00     0.040 A 
ATOM     68  C   UNL A   1      44.245  34.076  33.248  1.00  0.00     0.040 A 
ATOM     69  F   UNL A   1      43.687  31.821  33.565  1.00  0.00    -0.206 F 
ATOM     70  C   UNL A   1      44.668  35.115  32.422  1.00  0.00     0.006 A 
ENDBRANCH  49  63
BRANCH  50  71
ATOM     71  C   UNL A   1      42.551  23.540  27.365  1.00  0.00     0.057 A 
ATOM     72  C   UNL A   1      42.140  22.446  28.135  1.00  0.00     0.134 A 
ATOM     73  C   UNL A   1      42.711  23.334  25.988  1.00  0.00     0.134 A 
ATOM     74  F   UNL A   1      41.987  22.575  29.462  1.00  0.00    -0.206 F 
ATOM     75  C   UNL A   1      41.914  21.193  27.565  1.00  0.00     0.040 A 
ATOM     76  C   UNL A   1      42.461  22.094  25.401  1.00  0.00     0.040 A 
ATOM     77  F   UNL A   1      43.092  24.345  25.193  1.00  0.00    -0.206 F 
ATOM     78  C   UNL A   1      42.069  21.016  26.192  1.00  0.00     0.006 A 
ENDBRANCH  50  71
BRANCH  62  79
ATOM     79  C   UNL A   1      48.195  26.574  30.108  1.00  0.00     0.057 A 
ATOM     80  C   UNL A   1      49.206  26.800  29.166  1.00  0.00     0.134 A 
ATOM     81  C   UNL A   1      48.551  25.914  31.293  1.00  0.00     0.134 A 
ATOM     82  F   UNL A   1      48.930  27.414  28.006  1.00  0.00    -0.206 F 
ATOM     83  C   UNL A   1      50.516  26.366  29.384  1.00  0.00     0.040 A 
ATOM     84  C   UNL A   1      49.862  25.504  31.535  1.00  0.00     0.040 A 
ATOM     85  F   UNL A   1      47.633  25.673  32.241  1.00  0.00    -0.206 F 
ATOM     86  C   UNL A   1      50.847  25.724  30.576  1.00  0.00     0.006 A 
ENDBRANCH  62  79
ENDBRANCH  36  37
ENDBRANCH  28  31
ENDBRANCH  26  27
ENDBRANCH  25  26
ENDBRANCH   1  25
TORSDOF 15
ENDMDL
MODEL 3
REMARK VINA RESULT:     -11.3      5.400     10.270
REMARK SMILES COc1ccc(-c2c(C)n[nH]c2C)c(C(=O)NCCCCCCNC(=O)c2ccc(-c3c4nc(c(-c5c(F)cccc5F)c5ccc([nH]5)c(-c5c(F)cccc5F)c5nc(c(-c6c(F)cccc6F)c6ccc3[nH]6)C=C5)C=C4)cc2)c1
REMARK SMILES IDX 21 1 20 2 19 3 18 4 17 5 15 6 16 7 14 9 3 10 4 11 81 12 5 13
REMARK SMILES IDX 6 14 2 15 1 16 7 17 8 18 12 19 9 20 10 21 11 22 13 23 22 25
REMARK SMILES IDX 23 26 24 27 25 28 26 30 27 31 28 32 80 33 29 34 79 35 30 36
REMARK SMILES IDX 31 37 32 38 73 39 33 40 78 41 72 42 74 43 34 44 77 45 71 46
REMARK SMILES IDX 70 47 35 49 61 50 44 51 60 52 45 53 48 54 59 55 75 56 46 57
REMARK SMILES IDX 47 58 58 60 76 61 49 62 36 63 37 64 42 65 38 66 39 67 41 68
REMARK SMILES IDX 43 69 40 70 62 71 63 72 68 73 64 74 65 75 67 76 69 77 66 78
REMARK SMILES IDX 50 79 51 80 56 81 52 82 53 83 55 84 57 85 54 86
REMARK H PARENT 17 8 11 24 24 29 74 48 48 59
REMARK Flexibility Score: inf
ROOT
ATOM      1  C   UNL A   1      36.873  20.192  25.001  1.00  0.00     0.002 C 
ENDROOT
BRANCH   1   2
ATOM      2  C   UNL A   1      37.066  21.607  24.453  1.00  0.00     0.002 C 
BRANCH   2   3
ATOM      3  C   UNL A   1      37.078  22.742  25.477  1.00  0.00     0.021 C 
BRANCH   3   4
ATOM      4  C   UNL A   1      35.766  23.482  25.704  1.00  0.00     0.116 C 
BRANCH   4   5
ATOM      5  N   UNL A   1      34.985  23.020  26.839  1.00  0.00    -0.352 N 
ATOM      6  C   UNL A   1      33.895  22.171  26.913  1.00  0.00     0.252 C 
ATOM      7  O   UNL A   1      33.518  21.834  28.032  1.00  0.00    -0.269 OA
ATOM      8  H   UNL A   1      35.284  23.374  27.707  1.00  0.00     0.163 HD
BRANCH   6   9
ATOM      9  C   UNL A   1      33.189  21.702  25.681  1.00  0.00     0.051 A 
ATOM     10  C   UNL A   1      32.914  19.943  24.010  1.00  0.00     0.119 A 
ATOM     11  C   UNL A   1      32.153  20.808  23.231  1.00  0.00     0.047 A 
ATOM     12  C   UNL A   1      33.377  20.377  25.251  1.00  0.00     0.060 A 
ATOM     13  C   UNL A   1      31.833  22.080  23.706  1.00  0.00     0.013 A 
ATOM     14  C   UNL A   1      32.326  22.535  24.941  1.00  0.00    -0.002 A 
BRANCH  10  15
ATOM     15  O   UNL A   1      33.144  18.713  23.461  1.00  0.00    -0.497 OA
ATOM     16  C   UNL A   1      33.886  17.786  24.248  1.00  0.00     0.278 C 
ENDBRANCH  10  15
BRANCH  14  17
ATOM     17  C   UNL A   1      31.767  23.776  25.446  1.00  0.00     0.026 A 
ATOM     18  C   UNL A   1      32.173  25.106  25.137  1.00  0.00     0.067 A 
ATOM     19  C   UNL A   1      30.748  23.920  26.366  1.00  0.00     0.040 A 
ATOM     20  C   UNL A   1      33.243  25.538  24.203  1.00  0.00     0.069 C 
ATOM     21  N   UNL A   1      31.460  26.012  25.817  1.00  0.00    -0.180 NA
ATOM     22  N   UNL A   1      30.576  25.272  26.501  1.00  0.00    -0.282 N 
ATOM     23  C   UNL A   1      29.904  22.953  27.100  1.00  0.00     0.067 C 
ATOM     24  H   UNL A   1      29.863  25.667  27.055  1.00  0.00     0.190 HD
ENDBRANCH  14  17
ENDBRANCH   6   9
ENDBRANCH   4   5
ENDBRANCH   3   4
ENDBRANCH   2   3
ENDBRANCH   1   2
BRANCH   1  25
ATOM     25  C   UNL A   1      38.108  19.289  25.001  1.00  0.00     0.021 C 
BRANCH  25  26
ATOM     26  C   UNL A   1      39.307  19.807  25.785  1.00  0.00     0.116 C 
BRANCH  26  27
ATOM     27  N   UNL A   1      40.398  18.851  25.846  1.00  0.00    -0.352 N 
ATOM     28  C   UNL A   1      41.742  19.066  26.039  1.00  0.00     0.251 C 
ATOM     29  H   UNL A   1      40.137  17.909  25.731  1.00  0.00     0.163 HD
ATOM     30  O   UNL A   1      42.539  18.146  25.904  1.00  0.00    -0.269 OA
BRANCH  28  31
ATOM     31  C   UNL A   1      42.233  20.419  26.386  1.00  0.00     0.039 A 
ATOM     32  C   UNL A   1      42.664  21.262  25.358  1.00  0.00     0.014 A 
ATOM     33  C   UNL A   1      42.276  20.854  27.713  1.00  0.00     0.014 A 
ATOM     34  C   UNL A   1      43.082  22.561  25.657  1.00  0.00     0.010 A 
ATOM     35  C   UNL A   1      42.616  22.173  28.000  1.00  0.00     0.010 A 
ATOM     36  C   UNL A   1      43.026  23.040  26.975  1.00  0.00    -0.014 A 
BRANCH  36  37
ATOM     37  C   UNL A   1      43.392  24.443  27.301  1.00  0.00     0.031 A 
ATOM     38  C   UNL A   1      44.828  24.885  27.246  1.00  0.00     0.074 A 
ATOM     39  C   UNL A   1      42.437  25.303  27.705  1.00  0.00     0.049 A 
ATOM     40  N   UNL A   1      45.347  26.049  27.550  1.00  0.00    -0.248 NA
ATOM     41  C   UNL A   1      45.814  23.880  26.821  1.00  0.00     0.031 C 
ATOM     42  C   UNL A   1      41.015  24.983  27.844  1.00  0.00     0.029 A 
ATOM     43  N   UNL A   1      42.519  26.619  28.084  1.00  0.00    -0.354 N 
ATOM     44  C   UNL A   1      46.717  25.911  27.365  1.00  0.00     0.074 A 
ATOM     45  C   UNL A   1      46.954  24.536  26.982  1.00  0.00     0.031 C 
ATOM     46  C   UNL A   1      40.356  26.079  28.253  1.00  0.00     0.029 A 
ATOM     47  C   UNL A   1      41.312  27.165  28.445  1.00  0.00     0.049 A 
ATOM     48  H   UNL A   1      43.364  27.125  28.095  1.00  0.00     0.167 HD
ATOM     49  C   UNL A   1      47.687  26.849  27.482  1.00  0.00     0.037 A 
ATOM     50  C   UNL A   1      41.009  28.399  28.891  1.00  0.00     0.037 A 
ATOM     51  C   UNL A   1      47.444  28.219  27.851  1.00  0.00     0.049 A 
ATOM     52  C   UNL A   1      42.104  29.420  29.029  1.00  0.00     0.074 A 
ATOM     53  C   UNL A   1      48.351  29.262  27.939  1.00  0.00     0.029 A 
ATOM     54  N   UNL A   1      46.205  28.738  28.200  1.00  0.00    -0.354 N 
ATOM     55  N   UNL A   1      43.386  29.297  28.782  1.00  0.00    -0.248 NA
ATOM     56  C   UNL A   1      41.710  30.755  29.500  1.00  0.00     0.031 C 
ATOM     57  C   UNL A   1      47.671  30.395  28.398  1.00  0.00     0.029 A 
ATOM     58  C   UNL A   1      46.329  30.076  28.535  1.00  0.00     0.049 A 
ATOM     59  H   UNL A   1      45.363  28.228  28.210  1.00  0.00     0.167 HD
ATOM     60  C   UNL A   1      43.946  30.542  29.039  1.00  0.00     0.074 A 
ATOM     61  C   UNL A   1      42.862  31.410  29.448  1.00  0.00     0.031 C 
ATOM     62  C   UNL A   1      45.240  30.931  28.940  1.00  0.00     0.037 A 
BRANCH  49  63
ATOM     63  C   UNL A   1      49.102  26.418  27.215  1.00  0.00     0.057 A 
ATOM     64  C   UNL A   1      49.643  26.404  25.922  1.00  0.00     0.134 A 
ATOM     65  C   UNL A   1      49.942  26.031  28.267  1.00  0.00     0.134 A 
ATOM     66  F   UNL A   1      48.891  26.753  24.866  1.00  0.00    -0.206 F 
ATOM     67  C   UNL A   1      50.954  25.987  25.681  1.00  0.00     0.040 A 
ATOM     68  C   UNL A   1      51.264  25.643  28.043  1.00  0.00     0.040 A 
ATOM     69  F   UNL A   1      49.495  26.029  29.532  1.00  0.00    -0.206 F 
ATOM     70  C   UNL A   1      51.770  25.610  26.745  1.00  0.00     0.006 A 
ENDBRANCH  49  63
BRANCH  50  71
ATOM     71  C   UNL A   1      39.601  28.743  29.217  1.00  0.00     0.057 A 
ATOM     72  C   UNL A   1      39.101  28.594  30.515  1.00  0.00     0.134 A 
ATOM     73  C   UNL A   1      38.723  29.236  28.242  1.00  0.00     0.134 A 
ATOM     74  F   UNL A   1      39.888  28.110  31.489  1.00  0.00    -0.206 F 
ATOM     75  C   UNL A   1      37.779  28.904  30.832  1.00  0.00     0.040 A 
ATOM     76  C   UNL A   1      37.406  29.576  28.550  1.00  0.00     0.040 A 
ATOM     77  F   UNL A   1      39.143  29.412  26.980  1.00  0.00    -0.206 F 
ATOM     78  C   UNL A   1      36.928  29.403  29.847  1.00  0.00     0.006 A 
ENDBRANCH  50  71
BRANCH  62  79
ATOM     79  C   UNL A   1      45.554  32.368  29.245  1.00  0.00     0.057 A 
ATOM     80  C   UNL A   1      45.431  33.376  28.281  1.00  0.00     0.134 A 
ATOM     81  C   UNL A   1      45.945  32.752  30.536  1.00  0.00     0.134 A 
ATOM     82  F   UNL A   1      45.074  33.075  27.024  1.00  0.00    -0.206 F 
ATOM     83  C   UNL A   1      45.710  34.711  28.583  1.00  0.00     0.040 A 
ATOM     84  C   UNL A   1      46.196  34.086  30.857  1.00  0.00     0.040 A 
ATOM     85  F   UNL A   1      46.073  31.837  31.509  1.00  0.00    -0.206 F 
ATOM     86  C   UNL A   1      46.084  35.069  29.877  1.00  0.00     0.006 A 
ENDBRANCH  62  79
ENDBRANCH  36  37
ENDBRANCH  28  31
ENDBRANCH  26  27
ENDBRANCH  25  26
ENDBRANCH   1  25
TORSDOF 15
ENDMDL
