MODEL 1
REMARK VINA RESULT:     -10.0      0.000      0.000
REMARK SMILES CC[C@@H](NC(=O)[C@H](C)C[NH2+]C)C(=O)NCCCCCCNC(=O)c1ccc(-c2c3nc(c(-c4c(F)cccc4F)c4ccc([nH]4)c(-c4c(F)cccc4F)c4nc(c(-c5c(F)cccc5F)c5ccc2[nH]5)C=C4)C=C3)cc1
REMARK SMILES IDX 16 1 15 2 14 3 12 4 13 5 3 7 2 8 1 9 4 10 5 11 6 13 7 14
REMARK SMILES IDX 8 15 9 16 10 17 11 18 17 21 18 22 19 23 20 24 21 25 22 26
REMARK SMILES IDX 23 28 24 29 25 30 77 31 26 32 76 33 27 34 28 35 29 36 70 37
REMARK SMILES IDX 30 38 75 39 69 40 71 41 31 42 74 43 68 44 67 45 32 47 58 48
REMARK SMILES IDX 41 49 57 50 42 51 45 52 56 53 72 54 43 55 44 56 55 58 73 59
REMARK SMILES IDX 46 60 33 61 34 62 39 63 35 64 36 65 38 66 40 67 37 68 59 69
REMARK SMILES IDX 60 70 65 71 61 72 62 73 64 74 66 75 63 76 47 77 48 78 53 79
REMARK SMILES IDX 49 80 50 81 52 82 54 83 51 84
REMARK H PARENT 14 6 4 12 10 19 10 20 21 27 71 46 45 57
REMARK Flexibility Score: inf
ROOT
ATOM      1  C   UNL A   1      36.460  23.185  24.618  1.00  0.00     0.021 C 
ENDROOT
BRANCH   1   2
ATOM      2  C   UNL A   1      35.391  22.662  23.664  1.00  0.00     0.116 C 
BRANCH   2   3
ATOM      3  N   UNL A   1      34.085  23.209  23.981  1.00  0.00    -0.354 N 
ATOM      4  C   UNL A   1      33.117  22.750  24.823  1.00  0.00     0.242 C 
ATOM      5  O   UNL A   1      32.065  23.397  24.880  1.00  0.00    -0.273 OA
ATOM      6  H   UNL A   1      33.862  24.045  23.511  1.00  0.00     0.163 HD
BRANCH   4   7
ATOM      7  C   UNL A   1      33.233  21.397  25.561  1.00  0.00     0.171 C 
BRANCH   7   8
ATOM      8  C   UNL A   1      33.217  21.705  27.076  1.00  0.00     0.031 C 
ATOM      9  C   UNL A   1      34.407  22.507  27.585  1.00  0.00     0.006 C 
ENDBRANCH   7   8
BRANCH   7  10
ATOM     10  N   UNL A   1      32.290  20.320  25.206  1.00  0.00    -0.344 N 
ATOM     11  C   UNL A   1      32.669  18.999  25.082  1.00  0.00     0.229 C 
ATOM     12  H   UNL A   1      31.347  20.555  25.050  1.00  0.00     0.164 HD
ATOM     13  O   UNL A   1      32.154  18.154  25.811  1.00  0.00    -0.275 OA
BRANCH  11  14
ATOM     14  C   UNL A   1      33.531  18.631  23.888  1.00  0.00     0.130 C 
ATOM     15  C   UNL A   1      32.660  17.872  22.885  1.00  0.00     0.024 C 
BRANCH  14  16
ATOM     16  C   UNL A   1      34.804  17.866  24.259  1.00  0.00     0.273 C 
BRANCH  16  17
ATOM     17  N   UNL A   1      34.411  16.697  25.060  1.00  0.00    -0.348 N 
ATOM     18  C   UNL A   1      35.530  15.824  25.370  1.00  0.00     0.330 C 
ATOM     19  H   UNL A   1      33.716  16.162  24.538  1.00  0.00     0.346 HD
ATOM     20  H   UNL A   1      34.037  17.042  25.944  1.00  0.00     0.346 HD
ENDBRANCH  16  17
ENDBRANCH  14  16
ENDBRANCH  11  14
ENDBRANCH   7  10
ENDBRANCH   4   7
ENDBRANCH   2   3
ENDBRANCH   1   2
BRANCH   1  21
ATOM     21  C   UNL A   1      37.282  22.097  25.321  1.00  0.00     0.002 C 
BRANCH  21  22
ATOM     22  C   UNL A   1      36.881  20.650  25.019  1.00  0.00     0.002 C 
BRANCH  22  23
ATOM     23  C   UNL A   1      38.018  19.626  25.001  1.00  0.00     0.021 C 
BRANCH  23  24
ATOM     24  C   UNL A   1      39.304  20.061  25.694  1.00  0.00     0.116 C 
BRANCH  24  25
ATOM     25  N   UNL A   1      40.297  19.006  25.788  1.00  0.00    -0.352 N 
ATOM     26  C   UNL A   1      41.638  19.106  26.079  1.00  0.00     0.251 C 
ATOM     27  H   UNL A   1      39.965  18.094  25.619  1.00  0.00     0.163 HD
ATOM     28  O   UNL A   1      42.356  18.118  26.033  1.00  0.00    -0.269 OA
BRANCH  26  29
ATOM     29  C   UNL A   1      42.218  20.428  26.412  1.00  0.00     0.039 A 
ATOM     30  C   UNL A   1      42.720  21.216  25.373  1.00  0.00     0.014 A 
ATOM     31  C   UNL A   1      42.264  20.892  27.730  1.00  0.00     0.014 A 
ATOM     32  C   UNL A   1      43.212  22.493  25.647  1.00  0.00     0.010 A 
ATOM     33  C   UNL A   1      42.689  22.191  27.992  1.00  0.00     0.010 A 
ATOM     34  C   UNL A   1      43.171  23.004  26.956  1.00  0.00    -0.014 A 
BRANCH  34  35
ATOM     35  C   UNL A   1      43.634  24.381  27.255  1.00  0.00     0.031 A 
ATOM     36  C   UNL A   1      42.649  25.434  27.685  1.00  0.00     0.074 A 
ATOM     37  C   UNL A   1      44.932  24.702  27.082  1.00  0.00     0.049 A 
ATOM     38  N   UNL A   1      42.851  26.703  27.933  1.00  0.00    -0.248 NA
ATOM     39  C   UNL A   1      41.248  25.010  27.827  1.00  0.00     0.031 C 
ATOM     40  C   UNL A   1      45.975  23.784  26.618  1.00  0.00     0.029 A 
ATOM     41  N   UNL A   1      45.592  25.890  27.268  1.00  0.00    -0.354 N 
ATOM     42  C   UNL A   1      41.604  27.230  28.243  1.00  0.00     0.074 A 
ATOM     43  C   UNL A   1      40.644  26.157  28.102  1.00  0.00     0.031 C 
ATOM     44  C   UNL A   1      47.147  24.438  26.576  1.00  0.00     0.029 A 
ATOM     45  C   UNL A   1      46.934  25.825  26.979  1.00  0.00     0.049 A 
ATOM     46  H   UNL A   1      45.147  26.711  27.578  1.00  0.00     0.167 HD
ATOM     47  C   UNL A   1      41.289  28.488  28.633  1.00  0.00     0.037 A 
ATOM     48  C   UNL A   1      47.885  26.778  27.029  1.00  0.00     0.037 A 
ATOM     49  C   UNL A   1      42.250  29.545  28.805  1.00  0.00     0.049 A 
ATOM     50  C   UNL A   1      47.513  28.162  27.481  1.00  0.00     0.074 A 
ATOM     51  C   UNL A   1      42.041  30.835  29.258  1.00  0.00     0.029 A 
ATOM     52  N   UNL A   1      43.605  29.432  28.530  1.00  0.00    -0.354 N 
ATOM     53  N   UNL A   1      46.341  28.628  27.836  1.00  0.00    -0.248 NA
ATOM     54  C   UNL A   1      48.598  29.151  27.549  1.00  0.00     0.031 C 
ATOM     55  C   UNL A   1      43.263  31.515  29.222  1.00  0.00     0.029 A 
ATOM     56  C   UNL A   1      44.241  30.635  28.788  1.00  0.00     0.049 A 
ATOM     57  H   UNL A   1      44.048  28.617  28.201  1.00  0.00     0.167 HD
ATOM     58  C   UNL A   1      46.550  29.954  28.194  1.00  0.00     0.074 A 
ATOM     59  C   UNL A   1      47.965  30.213  28.025  1.00  0.00     0.031 C 
ATOM     60  C   UNL A   1      45.651  30.874  28.621  1.00  0.00     0.037 A 
BRANCH  47  61
ATOM     61  C   UNL A   1      39.844  28.786  28.907  1.00  0.00     0.057 A 
ATOM     62  C   UNL A   1      39.305  28.697  30.197  1.00  0.00     0.134 A 
ATOM     63  C   UNL A   1      38.990  29.199  27.878  1.00  0.00     0.134 A 
ATOM     64  F   UNL A   1      40.065  28.295  31.226  1.00  0.00    -0.206 F 
ATOM     65  C   UNL A   1      37.961  28.982  30.448  1.00  0.00     0.040 A 
ATOM     66  C   UNL A   1      37.652  29.513  28.121  1.00  0.00     0.040 A 
ATOM     67  F   UNL A   1      39.443  29.311  26.619  1.00  0.00    -0.206 F 
ATOM     68  C   UNL A   1      37.132  29.398  29.409  1.00  0.00     0.006 A 
ENDBRANCH  47  61
BRANCH  48  69
ATOM     69  C   UNL A   1      49.286  26.447  26.667  1.00  0.00     0.057 A 
ATOM     70  C   UNL A   1      50.162  25.894  27.609  1.00  0.00     0.134 A 
ATOM     71  C   UNL A   1      49.783  26.678  25.380  1.00  0.00     0.134 A 
ATOM     72  F   UNL A   1      49.748  25.667  28.864  1.00  0.00    -0.206 F 
ATOM     73  C   UNL A   1      51.488  25.598  27.288  1.00  0.00     0.040 A 
ATOM     74  C   UNL A   1      51.100  26.365  25.039  1.00  0.00     0.040 A 
ATOM     75  F   UNL A   1      48.991  27.199  24.431  1.00  0.00    -0.206 F 
ATOM     76  C   UNL A   1      51.958  25.830  25.997  1.00  0.00     0.006 A 
ENDBRANCH  48  69
BRANCH  60  77
ATOM     77  C   UNL A   1      46.177  32.235  28.968  1.00  0.00     0.057 A 
ATOM     78  C   UNL A   1      46.262  33.258  28.017  1.00  0.00     0.134 A 
ATOM     79  C   UNL A   1      46.565  32.536  30.281  1.00  0.00     0.134 A 
ATOM     80  F   UNL A   1      45.917  33.031  26.740  1.00  0.00    -0.206 F 
ATOM     81  C   UNL A   1      46.736  34.527  28.353  1.00  0.00     0.040 A 
ATOM     82  C   UNL A   1      47.016  33.807  30.634  1.00  0.00     0.040 A 
ATOM     83  F   UNL A   1      46.499  31.601  31.242  1.00  0.00    -0.206 F 
ATOM     84  C   UNL A   1      47.107  34.806  29.667  1.00  0.00     0.006 A 
ENDBRANCH  60  77
ENDBRANCH  34  35
ENDBRANCH  26  29
ENDBRANCH  24  25
ENDBRANCH  23  24
ENDBRANCH  22  23
ENDBRANCH  21  22
ENDBRANCH   1  21
TORSDOF 18
ENDMDL
MODEL 2
REMARK VINA RESULT:      -9.6      1.385      6.466
REMARK SMILES CC[C@@H](NC(=O)[C@H](C)C[NH2+]C)C(=O)NCCCCCCNC(=O)c1ccc(-c2c3nc(c(-c4c(F)cccc4F)c4ccc([nH]4)c(-c4c(F)cccc4F)c4nc(c(-c5c(F)cccc5F)c5ccc2[nH]5)C=C4)C=C3)cc1
REMARK SMILES IDX 16 1 15 2 14 3 12 4 13 5 3 7 2 8 1 9 4 10 5 11 6 13 7 14
REMARK SMILES IDX 8 15 9 16 10 17 11 18 17 21 18 22 19 23 20 24 21 25 22 26
REMARK SMILES IDX 23 28 24 29 25 30 77 31 26 32 76 33 27 34 28 35 29 36 70 37
REMARK SMILES IDX 30 38 75 39 69 40 71 41 31 42 74 43 68 44 67 45 32 47 58 48
REMARK SMILES IDX 41 49 57 50 42 51 45 52 56 53 72 54 43 55 44 56 55 58 73 59
REMARK SMILES IDX 46 60 33 61 34 62 39 63 35 64 36 65 38 66 40 67 37 68 59 69
REMARK SMILES IDX 60 70 65 71 61 72 62 73 64 74 66 75 63 76 47 77 48 78 53 79
REMARK SMILES IDX 49 80 50 81 52 82 54 83 51 84
REMARK H PARENT 14 6 4 12 10 19 10 20 21 27 71 46 45 57
REMARK Flexibility Score: inf
ROOT
ATOM      1  C   UNL A   1      36.682  23.306  24.537  1.00  0.00     0.021 C 
ENDROOT
BRANCH   1   2
ATOM      2  C   UNL A   1      35.936  23.025  23.237  1.00  0.00     0.116 C 
BRANCH   2   3
ATOM      3  N   UNL A   1      34.624  23.644  23.235  1.00  0.00    -0.354 N 
ATOM      4  C   UNL A   1      33.441  23.208  23.752  1.00  0.00     0.242 C 
ATOM      5  O   UNL A   1      32.449  23.925  23.575  1.00  0.00    -0.273 OA
ATOM      6  H   UNL A   1      34.581  24.520  22.786  1.00  0.00     0.163 HD
BRANCH   4   7
ATOM      7  C   UNL A   1      33.281  21.810  24.392  1.00  0.00     0.171 C 
BRANCH   7   8
ATOM      8  C   UNL A   1      32.030  21.868  25.299  1.00  0.00     0.031 C 
ATOM      9  C   UNL A   1      32.242  22.532  26.652  1.00  0.00     0.006 C 
ENDBRANCH   7   8
BRANCH   7  10
ATOM     10  N   UNL A   1      33.269  20.631  23.508  1.00  0.00    -0.344 N 
ATOM     11  C   UNL A   1      32.714  19.421  23.874  1.00  0.00     0.229 C 
ATOM     12  H   UNL A   1      33.675  20.709  22.615  1.00  0.00     0.164 HD
ATOM     13  O   UNL A   1      31.784  18.961  23.216  1.00  0.00    -0.275 OA
BRANCH  11  14
ATOM     14  C   UNL A   1      33.443  18.614  24.933  1.00  0.00     0.130 C 
ATOM     15  C   UNL A   1      34.580  17.848  24.252  1.00  0.00     0.024 C 
BRANCH  14  16
ATOM     16  C   UNL A   1      32.527  17.701  25.752  1.00  0.00     0.273 C 
BRANCH  16  17
ATOM     17  N   UNL A   1      33.274  16.472  26.061  1.00  0.00    -0.348 N 
ATOM     18  C   UNL A   1      32.524  15.266  25.756  1.00  0.00     0.330 C 
ATOM     19  H   UNL A   1      33.503  16.470  27.056  1.00  0.00     0.346 HD
ATOM     20  H   UNL A   1      34.112  16.467  25.480  1.00  0.00     0.346 HD
ENDBRANCH  16  17
ENDBRANCH  14  16
ENDBRANCH  11  14
ENDBRANCH   7  10
ENDBRANCH   4   7
ENDBRANCH   2   3
ENDBRANCH   1   2
BRANCH   1  21
ATOM     21  C   UNL A   1      36.937  22.072  25.412  1.00  0.00     0.002 C 
BRANCH  21  22
ATOM     22  C   UNL A   1      36.742  20.713  24.733  1.00  0.00     0.002 C 
BRANCH  22  23
ATOM     23  C   UNL A   1      37.822  19.664  25.003  1.00  0.00     0.021 C 
BRANCH  23  24
ATOM     24  C   UNL A   1      39.055  20.167  25.745  1.00  0.00     0.116 C 
BRANCH  24  25
ATOM     25  N   UNL A   1      40.140  19.204  25.786  1.00  0.00    -0.352 N 
ATOM     26  C   UNL A   1      41.458  19.403  26.126  1.00  0.00     0.251 C 
ATOM     27  H   UNL A   1      39.899  18.282  25.536  1.00  0.00     0.163 HD
ATOM     28  O   UNL A   1      42.267  18.492  26.025  1.00  0.00    -0.269 OA
BRANCH  26  29
ATOM     29  C   UNL A   1      41.904  20.741  26.580  1.00  0.00     0.039 A 
ATOM     30  C   UNL A   1      42.303  21.672  25.617  1.00  0.00     0.014 A 
ATOM     31  C   UNL A   1      41.924  21.080  27.936  1.00  0.00     0.014 A 
ATOM     32  C   UNL A   1      42.664  22.962  26.009  1.00  0.00     0.010 A 
ATOM     33  C   UNL A   1      42.217  22.386  28.319  1.00  0.00     0.010 A 
ATOM     34  C   UNL A   1      42.593  23.340  27.361  1.00  0.00    -0.014 A 
BRANCH  34  35
ATOM     35  C   UNL A   1      42.916  24.724  27.787  1.00  0.00     0.031 A 
ATOM     36  C   UNL A   1      44.347  25.137  27.992  1.00  0.00     0.074 A 
ATOM     37  C   UNL A   1      41.918  25.592  28.048  1.00  0.00     0.049 A 
ATOM     38  N   UNL A   1      44.825  26.279  28.416  1.00  0.00    -0.248 NA
ATOM     39  C   UNL A   1      45.375  24.124  27.708  1.00  0.00     0.031 C 
ATOM     40  C   UNL A   1      40.488  25.295  27.939  1.00  0.00     0.029 A 
ATOM     41  N   UNL A   1      41.956  26.898  28.468  1.00  0.00    -0.354 N 
ATOM     42  C   UNL A   1      46.204  26.116  28.467  1.00  0.00     0.074 A 
ATOM     43  C   UNL A   1      46.483  24.750  28.079  1.00  0.00     0.031 C 
ATOM     44  C   UNL A   1      39.786  26.393  28.263  1.00  0.00     0.029 A 
ATOM     45  C   UNL A   1      40.713  27.459  28.632  1.00  0.00     0.049 A 
ATOM     46  H   UNL A   1      42.794  27.386  28.637  1.00  0.00     0.167 HD
ATOM     47  C   UNL A   1      47.154  27.027  28.785  1.00  0.00     0.037 A 
ATOM     48  C   UNL A   1      40.359  28.694  29.037  1.00  0.00     0.037 A 
ATOM     49  C   UNL A   1      46.876  28.395  29.138  1.00  0.00     0.049 A 
ATOM     50  C   UNL A   1      41.433  29.693  29.367  1.00  0.00     0.074 A 
ATOM     51  C   UNL A   1      47.771  29.413  29.414  1.00  0.00     0.029 A 
ATOM     52  N   UNL A   1      45.604  28.934  29.264  1.00  0.00    -0.354 N 
ATOM     53  N   UNL A   1      42.735  29.545  29.345  1.00  0.00    -0.248 NA
ATOM     54  C   UNL A   1      40.988  31.035  29.770  1.00  0.00     0.031 C 
ATOM     55  C   UNL A   1      47.041  30.560  29.743  1.00  0.00     0.029 A 
ATOM     56  C   UNL A   1      45.691  30.267  29.630  1.00  0.00     0.049 A 
ATOM     57  H   UNL A   1      44.765  28.442  29.115  1.00  0.00     0.167 HD
ATOM     58  C   UNL A   1      43.265  30.777  29.705  1.00  0.00     0.074 A 
ATOM     59  C   UNL A   1      42.143  31.665  29.926  1.00  0.00     0.031 C 
ATOM     60  C   UNL A   1      44.564  31.139  29.840  1.00  0.00     0.037 A 
BRANCH  47  61
ATOM     61  C   UNL A   1      48.584  26.575  28.757  1.00  0.00     0.057 A 
ATOM     62  C   UNL A   1      49.206  26.025  29.886  1.00  0.00     0.134 A 
ATOM     63  C   UNL A   1      49.339  26.659  27.581  1.00  0.00     0.134 A 
ATOM     64  F   UNL A   1      48.543  25.928  31.048  1.00  0.00    -0.206 F 
ATOM     65  C   UNL A   1      50.535  25.600  29.853  1.00  0.00     0.040 A 
ATOM     66  C   UNL A   1      50.660  26.211  27.528  1.00  0.00     0.040 A 
ATOM     67  F   UNL A   1      48.803  27.170  26.461  1.00  0.00    -0.206 F 
ATOM     68  C   UNL A   1      51.264  25.687  28.669  1.00  0.00     0.006 A 
ENDBRANCH  47  61
BRANCH  48  69
ATOM     69  C   UNL A   1      38.925  29.064  29.125  1.00  0.00     0.057 A 
ATOM     70  C   UNL A   1      38.234  29.547  28.007  1.00  0.00     0.134 A 
ATOM     71  C   UNL A   1      38.212  28.949  30.323  1.00  0.00     0.134 A 
ATOM     72  F   UNL A   1      38.870  29.696  26.835  1.00  0.00    -0.206 F 
ATOM     73  C   UNL A   1      36.891  29.918  28.080  1.00  0.00     0.040 A 
ATOM     74  C   UNL A   1      36.861  29.294  30.405  1.00  0.00     0.040 A 
ATOM     75  F   UNL A   1      38.814  28.485  31.428  1.00  0.00    -0.206 F 
ATOM     76  C   UNL A   1      36.200  29.787  29.283  1.00  0.00     0.006 A 
ENDBRANCH  48  69
BRANCH  60  77
ATOM     77  C   UNL A   1      44.842  32.564  30.215  1.00  0.00     0.057 A 
ATOM     78  C   UNL A   1      44.968  33.570  29.249  1.00  0.00     0.134 A 
ATOM     79  C   UNL A   1      44.943  32.941  31.560  1.00  0.00     0.134 A 
ATOM     80  F   UNL A   1      44.893  33.273  27.943  1.00  0.00    -0.206 F 
ATOM     81  C   UNL A   1      45.208  34.898  29.608  1.00  0.00     0.040 A 
ATOM     82  C   UNL A   1      45.158  34.268  31.932  1.00  0.00     0.040 A 
ATOM     83  F   UNL A   1      44.823  32.026  32.535  1.00  0.00    -0.206 F 
ATOM     84  C   UNL A   1      45.296  35.250  30.954  1.00  0.00     0.006 A 
ENDBRANCH  60  77
ENDBRANCH  34  35
ENDBRANCH  26  29
ENDBRANCH  24  25
ENDBRANCH  23  24
ENDBRANCH  22  23
ENDBRANCH  21  22
ENDBRANCH   1  21
TORSDOF 18
ENDMDL
MODEL 3
REMARK VINA RESULT:      -9.6      5.736     10.773
REMARK SMILES CC[C@@H](NC(=O)[C@H](C)C[NH2+]C)C(=O)NCCCCCCNC(=O)c1ccc(-c2c3nc(c(-c4c(F)cccc4F)c4ccc([nH]4)c(-c4c(F)cccc4F)c4nc(c(-c5c(F)cccc5F)c5ccc2[nH]5)C=C4)C=C3)cc1
REMARK SMILES IDX 16 1 15 2 14 3 12 4 13 5 3 7 2 8 1 9 4 10 5 11 6 13 7 14
REMARK SMILES IDX 8 15 9 16 10 17 11 18 17 21 18 22 19 23 20 24 21 25 22 26
REMARK SMILES IDX 23 28 24 29 25 30 77 31 26 32 76 33 27 34 28 35 29 36 70 37
REMARK SMILES IDX 30 38 75 39 69 40 71 41 31 42 74 43 68 44 67 45 32 47 58 48
REMARK SMILES IDX 41 49 57 50 42 51 45 52 56 53 72 54 43 55 44 56 55 58 73 59
REMARK SMILES IDX 46 60 33 61 34 62 39 63 35 64 36 65 38 66 40 67 37 68 59 69
REMARK SMILES IDX 60 70 65 71 61 72 62 73 64 74 66 75 63 76 47 77 48 78 53 79
REMARK SMILES IDX 49 80 50 81 52 82 54 83 51 84
REMARK H PARENT 14 6 4 12 10 19 10 20 21 27 71 46 45 57
REMARK Flexibility Score: inf
ROOT
ATOM      1  C   UNL A   1      33.624  28.893  27.161  1.00  0.00     0.021 C 
ENDROOT
BRANCH   1   2
ATOM      2  C   UNL A   1      33.937  27.667  26.310  1.00  0.00     0.116 C 
BRANCH   2   3
ATOM      3  N   UNL A   1      32.891  27.418  25.335  1.00  0.00    -0.354 N 
ATOM      4  C   UNL A   1      31.990  26.399  25.247  1.00  0.00     0.242 C 
ATOM      5  O   UNL A   1      31.220  26.408  24.280  1.00  0.00    -0.273 OA
ATOM      6  H   UNL A   1      32.821  28.094  24.622  1.00  0.00     0.163 HD
BRANCH   4   7
ATOM      7  C   UNL A   1      32.015  25.187  26.206  1.00  0.00     0.171 C 
BRANCH   7   8
ATOM      8  C   UNL A   1      30.624  24.517  26.124  1.00  0.00     0.031 C 
ATOM      9  C   UNL A   1      30.520  23.158  26.800  1.00  0.00     0.006 C 
ENDBRANCH   7   8
BRANCH   7  10
ATOM     10  N   UNL A   1      33.109  24.207  26.069  1.00  0.00    -0.344 N 
ATOM     11  C   UNL A   1      33.763  23.970  24.877  1.00  0.00     0.229 C 
ATOM     12  H   UNL A   1      33.385  23.698  26.865  1.00  0.00     0.164 HD
ATOM     13  O   UNL A   1      34.973  24.171  24.804  1.00  0.00    -0.275 OA
BRANCH  11  14
ATOM     14  C   UNL A   1      32.987  23.249  23.790  1.00  0.00     0.130 C 
ATOM     15  C   UNL A   1      33.246  21.748  23.932  1.00  0.00     0.024 C 
BRANCH  14  16
ATOM     16  C   UNL A   1      33.279  23.765  22.378  1.00  0.00     0.273 C 
BRANCH  16  17
ATOM     17  N   UNL A   1      32.151  24.615  21.966  1.00  0.00    -0.348 N 
ATOM     18  C   UNL A   1      32.525  25.604  20.970  1.00  0.00     0.330 C 
ATOM     19  H   UNL A   1      31.791  25.101  22.788  1.00  0.00     0.346 HD
ATOM     20  H   UNL A   1      31.446  24.009  21.546  1.00  0.00     0.346 HD
ENDBRANCH  16  17
ENDBRANCH  14  16
ENDBRANCH  11  14
ENDBRANCH   7  10
ENDBRANCH   4   7
ENDBRANCH   2   3
ENDBRANCH   1   2
BRANCH   1  21
ATOM     21  C   UNL A   1      33.185  30.131  26.369  1.00  0.00     0.002 C 
BRANCH  21  22
ATOM     22  C   UNL A   1      31.724  30.556  26.539  1.00  0.00     0.002 C 
BRANCH  22  23
ATOM     23  C   UNL A   1      31.479  32.048  26.775  1.00  0.00     0.021 C 
BRANCH  23  24
ATOM     24  C   UNL A   1      32.700  32.854  27.201  1.00  0.00     0.116 C 
BRANCH  24  25
ATOM     25  N   UNL A   1      32.384  34.206  27.625  1.00  0.00    -0.352 N 
ATOM     26  C   UNL A   1      32.979  34.964  28.606  1.00  0.00     0.251 C 
ATOM     27  H   UNL A   1      31.640  34.638  27.146  1.00  0.00     0.163 HD
ATOM     28  O   UNL A   1      32.529  36.063  28.897  1.00  0.00    -0.269 OA
BRANCH  26  29
ATOM     29  C   UNL A   1      34.149  34.426  29.339  1.00  0.00     0.039 A 
ATOM     30  C   UNL A   1      33.929  33.765  30.551  1.00  0.00     0.014 A 
ATOM     31  C   UNL A   1      35.447  34.564  28.840  1.00  0.00     0.014 A 
ATOM     32  C   UNL A   1      35.004  33.189  31.230  1.00  0.00     0.010 A 
ATOM     33  C   UNL A   1      36.507  33.929  29.482  1.00  0.00     0.010 A 
ATOM     34  C   UNL A   1      36.298  33.239  30.685  1.00  0.00    -0.014 A 
BRANCH  34  35
ATOM     35  C   UNL A   1      37.441  32.581  31.364  1.00  0.00     0.031 A 
ATOM     36  C   UNL A   1      38.150  31.429  30.707  1.00  0.00     0.074 A 
ATOM     37  C   UNL A   1      37.804  32.981  32.599  1.00  0.00     0.049 A 
ATOM     38  N   UNL A   1      39.128  30.690  31.165  1.00  0.00    -0.248 NA
ATOM     39  C   UNL A   1      37.678  31.039  29.370  1.00  0.00     0.031 C 
ATOM     40  C   UNL A   1      37.161  34.051  33.365  1.00  0.00     0.029 A 
ATOM     41  N   UNL A   1      38.796  32.527  33.431  1.00  0.00    -0.354 N 
ATOM     42  C   UNL A   1      39.376  29.740  30.182  1.00  0.00     0.074 A 
ATOM     43  C   UNL A   1      38.413  29.963  29.126  1.00  0.00     0.031 C 
ATOM     44  C   UNL A   1      37.788  34.185  34.545  1.00  0.00     0.029 A 
ATOM     45  C   UNL A   1      38.855  33.192  34.631  1.00  0.00     0.049 A 
ATOM     46  H   UNL A   1      39.408  31.794  33.190  1.00  0.00     0.167 HD
ATOM     47  C   UNL A   1      40.334  28.783  30.151  1.00  0.00     0.037 A 
ATOM     48  C   UNL A   1      39.675  33.018  35.686  1.00  0.00     0.037 A 
ATOM     49  C   UNL A   1      41.311  28.585  31.189  1.00  0.00     0.049 A 
ATOM     50  C   UNL A   1      40.741  31.961  35.620  1.00  0.00     0.074 A 
ATOM     51  C   UNL A   1      42.362  27.686  31.222  1.00  0.00     0.029 A 
ATOM     52  N   UNL A   1      41.357  29.298  32.377  1.00  0.00    -0.354 N 
ATOM     53  N   UNL A   1      41.007  31.114  34.655  1.00  0.00    -0.248 NA
ATOM     54  C   UNL A   1      41.628  31.841  36.786  1.00  0.00     0.031 C 
ATOM     55  C   UNL A   1      43.022  27.829  32.447  1.00  0.00     0.029 A 
ATOM     56  C   UNL A   1      42.409  28.849  33.158  1.00  0.00     0.049 A 
ATOM     57  H   UNL A   1      40.734  30.018  32.627  1.00  0.00     0.167 HD
ATOM     58  C   UNL A   1      42.105  30.380  35.085  1.00  0.00     0.074 A 
ATOM     59  C   UNL A   1      42.463  30.890  36.392  1.00  0.00     0.031 C 
ATOM     60  C   UNL A   1      42.755  29.372  34.454  1.00  0.00     0.037 A 
BRANCH  47  61
ATOM     61  C   UNL A   1      40.374  27.882  28.952  1.00  0.00     0.057 A 
ATOM     62  C   UNL A   1      41.148  28.188  27.825  1.00  0.00     0.134 A 
ATOM     63  C   UNL A   1      39.658  26.680  28.936  1.00  0.00     0.134 A 
ATOM     64  F   UNL A   1      41.848  29.331  27.771  1.00  0.00    -0.206 F 
ATOM     65  C   UNL A   1      41.187  27.344  26.714  1.00  0.00     0.040 A 
ATOM     66  C   UNL A   1      39.710  25.813  27.842  1.00  0.00     0.040 A 
ATOM     67  F   UNL A   1      38.900  26.322  29.984  1.00  0.00    -0.206 F 
ATOM     68  C   UNL A   1      40.471  26.149  26.724  1.00  0.00     0.006 A 
ENDBRANCH  47  61
BRANCH  48  69
ATOM     69  C   UNL A   1      39.538  33.885  36.883  1.00  0.00     0.057 A 
ATOM     70  C   UNL A   1      40.168  35.134  36.945  1.00  0.00     0.134 A 
ATOM     71  C   UNL A   1      38.782  33.489  37.991  1.00  0.00     0.134 A 
ATOM     72  F   UNL A   1      40.922  35.560  35.920  1.00  0.00    -0.206 F 
ATOM     73  C   UNL A   1      40.065  35.951  38.072  1.00  0.00     0.040 A 
ATOM     74  C   UNL A   1      38.651  34.306  39.116  1.00  0.00     0.040 A 
ATOM     75  F   UNL A   1      38.147  32.307  37.990  1.00  0.00    -0.206 F 
ATOM     76  C   UNL A   1      39.300  35.537  39.161  1.00  0.00     0.006 A 
ENDBRANCH  48  69
BRANCH  60  77
ATOM     77  C   UNL A   1      43.941  28.779  35.155  1.00  0.00     0.057 A 
ATOM     78  C   UNL A   1      45.235  29.281  34.971  1.00  0.00     0.134 A 
ATOM     79  C   UNL A   1      43.780  27.718  36.056  1.00  0.00     0.134 A 
ATOM     80  F   UNL A   1      45.459  30.288  34.112  1.00  0.00    -0.206 F 
ATOM     81  C   UNL A   1      46.331  28.734  35.641  1.00  0.00     0.040 A 
ATOM     82  C   UNL A   1      44.862  27.180  36.750  1.00  0.00     0.040 A 
ATOM     83  F   UNL A   1      42.564  27.198  36.284  1.00  0.00    -0.206 F 
ATOM     84  C   UNL A   1      46.144  27.685  36.540  1.00  0.00     0.006 A 
ENDBRANCH  60  77
ENDBRANCH  34  35
ENDBRANCH  26  29
ENDBRANCH  24  25
ENDBRANCH  23  24
ENDBRANCH  22  23
ENDBRANCH  21  22
ENDBRANCH   1  21
TORSDOF 18
ENDMDL
