MODEL 1
REMARK VINA RESULT:     -11.6      0.000      0.000
REMARK SMILES CC[C@]1(C(=O)NCCCCCCNC(=O)c2ccc(-c3c4nc(c(-c5c(F)cccc5F)c5ccc([nH]5)c(-c5c(F)cccc5F)c5nc(c(-c6c(F)cccc6F)c6ccc3[nH]6)C=C5)C=C4)cc2)CC[N@H+](Cc2ccc(CC(C)C)cc2)C1
REMARK SMILES IDX 8 1 7 2 6 3 4 4 5 5 3 7 70 8 84 9 71 10 72 11 2 13 1 14
REMARK SMILES IDX 73 15 74 16 75 17 83 18 76 19 82 20 77 21 78 22 79 23 80 24
REMARK SMILES IDX 81 25 9 26 10 27 11 28 12 29 13 30 14 31 15 33 16 34 17 35
REMARK SMILES IDX 69 36 18 37 68 38 19 39 20 40 21 41 62 42 22 43 67 44 61 45
REMARK SMILES IDX 63 46 23 47 66 48 60 49 59 50 24 52 50 53 33 54 49 55 34 56
REMARK SMILES IDX 37 57 48 58 64 59 35 60 36 61 47 63 65 64 38 65 25 66 26 67
REMARK SMILES IDX 31 68 27 69 28 70 30 71 32 72 29 73 51 74 52 75 57 76 53 77
REMARK SMILES IDX 54 78 56 79 58 80 55 81 39 82 40 83 45 84 41 85 42 86 44 87
REMARK SMILES IDX 46 88 43 89
REMARK H PARENT 6 6 72 12 13 32 63 51 37 62
REMARK Flexibility Score: inf
ROOT
ATOM      1  C   UNL A   1      33.528  31.942  27.619  1.00  0.00     0.021 C 
ENDROOT
BRANCH   1   2
ATOM      2  C   UNL A   1      33.679  30.465  27.261  1.00  0.00     0.116 C 
BRANCH   2   3
ATOM      3  N   UNL A   1      32.542  29.647  27.626  1.00  0.00    -0.355 N 
ATOM      4  C   UNL A   1      32.101  28.443  27.175  1.00  0.00     0.232 C 
ATOM      5  O   UNL A   1      31.338  27.866  27.964  1.00  0.00    -0.274 OA
ATOM      6  H   UNL A   1      31.981  30.037  28.336  1.00  0.00     0.163 HD
BRANCH   4   7
ATOM      7  C   UNL A   1      32.507  27.753  25.829  1.00  0.00     0.103 C 
ATOM      8  C   UNL A   1      33.922  27.127  25.815  1.00  0.00     0.084 C 
ATOM      9  C   UNL A   1      31.580  26.559  25.567  1.00  0.00     0.279 C 
ATOM     10  C   UNL A   1      33.704  25.609  25.687  1.00  0.00     0.263 C 
ATOM     11  N   UNL A   1      32.338  25.463  26.147  1.00  0.00    -0.330 N 
ATOM     12  H   UNL A   1      32.346  25.537  27.164  1.00  0.00     0.348 HD
BRANCH   7  13
ATOM     13  C   UNL A   1      32.379  28.854  24.727  1.00  0.00     0.020 C 
ATOM     14  C   UNL A   1      31.029  29.542  24.577  1.00  0.00     0.005 C 
ENDBRANCH   7  13
BRANCH  11  15
ATOM     15  C   UNL A   1      31.720  24.150  26.222  1.00  0.00     0.299 C 
BRANCH  15  16
ATOM     16  C   UNL A   1      32.753  23.101  25.818  1.00  0.00     0.006 A 
ATOM     17  C   UNL A   1      33.363  22.284  26.775  1.00  0.00     0.010 A 
ATOM     18  C   UNL A   1      32.946  22.781  24.469  1.00  0.00     0.010 A 
ATOM     19  C   UNL A   1      34.021  21.100  26.395  1.00  0.00     0.004 A 
ATOM     20  C   UNL A   1      33.559  21.578  24.099  1.00  0.00     0.004 A 
ATOM     21  C   UNL A   1      34.063  20.687  25.058  1.00  0.00    -0.048 A 
BRANCH  21  22
ATOM     22  C   UNL A   1      34.317  19.253  24.624  1.00  0.00     0.038 C 
BRANCH  22  23
ATOM     23  C   UNL A   1      33.238  18.232  24.195  1.00  0.00    -0.013 C 
ATOM     24  C   UNL A   1      33.664  17.026  23.370  1.00  0.00     0.008 C 
ATOM     25  C   UNL A   1      32.528  17.716  25.464  1.00  0.00     0.008 C 
ENDBRANCH  22  23
ENDBRANCH  21  22
ENDBRANCH  15  16
ENDBRANCH  11  15
ENDBRANCH   4   7
ENDBRANCH   2   3
ENDBRANCH   1   2
BRANCH   1  26
ATOM     26  C   UNL A   1      34.792  32.622  28.156  1.00  0.00     0.002 C 
BRANCH  26  27
ATOM     27  C   UNL A   1      34.550  33.723  29.191  1.00  0.00     0.002 C 
BRANCH  27  28
ATOM     28  C   UNL A   1      33.257  34.512  29.015  1.00  0.00     0.021 C 
BRANCH  28  29
ATOM     29  C   UNL A   1      33.408  35.998  29.286  1.00  0.00     0.116 C 
BRANCH  29  30
ATOM     30  N   UNL A   1      32.586  36.454  30.411  1.00  0.00    -0.352 N 
ATOM     31  C   UNL A   1      32.550  36.091  31.738  1.00  0.00     0.251 C 
ATOM     32  H   UNL A   1      31.935  37.153  30.171  1.00  0.00     0.163 HD
ATOM     33  O   UNL A   1      31.630  36.487  32.452  1.00  0.00    -0.269 OA
BRANCH  31  34
ATOM     34  C   UNL A   1      33.591  35.212  32.311  1.00  0.00     0.039 A 
ATOM     35  C   UNL A   1      33.262  33.938  32.792  1.00  0.00     0.014 A 
ATOM     36  C   UNL A   1      34.908  35.648  32.378  1.00  0.00     0.014 A 
ATOM     37  C   UNL A   1      34.274  33.077  33.237  1.00  0.00     0.010 A 
ATOM     38  C   UNL A   1      35.918  34.744  32.652  1.00  0.00     0.010 A 
ATOM     39  C   UNL A   1      35.619  33.454  33.116  1.00  0.00    -0.014 A 
BRANCH  39  40
ATOM     40  C   UNL A   1      36.771  32.601  33.514  1.00  0.00     0.031 A 
ATOM     41  C   UNL A   1      37.442  32.880  34.836  1.00  0.00     0.074 A 
ATOM     42  C   UNL A   1      37.314  31.721  32.653  1.00  0.00     0.049 A 
ATOM     43  N   UNL A   1      38.640  32.556  35.249  1.00  0.00    -0.248 NA
ATOM     44  C   UNL A   1      36.689  33.718  35.786  1.00  0.00     0.031 C 
ATOM     45  C   UNL A   1      36.788  31.377  31.331  1.00  0.00     0.029 A 
ATOM     46  N   UNL A   1      38.465  30.979  32.754  1.00  0.00    -0.354 N 
ATOM     47  C   UNL A   1      38.805  33.214  36.462  1.00  0.00     0.074 A 
ATOM     48  C   UNL A   1      37.618  34.008  36.681  1.00  0.00     0.031 C 
ATOM     49  C   UNL A   1      37.603  30.478  30.752  1.00  0.00     0.029 A 
ATOM     50  C   UNL A   1      38.739  30.231  31.633  1.00  0.00     0.049 A 
ATOM     51  H   UNL A   1      39.039  30.981  33.554  1.00  0.00     0.167 HD
ATOM     52  C   UNL A   1      39.841  33.142  37.332  1.00  0.00     0.037 A 
ATOM     53  C   UNL A   1      39.803  29.457  31.343  1.00  0.00     0.037 A 
ATOM     54  C   UNL A   1      40.974  32.277  37.142  1.00  0.00     0.049 A 
ATOM     55  C   UNL A   1      40.924  29.351  32.341  1.00  0.00     0.074 A 
ATOM     56  C   UNL A   1      42.039  32.051  37.994  1.00  0.00     0.029 A 
ATOM     57  N   UNL A   1      41.169  31.473  36.028  1.00  0.00    -0.354 N 
ATOM     58  N   UNL A   1      41.062  29.955  33.498  1.00  0.00    -0.248 NA
ATOM     59  C   UNL A   1      42.039  28.458  31.996  1.00  0.00     0.031 C 
ATOM     60  C   UNL A   1      42.897  31.132  37.381  1.00  0.00     0.029 A 
ATOM     61  C   UNL A   1      42.339  30.751  36.170  1.00  0.00     0.049 A 
ATOM     62  H   UNL A   1      40.564  31.425  35.253  1.00  0.00     0.167 HD
ATOM     63  C   UNL A   1      42.254  29.483  34.036  1.00  0.00     0.074 A 
ATOM     64  C   UNL A   1      42.799  28.544  33.078  1.00  0.00     0.031 C 
ATOM     65  C   UNL A   1      42.842  29.795  35.216  1.00  0.00     0.037 A 
BRANCH  52  66
ATOM     66  C   UNL A   1      39.780  34.000  38.563  1.00  0.00     0.057 A 
ATOM     67  C   UNL A   1      40.347  35.281  38.607  1.00  0.00     0.134 A 
ATOM     68  C   UNL A   1      39.138  33.544  39.721  1.00  0.00     0.134 A 
ATOM     69  F   UNL A   1      40.987  35.779  37.537  1.00  0.00    -0.206 F 
ATOM     70  C   UNL A   1      40.319  36.056  39.767  1.00  0.00     0.040 A 
ATOM     71  C   UNL A   1      39.070  34.325  40.878  1.00  0.00     0.040 A 
ATOM     72  F   UNL A   1      38.564  32.331  39.752  1.00  0.00    -0.206 F 
ATOM     73  C   UNL A   1      39.674  35.580  40.906  1.00  0.00     0.006 A 
ENDBRANCH  52  66
BRANCH  53  74
ATOM     74  C   UNL A   1      39.845  28.694  30.069  1.00  0.00     0.057 A 
ATOM     75  C   UNL A   1      40.513  29.211  28.951  1.00  0.00     0.134 A 
ATOM     76  C   UNL A   1      39.229  27.446  29.928  1.00  0.00     0.134 A 
ATOM     77  F   UNL A   1      41.108  30.411  29.018  1.00  0.00    -0.206 F 
ATOM     78  C   UNL A   1      40.550  28.526  27.736  1.00  0.00     0.040 A 
ATOM     79  C   UNL A   1      39.280  26.736  28.727  1.00  0.00     0.040 A 
ATOM     80  F   UNL A   1      38.581  26.889  30.962  1.00  0.00    -0.206 F 
ATOM     81  C   UNL A   1      39.935  27.281  27.623  1.00  0.00     0.006 A 
ENDBRANCH  53  74
BRANCH  65  82
ATOM     82  C   UNL A   1      44.102  29.067  35.577  1.00  0.00     0.057 A 
ATOM     83  C   UNL A   1      45.369  29.598  35.314  1.00  0.00     0.134 A 
ATOM     84  C   UNL A   1      44.037  27.851  36.271  1.00  0.00     0.134 A 
ATOM     85  F   UNL A   1      45.496  30.754  34.644  1.00  0.00    -0.206 F 
ATOM     86  C   UNL A   1      46.531  28.940  35.721  1.00  0.00     0.040 A 
ATOM     87  C   UNL A   1      45.190  27.198  36.706  1.00  0.00     0.040 A 
ATOM     88  F   UNL A   1      42.852  27.295  36.563  1.00  0.00    -0.206 F 
ATOM     89  C   UNL A   1      46.442  27.741  36.427  1.00  0.00     0.006 A 
ENDBRANCH  65  82
ENDBRANCH  39  40
ENDBRANCH  31  34
ENDBRANCH  29  30
ENDBRANCH  28  29
ENDBRANCH  27  28
ENDBRANCH  26  27
ENDBRANCH   1  26
TORSDOF 18
ENDMDL
MODEL 2
REMARK VINA RESULT:     -11.3      1.071      2.144
REMARK SMILES CC[C@]1(C(=O)NCCCCCCNC(=O)c2ccc(-c3c4nc(c(-c5c(F)cccc5F)c5ccc([nH]5)c(-c5c(F)cccc5F)c5nc(c(-c6c(F)cccc6F)c6ccc3[nH]6)C=C5)C=C4)cc2)CC[N@H+](Cc2ccc(CC(C)C)cc2)C1
REMARK SMILES IDX 8 1 7 2 6 3 4 4 5 5 3 7 70 8 84 9 71 10 72 11 2 13 1 14
REMARK SMILES IDX 73 15 74 16 75 17 83 18 76 19 82 20 77 21 78 22 79 23 80 24
REMARK SMILES IDX 81 25 9 26 10 27 11 28 12 29 13 30 14 31 15 33 16 34 17 35
REMARK SMILES IDX 69 36 18 37 68 38 19 39 20 40 21 41 62 42 22 43 67 44 61 45
REMARK SMILES IDX 63 46 23 47 66 48 60 49 59 50 24 52 50 53 33 54 49 55 34 56
REMARK SMILES IDX 37 57 48 58 64 59 35 60 36 61 47 63 65 64 38 65 25 66 26 67
REMARK SMILES IDX 31 68 27 69 28 70 30 71 32 72 29 73 51 74 52 75 57 76 53 77
REMARK SMILES IDX 54 78 56 79 58 80 55 81 39 82 40 83 45 84 41 85 42 86 44 87
REMARK SMILES IDX 46 88 43 89
REMARK H PARENT 6 6 72 12 13 32 63 51 37 62
REMARK Flexibility Score: inf
ROOT
ATOM      1  C   UNL A   1      33.916  31.787  28.065  1.00  0.00     0.021 C 
ENDROOT
BRANCH   1   2
ATOM      2  C   UNL A   1      34.096  30.408  27.433  1.00  0.00     0.116 C 
BRANCH   2   3
ATOM      3  N   UNL A   1      33.084  29.446  27.811  1.00  0.00    -0.355 N 
ATOM      4  C   UNL A   1      32.308  28.603  27.080  1.00  0.00     0.232 C 
ATOM      5  O   UNL A   1      31.840  27.661  27.738  1.00  0.00    -0.274 OA
ATOM      6  H   UNL A   1      32.926  29.392  28.782  1.00  0.00     0.163 HD
BRANCH   4   7
ATOM      7  C   UNL A   1      32.021  28.705  25.544  1.00  0.00     0.103 C 
ATOM      8  C   UNL A   1      33.261  28.534  24.634  1.00  0.00     0.084 C 
ATOM      9  C   UNL A   1      31.098  27.555  25.119  1.00  0.00     0.279 C 
ATOM     10  C   UNL A   1      33.027  27.228  23.854  1.00  0.00     0.263 C 
ATOM     11  N   UNL A   1      32.056  26.550  24.689  1.00  0.00    -0.330 N 
ATOM     12  H   UNL A   1      32.554  26.169  25.493  1.00  0.00     0.348 HD
BRANCH   7  13
ATOM     13  C   UNL A   1      31.362  30.104  25.323  1.00  0.00     0.020 C 
ATOM     14  C   UNL A   1      30.380  30.243  24.167  1.00  0.00     0.005 C 
ENDBRANCH   7  13
BRANCH  11  15
ATOM     15  C   UNL A   1      31.568  25.230  24.332  1.00  0.00     0.299 C 
BRANCH  15  16
ATOM     16  C   UNL A   1      32.397  24.186  25.077  1.00  0.00     0.006 A 
ATOM     17  C   UNL A   1      32.319  22.830  24.742  1.00  0.00     0.010 A 
ATOM     18  C   UNL A   1      33.411  24.582  25.955  1.00  0.00     0.010 A 
ATOM     19  C   UNL A   1      33.317  21.929  25.156  1.00  0.00     0.004 A 
ATOM     20  C   UNL A   1      34.428  23.694  26.324  1.00  0.00     0.004 A 
ATOM     21  C   UNL A   1      34.430  22.360  25.888  1.00  0.00    -0.048 A 
BRANCH  21  22
ATOM     22  C   UNL A   1      35.739  21.594  25.966  1.00  0.00     0.038 C 
BRANCH  22  23
ATOM     23  C   UNL A   1      36.863  21.612  24.904  1.00  0.00    -0.013 C 
ATOM     24  C   UNL A   1      36.667  22.456  23.652  1.00  0.00     0.008 C 
ATOM     25  C   UNL A   1      38.169  22.068  25.588  1.00  0.00     0.008 C 
ENDBRANCH  22  23
ENDBRANCH  21  22
ENDBRANCH  15  16
ENDBRANCH  11  15
ENDBRANCH   4   7
ENDBRANCH   2   3
ENDBRANCH   1   2
BRANCH   1  26
ATOM     26  C   UNL A   1      35.196  32.617  28.210  1.00  0.00     0.002 C 
BRANCH  26  27
ATOM     27  C   UNL A   1      35.043  33.918  29.002  1.00  0.00     0.002 C 
BRANCH  27  28
ATOM     28  C   UNL A   1      33.615  34.434  29.140  1.00  0.00     0.021 C 
BRANCH  28  29
ATOM     29  C   UNL A   1      33.518  35.948  29.206  1.00  0.00     0.116 C 
BRANCH  29  30
ATOM     30  N   UNL A   1      32.696  36.413  30.326  1.00  0.00    -0.352 N 
ATOM     31  C   UNL A   1      32.658  36.059  31.656  1.00  0.00     0.251 C 
ATOM     32  H   UNL A   1      32.048  37.113  30.082  1.00  0.00     0.163 HD
ATOM     33  O   UNL A   1      31.739  36.463  32.367  1.00  0.00    -0.269 OA
BRANCH  31  34
ATOM     34  C   UNL A   1      33.695  35.179  32.235  1.00  0.00     0.039 A 
ATOM     35  C   UNL A   1      33.364  33.903  32.708  1.00  0.00     0.014 A 
ATOM     36  C   UNL A   1      35.010  35.617  32.317  1.00  0.00     0.014 A 
ATOM     37  C   UNL A   1      34.373  33.042  33.159  1.00  0.00     0.010 A 
ATOM     38  C   UNL A   1      36.019  34.714  32.597  1.00  0.00     0.010 A 
ATOM     39  C   UNL A   1      35.718  33.422  33.052  1.00  0.00    -0.014 A 
BRANCH  39  40
ATOM     40  C   UNL A   1      36.867  32.569  33.458  1.00  0.00     0.031 A 
ATOM     41  C   UNL A   1      37.541  32.858  34.777  1.00  0.00     0.074 A 
ATOM     42  C   UNL A   1      37.408  31.679  32.605  1.00  0.00     0.049 A 
ATOM     43  N   UNL A   1      38.737  32.535  35.192  1.00  0.00    -0.248 NA
ATOM     44  C   UNL A   1      36.790  33.708  35.720  1.00  0.00     0.031 C 
ATOM     45  C   UNL A   1      36.880  31.324  31.287  1.00  0.00     0.029 A 
ATOM     46  N   UNL A   1      38.556  30.935  32.713  1.00  0.00    -0.354 N 
ATOM     47  C   UNL A   1      38.905  33.204  36.399  1.00  0.00     0.074 A 
ATOM     48  C   UNL A   1      37.721  34.004  36.611  1.00  0.00     0.031 C 
ATOM     49  C   UNL A   1      37.692  30.418  30.716  1.00  0.00     0.029 A 
ATOM     50  C   UNL A   1      38.828  30.176  31.599  1.00  0.00     0.049 A 
ATOM     51  H   UNL A   1      39.131  30.943  33.512  1.00  0.00     0.167 HD
ATOM     52  C   UNL A   1      39.942  33.137  37.269  1.00  0.00     0.037 A 
ATOM     53  C   UNL A   1      39.890  29.396  31.316  1.00  0.00     0.037 A 
ATOM     54  C   UNL A   1      41.071  32.267  37.087  1.00  0.00     0.049 A 
ATOM     55  C   UNL A   1      41.011  29.296  32.314  1.00  0.00     0.074 A 
ATOM     56  C   UNL A   1      42.137  32.046  37.940  1.00  0.00     0.029 A 
ATOM     57  N   UNL A   1      41.264  31.452  35.981  1.00  0.00    -0.354 N 
ATOM     58  N   UNL A   1      41.151  29.910  33.465  1.00  0.00    -0.248 NA
ATOM     59  C   UNL A   1      42.123  28.396  31.976  1.00  0.00     0.031 C 
ATOM     60  C   UNL A   1      42.991  31.119  37.335  1.00  0.00     0.029 A 
ATOM     61  C   UNL A   1      42.432  30.728  36.129  1.00  0.00     0.049 A 
ATOM     62  H   UNL A   1      40.658  31.398  35.206  1.00  0.00     0.167 HD
ATOM     63  C   UNL A   1      42.342  29.439  34.006  1.00  0.00     0.074 A 
ATOM     64  C   UNL A   1      42.884  28.490  33.058  1.00  0.00     0.031 C 
ATOM     65  C   UNL A   1      42.931  29.761  35.184  1.00  0.00     0.037 A 
BRANCH  52  66
ATOM     66  C   UNL A   1      39.883  34.007  38.492  1.00  0.00     0.057 A 
ATOM     67  C   UNL A   1      39.214  33.609  39.658  1.00  0.00     0.134 A 
ATOM     68  C   UNL A   1      40.510  35.260  38.509  1.00  0.00     0.134 A 
ATOM     69  F   UNL A   1      38.583  32.427  39.709  1.00  0.00    -0.206 F 
ATOM     70  C   UNL A   1      39.132  34.441  40.776  1.00  0.00     0.040 A 
ATOM     71  C   UNL A   1      40.467  36.085  39.635  1.00  0.00     0.040 A 
ATOM     72  F   UNL A   1      41.177  35.704  37.433  1.00  0.00    -0.206 F 
ATOM     73  C   UNL A   1      39.765  35.682  40.768  1.00  0.00     0.006 A 
ENDBRANCH  52  66
BRANCH  53  74
ATOM     74  C   UNL A   1      39.928  28.621  30.049  1.00  0.00     0.057 A 
ATOM     75  C   UNL A   1      39.261  27.393  29.944  1.00  0.00     0.134 A 
ATOM     76  C   UNL A   1      40.621  29.073  28.920  1.00  0.00     0.134 A 
ATOM     77  F   UNL A   1      38.594  26.897  30.997  1.00  0.00    -0.206 F 
ATOM     78  C   UNL A   1      39.298  26.634  28.773  1.00  0.00     0.040 A 
ATOM     79  C   UNL A   1      40.644  28.338  27.733  1.00  0.00     0.040 A 
ATOM     80  F   UNL A   1      41.271  30.245  28.950  1.00  0.00    -0.206 F 
ATOM     81  C   UNL A   1      39.989  27.110  27.660  1.00  0.00     0.006 A 
ENDBRANCH  53  74
BRANCH  65  82
ATOM     82  C   UNL A   1      44.190  29.033  35.551  1.00  0.00     0.057 A 
ATOM     83  C   UNL A   1      44.171  27.838  36.278  1.00  0.00     0.134 A 
ATOM     84  C   UNL A   1      45.430  29.502  35.098  1.00  0.00     0.134 A 
ATOM     85  F   UNL A   1      43.016  27.344  36.747  1.00  0.00    -0.206 F 
ATOM     86  C   UNL A   1      45.347  27.136  36.550  1.00  0.00     0.040 A 
ATOM     87  C   UNL A   1      46.608  28.796  35.341  1.00  0.00     0.040 A 
ATOM     88  F   UNL A   1      45.512  30.636  34.387  1.00  0.00    -0.206 F 
ATOM     89  C   UNL A   1      46.569  27.610  36.072  1.00  0.00     0.006 A 
ENDBRANCH  65  82
ENDBRANCH  39  40
ENDBRANCH  31  34
ENDBRANCH  29  30
ENDBRANCH  28  29
ENDBRANCH  27  28
ENDBRANCH  26  27
ENDBRANCH   1  26
TORSDOF 18
ENDMDL
MODEL 3
REMARK VINA RESULT:     -11.3      5.360      9.721
REMARK SMILES CC[C@]1(C(=O)NCCCCCCNC(=O)c2ccc(-c3c4nc(c(-c5c(F)cccc5F)c5ccc([nH]5)c(-c5c(F)cccc5F)c5nc(c(-c6c(F)cccc6F)c6ccc3[nH]6)C=C5)C=C4)cc2)CC[N@H+](Cc2ccc(CC(C)C)cc2)C1
REMARK SMILES IDX 8 1 7 2 6 3 4 4 5 5 3 7 70 8 84 9 71 10 72 11 2 13 1 14
REMARK SMILES IDX 73 15 74 16 75 17 83 18 76 19 82 20 77 21 78 22 79 23 80 24
REMARK SMILES IDX 81 25 9 26 10 27 11 28 12 29 13 30 14 31 15 33 16 34 17 35
REMARK SMILES IDX 69 36 18 37 68 38 19 39 20 40 21 41 62 42 22 43 67 44 61 45
REMARK SMILES IDX 63 46 23 47 66 48 60 49 59 50 24 52 50 53 33 54 49 55 34 56
REMARK SMILES IDX 37 57 48 58 64 59 35 60 36 61 47 63 65 64 38 65 25 66 26 67
REMARK SMILES IDX 31 68 27 69 28 70 30 71 32 72 29 73 51 74 52 75 57 76 53 77
REMARK SMILES IDX 54 78 56 79 58 80 55 81 39 82 40 83 45 84 41 85 42 86 44 87
REMARK SMILES IDX 46 88 43 89
REMARK H PARENT 6 6 72 12 13 32 63 51 37 62
REMARK Flexibility Score: inf
ROOT
ATOM      1  C   UNL A   1      36.163  24.065  25.067  1.00  0.00     0.021 C 
ENDROOT
BRANCH   1   2
ATOM      2  C   UNL A   1      34.822  24.682  25.462  1.00  0.00     0.116 C 
BRANCH   2   3
ATOM      3  N   UNL A   1      34.310  25.645  24.512  1.00  0.00    -0.355 N 
ATOM      4  C   UNL A   1      33.352  26.604  24.611  1.00  0.00     0.232 C 
ATOM      5  O   UNL A   1      33.442  27.488  23.745  1.00  0.00    -0.274 OA
ATOM      6  H   UNL A   1      34.735  25.596  23.624  1.00  0.00     0.163 HD
BRANCH   4   7
ATOM      7  C   UNL A   1      32.238  26.691  25.708  1.00  0.00     0.103 C 
ATOM      8  C   UNL A   1      30.813  26.973  25.174  1.00  0.00     0.084 C 
ATOM      9  C   UNL A   1      32.101  25.331  26.405  1.00  0.00     0.279 C 
ATOM     10  C   UNL A   1      29.997  25.704  25.476  1.00  0.00     0.263 C 
ATOM     11  N   UNL A   1      31.038  24.709  25.633  1.00  0.00    -0.330 N 
ATOM     12  H   UNL A   1      31.373  24.464  24.702  1.00  0.00     0.348 HD
BRANCH   7  13
ATOM     13  C   UNL A   1      32.692  27.816  26.692  1.00  0.00     0.020 C 
ATOM     14  C   UNL A   1      31.622  28.462  27.562  1.00  0.00     0.005 C 
ENDBRANCH   7  13
BRANCH  11  15
ATOM     15  C   UNL A   1      30.700  23.322  25.904  1.00  0.00     0.299 C 
BRANCH  15  16
ATOM     16  C   UNL A   1      31.902  22.449  25.550  1.00  0.00     0.006 A 
ATOM     17  C   UNL A   1      32.659  21.827  26.548  1.00  0.00     0.010 A 
ATOM     18  C   UNL A   1      32.138  22.073  24.224  1.00  0.00     0.010 A 
ATOM     19  C   UNL A   1      33.517  20.756  26.237  1.00  0.00     0.004 A 
ATOM     20  C   UNL A   1      32.955  20.977  23.924  1.00  0.00     0.004 A 
ATOM     21  C   UNL A   1      33.621  20.262  24.931  1.00  0.00    -0.048 A 
BRANCH  21  22
ATOM     22  C   UNL A   1      34.127  18.870  24.592  1.00  0.00     0.038 C 
BRANCH  22  23
ATOM     23  C   UNL A   1      33.279  17.716  24.007  1.00  0.00    -0.013 C 
ATOM     24  C   UNL A   1      33.986  16.616  23.229  1.00  0.00     0.008 C 
ATOM     25  C   UNL A   1      32.497  17.057  25.162  1.00  0.00     0.008 C 
ENDBRANCH  22  23
ENDBRANCH  21  22
ENDBRANCH  15  16
ENDBRANCH  11  15
ENDBRANCH   4   7
ENDBRANCH   2   3
ENDBRANCH   1   2
BRANCH   1  26
ATOM     26  C   UNL A   1      36.336  22.584  25.420  1.00  0.00     0.002 C 
BRANCH  26  27
ATOM     27  C   UNL A   1      36.850  21.700  24.282  1.00  0.00     0.002 C 
BRANCH  27  28
ATOM     28  C   UNL A   1      37.631  20.464  24.716  1.00  0.00     0.021 C 
BRANCH  28  29
ATOM     29  C   UNL A   1      38.703  20.754  25.750  1.00  0.00     0.116 C 
BRANCH  29  30
ATOM     30  N   UNL A   1      39.771  19.750  25.754  1.00  0.00    -0.352 N 
ATOM     31  C   UNL A   1      41.121  19.836  26.006  1.00  0.00     0.251 C 
ATOM     32  H   UNL A   1      39.463  18.840  25.537  1.00  0.00     0.163 HD
ATOM     33  O   UNL A   1      41.849  18.875  25.757  1.00  0.00    -0.269 OA
BRANCH  31  34
ATOM     34  C   UNL A   1      41.714  21.077  26.547  1.00  0.00     0.039 A 
ATOM     35  C   UNL A   1      42.072  22.127  25.693  1.00  0.00     0.014 A 
ATOM     36  C   UNL A   1      41.921  21.208  27.914  1.00  0.00     0.014 A 
ATOM     37  C   UNL A   1      42.536  23.336  26.230  1.00  0.00     0.010 A 
ATOM     38  C   UNL A   1      42.211  22.448  28.450  1.00  0.00     0.010 A 
ATOM     39  C   UNL A   1      42.554  23.525  27.619  1.00  0.00    -0.014 A 
BRANCH  39  40
ATOM     40  C   UNL A   1      42.984  24.781  28.290  1.00  0.00     0.031 A 
ATOM     41  C   UNL A   1      41.936  25.824  28.591  1.00  0.00     0.074 A 
ATOM     42  C   UNL A   1      44.288  25.063  28.469  1.00  0.00     0.049 A 
ATOM     43  N   UNL A   1      42.074  27.104  28.820  1.00  0.00    -0.248 NA
ATOM     44  C   UNL A   1      40.534  25.374  28.537  1.00  0.00     0.031 C 
ATOM     45  C   UNL A   1      45.407  24.161  28.191  1.00  0.00     0.029 A 
ATOM     46  N   UNL A   1      44.894  26.218  28.896  1.00  0.00    -0.354 N 
ATOM     47  C   UNL A   1      40.782  27.616  28.856  1.00  0.00     0.074 A 
ATOM     48  C   UNL A   1      39.883  26.525  28.557  1.00  0.00     0.031 C 
ATOM     49  C   UNL A   1      46.561  24.790  28.472  1.00  0.00     0.029 A 
ATOM     50  C   UNL A   1      46.267  26.157  28.888  1.00  0.00     0.049 A 
ATOM     51  H   UNL A   1      44.392  27.016  29.181  1.00  0.00     0.167 HD
ATOM     52  C   UNL A   1      40.377  28.877  29.142  1.00  0.00     0.037 A 
ATOM     53  C   UNL A   1      47.182  27.108  29.161  1.00  0.00     0.037 A 
ATOM     54  C   UNL A   1      41.278  29.929  29.527  1.00  0.00     0.049 A 
ATOM     55  C   UNL A   1      46.713  28.491  29.522  1.00  0.00     0.074 A 
ATOM     56  C   UNL A   1      40.979  31.219  29.925  1.00  0.00     0.029 A 
ATOM     57  N   UNL A   1      42.658  29.797  29.586  1.00  0.00    -0.354 N 
ATOM     58  N   UNL A   1      45.490  28.962  29.581  1.00  0.00    -0.248 NA
ATOM     59  C   UNL A   1      47.750  29.478  29.854  1.00  0.00     0.031 C 
ATOM     60  C   UNL A   1      42.182  31.878  30.196  1.00  0.00     0.029 A 
ATOM     61  C   UNL A   1      43.225  30.983  30.013  1.00  0.00     0.049 A 
ATOM     62  H   UNL A   1      43.158  28.979  29.358  1.00  0.00     0.167 HD
ATOM     63  C   UNL A   1      45.608  30.282  29.998  1.00  0.00     0.074 A 
ATOM     64  C   UNL A   1      47.022  30.538  30.176  1.00  0.00     0.031 C 
ATOM     65  C   UNL A   1      44.635  31.199  30.217  1.00  0.00     0.037 A 
BRANCH  52  66
ATOM     66  C   UNL A   1      38.905  29.170  29.068  1.00  0.00     0.057 A 
ATOM     67  C   UNL A   1      38.077  29.108  30.198  1.00  0.00     0.134 A 
ATOM     68  C   UNL A   1      38.307  29.526  27.853  1.00  0.00     0.134 A 
ATOM     69  F   UNL A   1      38.580  28.764  31.392  1.00  0.00    -0.206 F 
ATOM     70  C   UNL A   1      36.703  29.345  30.113  1.00  0.00     0.040 A 
ATOM     71  C   UNL A   1      36.940  29.801  27.762  1.00  0.00     0.040 A 
ATOM     72  F   UNL A   1      39.038  29.614  26.731  1.00  0.00    -0.206 F 
ATOM     73  C   UNL A   1      36.132  29.698  28.892  1.00  0.00     0.006 A 
ENDBRANCH  52  66
BRANCH  53  74
ATOM     74  C   UNL A   1      48.630  26.777  29.137  1.00  0.00     0.057 A 
ATOM     75  C   UNL A   1      49.259  26.248  30.271  1.00  0.00     0.134 A 
ATOM     76  C   UNL A   1      49.420  26.976  27.999  1.00  0.00     0.134 A 
ATOM     77  F   UNL A   1      48.559  26.050  31.398  1.00  0.00    -0.206 F 
ATOM     78  C   UNL A   1      50.622  25.948  30.283  1.00  0.00     0.040 A 
ATOM     79  C   UNL A   1      50.779  26.656  27.987  1.00  0.00     0.040 A 
ATOM     80  F   UNL A   1      48.879  27.470  26.876  1.00  0.00    -0.206 F 
ATOM     81  C   UNL A   1      51.386  26.148  29.135  1.00  0.00     0.006 A 
ENDBRANCH  53  74
BRANCH  65  82
ATOM     82  C   UNL A   1      45.051  32.541  30.742  1.00  0.00     0.057 A 
ATOM     83  C   UNL A   1      45.329  33.618  29.893  1.00  0.00     0.134 A 
ATOM     84  C   UNL A   1      45.096  32.772  32.123  1.00  0.00     0.134 A 
ATOM     85  F   UNL A   1      45.312  33.457  28.562  1.00  0.00    -0.206 F 
ATOM     86  C   UNL A   1      45.646  34.879  30.401  1.00  0.00     0.040 A 
ATOM     87  C   UNL A   1      45.386  34.034  32.642  1.00  0.00     0.040 A 
ATOM     88  F   UNL A   1      44.829  31.782  32.989  1.00  0.00    -0.206 F 
ATOM     89  C   UNL A   1      45.665  35.091  31.779  1.00  0.00     0.006 A 
ENDBRANCH  65  82
ENDBRANCH  39  40
ENDBRANCH  31  34
ENDBRANCH  29  30
ENDBRANCH  28  29
ENDBRANCH  27  28
ENDBRANCH  26  27
ENDBRANCH   1  26
TORSDOF 18
ENDMDL
