MODEL 1
REMARK VINA RESULT:     -11.3      0.000      0.000
REMARK SMILES CCCCN(c1ccccc1C(=O)NCCCCCCNC(=O)c1ccc(-c2c3nc(c(-c4c(F)cccc4F)c4ccc([nH]4)c(-c4c(F)cccc4F)c4nc(c(-c5c(F)cccc5F)c5ccc2[nH]5)C=C4)C=C3)cc1)S(=O)(=O)c1ccc2c(c1)oc(=O)n2C
REMARK SMILES IDX 16 1 15 2 14 3 12 4 13 5 11 7 6 8 7 9 8 10 10 11 9 12 5 13
REMARK SMILES IDX 4 14 3 15 2 16 1 17 78 18 79 19 80 20 81 21 82 22 86 23
REMARK SMILES IDX 83 24 85 25 84 26 87 27 90 28 88 29 91 30 89 31 17 32 18 33
REMARK SMILES IDX 19 34 20 35 21 36 22 37 23 39 24 40 25 41 77 42 26 43 76 44
REMARK SMILES IDX 27 45 28 46 29 47 70 48 30 49 75 50 69 51 71 52 31 53 74 54
REMARK SMILES IDX 68 55 67 56 32 58 58 59 41 60 57 61 42 62 45 63 56 64 72 65
REMARK SMILES IDX 43 66 44 67 55 69 73 70 46 71 33 72 34 73 39 74 35 75 36 76
REMARK SMILES IDX 38 77 40 78 37 79 59 80 60 81 65 82 61 83 62 84 64 85 66 86
REMARK SMILES IDX 63 87 47 88 48 89 53 90 49 91 50 92 52 93 54 94 51 95
REMARK H PARENT 14 6 21 38 71 57 45 68
REMARK Flexibility Score: inf
ROOT
ATOM      1  C   UNL A   1      35.634  22.553  25.622  1.00  0.00     0.021 C 
ENDROOT
BRANCH   1   2
ATOM      2  C   UNL A   1      35.739  23.982  25.088  1.00  0.00     0.116 C 
BRANCH   2   3
ATOM      3  N   UNL A   1      34.964  24.299  23.916  1.00  0.00    -0.352 N 
ATOM      4  C   UNL A   1      34.010  25.264  23.699  1.00  0.00     0.253 C 
ATOM      5  O   UNL A   1      33.554  25.320  22.551  1.00  0.00    -0.269 OA
ATOM      6  H   UNL A   1      35.151  23.727  23.137  1.00  0.00     0.163 HD
BRANCH   4   7
ATOM      7  C   UNL A   1      33.431  26.213  24.711  1.00  0.00     0.064 A 
ATOM      8  C   UNL A   1      32.344  26.032  25.593  1.00  0.00     0.065 A 
ATOM      9  C   UNL A   1      32.176  26.933  26.671  1.00  0.00     0.028 A 
ATOM     10  C   UNL A   1      32.976  28.062  26.824  1.00  0.00     0.002 A 
ATOM     11  C   UNL A   1      34.238  27.365  24.901  1.00  0.00     0.016 A 
ATOM     12  C   UNL A   1      34.004  28.287  25.926  1.00  0.00     0.001 A 
BRANCH   8  13
ATOM     13  N   UNL A   1      31.422  24.923  25.585  1.00  0.00    -0.266 N 
BRANCH  13  14
ATOM     14  C   UNL A   1      30.277  25.031  24.636  1.00  0.00     0.136 C 
BRANCH  14  15
ATOM     15  C   UNL A   1      29.497  26.324  24.385  1.00  0.00     0.022 C 
BRANCH  15  16
ATOM     16  C   UNL A   1      29.793  27.375  23.315  1.00  0.00    -0.002 C 
ATOM     17  C   UNL A   1      30.598  28.593  23.707  1.00  0.00     0.004 C 
ENDBRANCH  15  16
ENDBRANCH  14  15
ENDBRANCH  13  14
BRANCH  13  18
ATOM     18  S   UNL A   1      31.750  23.573  26.561  1.00  0.00     0.264 S 
ATOM     19  O   UNL A   1      32.990  23.811  27.271  1.00  0.00    -0.201 OA
ATOM     20  O   UNL A   1      30.537  23.239  27.276  1.00  0.00    -0.201 OA
BRANCH  18  21
ATOM     21  C   UNL A   1      32.101  22.147  25.528  1.00  0.00     0.091 A 
ATOM     22  C   UNL A   1      31.972  22.274  24.123  1.00  0.00     0.025 A 
ATOM     23  C   UNL A   1      32.304  20.892  26.117  1.00  0.00     0.071 A 
ATOM     24  C   UNL A   1      32.110  21.161  23.288  1.00  0.00     0.032 A 
ATOM     25  C   UNL A   1      32.421  19.812  25.267  1.00  0.00     0.157 A 
ATOM     26  C   UNL A   1      32.339  19.945  23.894  1.00  0.00     0.090 A 
ATOM     27  O   UNL A   1      32.614  18.498  25.666  1.00  0.00    -0.408 OA
ATOM     28  N   UNL A   1      32.505  18.682  23.383  1.00  0.00    -0.277 N 
ATOM     29  C   UNL A   1      32.668  17.809  24.444  1.00  0.00     0.419 A 
ATOM     30  C   UNL A   1      32.571  18.307  22.001  1.00  0.00     0.157 C 
ATOM     31  O   UNL A   1      32.846  16.606  24.363  1.00  0.00    -0.223 OA
ENDBRANCH  18  21
ENDBRANCH  13  18
ENDBRANCH   8  13
ENDBRANCH   4   7
ENDBRANCH   2   3
ENDBRANCH   1   2
BRANCH   1  32
ATOM     32  C   UNL A   1      35.945  21.377  24.675  1.00  0.00     0.002 C 
BRANCH  32  33
ATOM     33  C   UNL A   1      37.398  21.112  24.264  1.00  0.00     0.002 C 
BRANCH  33  34
ATOM     34  C   UNL A   1      38.180  19.919  24.850  1.00  0.00     0.021 C 
BRANCH  34  35
ATOM     35  C   UNL A   1      39.039  20.116  26.100  1.00  0.00     0.116 C 
BRANCH  35  36
ATOM     36  N   UNL A   1      40.258  19.331  25.988  1.00  0.00    -0.352 N 
ATOM     37  C   UNL A   1      41.551  19.777  25.856  1.00  0.00     0.251 C 
ATOM     38  H   UNL A   1      40.142  18.353  26.006  1.00  0.00     0.163 HD
ATOM     39  O   UNL A   1      42.371  19.073  25.274  1.00  0.00    -0.269 OA
BRANCH  37  40
ATOM     40  C   UNL A   1      41.990  21.072  26.442  1.00  0.00     0.039 A 
ATOM     41  C   UNL A   1      41.964  21.217  27.833  1.00  0.00     0.014 A 
ATOM     42  C   UNL A   1      42.290  22.180  25.641  1.00  0.00     0.014 A 
ATOM     43  C   UNL A   1      42.220  22.463  28.415  1.00  0.00     0.010 A 
ATOM     44  C   UNL A   1      42.604  23.413  26.229  1.00  0.00     0.010 A 
ATOM     45  C   UNL A   1      42.544  23.577  27.622  1.00  0.00    -0.014 A 
BRANCH  45  46
ATOM     46  C   UNL A   1      42.804  24.894  28.267  1.00  0.00     0.031 A 
ATOM     47  C   UNL A   1      44.189  25.293  28.706  1.00  0.00     0.074 A 
ATOM     48  C   UNL A   1      41.781  25.752  28.448  1.00  0.00     0.049 A 
ATOM     49  N   UNL A   1      44.608  26.443  29.179  1.00  0.00    -0.248 NA
ATOM     50  C   UNL A   1      45.236  24.266  28.623  1.00  0.00     0.031 C 
ATOM     51  C   UNL A   1      40.381  25.466  28.132  1.00  0.00     0.029 A 
ATOM     52  N   UNL A   1      41.760  27.039  28.927  1.00  0.00    -0.354 N 
ATOM     53  C   UNL A   1      45.961  26.274  29.452  1.00  0.00     0.074 A 
ATOM     54  C   UNL A   1      46.278  24.896  29.145  1.00  0.00     0.031 C 
ATOM     55  C   UNL A   1      39.644  26.557  28.390  1.00  0.00     0.029 A 
ATOM     56  C   UNL A   1      40.511  27.608  28.915  1.00  0.00     0.049 A 
ATOM     57  H   UNL A   1      42.564  27.507  29.249  1.00  0.00     0.167 HD
ATOM     58  C   UNL A   1      46.860  27.186  29.901  1.00  0.00     0.037 A 
ATOM     59  C   UNL A   1      40.104  28.839  29.277  1.00  0.00     0.037 A 
ATOM     60  C   UNL A   1      46.541  28.560  30.206  1.00  0.00     0.049 A 
ATOM     61  C   UNL A   1      41.119  29.843  29.743  1.00  0.00     0.074 A 
ATOM     62  C   UNL A   1      47.393  29.578  30.597  1.00  0.00     0.029 A 
ATOM     63  N   UNL A   1      45.264  29.102  30.173  1.00  0.00    -0.354 N 
ATOM     64  N   UNL A   1      42.413  29.701  29.900  1.00  0.00    -0.248 NA
ATOM     65  C   UNL A   1      40.620  31.188  30.063  1.00  0.00     0.031 C 
ATOM     66  C   UNL A   1      46.624  30.718  30.864  1.00  0.00     0.029 A 
ATOM     67  C   UNL A   1      45.300  30.431  30.571  1.00  0.00     0.049 A 
ATOM     68  H   UNL A   1      44.451  28.615  29.908  1.00  0.00     0.167 HD
ATOM     69  C   UNL A   1      42.887  30.937  30.320  1.00  0.00     0.074 A 
ATOM     70  C   UNL A   1      41.743  31.825  30.364  1.00  0.00     0.031 C 
ATOM     71  C   UNL A   1      44.154  31.305  30.637  1.00  0.00     0.037 A 
BRANCH  58  72
ATOM     72  C   UNL A   1      48.276  26.719  30.110  1.00  0.00     0.057 A 
ATOM     73  C   UNL A   1      48.688  26.081  31.289  1.00  0.00     0.134 A 
ATOM     74  C   UNL A   1      49.242  26.894  29.108  1.00  0.00     0.134 A 
ATOM     75  F   UNL A   1      47.820  25.882  32.293  1.00  0.00    -0.206 F 
ATOM     76  C   UNL A   1      50.010  25.673  31.480  1.00  0.00     0.040 A 
ATOM     77  C   UNL A   1      50.559  26.461  29.275  1.00  0.00     0.040 A 
ATOM     78  F   UNL A   1      48.920  27.485  27.948  1.00  0.00    -0.206 F 
ATOM     79  C   UNL A   1      50.950  25.859  30.469  1.00  0.00     0.006 A 
ENDBRANCH  58  72
BRANCH  59  80
ATOM     80  C   UNL A   1      38.664  29.190  29.182  1.00  0.00     0.057 A 
ATOM     81  C   UNL A   1      37.818  29.118  30.294  1.00  0.00     0.134 A 
ATOM     82  C   UNL A   1      38.107  29.635  27.976  1.00  0.00     0.134 A 
ATOM     83  F   UNL A   1      38.286  28.682  31.473  1.00  0.00    -0.206 F 
ATOM     84  C   UNL A   1      36.468  29.464  30.209  1.00  0.00     0.040 A 
ATOM     85  C   UNL A   1      36.768  30.013  27.885  1.00  0.00     0.040 A 
ATOM     86  F   UNL A   1      38.868  29.736  26.877  1.00  0.00    -0.206 F 
ATOM     87  C   UNL A   1      35.942  29.923  29.003  1.00  0.00     0.006 A 
ENDBRANCH  59  80
BRANCH  71  88
ATOM     88  C   UNL A   1      44.366  32.737  31.042  1.00  0.00     0.057 A 
ATOM     89  C   UNL A   1      44.307  33.151  32.381  1.00  0.00     0.134 A 
ATOM     90  C   UNL A   1      44.626  33.721  30.079  1.00  0.00     0.134 A 
ATOM     91  F   UNL A   1      44.053  32.264  33.355  1.00  0.00    -0.206 F 
ATOM     92  C   UNL A   1      44.451  34.492  32.740  1.00  0.00     0.040 A 
ATOM     93  C   UNL A   1      44.807  35.060  30.429  1.00  0.00     0.040 A 
ATOM     94  F   UNL A   1      44.710  33.398  28.779  1.00  0.00    -0.206 F 
ATOM     95  C   UNL A   1      44.704  35.451  31.762  1.00  0.00     0.006 A 
ENDBRANCH  71  88
ENDBRANCH  45  46
ENDBRANCH  37  40
ENDBRANCH  35  36
ENDBRANCH  34  35
ENDBRANCH  33  34
ENDBRANCH  32  33
ENDBRANCH   1  32
TORSDOF 19
ENDMDL
MODEL 2
REMARK VINA RESULT:     -11.3      2.009      4.859
REMARK SMILES CCCCN(c1ccccc1C(=O)NCCCCCCNC(=O)c1ccc(-c2c3nc(c(-c4c(F)cccc4F)c4ccc([nH]4)c(-c4c(F)cccc4F)c4nc(c(-c5c(F)cccc5F)c5ccc2[nH]5)C=C4)C=C3)cc1)S(=O)(=O)c1ccc2c(c1)oc(=O)n2C
REMARK SMILES IDX 16 1 15 2 14 3 12 4 13 5 11 7 6 8 7 9 8 10 10 11 9 12 5 13
REMARK SMILES IDX 4 14 3 15 2 16 1 17 78 18 79 19 80 20 81 21 82 22 86 23
REMARK SMILES IDX 83 24 85 25 84 26 87 27 90 28 88 29 91 30 89 31 17 32 18 33
REMARK SMILES IDX 19 34 20 35 21 36 22 37 23 39 24 40 25 41 77 42 26 43 76 44
REMARK SMILES IDX 27 45 28 46 29 47 70 48 30 49 75 50 69 51 71 52 31 53 74 54
REMARK SMILES IDX 68 55 67 56 32 58 58 59 41 60 57 61 42 62 45 63 56 64 72 65
REMARK SMILES IDX 43 66 44 67 55 69 73 70 46 71 33 72 34 73 39 74 35 75 36 76
REMARK SMILES IDX 38 77 40 78 37 79 59 80 60 81 65 82 61 83 62 84 64 85 66 86
REMARK SMILES IDX 63 87 47 88 48 89 53 90 49 91 50 92 52 93 54 94 51 95
REMARK H PARENT 14 6 21 38 71 57 45 68
REMARK Flexibility Score: inf
ROOT
ATOM      1  C   UNL A   1      34.815  21.594  26.509  1.00  0.00     0.021 C 
ENDROOT
BRANCH   1   2
ATOM      2  C   UNL A   1      34.268  22.977  26.865  1.00  0.00     0.116 C 
BRANCH   2   3
ATOM      3  N   UNL A   1      32.836  23.115  26.930  1.00  0.00    -0.352 N 
ATOM      4  C   UNL A   1      31.898  23.260  25.936  1.00  0.00     0.253 C 
ATOM      5  O   UNL A   1      30.720  23.302  26.311  1.00  0.00    -0.269 OA
ATOM      6  H   UNL A   1      32.466  23.103  27.842  1.00  0.00     0.163 HD
BRANCH   4   7
ATOM      7  C   UNL A   1      32.152  23.422  24.463  1.00  0.00     0.064 A 
ATOM      8  C   UNL A   1      32.330  24.601  23.706  1.00  0.00     0.065 A 
ATOM      9  C   UNL A   1      32.869  24.505  22.402  1.00  0.00     0.028 A 
ATOM     10  C   UNL A   1      33.119  23.279  21.792  1.00  0.00     0.002 A 
ATOM     11  C   UNL A   1      32.429  22.188  23.819  1.00  0.00     0.016 A 
ATOM     12  C   UNL A   1      32.885  22.113  22.499  1.00  0.00     0.001 A 
BRANCH   8  13
ATOM     13  N   UNL A   1      32.126  25.948  24.178  1.00  0.00    -0.266 N 
BRANCH  13  14
ATOM     14  C   UNL A   1      33.322  26.839  24.151  1.00  0.00     0.136 C 
BRANCH  14  15
ATOM     15  C   UNL A   1      33.964  27.440  25.404  1.00  0.00     0.022 C 
BRANCH  15  16
ATOM     16  C   UNL A   1      33.843  28.885  25.888  1.00  0.00    -0.002 C 
ATOM     17  C   UNL A   1      33.369  29.133  27.301  1.00  0.00     0.004 C 
ENDBRANCH  15  16
ENDBRANCH  14  15
ENDBRANCH  13  14
BRANCH  13  18
ATOM     18  S   UNL A   1      30.563  26.436  24.628  1.00  0.00     0.264 S 
ATOM     19  O   UNL A   1      29.608  25.543  24.005  1.00  0.00    -0.201 OA
ATOM     20  O   UNL A   1      30.560  26.645  26.060  1.00  0.00    -0.201 OA
BRANCH  18  21
ATOM     21  C   UNL A   1      30.197  28.042  23.912  1.00  0.00     0.091 A 
ATOM     22  C   UNL A   1      30.553  29.207  24.633  1.00  0.00     0.025 A 
ATOM     23  C   UNL A   1      29.403  28.126  22.761  1.00  0.00     0.071 A 
ATOM     24  C   UNL A   1      30.176  30.474  24.178  1.00  0.00     0.032 A 
ATOM     25  C   UNL A   1      29.034  29.390  22.347  1.00  0.00     0.157 A 
ATOM     26  C   UNL A   1      29.420  30.529  23.028  1.00  0.00     0.090 A 
ATOM     27  O   UNL A   1      28.244  29.670  21.241  1.00  0.00    -0.408 OA
ATOM     28  N   UNL A   1      28.883  31.583  22.331  1.00  0.00    -0.277 N 
ATOM     29  C   UNL A   1      28.174  31.072  21.260  1.00  0.00     0.419 A 
ATOM     30  C   UNL A   1      29.061  32.980  22.600  1.00  0.00     0.157 C 
ATOM     31  O   UNL A   1      27.570  31.721  20.423  1.00  0.00    -0.223 OA
ENDBRANCH  18  21
ENDBRANCH  13  18
ENDBRANCH   8  13
ENDBRANCH   4   7
ENDBRANCH   2   3
ENDBRANCH   1   2
BRANCH   1  32
ATOM     32  C   UNL A   1      36.067  21.495  25.614  1.00  0.00     0.002 C 
BRANCH  32  33
ATOM     33  C   UNL A   1      36.395  20.160  24.934  1.00  0.00     0.002 C 
BRANCH  33  34
ATOM     34  C   UNL A   1      37.850  19.661  24.832  1.00  0.00     0.021 C 
BRANCH  34  35
ATOM     35  C   UNL A   1      38.937  20.319  25.683  1.00  0.00     0.116 C 
BRANCH  35  36
ATOM     36  N   UNL A   1      40.016  19.372  25.921  1.00  0.00    -0.352 N 
ATOM     37  C   UNL A   1      41.365  19.619  26.000  1.00  0.00     0.251 C 
ATOM     38  H   UNL A   1      39.743  18.432  26.038  1.00  0.00     0.163 HD
ATOM     39  O   UNL A   1      42.155  18.730  25.690  1.00  0.00    -0.269 OA
BRANCH  37  40
ATOM     40  C   UNL A   1      41.889  20.919  26.495  1.00  0.00     0.039 A 
ATOM     41  C   UNL A   1      41.876  21.162  27.873  1.00  0.00     0.014 A 
ATOM     42  C   UNL A   1      42.261  21.946  25.621  1.00  0.00     0.014 A 
ATOM     43  C   UNL A   1      42.215  22.425  28.368  1.00  0.00     0.010 A 
ATOM     44  C   UNL A   1      42.658  23.194  26.123  1.00  0.00     0.010 A 
ATOM     45  C   UNL A   1      42.611  23.457  27.500  1.00  0.00    -0.014 A 
BRANCH  45  46
ATOM     46  C   UNL A   1      42.959  24.796  28.053  1.00  0.00     0.031 A 
ATOM     47  C   UNL A   1      44.392  25.205  28.274  1.00  0.00     0.074 A 
ATOM     48  C   UNL A   1      41.971  25.664  28.347  1.00  0.00     0.049 A 
ATOM     49  N   UNL A   1      44.872  26.370  28.640  1.00  0.00    -0.248 NA
ATOM     50  C   UNL A   1      45.418  24.172  28.080  1.00  0.00     0.031 C 
ATOM     51  C   UNL A   1      40.541  25.373  28.245  1.00  0.00     0.029 A 
ATOM     52  N   UNL A   1      42.018  26.968  28.777  1.00  0.00    -0.354 N 
ATOM     53  C   UNL A   1      46.251  26.205  28.723  1.00  0.00     0.074 A 
ATOM     54  C   UNL A   1      46.523  24.817  28.424  1.00  0.00     0.031 C 
ATOM     55  C   UNL A   1      39.847  26.475  28.566  1.00  0.00     0.029 A 
ATOM     56  C   UNL A   1      40.779  27.541  28.922  1.00  0.00     0.049 A 
ATOM     57  H   UNL A   1      42.858  27.444  28.963  1.00  0.00     0.167 HD
ATOM     58  C   UNL A   1      47.204  27.130  29.005  1.00  0.00     0.037 A 
ATOM     59  C   UNL A   1      40.426  28.786  29.294  1.00  0.00     0.037 A 
ATOM     60  C   UNL A   1      46.930  28.515  29.303  1.00  0.00     0.049 A 
ATOM     61  C   UNL A   1      41.497  29.802  29.573  1.00  0.00     0.074 A 
ATOM     62  C   UNL A   1      47.828  29.543  29.530  1.00  0.00     0.029 A 
ATOM     63  N   UNL A   1      45.661  29.061  29.433  1.00  0.00    -0.354 N 
ATOM     64  N   UNL A   1      42.800  29.660  29.548  1.00  0.00    -0.248 NA
ATOM     65  C   UNL A   1      41.047  31.160  29.911  1.00  0.00     0.031 C 
ATOM     66  C   UNL A   1      47.104  30.695  29.863  1.00  0.00     0.029 A 
ATOM     67  C   UNL A   1      45.752  30.403  29.772  1.00  0.00     0.049 A 
ATOM     68  H   UNL A   1      44.819  28.568  29.304  1.00  0.00     0.167 HD
ATOM     69  C   UNL A   1      43.327  30.910  29.850  1.00  0.00     0.074 A 
ATOM     70  C   UNL A   1      42.200  31.803  30.025  1.00  0.00     0.031 C 
ATOM     71  C   UNL A   1      44.626  31.283  29.969  1.00  0.00     0.037 A 
BRANCH  58  72
ATOM     72  C   UNL A   1      48.636  26.665  29.027  1.00  0.00     0.057 A 
ATOM     73  C   UNL A   1      49.438  26.658  27.876  1.00  0.00     0.134 A 
ATOM     74  C   UNL A   1      49.230  26.232  30.221  1.00  0.00     0.134 A 
ATOM     75  F   UNL A   1      48.937  27.054  26.696  1.00  0.00    -0.206 F 
ATOM     76  C   UNL A   1      50.758  26.202  27.903  1.00  0.00     0.040 A 
ATOM     77  C   UNL A   1      50.559  25.806  30.267  1.00  0.00     0.040 A 
ATOM     78  F   UNL A   1      48.530  26.223  31.365  1.00  0.00    -0.206 F 
ATOM     79  C   UNL A   1      51.323  25.777  29.104  1.00  0.00     0.006 A 
ENDBRANCH  58  72
BRANCH  59  80
ATOM     80  C   UNL A   1      38.987  29.139  29.392  1.00  0.00     0.057 A 
ATOM     81  C   UNL A   1      38.254  29.544  28.271  1.00  0.00     0.134 A 
ATOM     82  C   UNL A   1      38.303  29.048  30.611  1.00  0.00     0.134 A 
ATOM     83  F   UNL A   1      38.856  29.668  27.078  1.00  0.00    -0.206 F 
ATOM     84  C   UNL A   1      36.897  29.860  28.360  1.00  0.00     0.040 A 
ATOM     85  C   UNL A   1      36.941  29.330  30.708  1.00  0.00     0.040 A 
ATOM     86  F   UNL A   1      38.947  28.655  31.720  1.00  0.00    -0.206 F 
ATOM     87  C   UNL A   1      36.234  29.743  29.581  1.00  0.00     0.006 A 
ENDBRANCH  59  80
BRANCH  71  88
ATOM     88  C   UNL A   1      44.892  32.729  30.288  1.00  0.00     0.057 A 
ATOM     89  C   UNL A   1      45.036  33.700  29.287  1.00  0.00     0.134 A 
ATOM     90  C   UNL A   1      45.012  33.156  31.617  1.00  0.00     0.134 A 
ATOM     91  F   UNL A   1      44.943  33.360  27.992  1.00  0.00    -0.206 F 
ATOM     92  C   UNL A   1      45.338  35.028  29.594  1.00  0.00     0.040 A 
ATOM     93  C   UNL A   1      45.279  34.489  31.938  1.00  0.00     0.040 A 
ATOM     94  F   UNL A   1      44.872  32.286  32.629  1.00  0.00    -0.206 F 
ATOM     95  C   UNL A   1      45.458  35.426  30.923  1.00  0.00     0.006 A 
ENDBRANCH  71  88
ENDBRANCH  45  46
ENDBRANCH  37  40
ENDBRANCH  35  36
ENDBRANCH  34  35
ENDBRANCH  33  34
ENDBRANCH  32  33
ENDBRANCH   1  32
TORSDOF 19
ENDMDL
MODEL 3
REMARK VINA RESULT:     -11.2      3.739      8.117
REMARK SMILES CCCCN(c1ccccc1C(=O)NCCCCCCNC(=O)c1ccc(-c2c3nc(c(-c4c(F)cccc4F)c4ccc([nH]4)c(-c4c(F)cccc4F)c4nc(c(-c5c(F)cccc5F)c5ccc2[nH]5)C=C4)C=C3)cc1)S(=O)(=O)c1ccc2c(c1)oc(=O)n2C
REMARK SMILES IDX 16 1 15 2 14 3 12 4 13 5 11 7 6 8 7 9 8 10 10 11 9 12 5 13
REMARK SMILES IDX 4 14 3 15 2 16 1 17 78 18 79 19 80 20 81 21 82 22 86 23
REMARK SMILES IDX 83 24 85 25 84 26 87 27 90 28 88 29 91 30 89 31 17 32 18 33
REMARK SMILES IDX 19 34 20 35 21 36 22 37 23 39 24 40 25 41 77 42 26 43 76 44
REMARK SMILES IDX 27 45 28 46 29 47 70 48 30 49 75 50 69 51 71 52 31 53 74 54
REMARK SMILES IDX 68 55 67 56 32 58 58 59 41 60 57 61 42 62 45 63 56 64 72 65
REMARK SMILES IDX 43 66 44 67 55 69 73 70 46 71 33 72 34 73 39 74 35 75 36 76
REMARK SMILES IDX 38 77 40 78 37 79 59 80 60 81 65 82 61 83 62 84 64 85 66 86
REMARK SMILES IDX 63 87 47 88 48 89 53 90 49 91 50 92 52 93 54 94 51 95
REMARK H PARENT 14 6 21 38 71 57 45 68
REMARK Flexibility Score: inf
ROOT
ATOM      1  C   UNL A   1      38.832  21.952  26.127  1.00  0.00     0.021 C 
ENDROOT
BRANCH   1   2
ATOM      2  C   UNL A   1      37.842  23.053  25.741  1.00  0.00     0.116 C 
BRANCH   2   3
ATOM      3  N   UNL A   1      37.421  23.098  24.365  1.00  0.00    -0.352 N 
ATOM      4  C   UNL A   1      36.189  22.894  23.791  1.00  0.00     0.253 C 
ATOM      5  O   UNL A   1      36.133  23.058  22.567  1.00  0.00    -0.269 OA
ATOM      6  H   UNL A   1      38.138  23.313  23.726  1.00  0.00     0.163 HD
BRANCH   4   7
ATOM      7  C   UNL A   1      34.929  22.450  24.479  1.00  0.00     0.064 A 
ATOM      8  C   UNL A   1      33.733  23.163  24.712  1.00  0.00     0.065 A 
ATOM      9  C   UNL A   1      32.572  22.451  25.093  1.00  0.00     0.028 A 
ATOM     10  C   UNL A   1      32.595  21.085  25.364  1.00  0.00     0.002 A 
ATOM     11  C   UNL A   1      34.918  21.056  24.750  1.00  0.00     0.016 A 
ATOM     12  C   UNL A   1      33.778  20.387  25.204  1.00  0.00     0.001 A 
BRANCH   8  13
ATOM     13  N   UNL A   1      33.528  24.571  24.481  1.00  0.00    -0.266 N 
BRANCH  13  14
ATOM     14  C   UNL A   1      33.861  25.477  25.618  1.00  0.00     0.136 C 
BRANCH  14  15
ATOM     15  C   UNL A   1      33.605  26.986  25.608  1.00  0.00     0.022 C 
BRANCH  15  16
ATOM     16  C   UNL A   1      32.820  27.786  26.647  1.00  0.00    -0.002 C 
ATOM     17  C   UNL A   1      31.780  28.769  26.163  1.00  0.00     0.004 C 
ENDBRANCH  15  16
ENDBRANCH  14  15
ENDBRANCH  13  14
BRANCH  13  18
ATOM     18  S   UNL A   1      33.028  25.089  22.943  1.00  0.00     0.264 S 
ATOM     19  O   UNL A   1      34.055  25.950  22.393  1.00  0.00    -0.201 OA
ATOM     20  O   UNL A   1      32.565  23.928  22.214  1.00  0.00    -0.201 OA
BRANCH  18  21
ATOM     21  C   UNL A   1      31.593  26.158  23.098  1.00  0.00     0.091 A 
ATOM     22  C   UNL A   1      30.444  25.665  23.762  1.00  0.00     0.025 A 
ATOM     23  C   UNL A   1      31.552  27.373  22.403  1.00  0.00     0.071 A 
ATOM     24  C   UNL A   1      29.261  26.410  23.797  1.00  0.00     0.032 A 
ATOM     25  C   UNL A   1      30.366  28.078  22.443  1.00  0.00     0.157 A 
ATOM     26  C   UNL A   1      29.259  27.615  23.129  1.00  0.00     0.090 A 
ATOM     27  O   UNL A   1      30.134  29.290  21.810  1.00  0.00    -0.408 OA
ATOM     28  N   UNL A   1      28.285  28.567  22.956  1.00  0.00    -0.277 N 
ATOM     29  C   UNL A   1      28.805  29.572  22.162  1.00  0.00     0.419 A 
ATOM     30  C   UNL A   1      26.973  28.580  23.535  1.00  0.00     0.157 C 
ATOM     31  O   UNL A   1      28.221  30.582  21.807  1.00  0.00    -0.223 OA
ENDBRANCH  18  21
ENDBRANCH  13  18
ENDBRANCH   8  13
ENDBRANCH   4   7
ENDBRANCH   2   3
ENDBRANCH   1   2
BRANCH   1  32
ATOM     32  C   UNL A   1      39.987  22.291  27.090  1.00  0.00     0.002 C 
BRANCH  32  33
ATOM     33  C   UNL A   1      41.205  21.361  27.150  1.00  0.00     0.002 C 
BRANCH  33  34
ATOM     34  C   UNL A   1      42.479  21.674  26.341  1.00  0.00     0.021 C 
BRANCH  34  35
ATOM     35  C   UNL A   1      42.469  22.816  25.323  1.00  0.00     0.116 C 
BRANCH  35  36
ATOM     36  N   UNL A   1      43.809  23.364  25.186  1.00  0.00    -0.352 N 
ATOM     37  C   UNL A   1      44.234  24.648  25.431  1.00  0.00     0.251 C 
ATOM     38  H   UNL A   1      44.500  22.735  24.875  1.00  0.00     0.163 HD
ATOM     39  O   UNL A   1      45.199  25.088  24.810  1.00  0.00    -0.269 OA
BRANCH  37  40
ATOM     40  C   UNL A   1      43.581  25.499  26.460  1.00  0.00     0.039 A 
ATOM     41  C   UNL A   1      43.822  26.877  26.435  1.00  0.00     0.014 A 
ATOM     42  C   UNL A   1      42.856  24.949  27.523  1.00  0.00     0.014 A 
ATOM     43  C   UNL A   1      43.355  27.692  27.472  1.00  0.00     0.010 A 
ATOM     44  C   UNL A   1      42.339  25.775  28.530  1.00  0.00     0.010 A 
ATOM     45  C   UNL A   1      42.608  27.152  28.532  1.00  0.00    -0.014 A 
BRANCH  45  46
ATOM     46  C   UNL A   1      42.130  28.042  29.628  1.00  0.00     0.031 A 
ATOM     47  C   UNL A   1      40.846  28.820  29.503  1.00  0.00     0.074 A 
ATOM     48  C   UNL A   1      42.854  28.138  30.761  1.00  0.00     0.049 A 
ATOM     49  N   UNL A   1      40.230  29.550  30.403  1.00  0.00    -0.248 NA
ATOM     50  C   UNL A   1      40.176  28.796  28.196  1.00  0.00     0.031 C 
ATOM     51  C   UNL A   1      44.147  27.493  30.986  1.00  0.00     0.029 A 
ATOM     52  N   UNL A   1      42.601  28.803  31.935  1.00  0.00    -0.354 N 
ATOM     53  C   UNL A   1      39.107  30.071  29.769  1.00  0.00     0.074 A 
ATOM     54  C   UNL A   1      39.158  29.620  28.396  1.00  0.00     0.031 C 
ATOM     55  C   UNL A   1      44.557  27.762  32.235  1.00  0.00     0.029 A 
ATOM     56  C   UNL A   1      43.572  28.620  32.888  1.00  0.00     0.049 A 
ATOM     57  H   UNL A   1      41.801  29.359  32.079  1.00  0.00     0.167 HD
ATOM     58  C   UNL A   1      38.116  30.840  30.288  1.00  0.00     0.037 A 
ATOM     59  C   UNL A   1      43.662  29.081  34.149  1.00  0.00     0.037 A 
ATOM     60  C   UNL A   1      38.068  31.288  31.658  1.00  0.00     0.049 A 
ATOM     61  C   UNL A   1      42.541  29.907  34.714  1.00  0.00     0.074 A 
ATOM     62  C   UNL A   1      37.073  32.008  32.297  1.00  0.00     0.029 A 
ATOM     63  N   UNL A   1      39.068  31.075  32.597  1.00  0.00    -0.354 N 
ATOM     64  N   UNL A   1      41.435  30.307  34.134  1.00  0.00    -0.248 NA
ATOM     65  C   UNL A   1      42.670  30.326  36.116  1.00  0.00     0.031 C 
ATOM     66  C   UNL A   1      37.500  32.287  33.601  1.00  0.00     0.029 A 
ATOM     67  C   UNL A   1      38.729  31.680  33.799  1.00  0.00     0.049 A 
ATOM     68  H   UNL A   1      39.896  30.569  32.433  1.00  0.00     0.167 HD
ATOM     69  C   UNL A   1      40.729  31.011  35.102  1.00  0.00     0.074 A 
ATOM     70  C   UNL A   1      41.521  30.955  36.314  1.00  0.00     0.031 C 
ATOM     71  C   UNL A   1      39.533  31.642  34.997  1.00  0.00     0.037 A 
BRANCH  58  72
ATOM     72  C   UNL A   1      37.010  31.265  29.358  1.00  0.00     0.057 A 
ATOM     73  C   UNL A   1      35.962  30.405  29.000  1.00  0.00     0.134 A 
ATOM     74  C   UNL A   1      36.983  32.561  28.824  1.00  0.00     0.134 A 
ATOM     75  F   UNL A   1      35.923  29.148  29.469  1.00  0.00    -0.206 F 
ATOM     76  C   UNL A   1      34.954  30.802  28.118  1.00  0.00     0.040 A 
ATOM     77  C   UNL A   1      35.963  32.980  27.968  1.00  0.00     0.040 A 
ATOM     78  F   UNL A   1      37.945  33.444  29.131  1.00  0.00    -0.206 F 
ATOM     79  C   UNL A   1      34.951  32.096  27.602  1.00  0.00     0.006 A 
ENDBRANCH  58  72
BRANCH  59  80
ATOM     80  C   UNL A   1      44.854  28.743  34.968  1.00  0.00     0.057 A 
ATOM     81  C   UNL A   1      44.920  27.557  35.710  1.00  0.00     0.134 A 
ATOM     82  C   UNL A   1      45.971  29.587  35.002  1.00  0.00     0.134 A 
ATOM     83  F   UNL A   1      43.876  26.715  35.733  1.00  0.00    -0.206 F 
ATOM     84  C   UNL A   1      46.047  27.230  36.466  1.00  0.00     0.040 A 
ATOM     85  C   UNL A   1      47.115  29.258  35.728  1.00  0.00     0.040 A 
ATOM     86  F   UNL A   1      45.974  30.732  34.304  1.00  0.00    -0.206 F 
ATOM     87  C   UNL A   1      47.154  28.078  36.468  1.00  0.00     0.006 A 
ENDBRANCH  59  80
BRANCH  71  88
ATOM     88  C   UNL A   1      39.004  32.309  36.237  1.00  0.00     0.057 A 
ATOM     89  C   UNL A   1      38.146  31.651  37.131  1.00  0.00     0.134 A 
ATOM     90  C   UNL A   1      39.351  33.632  36.539  1.00  0.00     0.134 A 
ATOM     91  F   UNL A   1      37.764  30.386  36.899  1.00  0.00    -0.206 F 
ATOM     92  C   UNL A   1      37.618  32.298  38.249  1.00  0.00     0.040 A 
ATOM     93  C   UNL A   1      38.857  34.279  37.674  1.00  0.00     0.040 A 
ATOM     94  F   UNL A   1      40.178  34.321  35.738  1.00  0.00    -0.206 F 
ATOM     95  C   UNL A   1      37.975  33.616  38.524  1.00  0.00     0.006 A 
ENDBRANCH  71  88
ENDBRANCH  45  46
ENDBRANCH  37  40
ENDBRANCH  35  36
ENDBRANCH  34  35
ENDBRANCH  33  34
ENDBRANCH  32  33
ENDBRANCH   1  32
TORSDOF 19
ENDMDL
