MODEL 1
REMARK VINA RESULT:      -9.7      0.000      0.000
REMARK SMILES O=C(NCCCCCCNC(=O)c1ncc2ccccc2n1)c1ccc(-c2c3nc(c(-c4c(F)cccc4F)c4ccc([nH]4)c(-c4c(F)cccc4F)c4nc(c(-c5c(F)cccc5F)c5ccc2[nH]5)C=C4)C=C3)cc1
REMARK SMILES IDX 5 1 4 2 3 3 1 4 2 5 23 7 24 8 76 9 25 10 75 11 26 12 27 13
REMARK SMILES IDX 28 14 69 15 29 16 74 17 68 18 70 19 30 20 73 21 67 22 66 23
REMARK SMILES IDX 31 25 57 26 40 27 56 28 41 29 44 30 55 31 71 32 42 33 43 34
REMARK SMILES IDX 54 36 72 37 45 38 32 39 33 40 38 41 34 42 35 43 37 44 39 45
REMARK SMILES IDX 36 46 58 47 59 48 64 49 60 50 61 51 63 52 65 53 62 54 46 55
REMARK SMILES IDX 47 56 52 57 48 58 49 59 51 60 53 61 50 62 6 63 7 64 8 65
REMARK SMILES IDX 9 66 10 67 11 68 12 70 13 71 14 72 22 73 15 74 21 75 16 76
REMARK SMILES IDX 20 77 17 78 19 79 18 80
REMARK H PARENT 3 6 70 24 44 35 10 69
REMARK Flexibility Score: inf
ROOT
ATOM      1  C   UNL A   1      32.737  36.452  31.138  1.00  0.00     0.021 C 
ENDROOT
BRANCH   1   2
ATOM      2  C   UNL A   1      33.245  36.425  29.703  1.00  0.00     0.116 C 
BRANCH   2   3
ATOM      3  N   UNL A   1      32.557  35.432  28.895  1.00  0.00    -0.352 N 
ATOM      4  O   UNL A   1      32.399  33.606  27.571  1.00  0.00    -0.269 OA
ATOM      5  C   UNL A   1      33.046  34.253  28.391  1.00  0.00     0.251 C 
ATOM      6  H   UNL A   1      31.617  35.630  28.682  1.00  0.00     0.163 HD
BRANCH   5   7
ATOM      7  C   UNL A   1      34.367  33.770  28.838  1.00  0.00     0.039 A 
ATOM      8  C   UNL A   1      34.461  32.838  29.877  1.00  0.00     0.014 A 
ATOM      9  C   UNL A   1      35.521  34.238  28.204  1.00  0.00     0.014 A 
ATOM     10  C   UNL A   1      35.708  32.455  30.351  1.00  0.00     0.010 A 
ATOM     11  C   UNL A   1      36.773  33.784  28.624  1.00  0.00     0.010 A 
ATOM     12  C   UNL A   1      36.874  32.891  29.702  1.00  0.00    -0.014 A 
BRANCH  12  13
ATOM     13  C   UNL A   1      38.173  32.277  30.073  1.00  0.00     0.031 A 
ATOM     14  C   UNL A   1      38.624  30.972  29.488  1.00  0.00     0.074 A 
ATOM     15  C   UNL A   1      38.940  32.929  30.970  1.00  0.00     0.049 A 
ATOM     16  N   UNL A   1      39.721  30.301  29.735  1.00  0.00    -0.248 NA
ATOM     17  C   UNL A   1      37.738  30.332  28.504  1.00  0.00     0.031 C 
ATOM     18  C   UNL A   1      38.583  34.196  31.618  1.00  0.00     0.029 A 
ATOM     19  N   UNL A   1      40.169  32.627  31.494  1.00  0.00    -0.354 N 
ATOM     20  C   UNL A   1      39.650  29.153  28.957  1.00  0.00     0.074 A 
ATOM     21  C   UNL A   1      38.396  29.210  28.236  1.00  0.00     0.031 C 
ATOM     22  C   UNL A   1      39.580  34.574  32.430  1.00  0.00     0.029 A 
ATOM     23  C   UNL A   1      40.609  33.544  32.418  1.00  0.00     0.049 A 
ATOM     24  H   UNL A   1      40.686  31.831  31.233  1.00  0.00     0.167 HD
ATOM     25  C   UNL A   1      40.554  28.150  28.862  1.00  0.00     0.037 A 
ATOM     26  C   UNL A   1      41.702  33.539  33.201  1.00  0.00     0.037 A 
ATOM     27  C   UNL A   1      41.807  28.116  29.577  1.00  0.00     0.049 A 
ATOM     28  C   UNL A   1      42.660  32.390  33.097  1.00  0.00     0.074 A 
ATOM     29  C   UNL A   1      42.821  27.178  29.488  1.00  0.00     0.029 A 
ATOM     30  N   UNL A   1      42.207  29.049  30.522  1.00  0.00    -0.354 N 
ATOM     31  N   UNL A   1      42.618  31.351  32.299  1.00  0.00    -0.248 NA
ATOM     32  C   UNL A   1      43.814  32.406  34.005  1.00  0.00     0.031 C 
ATOM     33  C   UNL A   1      43.805  27.508  30.425  1.00  0.00     0.029 A 
ATOM     34  C   UNL A   1      43.431  28.683  31.056  1.00  0.00     0.049 A 
ATOM     35  H   UNL A   1      41.697  29.853  30.774  1.00  0.00     0.167 HD
ATOM     36  C   UNL A   1      43.740  30.595  32.603  1.00  0.00     0.074 A 
ATOM     37  C   UNL A   1      44.462  31.313  33.632  1.00  0.00     0.031 C 
ATOM     38  C   UNL A   1      44.134  29.407  32.084  1.00  0.00     0.037 A 
BRANCH  25  39
ATOM     39  C   UNL A   1      40.235  26.984  27.972  1.00  0.00     0.057 A 
ATOM     40  C   UNL A   1      40.774  26.861  26.686  1.00  0.00     0.134 A 
ATOM     41  C   UNL A   1      39.468  25.914  28.456  1.00  0.00     0.134 A 
ATOM     42  F   UNL A   1      41.513  27.850  26.162  1.00  0.00    -0.206 F 
ATOM     43  C   UNL A   1      40.561  25.718  25.913  1.00  0.00     0.040 A 
ATOM     44  C   UNL A   1      39.266  24.758  27.702  1.00  0.00     0.040 A 
ATOM     45  F   UNL A   1      38.930  25.964  29.685  1.00  0.00    -0.206 F 
ATOM     46  C   UNL A   1      39.815  24.658  26.425  1.00  0.00     0.006 A 
ENDBRANCH  25  39
BRANCH  26  47
ATOM     47  C   UNL A   1      41.918  34.626  34.189  1.00  0.00     0.057 A 
ATOM     48  C   UNL A   1      41.527  34.487  35.525  1.00  0.00     0.134 A 
ATOM     49  C   UNL A   1      42.497  35.845  33.811  1.00  0.00     0.134 A 
ATOM     50  F   UNL A   1      40.952  33.350  35.945  1.00  0.00    -0.206 F 
ATOM     51  C   UNL A   1      41.675  35.529  36.442  1.00  0.00     0.040 A 
ATOM     52  C   UNL A   1      42.683  36.882  34.725  1.00  0.00     0.040 A 
ATOM     53  F   UNL A   1      42.903  36.042  32.548  1.00  0.00    -0.206 F 
ATOM     54  C   UNL A   1      42.259  36.730  36.042  1.00  0.00     0.006 A 
ENDBRANCH  26  47
BRANCH  38  55
ATOM     55  C   UNL A   1      45.406  28.820  32.618  1.00  0.00     0.057 A 
ATOM     56  C   UNL A   1      45.404  27.907  33.680  1.00  0.00     0.134 A 
ATOM     57  C   UNL A   1      46.642  29.151  32.049  1.00  0.00     0.134 A 
ATOM     58  F   UNL A   1      44.255  27.564  34.280  1.00  0.00    -0.206 F 
ATOM     59  C   UNL A   1      46.590  27.360  34.172  1.00  0.00     0.040 A 
ATOM     60  C   UNL A   1      47.831  28.588  32.512  1.00  0.00     0.040 A 
ATOM     61  F   UNL A   1      46.712  30.015  31.025  1.00  0.00    -0.206 F 
ATOM     62  C   UNL A   1      47.808  27.695  33.581  1.00  0.00     0.006 A 
ENDBRANCH  38  55
ENDBRANCH  12  13
ENDBRANCH   5   7
ENDBRANCH   2   3
ENDBRANCH   1   2
BRANCH   1  63
ATOM     63  C   UNL A   1      33.652  37.189  32.116  1.00  0.00     0.002 C 
BRANCH  63  64
ATOM     64  C   UNL A   1      34.296  36.306  33.189  1.00  0.00     0.002 C 
BRANCH  64  65
ATOM     65  C   UNL A   1      35.199  35.188  32.659  1.00  0.00     0.021 C 
BRANCH  65  66
ATOM     66  C   UNL A   1      35.359  33.997  33.601  1.00  0.00     0.116 C 
BRANCH  66  67
ATOM     67  N   UNL A   1      36.364  34.253  34.618  1.00  0.00    -0.349 N 
ATOM     68  C   UNL A   1      37.320  33.387  35.113  1.00  0.00     0.289 C 
ATOM     69  H   UNL A   1      36.362  35.158  35.003  1.00  0.00     0.163 HD
ATOM     70  O   UNL A   1      37.967  33.723  36.105  1.00  0.00    -0.266 OA
BRANCH  68  71
ATOM     71  C   UNL A   1      37.546  32.061  34.441  1.00  0.00     0.218 A 
ATOM     72  N   UNL A   1      36.573  31.618  33.623  1.00  0.00    -0.232 NA
ATOM     73  N   UNL A   1      38.736  31.463  34.662  1.00  0.00    -0.224 NA
ATOM     74  C   UNL A   1      36.855  30.479  32.966  1.00  0.00     0.124 A 
ATOM     75  C   UNL A   1      38.980  30.341  33.982  1.00  0.00     0.074 A 
ATOM     76  C   UNL A   1      38.055  29.789  33.088  1.00  0.00     0.019 A 
ATOM     77  C   UNL A   1      40.202  29.700  34.140  1.00  0.00     0.029 A 
ATOM     78  C   UNL A   1      38.358  28.618  32.368  1.00  0.00     0.012 A 
ATOM     79  C   UNL A   1      40.517  28.540  33.428  1.00  0.00     0.002 A 
ATOM     80  C   UNL A   1      39.593  27.998  32.540  1.00  0.00     0.001 A 
ENDBRANCH  68  71
ENDBRANCH  66  67
ENDBRANCH  65  66
ENDBRANCH  64  65
ENDBRANCH  63  64
ENDBRANCH   1  63
TORSDOF 13
ENDMDL
MODEL 2
REMARK VINA RESULT:      -9.4      0.706      6.619
REMARK SMILES O=C(NCCCCCCNC(=O)c1ncc2ccccc2n1)c1ccc(-c2c3nc(c(-c4c(F)cccc4F)c4ccc([nH]4)c(-c4c(F)cccc4F)c4nc(c(-c5c(F)cccc5F)c5ccc2[nH]5)C=C4)C=C3)cc1
REMARK SMILES IDX 5 1 4 2 3 3 1 4 2 5 23 7 24 8 76 9 25 10 75 11 26 12 27 13
REMARK SMILES IDX 28 14 69 15 29 16 74 17 68 18 70 19 30 20 73 21 67 22 66 23
REMARK SMILES IDX 31 25 57 26 40 27 56 28 41 29 44 30 55 31 71 32 42 33 43 34
REMARK SMILES IDX 54 36 72 37 45 38 32 39 33 40 38 41 34 42 35 43 37 44 39 45
REMARK SMILES IDX 36 46 58 47 59 48 64 49 60 50 61 51 63 52 65 53 62 54 46 55
REMARK SMILES IDX 47 56 52 57 48 58 49 59 51 60 53 61 50 62 6 63 7 64 8 65
REMARK SMILES IDX 9 66 10 67 11 68 12 70 13 71 14 72 22 73 15 74 21 75 16 76
REMARK SMILES IDX 20 77 17 78 19 79 18 80
REMARK H PARENT 3 6 70 24 44 35 10 69
REMARK Flexibility Score: inf
ROOT
ATOM      1  C   UNL A   1      33.051  36.658  31.770  1.00  0.00     0.021 C 
ENDROOT
BRANCH   1   2
ATOM      2  C   UNL A   1      33.598  36.590  30.350  1.00  0.00     0.116 C 
BRANCH   2   3
ATOM      3  N   UNL A   1      32.774  35.767  29.482  1.00  0.00    -0.352 N 
ATOM      4  O   UNL A   1      32.363  34.127  27.981  1.00  0.00    -0.269 OA
ATOM      5  C   UNL A   1      33.112  34.610  28.826  1.00  0.00     0.251 C 
ATOM      6  H   UNL A   1      31.850  36.080  29.346  1.00  0.00     0.163 HD
BRANCH   5   7
ATOM      7  C   UNL A   1      34.395  33.952  29.142  1.00  0.00     0.039 A 
ATOM      8  C   UNL A   1      35.542  34.255  28.402  1.00  0.00     0.014 A 
ATOM      9  C   UNL A   1      34.457  33.038  30.198  1.00  0.00     0.014 A 
ATOM     10  C   UNL A   1      36.723  33.568  28.647  1.00  0.00     0.010 A 
ATOM     11  C   UNL A   1      35.669  32.413  30.500  1.00  0.00     0.010 A 
ATOM     12  C   UNL A   1      36.810  32.673  29.725  1.00  0.00    -0.014 A 
BRANCH  12  13
ATOM     13  C   UNL A   1      38.139  32.142  30.112  1.00  0.00     0.031 A 
ATOM     14  C   UNL A   1      39.065  32.910  31.008  1.00  0.00     0.074 A 
ATOM     15  C   UNL A   1      38.501  30.940  29.621  1.00  0.00     0.049 A 
ATOM     16  N   UNL A   1      40.268  32.586  31.411  1.00  0.00    -0.248 NA
ATOM     17  C   UNL A   1      38.591  34.206  31.515  1.00  0.00     0.031 C 
ATOM     18  C   UNL A   1      37.682  30.118  28.721  1.00  0.00     0.029 A 
ATOM     19  N   UNL A   1      39.637  30.196  29.801  1.00  0.00    -0.354 N 
ATOM     20  C   UNL A   1      40.703  33.642  32.201  1.00  0.00     0.074 A 
ATOM     21  C   UNL A   1      39.641  34.625  32.212  1.00  0.00     0.031 C 
ATOM     22  C   UNL A   1      38.331  28.978  28.451  1.00  0.00     0.029 A 
ATOM     23  C   UNL A   1      39.637  29.018  29.094  1.00  0.00     0.049 A 
ATOM     24  H   UNL A   1      40.381  30.479  30.381  1.00  0.00     0.167 HD
ATOM     25  C   UNL A   1      41.884  33.769  32.852  1.00  0.00     0.037 A 
ATOM     26  C   UNL A   1      40.597  28.089  28.945  1.00  0.00     0.037 A 
ATOM     27  C   UNL A   1      42.925  32.772  32.843  1.00  0.00     0.049 A 
ATOM     28  C   UNL A   1      41.907  28.284  29.649  1.00  0.00     0.074 A 
ATOM     29  C   UNL A   1      44.126  32.779  33.533  1.00  0.00     0.029 A 
ATOM     30  N   UNL A   1      42.901  31.604  32.096  1.00  0.00    -0.354 N 
ATOM     31  N   UNL A   1      42.274  29.250  30.455  1.00  0.00    -0.248 NA
ATOM     32  C   UNL A   1      42.941  27.267  29.418  1.00  0.00     0.031 C 
ATOM     33  C   UNL A   1      44.854  31.647  33.155  1.00  0.00     0.029 A 
ATOM     34  C   UNL A   1      44.084  30.906  32.273  1.00  0.00     0.049 A 
ATOM     35  H   UNL A   1      42.152  31.313  31.526  1.00  0.00     0.167 HD
ATOM     36  C   UNL A   1      43.575  28.953  30.833  1.00  0.00     0.074 A 
ATOM     37  C   UNL A   1      43.920  27.700  30.197  1.00  0.00     0.031 C 
ATOM     38  C   UNL A   1      44.414  29.661  31.628  1.00  0.00     0.037 A 
BRANCH  25  39
ATOM     39  C   UNL A   1      42.142  35.032  33.621  1.00  0.00     0.057 A 
ATOM     40  C   UNL A   1      41.821  35.155  34.977  1.00  0.00     0.134 A 
ATOM     41  C   UNL A   1      42.827  36.098  33.019  1.00  0.00     0.134 A 
ATOM     42  F   UNL A   1      41.162  34.174  35.611  1.00  0.00    -0.206 F 
ATOM     43  C   UNL A   1      42.170  36.293  35.709  1.00  0.00     0.040 A 
ATOM     44  C   UNL A   1      43.201  37.230  33.745  1.00  0.00     0.040 A 
ATOM     45  F   UNL A   1      43.173  36.040  31.724  1.00  0.00    -0.206 F 
ATOM     46  C   UNL A   1      42.872  37.329  35.095  1.00  0.00     0.006 A 
ENDBRANCH  25  39
BRANCH  26  47
ATOM     47  C   UNL A   1      40.376  26.923  28.052  1.00  0.00     0.057 A 
ATOM     48  C   UNL A   1      40.921  26.877  26.763  1.00  0.00     0.134 A 
ATOM     49  C   UNL A   1      39.590  25.837  28.457  1.00  0.00     0.134 A 
ATOM     50  F   UNL A   1      41.669  27.894  26.311  1.00  0.00    -0.206 F 
ATOM     51  C   UNL A   1      40.666  25.810  25.901  1.00  0.00     0.040 A 
ATOM     52  C   UNL A   1      39.356  24.747  27.619  1.00  0.00     0.040 A 
ATOM     53  F   UNL A   1      39.046  25.813  29.683  1.00  0.00    -0.206 F 
ATOM     54  C   UNL A   1      39.885  24.738  26.331  1.00  0.00     0.006 A 
ENDBRANCH  26  47
BRANCH  38  55
ATOM     55  C   UNL A   1      45.778  29.085  31.858  1.00  0.00     0.057 A 
ATOM     56  C   UNL A   1      46.865  29.425  31.042  1.00  0.00     0.134 A 
ATOM     57  C   UNL A   1      46.015  28.205  32.920  1.00  0.00     0.134 A 
ATOM     58  F   UNL A   1      46.699  30.248  29.997  1.00  0.00    -0.206 F 
ATOM     59  C   UNL A   1      48.135  28.890  31.261  1.00  0.00     0.040 A 
ATOM     60  C   UNL A   1      47.287  27.687  33.167  1.00  0.00     0.040 A 
ATOM     61  F   UNL A   1      45.019  27.844  33.743  1.00  0.00    -0.206 F 
ATOM     62  C   UNL A   1      48.349  28.024  32.332  1.00  0.00     0.006 A 
ENDBRANCH  38  55
ENDBRANCH  12  13
ENDBRANCH   5   7
ENDBRANCH   2   3
ENDBRANCH   1   2
BRANCH   1  63
ATOM     63  C   UNL A   1      33.423  35.461  32.645  1.00  0.00     0.002 C 
BRANCH  63  64
ATOM     64  C   UNL A   1      34.922  35.291  32.906  1.00  0.00     0.002 C 
BRANCH  64  65
ATOM     65  C   UNL A   1      35.279  34.577  34.214  1.00  0.00     0.021 C 
BRANCH  65  66
ATOM     66  C   UNL A   1      36.645  33.893  34.214  1.00  0.00     0.116 C 
BRANCH  66  67
ATOM     67  N   UNL A   1      37.223  33.860  35.545  1.00  0.00    -0.349 N 
ATOM     68  C   UNL A   1      38.056  32.903  36.093  1.00  0.00     0.289 C 
ATOM     69  H   UNL A   1      36.992  34.615  36.133  1.00  0.00     0.163 HD
ATOM     70  O   UNL A   1      38.299  32.948  37.300  1.00  0.00    -0.266 OA
BRANCH  68  71
ATOM     71  C   UNL A   1      38.640  31.832  35.214  1.00  0.00     0.218 A 
ATOM     72  N   UNL A   1      39.962  31.606  35.322  1.00  0.00    -0.232 NA
ATOM     73  N   UNL A   1      37.773  31.140  34.443  1.00  0.00    -0.224 NA
ATOM     74  C   UNL A   1      40.427  30.576  34.593  1.00  0.00     0.124 A 
ATOM     75  C   UNL A   1      38.274  30.119  33.745  1.00  0.00     0.074 A 
ATOM     76  C   UNL A   1      39.630  29.774  33.787  1.00  0.00     0.019 A 
ATOM     77  C   UNL A   1      37.424  29.348  32.962  1.00  0.00     0.029 A 
ATOM     78  C   UNL A   1      40.116  28.673  33.055  1.00  0.00     0.012 A 
ATOM     79  C   UNL A   1      37.894  28.250  32.235  1.00  0.00     0.002 A 
ATOM     80  C   UNL A   1      39.242  27.913  32.283  1.00  0.00     0.001 A 
ENDBRANCH  68  71
ENDBRANCH  66  67
ENDBRANCH  65  66
ENDBRANCH  64  65
ENDBRANCH  63  64
ENDBRANCH   1  63
TORSDOF 13
ENDMDL
MODEL 3
REMARK VINA RESULT:      -9.2      6.064     11.563
REMARK SMILES O=C(NCCCCCCNC(=O)c1ncc2ccccc2n1)c1ccc(-c2c3nc(c(-c4c(F)cccc4F)c4ccc([nH]4)c(-c4c(F)cccc4F)c4nc(c(-c5c(F)cccc5F)c5ccc2[nH]5)C=C4)C=C3)cc1
REMARK SMILES IDX 5 1 4 2 3 3 1 4 2 5 23 7 24 8 76 9 25 10 75 11 26 12 27 13
REMARK SMILES IDX 28 14 69 15 29 16 74 17 68 18 70 19 30 20 73 21 67 22 66 23
REMARK SMILES IDX 31 25 57 26 40 27 56 28 41 29 44 30 55 31 71 32 42 33 43 34
REMARK SMILES IDX 54 36 72 37 45 38 32 39 33 40 38 41 34 42 35 43 37 44 39 45
REMARK SMILES IDX 36 46 58 47 59 48 64 49 60 50 61 51 63 52 65 53 62 54 46 55
REMARK SMILES IDX 47 56 52 57 48 58 49 59 51 60 53 61 50 62 6 63 7 64 8 65
REMARK SMILES IDX 9 66 10 67 11 68 12 70 13 71 14 72 22 73 15 74 21 75 16 76
REMARK SMILES IDX 20 77 17 78 19 79 18 80
REMARK H PARENT 3 6 70 24 44 35 10 69
REMARK Flexibility Score: inf
ROOT
ATOM      1  C   UNL A   1      38.091  19.958  24.942  1.00  0.00     0.021 C 
ENDROOT
BRANCH   1   2
ATOM      2  C   UNL A   1      39.143  20.158  26.024  1.00  0.00     0.116 C 
BRANCH   2   3
ATOM      3  N   UNL A   1      40.195  19.157  25.960  1.00  0.00    -0.352 N 
ATOM      4  O   UNL A   1      42.324  18.415  25.790  1.00  0.00    -0.269 OA
ATOM      5  C   UNL A   1      41.553  19.336  26.045  1.00  0.00     0.251 C 
ATOM      6  H   UNL A   1      39.894  18.227  25.840  1.00  0.00     0.163 HD
BRANCH   5   7
ATOM      7  C   UNL A   1      42.082  20.657  26.441  1.00  0.00     0.039 A 
ATOM      8  C   UNL A   1      42.452  21.588  25.466  1.00  0.00     0.014 A 
ATOM      9  C   UNL A   1      42.192  20.973  27.798  1.00  0.00     0.014 A 
ATOM     10  C   UNL A   1      43.030  22.792  25.844  1.00  0.00     0.010 A 
ATOM     11  C   UNL A   1      42.692  22.222  28.177  1.00  0.00     0.010 A 
ATOM     12  C   UNL A   1      43.116  23.138  27.203  1.00  0.00    -0.014 A 
BRANCH  12  13
ATOM     13  C   UNL A   1      43.508  24.521  27.567  1.00  0.00     0.031 A 
ATOM     14  C   UNL A   1      42.491  25.556  27.946  1.00  0.00     0.074 A 
ATOM     15  C   UNL A   1      44.821  24.828  27.536  1.00  0.00     0.049 A 
ATOM     16  N   UNL A   1      42.682  26.812  28.263  1.00  0.00    -0.248 NA
ATOM     17  C   UNL A   1      41.082  25.138  27.971  1.00  0.00     0.031 C 
ATOM     18  C   UNL A   1      45.893  23.899  27.158  1.00  0.00     0.029 A 
ATOM     19  N   UNL A   1      45.482  25.992  27.823  1.00  0.00    -0.354 N 
ATOM     20  C   UNL A   1      41.422  27.340  28.506  1.00  0.00     0.074 A 
ATOM     21  C   UNL A   1      40.469  26.273  28.287  1.00  0.00     0.031 C 
ATOM     22  C   UNL A   1      47.074  24.522  27.262  1.00  0.00     0.029 A 
ATOM     23  C   UNL A   1      46.841  25.909  27.640  1.00  0.00     0.049 A 
ATOM     24  H   UNL A   1      45.027  26.810  28.132  1.00  0.00     0.167 HD
ATOM     25  C   UNL A   1      41.100  28.603  28.874  1.00  0.00     0.037 A 
ATOM     26  C   UNL A   1      47.794  26.854  27.726  1.00  0.00     0.037 A 
ATOM     27  C   UNL A   1      42.064  29.651  29.103  1.00  0.00     0.049 A 
ATOM     28  C   UNL A   1      47.394  28.251  28.098  1.00  0.00     0.074 A 
ATOM     29  C   UNL A   1      41.839  30.941  29.552  1.00  0.00     0.029 A 
ATOM     30  N   UNL A   1      43.428  29.537  28.883  1.00  0.00    -0.354 N 
ATOM     31  N   UNL A   1      46.207  28.716  28.400  1.00  0.00    -0.248 NA
ATOM     32  C   UNL A   1      48.463  29.257  28.133  1.00  0.00     0.031 C 
ATOM     33  C   UNL A   1      43.058  31.626  29.542  1.00  0.00     0.029 A 
ATOM     34  C   UNL A   1      44.051  30.747  29.143  1.00  0.00     0.049 A 
ATOM     35  H   UNL A   1      43.887  28.717  28.588  1.00  0.00     0.167 HD
ATOM     36  C   UNL A   1      46.387  30.064  28.670  1.00  0.00     0.074 A 
ATOM     37  C   UNL A   1      47.802  30.334  28.530  1.00  0.00     0.031 C 
ATOM     38  C   UNL A   1      45.461  31.000  28.994  1.00  0.00     0.037 A 
BRANCH  25  39
ATOM     39  C   UNL A   1      39.649  28.949  29.043  1.00  0.00     0.057 A 
ATOM     40  C   UNL A   1      38.845  29.331  27.963  1.00  0.00     0.134 A 
ATOM     41  C   UNL A   1      39.025  28.787  30.289  1.00  0.00     0.134 A 
ATOM     42  F   UNL A   1      39.381  29.509  26.747  1.00  0.00    -0.206 F 
ATOM     43  C   UNL A   1      37.472  29.541  28.115  1.00  0.00     0.040 A 
ATOM     44  C   UNL A   1      37.651  28.972  30.448  1.00  0.00     0.040 A 
ATOM     45  F   UNL A   1      39.736  28.414  31.364  1.00  0.00    -0.206 F 
ATOM     46  C   UNL A   1      36.870  29.349  29.357  1.00  0.00     0.006 A 
ENDBRANCH  25  39
BRANCH  26  47
ATOM     47  C   UNL A   1      49.205  26.524  27.401  1.00  0.00     0.057 A 
ATOM     48  C   UNL A   1      49.689  26.600  26.090  1.00  0.00     0.134 A 
ATOM     49  C   UNL A   1      50.097  26.097  28.393  1.00  0.00     0.134 A 
ATOM     50  F   UNL A   1      48.879  26.987  25.093  1.00  0.00    -0.206 F 
ATOM     51  C   UNL A   1      50.997  26.234  25.773  1.00  0.00     0.040 A 
ATOM     52  C   UNL A   1      51.418  25.761  28.095  1.00  0.00     0.040 A 
ATOM     53  F   UNL A   1      49.701  26.010  29.671  1.00  0.00    -0.206 F 
ATOM     54  C   UNL A   1      51.868  25.817  26.779  1.00  0.00     0.006 A 
ENDBRANCH  26  47
BRANCH  38  55
ATOM     55  C   UNL A   1      45.958  32.394  29.227  1.00  0.00     0.057 A 
ATOM     56  C   UNL A   1      46.394  32.817  30.489  1.00  0.00     0.134 A 
ATOM     57  C   UNL A   1      46.025  33.316  28.176  1.00  0.00     0.134 A 
ATOM     58  F   UNL A   1      46.338  31.987  31.541  1.00  0.00    -0.206 F 
ATOM     59  C   UNL A   1      46.860  34.115  30.702  1.00  0.00     0.040 A 
ATOM     60  C   UNL A   1      46.516  34.607  28.369  1.00  0.00     0.040 A 
ATOM     61  F   UNL A   1      45.628  32.973  26.941  1.00  0.00    -0.206 F 
ATOM     62  C   UNL A   1      46.929  35.012  29.637  1.00  0.00     0.006 A 
ENDBRANCH  38  55
ENDBRANCH  12  13
ENDBRANCH   5   7
ENDBRANCH   2   3
ENDBRANCH   1   2
BRANCH   1  63
ATOM     63  C   UNL A   1      37.296  21.217  24.597  1.00  0.00     0.002 C 
BRANCH  63  64
ATOM     64  C   UNL A   1      37.726  22.480  25.349  1.00  0.00     0.002 C 
BRANCH  64  65
ATOM     65  C   UNL A   1      36.888  23.729  25.058  1.00  0.00     0.021 C 
BRANCH  65  66
ATOM     66  C   UNL A   1      35.377  23.506  25.093  1.00  0.00     0.116 C 
BRANCH  66  67
ATOM     67  N   UNL A   1      34.915  23.204  26.436  1.00  0.00    -0.349 N 
ATOM     68  C   UNL A   1      33.979  22.265  26.828  1.00  0.00     0.289 C 
ATOM     69  H   UNL A   1      35.318  23.737  27.159  1.00  0.00     0.163 HD
ATOM     70  O   UNL A   1      33.578  22.278  27.992  1.00  0.00    -0.266 OA
BRANCH  68  71
ATOM     71  C   UNL A   1      33.470  21.260  25.833  1.00  0.00     0.218 A 
ATOM     72  N   UNL A   1      32.376  21.600  25.126  1.00  0.00    -0.232 NA
ATOM     73  N   UNL A   1      34.196  20.130  25.684  1.00  0.00    -0.224 NA
ATOM     74  C   UNL A   1      32.011  20.718  24.179  1.00  0.00     0.124 A 
ATOM     75  C   UNL A   1      33.806  19.288  24.726  1.00  0.00     0.074 A 
ATOM     76  C   UNL A   1      32.695  19.538  23.912  1.00  0.00     0.019 A 
ATOM     77  C   UNL A   1      34.535  18.127  24.502  1.00  0.00     0.029 A 
ATOM     78  C   UNL A   1      32.329  18.637  22.894  1.00  0.00     0.012 A 
ATOM     79  C   UNL A   1      34.186  17.227  23.491  1.00  0.00     0.002 A 
ATOM     80  C   UNL A   1      33.081  17.484  22.686  1.00  0.00     0.001 A 
ENDBRANCH  68  71
ENDBRANCH  66  67
ENDBRANCH  65  66
ENDBRANCH  64  65
ENDBRANCH  63  64
ENDBRANCH   1  63
TORSDOF 13
ENDMDL
