MODEL 1
REMARK VINA RESULT:     -11.2      0.000      0.000
REMARK SMILES Nc1oc(-c2ccccc2)cc1C(=O)NCCCCCCNC(=O)c1ccc(-c2c3nc(c(-c4c(F)cccc4F)c4ccc([nH]4)c(-c4c(F)cccc4F)c4nc(c(-c5c(F)cccc5F)c5ccc2[nH]5)C=C4)C=C3)cc1
REMARK SMILES IDX 19 1 18 2 17 3 16 4 15 5 13 6 14 7 12 9 2 10 3 11 4 12 11 13
REMARK SMILES IDX 1 14 5 17 6 18 10 19 7 20 9 21 8 22 20 23 21 24 22 25 23 26
REMARK SMILES IDX 24 28 25 29 26 30 78 31 27 32 77 33 28 34 29 35 30 36 71 37
REMARK SMILES IDX 31 38 76 39 70 40 72 41 32 42 75 43 69 44 68 45 33 47 59 48
REMARK SMILES IDX 42 49 58 50 43 51 46 52 57 53 73 54 44 55 45 56 56 58 74 59
REMARK SMILES IDX 47 60 34 61 35 62 40 63 36 64 37 65 39 66 41 67 38 68 60 69
REMARK SMILES IDX 61 70 66 71 62 72 63 73 65 74 67 75 64 76 48 77 49 78 54 79
REMARK SMILES IDX 50 80 51 81 53 82 55 83 52 84
REMARK H PARENT 15 8 1 15 1 16 22 27 72 46 46 57
REMARK Flexibility Score: inf
ROOT
ATOM      1  C   UNL A   1      41.055  21.367  27.335  1.00  0.00     0.002 C 
ENDROOT
BRANCH   1   2
ATOM      2  C   UNL A   1      39.956  21.456  26.260  1.00  0.00     0.002 C 
BRANCH   2   3
ATOM      3  C   UNL A   1      39.022  22.669  26.368  1.00  0.00     0.021 C 
BRANCH   3   4
ATOM      4  C   UNL A   1      37.593  22.361  25.928  1.00  0.00     0.116 C 
BRANCH   4   5
ATOM      5  N   UNL A   1      37.468  22.444  24.490  1.00  0.00    -0.352 N 
ATOM      6  C   UNL A   1      36.542  23.020  23.658  1.00  0.00     0.256 C 
ATOM      7  O   UNL A   1      36.745  22.884  22.448  1.00  0.00    -0.269 OA
ATOM      8  H   UNL A   1      38.199  21.994  24.008  1.00  0.00     0.163 HD
BRANCH   6   9
ATOM      9  C   UNL A   1      35.414  23.787  24.167  1.00  0.00     0.103 A 
ATOM     10  C   UNL A   1      34.167  23.804  23.554  1.00  0.00     0.203 A 
ATOM     11  O   UNL A   1      33.320  24.679  24.160  1.00  0.00    -0.440 OA
ATOM     12  C   UNL A   1      34.012  25.223  25.193  1.00  0.00     0.137 A 
ATOM     13  C   UNL A   1      35.251  24.635  25.293  1.00  0.00     0.067 A 
BRANCH  10  14
ATOM     14  N   UNL A   1      33.677  23.150  22.497  1.00  0.00    -0.369 N 
ATOM     15  H   UNL A   1      34.260  22.944  21.732  1.00  0.00     0.159 HD
ATOM     16  H   UNL A   1      32.731  22.876  22.484  1.00  0.00     0.159 HD
ENDBRANCH  10  14
BRANCH  12  17
ATOM     17  C   UNL A   1      33.405  26.287  25.963  1.00  0.00     0.017 A 
ATOM     18  C   UNL A   1      34.093  27.468  26.240  1.00  0.00     0.012 A 
ATOM     19  C   UNL A   1      32.048  26.181  26.311  1.00  0.00     0.012 A 
ATOM     20  C   UNL A   1      33.421  28.545  26.825  1.00  0.00     0.001 A 
ATOM     21  C   UNL A   1      31.381  27.252  26.903  1.00  0.00     0.001 A 
ATOM     22  C   UNL A   1      32.067  28.440  27.148  1.00  0.00     0.000 A 
ENDBRANCH  12  17
ENDBRANCH   6   9
ENDBRANCH   4   5
ENDBRANCH   3   4
ENDBRANCH   2   3
ENDBRANCH   1   2
BRANCH   1  23
ATOM     23  C   UNL A   1      42.026  20.179  27.230  1.00  0.00     0.021 C 
BRANCH  23  24
ATOM     24  C   UNL A   1      42.372  19.810  25.801  1.00  0.00     0.116 C 
BRANCH  24  25
ATOM     25  N   UNL A   1      43.821  19.775  25.556  1.00  0.00    -0.352 N 
ATOM     26  C   UNL A   1      44.699  20.819  25.293  1.00  0.00     0.251 C 
ATOM     27  H   UNL A   1      44.229  18.880  25.583  1.00  0.00     0.163 HD
ATOM     28  O   UNL A   1      45.780  20.618  24.766  1.00  0.00    -0.269 OA
BRANCH  26  29
ATOM     29  C   UNL A   1      44.299  22.183  25.683  1.00  0.00     0.039 A 
ATOM     30  C   UNL A   1      43.418  22.982  24.950  1.00  0.00     0.014 A 
ATOM     31  C   UNL A   1      44.815  22.640  26.882  1.00  0.00     0.014 A 
ATOM     32  C   UNL A   1      43.090  24.236  25.466  1.00  0.00     0.010 A 
ATOM     33  C   UNL A   1      44.151  23.615  27.547  1.00  0.00     0.010 A 
ATOM     34  C   UNL A   1      43.494  24.542  26.774  1.00  0.00    -0.014 A 
BRANCH  34  35
ATOM     35  C   UNL A   1      43.253  25.808  27.437  1.00  0.00     0.031 A 
ATOM     36  C   UNL A   1      44.220  26.860  27.070  1.00  0.00     0.074 A 
ATOM     37  C   UNL A   1      42.098  26.067  28.096  1.00  0.00     0.049 A 
ATOM     38  N   UNL A   1      45.155  27.350  27.806  1.00  0.00    -0.248 NA
ATOM     39  C   UNL A   1      44.276  27.286  25.663  1.00  0.00     0.031 C 
ATOM     40  C   UNL A   1      40.890  25.238  28.237  1.00  0.00     0.029 A 
ATOM     41  N   UNL A   1      41.734  27.213  28.730  1.00  0.00    -0.354 N 
ATOM     42  C   UNL A   1      45.790  28.307  27.023  1.00  0.00     0.074 A 
ATOM     43  C   UNL A   1      45.354  28.072  25.672  1.00  0.00     0.031 C 
ATOM     44  C   UNL A   1      39.871  25.985  28.721  1.00  0.00     0.029 A 
ATOM     45  C   UNL A   1      40.389  27.290  29.082  1.00  0.00     0.049 A 
ATOM     46  H   UNL A   1      42.374  27.935  28.927  1.00  0.00     0.167 HD
ATOM     47  C   UNL A   1      46.433  29.361  27.595  1.00  0.00     0.037 A 
ATOM     48  C   UNL A   1      39.768  28.378  29.606  1.00  0.00     0.037 A 
ATOM     49  C   UNL A   1      46.603  29.147  29.013  1.00  0.00     0.049 A 
ATOM     50  C   UNL A   1      40.835  29.257  30.158  1.00  0.00     0.074 A 
ATOM     51  C   UNL A   1      47.273  28.209  29.775  1.00  0.00     0.029 A 
ATOM     52  N   UNL A   1      45.680  29.725  29.854  1.00  0.00    -0.354 N 
ATOM     53  N   UNL A   1      41.577  28.930  31.180  1.00  0.00    -0.248 NA
ATOM     54  C   UNL A   1      41.412  30.247  29.258  1.00  0.00     0.031 C 
ATOM     55  C   UNL A   1      46.396  27.931  30.865  1.00  0.00     0.029 A 
ATOM     56  C   UNL A   1      45.286  28.771  30.757  1.00  0.00     0.049 A 
ATOM     57  H   UNL A   1      45.360  30.656  29.813  1.00  0.00     0.167 HD
ATOM     58  C   UNL A   1      42.860  29.339  30.838  1.00  0.00     0.074 A 
ATOM     59  C   UNL A   1      42.684  30.197  29.665  1.00  0.00     0.031 C 
ATOM     60  C   UNL A   1      43.963  28.707  31.339  1.00  0.00     0.037 A 
BRANCH  47  61
ATOM     61  C   UNL A   1      46.583  30.724  26.973  1.00  0.00     0.057 A 
ATOM     62  C   UNL A   1      47.856  31.323  26.953  1.00  0.00     0.134 A 
ATOM     63  C   UNL A   1      45.513  31.582  26.651  1.00  0.00     0.134 A 
ATOM     64  F   UNL A   1      48.957  30.612  27.241  1.00  0.00    -0.206 F 
ATOM     65  C   UNL A   1      48.039  32.689  26.716  1.00  0.00     0.040 A 
ATOM     66  C   UNL A   1      45.690  32.937  26.361  1.00  0.00     0.040 A 
ATOM     67  F   UNL A   1      44.235  31.191  26.696  1.00  0.00    -0.206 F 
ATOM     68  C   UNL A   1      46.952  33.504  26.428  1.00  0.00     0.006 A 
ENDBRANCH  47  61
BRANCH  48  69
ATOM     69  C   UNL A   1      38.389  28.863  29.360  1.00  0.00     0.057 A 
ATOM     70  C   UNL A   1      37.460  28.998  30.402  1.00  0.00     0.134 A 
ATOM     71  C   UNL A   1      38.039  29.476  28.143  1.00  0.00     0.134 A 
ATOM     72  F   UNL A   1      37.720  28.485  31.614  1.00  0.00    -0.206 F 
ATOM     73  C   UNL A   1      36.265  29.720  30.251  1.00  0.00     0.040 A 
ATOM     74  C   UNL A   1      36.852  30.198  27.979  1.00  0.00     0.040 A 
ATOM     75  F   UNL A   1      38.884  29.473  27.102  1.00  0.00    -0.206 F 
ATOM     76  C   UNL A   1      35.965  30.334  29.039  1.00  0.00     0.006 A 
ENDBRANCH  48  69
BRANCH  60  77
ATOM     77  C   UNL A   1      43.762  27.690  32.432  1.00  0.00     0.057 A 
ATOM     78  C   UNL A   1      43.748  26.301  32.228  1.00  0.00     0.134 A 
ATOM     79  C   UNL A   1      43.768  28.126  33.761  1.00  0.00     0.134 A 
ATOM     80  F   UNL A   1      43.835  25.781  30.999  1.00  0.00    -0.206 F 
ATOM     81  C   UNL A   1      43.710  25.392  33.292  1.00  0.00     0.040 A 
ATOM     82  C   UNL A   1      43.763  27.231  34.834  1.00  0.00     0.040 A 
ATOM     83  F   UNL A   1      43.838  29.438  34.038  1.00  0.00    -0.206 F 
ATOM     84  C   UNL A   1      43.727  25.859  34.602  1.00  0.00     0.006 A 
ENDBRANCH  60  77
ENDBRANCH  34  35
ENDBRANCH  26  29
ENDBRANCH  24  25
ENDBRANCH  23  24
ENDBRANCH   1  23
TORSDOF 15
ENDMDL
MODEL 2
REMARK VINA RESULT:     -11.2      2.162      3.169
REMARK SMILES Nc1oc(-c2ccccc2)cc1C(=O)NCCCCCCNC(=O)c1ccc(-c2c3nc(c(-c4c(F)cccc4F)c4ccc([nH]4)c(-c4c(F)cccc4F)c4nc(c(-c5c(F)cccc5F)c5ccc2[nH]5)C=C4)C=C3)cc1
REMARK SMILES IDX 19 1 18 2 17 3 16 4 15 5 13 6 14 7 12 9 2 10 3 11 4 12 11 13
REMARK SMILES IDX 1 14 5 17 6 18 10 19 7 20 9 21 8 22 20 23 21 24 22 25 23 26
REMARK SMILES IDX 24 28 25 29 26 30 78 31 27 32 77 33 28 34 29 35 30 36 71 37
REMARK SMILES IDX 31 38 76 39 70 40 72 41 32 42 75 43 69 44 68 45 33 47 59 48
REMARK SMILES IDX 42 49 58 50 43 51 46 52 57 53 73 54 44 55 45 56 56 58 74 59
REMARK SMILES IDX 47 60 34 61 35 62 40 63 36 64 37 65 39 66 41 67 38 68 60 69
REMARK SMILES IDX 61 70 66 71 62 72 63 73 65 74 67 75 64 76 48 77 49 78 54 79
REMARK SMILES IDX 50 80 51 81 53 82 55 83 52 84
REMARK H PARENT 15 8 1 15 1 16 22 27 72 46 46 57
REMARK Flexibility Score: inf
ROOT
ATOM      1  C   UNL A   1      41.586  20.981  27.364  1.00  0.00     0.002 C 
ENDROOT
BRANCH   1   2
ATOM      2  C   UNL A   1      40.827  21.627  26.191  1.00  0.00     0.002 C 
BRANCH   2   3
ATOM      3  C   UNL A   1      39.567  22.416  26.572  1.00  0.00     0.021 C 
BRANCH   3   4
ATOM      4  C   UNL A   1      38.352  22.043  25.727  1.00  0.00     0.116 C 
BRANCH   4   5
ATOM      5  N   UNL A   1      37.441  23.160  25.614  1.00  0.00    -0.352 N 
ATOM      6  C   UNL A   1      36.077  23.254  25.500  1.00  0.00     0.256 C 
ATOM      7  O   UNL A   1      35.621  24.397  25.410  1.00  0.00    -0.269 OA
ATOM      8  H   UNL A   1      37.893  24.035  25.620  1.00  0.00     0.163 HD
BRANCH   6   9
ATOM      9  C   UNL A   1      35.214  22.082  25.532  1.00  0.00     0.103 A 
ATOM     10  C   UNL A   1      34.261  21.866  26.519  1.00  0.00     0.203 A 
ATOM     11  O   UNL A   1      33.663  20.651  26.386  1.00  0.00    -0.440 OA
ATOM     12  C   UNL A   1      34.216  20.076  25.288  1.00  0.00     0.137 A 
ATOM     13  C   UNL A   1      35.086  20.952  24.683  1.00  0.00     0.067 A 
BRANCH  10  14
ATOM     14  N   UNL A   1      33.856  22.608  27.554  1.00  0.00    -0.369 N 
ATOM     15  H   UNL A   1      34.480  23.236  27.984  1.00  0.00     0.159 HD
ATOM     16  H   UNL A   1      32.932  22.525  27.887  1.00  0.00     0.159 HD
ENDBRANCH  10  14
BRANCH  12  17
ATOM     17  C   UNL A   1      33.859  18.714  24.954  1.00  0.00     0.017 A 
ATOM     18  C   UNL A   1      34.736  17.884  24.255  1.00  0.00     0.012 A 
ATOM     19  C   UNL A   1      32.667  18.180  25.470  1.00  0.00     0.012 A 
ATOM     20  C   UNL A   1      34.440  16.526  24.107  1.00  0.00     0.001 A 
ATOM     21  C   UNL A   1      32.369  16.828  25.314  1.00  0.00     0.001 A 
ATOM     22  C   UNL A   1      33.264  15.998  24.643  1.00  0.00     0.000 A 
ENDBRANCH  12  17
ENDBRANCH   6   9
ENDBRANCH   4   5
ENDBRANCH   3   4
ENDBRANCH   2   3
ENDBRANCH   1   2
BRANCH   1  23
ATOM     23  C   UNL A   1      42.511  19.802  27.019  1.00  0.00     0.021 C 
BRANCH  23  24
ATOM     24  C   UNL A   1      42.840  19.707  25.542  1.00  0.00     0.116 C 
BRANCH  24  25
ATOM     25  N   UNL A   1      44.286  19.696  25.279  1.00  0.00    -0.352 N 
ATOM     26  C   UNL A   1      45.148  20.756  25.026  1.00  0.00     0.251 C 
ATOM     27  H   UNL A   1      44.706  18.805  25.284  1.00  0.00     0.163 HD
ATOM     28  O   UNL A   1      46.225  20.579  24.483  1.00  0.00    -0.269 OA
BRANCH  26  29
ATOM     29  C   UNL A   1      44.735  22.107  25.448  1.00  0.00     0.039 A 
ATOM     30  C   UNL A   1      43.878  22.930  24.713  1.00  0.00     0.014 A 
ATOM     31  C   UNL A   1      45.212  22.524  26.676  1.00  0.00     0.014 A 
ATOM     32  C   UNL A   1      43.533  24.166  25.259  1.00  0.00     0.010 A 
ATOM     33  C   UNL A   1      44.526  23.477  27.351  1.00  0.00     0.010 A 
ATOM     34  C   UNL A   1      43.895  24.429  26.588  1.00  0.00    -0.014 A 
BRANCH  34  35
ATOM     35  C   UNL A   1      43.633  25.674  27.283  1.00  0.00     0.031 A 
ATOM     36  C   UNL A   1      44.591  26.746  26.956  1.00  0.00     0.074 A 
ATOM     37  C   UNL A   1      42.468  25.901  27.937  1.00  0.00     0.049 A 
ATOM     38  N   UNL A   1      45.513  27.226  27.716  1.00  0.00    -0.248 NA
ATOM     39  C   UNL A   1      44.657  27.212  25.562  1.00  0.00     0.031 C 
ATOM     40  C   UNL A   1      41.268  25.055  28.042  1.00  0.00     0.029 A 
ATOM     41  N   UNL A   1      42.084  27.024  28.599  1.00  0.00    -0.354 N 
ATOM     42  C   UNL A   1      46.145  28.211  26.967  1.00  0.00     0.074 A 
ATOM     43  C   UNL A   1      45.726  28.010  25.606  1.00  0.00     0.031 C 
ATOM     44  C   UNL A   1      40.235  25.777  28.535  1.00  0.00     0.029 A 
ATOM     45  C   UNL A   1      40.734  27.077  28.938  1.00  0.00     0.049 A 
ATOM     46  H   UNL A   1      42.714  27.748  28.822  1.00  0.00     0.167 HD
ATOM     47  C   UNL A   1      46.770  29.256  27.576  1.00  0.00     0.037 A 
ATOM     48  C   UNL A   1      40.095  28.143  29.485  1.00  0.00     0.037 A 
ATOM     49  C   UNL A   1      46.928  29.004  28.988  1.00  0.00     0.049 A 
ATOM     50  C   UNL A   1      41.146  29.017  30.073  1.00  0.00     0.074 A 
ATOM     51  C   UNL A   1      47.599  28.052  29.732  1.00  0.00     0.029 A 
ATOM     52  N   UNL A   1      45.989  29.548  29.835  1.00  0.00    -0.354 N 
ATOM     53  N   UNL A   1      41.881  28.671  31.094  1.00  0.00    -0.248 NA
ATOM     54  C   UNL A   1      41.722  30.039  29.208  1.00  0.00     0.031 C 
ATOM     55  C   UNL A   1      46.714  27.734  30.804  1.00  0.00     0.029 A 
ATOM     56  C   UNL A   1      45.596  28.564  30.707  1.00  0.00     0.049 A 
ATOM     57  H   UNL A   1      45.659  30.476  29.818  1.00  0.00     0.167 HD
ATOM     58  C   UNL A   1      43.163  29.103  30.778  1.00  0.00     0.074 A 
ATOM     59  C   UNL A   1      42.990  29.991  29.628  1.00  0.00     0.031 C 
ATOM     60  C   UNL A   1      44.268  28.469  31.272  1.00  0.00     0.037 A 
BRANCH  47  61
ATOM     61  C   UNL A   1      46.911  30.638  26.993  1.00  0.00     0.057 A 
ATOM     62  C   UNL A   1      48.174  31.257  27.017  1.00  0.00     0.134 A 
ATOM     63  C   UNL A   1      45.834  31.487  26.673  1.00  0.00     0.134 A 
ATOM     64  F   UNL A   1      49.280  30.554  27.307  1.00  0.00    -0.206 F 
ATOM     65  C   UNL A   1      48.340  32.631  26.820  1.00  0.00     0.040 A 
ATOM     66  C   UNL A   1      45.995  32.852  26.424  1.00  0.00     0.040 A 
ATOM     67  F   UNL A   1      44.562  31.076  26.681  1.00  0.00    -0.206 F 
ATOM     68  C   UNL A   1      47.247  33.437  26.532  1.00  0.00     0.006 A 
ENDBRANCH  47  61
BRANCH  48  69
ATOM     69  C   UNL A   1      38.714  28.619  29.238  1.00  0.00     0.057 A 
ATOM     70  C   UNL A   1      37.773  28.717  30.274  1.00  0.00     0.134 A 
ATOM     71  C   UNL A   1      38.369  29.260  28.034  1.00  0.00     0.134 A 
ATOM     72  F   UNL A   1      38.027  28.175  31.475  1.00  0.00    -0.206 F 
ATOM     73  C   UNL A   1      36.572  29.430  30.130  1.00  0.00     0.040 A 
ATOM     74  C   UNL A   1      37.175  29.973  27.877  1.00  0.00     0.040 A 
ATOM     75  F   UNL A   1      39.224  29.292  27.002  1.00  0.00    -0.206 F 
ATOM     76  C   UNL A   1      36.277  30.072  28.931  1.00  0.00     0.006 A 
ENDBRANCH  48  69
BRANCH  60  77
ATOM     77  C   UNL A   1      44.067  27.420  32.335  1.00  0.00     0.057 A 
ATOM     78  C   UNL A   1      44.045  26.038  32.087  1.00  0.00     0.134 A 
ATOM     79  C   UNL A   1      44.081  27.814  33.677  1.00  0.00     0.134 A 
ATOM     80  F   UNL A   1      44.125  25.556  30.842  1.00  0.00    -0.206 F 
ATOM     81  C   UNL A   1      44.008  25.097  33.122  1.00  0.00     0.040 A 
ATOM     82  C   UNL A   1      44.077  26.886  34.721  1.00  0.00     0.040 A 
ATOM     83  F   UNL A   1      44.159  29.116  33.994  1.00  0.00    -0.206 F 
ATOM     84  C   UNL A   1      44.033  25.522  34.446  1.00  0.00     0.006 A 
ENDBRANCH  60  77
ENDBRANCH  34  35
ENDBRANCH  26  29
ENDBRANCH  24  25
ENDBRANCH  23  24
ENDBRANCH   1  23
TORSDOF 15
ENDMDL
MODEL 3
REMARK VINA RESULT:     -10.8      3.341      8.429
REMARK SMILES Nc1oc(-c2ccccc2)cc1C(=O)NCCCCCCNC(=O)c1ccc(-c2c3nc(c(-c4c(F)cccc4F)c4ccc([nH]4)c(-c4c(F)cccc4F)c4nc(c(-c5c(F)cccc5F)c5ccc2[nH]5)C=C4)C=C3)cc1
REMARK SMILES IDX 19 1 18 2 17 3 16 4 15 5 13 6 14 7 12 9 2 10 3 11 4 12 11 13
REMARK SMILES IDX 1 14 5 17 6 18 10 19 7 20 9 21 8 22 20 23 21 24 22 25 23 26
REMARK SMILES IDX 24 28 25 29 26 30 78 31 27 32 77 33 28 34 29 35 30 36 71 37
REMARK SMILES IDX 31 38 76 39 70 40 72 41 32 42 75 43 69 44 68 45 33 47 59 48
REMARK SMILES IDX 42 49 58 50 43 51 46 52 57 53 73 54 44 55 45 56 56 58 74 59
REMARK SMILES IDX 47 60 34 61 35 62 40 63 36 64 37 65 39 66 41 67 38 68 60 69
REMARK SMILES IDX 61 70 66 71 62 72 63 73 65 74 67 75 64 76 48 77 49 78 54 79
REMARK SMILES IDX 50 80 51 81 53 82 55 83 52 84
REMARK H PARENT 15 8 1 15 1 16 22 27 72 46 46 57
REMARK Flexibility Score: inf
ROOT
ATOM      1  C   UNL A   1      31.910  29.187  27.239  1.00  0.00     0.002 C 
ENDROOT
BRANCH   1   2
ATOM      2  C   UNL A   1      31.613  28.238  26.064  1.00  0.00     0.002 C 
BRANCH   2   3
ATOM      3  C   UNL A   1      31.711  26.740  26.381  1.00  0.00     0.021 C 
BRANCH   3   4
ATOM      4  C   UNL A   1      30.371  26.018  26.268  1.00  0.00     0.116 C 
BRANCH   4   5
ATOM      5  N   UNL A   1      30.377  25.093  25.156  1.00  0.00    -0.352 N 
ATOM      6  C   UNL A   1      30.219  25.250  23.802  1.00  0.00     0.256 C 
ATOM      7  O   UNL A   1      30.271  24.216  23.130  1.00  0.00    -0.269 OA
ATOM      8  H   UNL A   1      30.525  24.159  25.426  1.00  0.00     0.163 HD
BRANCH   6   9
ATOM      9  C   UNL A   1      30.049  26.558  23.188  1.00  0.00     0.103 A 
ATOM     10  C   UNL A   1      30.924  27.071  22.237  1.00  0.00     0.203 A 
ATOM     11  O   UNL A   1      30.608  28.351  21.901  1.00  0.00    -0.440 OA
ATOM     12  C   UNL A   1      29.503  28.671  22.622  1.00  0.00     0.137 A 
ATOM     13  C   UNL A   1      29.074  27.578  23.337  1.00  0.00     0.067 A 
BRANCH  10  14
ATOM     14  N   UNL A   1      31.996  26.554  21.632  1.00  0.00    -0.369 N 
ATOM     15  H   UNL A   1      32.832  26.427  22.134  1.00  0.00     0.159 HD
ATOM     16  H   UNL A   1      31.949  26.301  20.681  1.00  0.00     0.159 HD
ENDBRANCH  10  14
BRANCH  12  17
ATOM     17  C   UNL A   1      28.993  30.023  22.563  1.00  0.00     0.017 A 
ATOM     18  C   UNL A   1      29.165  30.912  23.624  1.00  0.00     0.012 A 
ATOM     19  C   UNL A   1      28.441  30.487  21.357  1.00  0.00     0.012 A 
ATOM     20  C   UNL A   1      28.824  32.259  23.467  1.00  0.00     0.001 A 
ATOM     21  C   UNL A   1      28.093  31.828  21.205  1.00  0.00     0.001 A 
ATOM     22  C   UNL A   1      28.297  32.716  22.258  1.00  0.00     0.000 A 
ENDBRANCH  12  17
ENDBRANCH   6   9
ENDBRANCH   4   5
ENDBRANCH   3   4
ENDBRANCH   2   3
ENDBRANCH   1   2
BRANCH   1  23
ATOM     23  C   UNL A   1      32.489  30.566  26.882  1.00  0.00     0.021 C 
BRANCH  23  24
ATOM     24  C   UNL A   1      33.956  30.712  27.235  1.00  0.00     0.116 C 
BRANCH  24  25
ATOM     25  N   UNL A   1      34.236  31.921  28.024  1.00  0.00    -0.352 N 
ATOM     26  C   UNL A   1      35.133  32.107  29.069  1.00  0.00     0.251 C 
ATOM     27  H   UNL A   1      33.711  32.715  27.774  1.00  0.00     0.163 HD
ATOM     28  O   UNL A   1      35.008  33.034  29.850  1.00  0.00    -0.269 OA
BRANCH  26  29
ATOM     29  C   UNL A   1      36.256  31.162  29.202  1.00  0.00     0.039 A 
ATOM     30  C   UNL A   1      36.175  29.800  28.897  1.00  0.00     0.014 A 
ATOM     31  C   UNL A   1      37.457  31.709  29.612  1.00  0.00     0.014 A 
ATOM     32  C   UNL A   1      37.333  29.033  29.024  1.00  0.00     0.010 A 
ATOM     33  C   UNL A   1      38.607  31.069  29.295  1.00  0.00     0.010 A 
ATOM     34  C   UNL A   1      38.547  29.697  29.250  1.00  0.00    -0.014 A 
BRANCH  34  35
ATOM     35  C   UNL A   1      39.826  29.038  29.430  1.00  0.00     0.031 A 
ATOM     36  C   UNL A   1      40.174  28.802  30.844  1.00  0.00     0.074 A 
ATOM     37  C   UNL A   1      40.486  28.454  28.401  1.00  0.00     0.049 A 
ATOM     38  N   UNL A   1      41.078  29.403  31.536  1.00  0.00    -0.248 NA
ATOM     39  C   UNL A   1      39.294  27.927  31.635  1.00  0.00     0.031 C 
ATOM     40  C   UNL A   1      40.083  28.296  26.994  1.00  0.00     0.029 A 
ATOM     41  N   UNL A   1      41.667  27.783  28.437  1.00  0.00    -0.354 N 
ATOM     42  C   UNL A   1      41.027  28.833  32.802  1.00  0.00     0.074 A 
ATOM     43  C   UNL A   1      39.791  28.100  32.861  1.00  0.00     0.031 C 
ATOM     44  C   UNL A   1      40.893  27.404  26.379  1.00  0.00     0.029 A 
ATOM     45  C   UNL A   1      41.967  27.056  27.287  1.00  0.00     0.049 A 
ATOM     46  H   UNL A   1      42.267  27.809  29.218  1.00  0.00     0.167 HD
ATOM     47  C   UNL A   1      42.126  28.819  33.604  1.00  0.00     0.037 A 
ATOM     48  C   UNL A   1      43.020  26.212  27.136  1.00  0.00     0.037 A 
ATOM     49  C   UNL A   1      43.145  29.703  33.091  1.00  0.00     0.049 A 
ATOM     50  C   UNL A   1      44.008  26.564  28.192  1.00  0.00     0.074 A 
ATOM     51  C   UNL A   1      43.218  31.064  32.863  1.00  0.00     0.029 A 
ATOM     52  N   UNL A   1      44.145  29.141  32.331  1.00  0.00    -0.354 N 
ATOM     53  N   UNL A   1      44.655  27.697  28.221  1.00  0.00    -0.248 NA
ATOM     54  C   UNL A   1      43.883  25.883  29.473  1.00  0.00     0.031 C 
ATOM     55  C   UNL A   1      43.913  31.190  31.623  1.00  0.00     0.029 A 
ATOM     56  C   UNL A   1      44.298  29.914  31.208  1.00  0.00     0.049 A 
ATOM     57  H   UNL A   1      44.657  28.329  32.553  1.00  0.00     0.167 HD
ATOM     58  C   UNL A   1      44.648  28.079  29.557  1.00  0.00     0.074 A 
ATOM     59  C   UNL A   1      44.208  26.891  30.289  1.00  0.00     0.031 C 
ATOM     60  C   UNL A   1      44.701  29.396  29.919  1.00  0.00     0.037 A 
BRANCH  47  61
ATOM     61  C   UNL A   1      42.435  27.759  34.629  1.00  0.00     0.057 A 
ATOM     62  C   UNL A   1      42.913  26.511  34.189  1.00  0.00     0.134 A 
ATOM     63  C   UNL A   1      42.028  27.803  35.977  1.00  0.00     0.134 A 
ATOM     64  F   UNL A   1      43.332  26.340  32.926  1.00  0.00    -0.206 F 
ATOM     65  C   UNL A   1      42.906  25.375  35.005  1.00  0.00     0.040 A 
ATOM     66  C   UNL A   1      42.066  26.686  36.815  1.00  0.00     0.040 A 
ATOM     67  F   UNL A   1      41.481  28.890  36.532  1.00  0.00    -0.206 F 
ATOM     68  C   UNL A   1      42.472  25.458  36.321  1.00  0.00     0.006 A 
ENDBRANCH  47  61
BRANCH  48  69
ATOM     69  C   UNL A   1      43.080  24.934  26.388  1.00  0.00     0.057 A 
ATOM     70  C   UNL A   1      43.940  24.760  25.294  1.00  0.00     0.134 A 
ATOM     71  C   UNL A   1      42.503  23.760  26.907  1.00  0.00     0.134 A 
ATOM     72  F   UNL A   1      44.572  25.813  24.754  1.00  0.00    -0.206 F 
ATOM     73  C   UNL A   1      44.229  23.494  24.762  1.00  0.00     0.040 A 
ATOM     74  C   UNL A   1      42.783  22.491  26.386  1.00  0.00     0.040 A 
ATOM     75  F   UNL A   1      41.723  23.799  27.997  1.00  0.00    -0.206 F 
ATOM     76  C   UNL A   1      43.659  22.353  25.318  1.00  0.00     0.006 A 
ENDBRANCH  48  69
BRANCH  60  77
ATOM     77  C   UNL A   1      44.976  30.416  28.844  1.00  0.00     0.057 A 
ATOM     78  C   UNL A   1      43.979  31.072  28.104  1.00  0.00     0.134 A 
ATOM     79  C   UNL A   1      46.284  30.883  28.684  1.00  0.00     0.134 A 
ATOM     80  F   UNL A   1      42.687  30.764  28.257  1.00  0.00    -0.206 F 
ATOM     81  C   UNL A   1      44.274  32.120  27.224  1.00  0.00     0.040 A 
ATOM     82  C   UNL A   1      46.589  31.950  27.834  1.00  0.00     0.040 A 
ATOM     83  F   UNL A   1      47.283  30.345  29.400  1.00  0.00    -0.206 F 
ATOM     84  C   UNL A   1      45.584  32.568  27.095  1.00  0.00     0.006 A 
ENDBRANCH  60  77
ENDBRANCH  34  35
ENDBRANCH  26  29
ENDBRANCH  24  25
ENDBRANCH  23  24
ENDBRANCH   1  23
TORSDOF 15
ENDMDL
