MODEL 1
REMARK VINA RESULT:     -11.7      0.000      0.000
REMARK SMILES O=C(Cc1ccccc1C(=O)NCCCCCCNC(=O)c1ccc(-c2c3nc(c(-c4c(F)cccc4F)c4ccc([nH]4)c(-c4c(F)cccc4F)c4nc(c(-c5c(F)cccc5F)c5ccc2[nH]5)C=C4)C=C3)cc1)Nc1cccc(OC[C@@H]2CCCO2)c1
REMARK SMILES IDX 13 1 12 2 10 3 11 4 9 6 4 7 5 8 6 9 8 10 7 11 3 12 2 13 1 14
REMARK SMILES IDX 76 15 77 17 78 18 89 19 79 20 81 21 80 22 82 23 83 24 84 25
REMARK SMILES IDX 85 26 88 27 86 28 87 29 14 30 15 31 16 32 17 33 18 34 19 35
REMARK SMILES IDX 20 36 21 38 22 39 23 40 75 41 24 42 74 43 25 44 26 45 27 46
REMARK SMILES IDX 68 47 28 48 73 49 67 50 69 51 29 52 72 53 66 54 65 55 30 57
REMARK SMILES IDX 56 58 39 59 55 60 40 61 43 62 54 63 70 64 41 65 42 66 53 68
REMARK SMILES IDX 71 69 44 70 31 71 32 72 37 73 33 74 34 75 36 76 38 77 35 78
REMARK SMILES IDX 57 79 58 80 63 81 59 82 60 83 62 84 64 85 61 86 45 87 46 88
REMARK SMILES IDX 51 89 47 90 48 91 50 92 52 93 49 94
REMARK H PARENT 12 5 76 16 19 37 69 56 43 67
REMARK Flexibility Score: inf
ROOT
ATOM      1  C   UNL A   1      38.608  23.896  26.180  1.00  0.00     0.116 C 
ENDROOT
BRANCH   1   2
ATOM      2  N   UNL A   1      37.852  23.555  24.915  1.00  0.00    -0.352 N 
ATOM      3  C   UNL A   1      36.625  23.142  24.396  1.00  0.00     0.251 C 
ATOM      4  O   UNL A   1      36.549  23.231  23.159  1.00  0.00    -0.269 OA
ATOM      5  H   UNL A   1      38.472  23.672  24.158  1.00  0.00     0.163 HD
BRANCH   3   6
ATOM      6  C   UNL A   1      35.359  22.646  25.067  1.00  0.00     0.043 A 
ATOM      7  C   UNL A   1      34.219  22.059  24.493  1.00  0.00    -0.026 A 
ATOM      8  C   UNL A   1      33.241  21.445  25.311  1.00  0.00     0.005 A 
ATOM      9  C   UNL A   1      33.158  21.769  26.655  1.00  0.00     0.000 A 
ATOM     10  C   UNL A   1      35.164  23.083  26.398  1.00  0.00     0.014 A 
ATOM     11  C   UNL A   1      34.055  22.691  27.167  1.00  0.00     0.001 A 
BRANCH   7  12
ATOM     12  C   UNL A   1      33.687  22.489  23.133  1.00  0.00     0.136 C 
BRANCH  12  13
ATOM     13  C   UNL A   1      32.578  23.461  23.281  1.00  0.00     0.228 C 
ATOM     14  O   UNL A   1      31.514  22.901  23.072  1.00  0.00    -0.274 OA
ATOM     15  N   UNL A   1      32.915  24.757  23.545  1.00  0.00    -0.326 N 
ATOM     16  H   UNL A   1      33.771  24.787  24.030  1.00  0.00     0.169 HD
BRANCH  15  17
ATOM     17  C   UNL A   1      32.421  26.103  23.343  1.00  0.00     0.044 A 
ATOM     18  C   UNL A   1      33.475  27.023  23.346  1.00  0.00     0.026 A 
ATOM     19  C   UNL A   1      31.150  26.644  23.004  1.00  0.00     0.072 A 
ATOM     20  C   UNL A   1      33.301  28.373  23.040  1.00  0.00     0.006 A 
ATOM     21  C   UNL A   1      30.951  28.018  22.689  1.00  0.00     0.121 A 
ATOM     22  C   UNL A   1      32.047  28.867  22.717  1.00  0.00     0.046 A 
BRANCH  21  23
ATOM     23  O   UNL A   1      29.835  28.623  22.149  1.00  0.00    -0.491 OA
BRANCH  23  24
ATOM     24  C   UNL A   1      28.584  28.623  22.844  1.00  0.00     0.261 C 
BRANCH  24  25
ATOM     25  C   UNL A   1      27.638  29.766  22.363  1.00  0.00     0.156 C 
ATOM     26  C   UNL A   1      28.165  30.692  21.264  1.00  0.00     0.038 C 
ATOM     27  O   UNL A   1      27.259  30.633  23.439  1.00  0.00    -0.375 OA
ATOM     28  C   UNL A   1      28.546  31.984  21.965  1.00  0.00     0.031 C 
ATOM     29  C   UNL A   1      28.006  31.841  23.369  1.00  0.00     0.161 C 
ENDBRANCH  24  25
ENDBRANCH  23  24
ENDBRANCH  21  23
ENDBRANCH  15  17
ENDBRANCH  12  13
ENDBRANCH   7  12
ENDBRANCH   3   6
ENDBRANCH   1   2
BRANCH   1  30
ATOM     30  C   UNL A   1      39.691  23.004  26.994  1.00  0.00     0.021 C 
BRANCH  30  31
ATOM     31  C   UNL A   1      40.547  21.841  26.486  1.00  0.00     0.002 C 
BRANCH  31  32
ATOM     32  C   UNL A   1      41.360  21.229  27.583  1.00  0.00     0.002 C 
BRANCH  32  33
ATOM     33  C   UNL A   1      42.085  19.975  27.163  1.00  0.00     0.021 C 
BRANCH  33  34
ATOM     34  C   UNL A   1      42.101  19.871  25.654  1.00  0.00     0.116 C 
BRANCH  34  35
ATOM     35  N   UNL A   1      43.291  19.143  25.212  1.00  0.00    -0.352 N 
ATOM     36  C   UNL A   1      44.409  19.678  24.605  1.00  0.00     0.251 C 
ATOM     37  H   UNL A   1      43.294  18.171  25.366  1.00  0.00     0.163 HD
ATOM     38  O   UNL A   1      45.132  19.024  23.890  1.00  0.00    -0.269 OA
BRANCH  36  39
ATOM     39  C   UNL A   1      44.665  21.103  24.885  1.00  0.00     0.039 A 
ATOM     40  C   UNL A   1      44.163  22.097  24.052  1.00  0.00     0.014 A 
ATOM     41  C   UNL A   1      45.311  21.417  26.081  1.00  0.00     0.014 A 
ATOM     42  C   UNL A   1      44.277  23.425  24.461  1.00  0.00     0.010 A 
ATOM     43  C   UNL A   1      45.218  22.696  26.576  1.00  0.00     0.010 A 
ATOM     44  C   UNL A   1      44.778  23.725  25.741  1.00  0.00    -0.014 A 
BRANCH  44  45
ATOM     45  C   UNL A   1      44.961  25.111  26.219  1.00  0.00     0.031 A 
ATOM     46  C   UNL A   1      46.337  25.724  26.142  1.00  0.00     0.074 A 
ATOM     47  C   UNL A   1      43.932  25.767  26.783  1.00  0.00     0.049 A 
ATOM     48  N   UNL A   1      46.755  26.878  26.591  1.00  0.00    -0.248 NA
ATOM     49  C   UNL A   1      47.407  24.902  25.541  1.00  0.00     0.031 C 
ATOM     50  C   UNL A   1      42.585  25.227  26.991  1.00  0.00     0.029 A 
ATOM     51  N   UNL A   1      43.861  27.038  27.284  1.00  0.00    -0.354 N 
ATOM     52  C   UNL A   1      48.125  26.891  26.361  1.00  0.00     0.074 A 
ATOM     53  C   UNL A   1      48.490  25.598  25.840  1.00  0.00     0.031 C 
ATOM     54  C   UNL A   1      41.807  26.183  27.521  1.00  0.00     0.029 A 
ATOM     55  C   UNL A   1      42.608  27.384  27.728  1.00  0.00     0.049 A 
ATOM     56  H   UNL A   1      44.633  27.647  27.324  1.00  0.00     0.167 HD
ATOM     57  C   UNL A   1      48.998  27.913  26.514  1.00  0.00     0.037 A 
ATOM     58  C   UNL A   1      42.167  28.550  28.231  1.00  0.00     0.037 A 
ATOM     59  C   UNL A   1      48.601  29.216  26.962  1.00  0.00     0.049 A 
ATOM     60  C   UNL A   1      43.141  29.691  28.343  1.00  0.00     0.074 A 
ATOM     61  C   UNL A   1      49.365  30.360  27.079  1.00  0.00     0.029 A 
ATOM     62  N   UNL A   1      47.311  29.546  27.355  1.00  0.00    -0.354 N 
ATOM     63  N   UNL A   1      44.418  29.720  28.044  1.00  0.00    -0.248 NA
ATOM     64  C   UNL A   1      42.609  30.961  28.850  1.00  0.00     0.031 C 
ATOM     65  C   UNL A   1      48.545  31.374  27.585  1.00  0.00     0.029 A 
ATOM     66  C   UNL A   1      47.259  30.874  27.733  1.00  0.00     0.049 A 
ATOM     67  H   UNL A   1      46.546  28.925  27.363  1.00  0.00     0.167 HD
ATOM     68  C   UNL A   1      44.839  31.018  28.304  1.00  0.00     0.074 A 
ATOM     69  C   UNL A   1      43.673  31.746  28.761  1.00  0.00     0.031 C 
ATOM     70  C   UNL A   1      46.076  31.562  28.181  1.00  0.00     0.037 A 
BRANCH  57  71
ATOM     71  C   UNL A   1      50.436  27.654  26.166  1.00  0.00     0.057 A 
ATOM     72  C   UNL A   1      50.904  27.704  24.844  1.00  0.00     0.134 A 
ATOM     73  C   UNL A   1      51.367  27.342  27.164  1.00  0.00     0.134 A 
ATOM     74  F   UNL A   1      50.062  27.976  23.834  1.00  0.00    -0.206 F 
ATOM     75  C   UNL A   1      52.231  27.416  24.524  1.00  0.00     0.040 A 
ATOM     76  C   UNL A   1      52.706  27.086  26.860  1.00  0.00     0.040 A 
ATOM     77  F   UNL A   1      50.991  27.273  28.449  1.00  0.00    -0.206 F 
ATOM     78  C   UNL A   1      53.139  27.112  25.536  1.00  0.00     0.006 A 
ENDBRANCH  57  71
BRANCH  58  79
ATOM     79  C   UNL A   1      40.740  28.708  28.606  1.00  0.00     0.057 A 
ATOM     80  C   UNL A   1      39.780  29.072  27.655  1.00  0.00     0.134 A 
ATOM     81  C   UNL A   1      40.295  28.488  29.915  1.00  0.00     0.134 A 
ATOM     82  F   UNL A   1      40.143  29.305  26.385  1.00  0.00    -0.206 F 
ATOM     83  C   UNL A   1      38.436  29.238  27.995  1.00  0.00     0.040 A 
ATOM     84  C   UNL A   1      38.951  28.625  30.265  1.00  0.00     0.040 A 
ATOM     85  F   UNL A   1      41.161  28.120  30.872  1.00  0.00    -0.206 F 
ATOM     86  C   UNL A   1      38.018  29.009  29.304  1.00  0.00     0.006 A 
ENDBRANCH  58  79
BRANCH  70  87
ATOM     87  C   UNL A   1      46.212  33.015  28.522  1.00  0.00     0.057 A 
ATOM     88  C   UNL A   1      46.546  33.440  29.813  1.00  0.00     0.134 A 
ATOM     89  C   UNL A   1      46.041  33.995  27.537  1.00  0.00     0.134 A 
ATOM     90  F   UNL A   1      46.712  32.549  30.802  1.00  0.00    -0.206 F 
ATOM     91  C   UNL A   1      46.674  34.795  30.121  1.00  0.00     0.040 A 
ATOM     92  C   UNL A   1      46.199  35.350  27.825  1.00  0.00     0.040 A 
ATOM     93  F   UNL A   1      45.736  33.650  26.277  1.00  0.00    -0.206 F 
ATOM     94  C   UNL A   1      46.508  35.753  29.122  1.00  0.00     0.006 A 
ENDBRANCH  70  87
ENDBRANCH  44  45
ENDBRANCH  36  39
ENDBRANCH  34  35
ENDBRANCH  33  34
ENDBRANCH  32  33
ENDBRANCH  31  32
ENDBRANCH  30  31
ENDBRANCH   1  30
TORSDOF 19
ENDMDL
MODEL 2
REMARK VINA RESULT:     -11.5      4.399      6.714
REMARK SMILES O=C(Cc1ccccc1C(=O)NCCCCCCNC(=O)c1ccc(-c2c3nc(c(-c4c(F)cccc4F)c4ccc([nH]4)c(-c4c(F)cccc4F)c4nc(c(-c5c(F)cccc5F)c5ccc2[nH]5)C=C4)C=C3)cc1)Nc1cccc(OC[C@@H]2CCCO2)c1
REMARK SMILES IDX 13 1 12 2 10 3 11 4 9 6 4 7 5 8 6 9 8 10 7 11 3 12 2 13 1 14
REMARK SMILES IDX 76 15 77 17 78 18 89 19 79 20 81 21 80 22 82 23 83 24 84 25
REMARK SMILES IDX 85 26 88 27 86 28 87 29 14 30 15 31 16 32 17 33 18 34 19 35
REMARK SMILES IDX 20 36 21 38 22 39 23 40 75 41 24 42 74 43 25 44 26 45 27 46
REMARK SMILES IDX 68 47 28 48 73 49 67 50 69 51 29 52 72 53 66 54 65 55 30 57
REMARK SMILES IDX 56 58 39 59 55 60 40 61 43 62 54 63 70 64 41 65 42 66 53 68
REMARK SMILES IDX 71 69 44 70 31 71 32 72 37 73 33 74 34 75 36 76 38 77 35 78
REMARK SMILES IDX 57 79 58 80 63 81 59 82 60 83 62 84 64 85 61 86 45 87 46 88
REMARK SMILES IDX 51 89 47 90 48 91 50 92 52 93 49 94
REMARK H PARENT 12 5 76 16 19 37 69 56 43 67
REMARK Flexibility Score: inf
ROOT
ATOM      1  C   UNL A   1      38.195  21.780  25.852  1.00  0.00     0.116 C 
ENDROOT
BRANCH   1   2
ATOM      2  N   UNL A   1      37.095  22.752  25.488  1.00  0.00    -0.352 N 
ATOM      3  C   UNL A   1      35.723  22.898  25.283  1.00  0.00     0.251 C 
ATOM      4  O   UNL A   1      35.354  24.079  25.182  1.00  0.00    -0.269 OA
ATOM      5  H   UNL A   1      37.514  23.631  25.335  1.00  0.00     0.163 HD
BRANCH   3   6
ATOM      6  C   UNL A   1      34.600  21.882  25.203  1.00  0.00     0.043 A 
ATOM      7  C   UNL A   1      33.272  21.987  25.649  1.00  0.00    -0.026 A 
ATOM      8  C   UNL A   1      32.310  21.020  25.270  1.00  0.00     0.005 A 
ATOM      9  C   UNL A   1      32.719  19.770  24.836  1.00  0.00     0.000 A 
ATOM     10  C   UNL A   1      34.997  20.556  24.910  1.00  0.00     0.014 A 
ATOM     11  C   UNL A   1      34.076  19.504  24.776  1.00  0.00     0.001 A 
BRANCH   7  12
ATOM     12  C   UNL A   1      32.903  22.741  26.919  1.00  0.00     0.136 C 
BRANCH  12  13
ATOM     13  C   UNL A   1      32.067  23.925  26.610  1.00  0.00     0.228 C 
ATOM     14  O   UNL A   1      31.030  23.869  27.251  1.00  0.00    -0.274 OA
ATOM     15  N   UNL A   1      32.537  24.793  25.668  1.00  0.00    -0.326 N 
ATOM     16  H   UNL A   1      33.521  24.767  25.653  1.00  0.00     0.169 HD
BRANCH  15  17
ATOM     17  C   UNL A   1      32.058  25.741  24.684  1.00  0.00     0.044 A 
ATOM     18  C   UNL A   1      32.267  25.256  23.388  1.00  0.00     0.026 A 
ATOM     19  C   UNL A   1      31.310  26.948  24.763  1.00  0.00     0.072 A 
ATOM     20  C   UNL A   1      31.782  25.904  22.251  1.00  0.00     0.006 A 
ATOM     21  C   UNL A   1      30.805  27.624  23.616  1.00  0.00     0.121 A 
ATOM     22  C   UNL A   1      31.058  27.081  22.365  1.00  0.00     0.046 A 
BRANCH  21  23
ATOM     23  O   UNL A   1      29.904  28.667  23.561  1.00  0.00    -0.491 OA
BRANCH  23  24
ATOM     24  C   UNL A   1      28.558  28.460  23.121  1.00  0.00     0.261 C 
BRANCH  24  25
ATOM     25  C   UNL A   1      27.981  29.700  22.370  1.00  0.00     0.156 C 
ATOM     26  C   UNL A   1      28.982  30.763  21.908  1.00  0.00     0.038 C 
ATOM     27  O   UNL A   1      27.020  30.404  23.166  1.00  0.00    -0.375 OA
ATOM     28  C   UNL A   1      28.835  31.914  22.888  1.00  0.00     0.031 C 
ATOM     29  C   UNL A   1      27.612  31.578  23.708  1.00  0.00     0.161 C 
ENDBRANCH  24  25
ENDBRANCH  23  24
ENDBRANCH  21  23
ENDBRANCH  15  17
ENDBRANCH  12  13
ENDBRANCH   7  12
ENDBRANCH   3   6
ENDBRANCH   1   2
BRANCH   1  30
ATOM     30  C   UNL A   1      39.684  22.089  26.419  1.00  0.00     0.021 C 
BRANCH  30  31
ATOM     31  C   UNL A   1      40.666  21.131  27.098  1.00  0.00     0.002 C 
BRANCH  31  32
ATOM     32  C   UNL A   1      41.655  20.569  26.126  1.00  0.00     0.002 C 
BRANCH  32  33
ATOM     33  C   UNL A   1      42.952  21.339  26.079  1.00  0.00     0.021 C 
BRANCH  33  34
ATOM     34  C   UNL A   1      42.735  22.669  25.392  1.00  0.00     0.116 C 
BRANCH  34  35
ATOM     35  N   UNL A   1      44.023  23.291  25.084  1.00  0.00    -0.352 N 
ATOM     36  C   UNL A   1      44.368  24.614  25.272  1.00  0.00     0.251 C 
ATOM     37  H   UNL A   1      44.715  22.704  24.703  1.00  0.00     0.163 HD
ATOM     38  O   UNL A   1      45.235  25.155  24.626  1.00  0.00    -0.269 OA
BRANCH  36  39
ATOM     39  C   UNL A   1      43.610  25.327  26.317  1.00  0.00     0.039 A 
ATOM     40  C   UNL A   1      42.839  24.631  27.242  1.00  0.00     0.014 A 
ATOM     41  C   UNL A   1      43.801  26.705  26.423  1.00  0.00     0.014 A 
ATOM     42  C   UNL A   1      42.294  25.336  28.315  1.00  0.00     0.010 A 
ATOM     43  C   UNL A   1      43.453  27.341  27.591  1.00  0.00     0.010 A 
ATOM     44  C   UNL A   1      42.627  26.688  28.509  1.00  0.00    -0.014 A 
BRANCH  44  45
ATOM     45  C   UNL A   1      42.053  27.500  29.601  1.00  0.00     0.031 A 
ATOM     46  C   UNL A   1      42.713  27.453  30.957  1.00  0.00     0.074 A 
ATOM     47  C   UNL A   1      40.919  28.193  29.397  1.00  0.00     0.049 A 
ATOM     48  N   UNL A   1      42.330  27.997  32.082  1.00  0.00    -0.248 NA
ATOM     49  C   UNL A   1      43.930  26.627  31.085  1.00  0.00     0.031 C 
ATOM     50  C   UNL A   1      40.152  28.228  28.149  1.00  0.00     0.029 A 
ATOM     51  N   UNL A   1      40.216  29.008  30.241  1.00  0.00    -0.354 N 
ATOM     52  C   UNL A   1      43.231  27.544  33.038  1.00  0.00     0.074 A 
ATOM     53  C   UNL A   1      44.109  26.599  32.394  1.00  0.00     0.031 C 
ATOM     54  C   UNL A   1      39.118  29.071  28.293  1.00  0.00     0.029 A 
ATOM     55  C   UNL A   1      39.127  29.601  29.651  1.00  0.00     0.049 A 
ATOM     56  H   UNL A   1      40.465  29.155  31.182  1.00  0.00     0.167 HD
ATOM     57  C   UNL A   1      43.358  27.928  34.328  1.00  0.00     0.037 A 
ATOM     58  C   UNL A   1      38.250  30.485  30.160  1.00  0.00     0.037 A 
ATOM     59  C   UNL A   1      42.523  28.926  34.930  1.00  0.00     0.049 A 
ATOM     60  C   UNL A   1      38.440  30.939  31.581  1.00  0.00     0.074 A 
ATOM     61  C   UNL A   1      42.599  29.467  36.198  1.00  0.00     0.029 A 
ATOM     62  N   UNL A   1      41.460  29.545  34.286  1.00  0.00    -0.354 N 
ATOM     63  N   UNL A   1      39.348  30.569  32.453  1.00  0.00    -0.248 NA
ATOM     64  C   UNL A   1      37.492  31.941  32.082  1.00  0.00     0.031 C 
ATOM     65  C   UNL A   1      41.552  30.384  36.337  1.00  0.00     0.029 A 
ATOM     66  C   UNL A   1      40.858  30.452  35.137  1.00  0.00     0.049 A 
ATOM     67  H   UNL A   1      41.178  29.364  33.360  1.00  0.00     0.167 HD
ATOM     68  C   UNL A   1      39.096  31.310  33.600  1.00  0.00     0.074 A 
ATOM     69  C   UNL A   1      37.965  32.165  33.300  1.00  0.00     0.031 C 
ATOM     70  C   UNL A   1      39.735  31.286  34.797  1.00  0.00     0.037 A 
BRANCH  57  71
ATOM     71  C   UNL A   1      44.447  27.284  35.139  1.00  0.00     0.057 A 
ATOM     72  C   UNL A   1      44.258  26.060  35.801  1.00  0.00     0.134 A 
ATOM     73  C   UNL A   1      45.699  27.897  35.269  1.00  0.00     0.134 A 
ATOM     74  F   UNL A   1      43.076  25.427  35.738  1.00  0.00    -0.206 F 
ATOM     75  C   UNL A   1      45.259  25.492  36.591  1.00  0.00     0.040 A 
ATOM     76  C   UNL A   1      46.719  27.320  36.028  1.00  0.00     0.040 A 
ATOM     77  F   UNL A   1      45.950  29.068  34.667  1.00  0.00    -0.206 F 
ATOM     78  C   UNL A   1      46.497  26.120  36.701  1.00  0.00     0.006 A 
ENDBRANCH  57  71
BRANCH  58  79
ATOM     79  C   UNL A   1      37.165  31.032  29.308  1.00  0.00     0.057 A 
ATOM     80  C   UNL A   1      37.237  32.331  28.792  1.00  0.00     0.134 A 
ATOM     81  C   UNL A   1      36.036  30.271  28.978  1.00  0.00     0.134 A 
ATOM     82  F   UNL A   1      38.289  33.113  29.078  1.00  0.00    -0.206 F 
ATOM     83  C   UNL A   1      36.218  32.864  28.000  1.00  0.00     0.040 A 
ATOM     84  C   UNL A   1      35.022  30.782  28.166  1.00  0.00     0.040 A 
ATOM     85  F   UNL A   1      35.912  29.013  29.425  1.00  0.00    -0.206 F 
ATOM     86  C   UNL A   1      35.107  32.086  27.682  1.00  0.00     0.006 A 
ENDBRANCH  58  79
BRANCH  70  87
ATOM     87  C   UNL A   1      39.236  32.231  35.848  1.00  0.00     0.057 A 
ATOM     88  C   UNL A   1      38.296  31.838  36.807  1.00  0.00     0.134 A 
ATOM     89  C   UNL A   1      39.731  33.540  35.919  1.00  0.00     0.134 A 
ATOM     90  F   UNL A   1      37.777  30.600  36.784  1.00  0.00    -0.206 F 
ATOM     91  C   UNL A   1      37.841  32.724  37.784  1.00  0.00     0.040 A 
ATOM     92  C   UNL A   1      39.309  34.424  36.911  1.00  0.00     0.040 A 
ATOM     93  F   UNL A   1      40.646  33.972  35.038  1.00  0.00    -0.206 F 
ATOM     94  C   UNL A   1      38.354  34.018  37.841  1.00  0.00     0.006 A 
ENDBRANCH  70  87
ENDBRANCH  44  45
ENDBRANCH  36  39
ENDBRANCH  34  35
ENDBRANCH  33  34
ENDBRANCH  32  33
ENDBRANCH  31  32
ENDBRANCH  30  31
ENDBRANCH   1  30
TORSDOF 19
ENDMDL
MODEL 3
REMARK VINA RESULT:     -11.4      1.953      3.055
REMARK SMILES O=C(Cc1ccccc1C(=O)NCCCCCCNC(=O)c1ccc(-c2c3nc(c(-c4c(F)cccc4F)c4ccc([nH]4)c(-c4c(F)cccc4F)c4nc(c(-c5c(F)cccc5F)c5ccc2[nH]5)C=C4)C=C3)cc1)Nc1cccc(OC[C@@H]2CCCO2)c1
REMARK SMILES IDX 13 1 12 2 10 3 11 4 9 6 4 7 5 8 6 9 8 10 7 11 3 12 2 13 1 14
REMARK SMILES IDX 76 15 77 17 78 18 89 19 79 20 81 21 80 22 82 23 83 24 84 25
REMARK SMILES IDX 85 26 88 27 86 28 87 29 14 30 15 31 16 32 17 33 18 34 19 35
REMARK SMILES IDX 20 36 21 38 22 39 23 40 75 41 24 42 74 43 25 44 26 45 27 46
REMARK SMILES IDX 68 47 28 48 73 49 67 50 69 51 29 52 72 53 66 54 65 55 30 57
REMARK SMILES IDX 56 58 39 59 55 60 40 61 43 62 54 63 70 64 41 65 42 66 53 68
REMARK SMILES IDX 71 69 44 70 31 71 32 72 37 73 33 74 34 75 36 76 38 77 35 78
REMARK SMILES IDX 57 79 58 80 63 81 59 82 60 83 62 84 64 85 61 86 45 87 46 88
REMARK SMILES IDX 51 89 47 90 48 91 50 92 52 93 49 94
REMARK H PARENT 12 5 76 16 19 37 69 56 43 67
REMARK Flexibility Score: inf
ROOT
ATOM      1  C   UNL A   1      38.231  23.598  26.064  1.00  0.00     0.116 C 
ENDROOT
BRANCH   1   2
ATOM      2  N   UNL A   1      37.691  23.221  24.703  1.00  0.00    -0.352 N 
ATOM      3  C   UNL A   1      36.540  22.905  23.980  1.00  0.00     0.251 C 
ATOM      4  O   UNL A   1      36.714  22.875  22.750  1.00  0.00    -0.269 OA
ATOM      5  H   UNL A   1      38.453  23.185  24.080  1.00  0.00     0.163 HD
BRANCH   3   6
ATOM      6  C   UNL A   1      35.114  22.633  24.418  1.00  0.00     0.043 A 
ATOM      7  C   UNL A   1      33.910  22.913  23.750  1.00  0.00    -0.026 A 
ATOM      8  C   UNL A   1      32.690  22.367  24.215  1.00  0.00     0.005 A 
ATOM      9  C   UNL A   1      32.582  21.926  25.524  1.00  0.00     0.000 A 
ATOM     10  C   UNL A   1      34.946  22.325  25.788  1.00  0.00     0.014 A 
ATOM     11  C   UNL A   1      33.692  22.024  26.346  1.00  0.00     0.001 A 
BRANCH   7  12
ATOM     12  C   UNL A   1      33.728  24.163  22.901  1.00  0.00     0.136 C 
BRANCH  12  13
ATOM     13  C   UNL A   1      32.764  25.096  23.529  1.00  0.00     0.228 C 
ATOM     14  O   UNL A   1      31.758  25.167  22.841  1.00  0.00    -0.274 OA
ATOM     15  N   UNL A   1      33.163  25.732  24.669  1.00  0.00    -0.326 N 
ATOM     16  H   UNL A   1      33.818  25.176  25.149  1.00  0.00     0.169 HD
BRANCH  15  17
ATOM     17  C   UNL A   1      32.934  26.960  25.400  1.00  0.00     0.044 A 
ATOM     18  C   UNL A   1      31.923  26.789  26.353  1.00  0.00     0.026 A 
ATOM     19  C   UNL A   1      33.603  28.215  25.451  1.00  0.00     0.072 A 
ATOM     20  C   UNL A   1      31.590  27.770  27.287  1.00  0.00     0.006 A 
ATOM     21  C   UNL A   1      33.279  29.229  26.397  1.00  0.00     0.121 A 
ATOM     22  C   UNL A   1      32.262  28.982  27.307  1.00  0.00     0.046 A 
BRANCH  21  23
ATOM     23  O   UNL A   1      33.973  30.385  26.688  1.00  0.00    -0.491 OA
BRANCH  23  24
ATOM     24  C   UNL A   1      34.634  30.553  27.947  1.00  0.00     0.261 C 
BRANCH  24  25
ATOM     25  C   UNL A   1      34.771  32.055  28.348  1.00  0.00     0.156 C 
ATOM     26  C   UNL A   1      36.088  32.753  27.999  1.00  0.00     0.038 C 
ATOM     27  O   UNL A   1      34.602  32.247  29.758  1.00  0.00    -0.375 OA
ATOM     28  C   UNL A   1      36.856  32.852  29.305  1.00  0.00     0.031 C 
ATOM     29  C   UNL A   1      35.870  32.439  30.373  1.00  0.00     0.161 C 
ENDBRANCH  24  25
ENDBRANCH  23  24
ENDBRANCH  21  23
ENDBRANCH  15  17
ENDBRANCH  12  13
ENDBRANCH   7  12
ENDBRANCH   3   6
ENDBRANCH   1   2
BRANCH   1  30
ATOM     30  C   UNL A   1      39.457  22.936  26.895  1.00  0.00     0.021 C 
BRANCH  30  31
ATOM     31  C   UNL A   1      40.551  21.989  26.393  1.00  0.00     0.002 C 
BRANCH  31  32
ATOM     32  C   UNL A   1      41.408  21.489  27.513  1.00  0.00     0.002 C 
BRANCH  32  33
ATOM     33  C   UNL A   1      41.964  20.108  27.270  1.00  0.00     0.021 C 
BRANCH  33  34
ATOM     34  C   UNL A   1      41.931  19.792  25.791  1.00  0.00     0.116 C 
BRANCH  34  35
ATOM     35  N   UNL A   1      43.139  19.063  25.405  1.00  0.00    -0.352 N 
ATOM     36  C   UNL A   1      44.271  19.591  24.817  1.00  0.00     0.251 C 
ATOM     37  H   UNL A   1      43.145  18.095  25.584  1.00  0.00     0.163 HD
ATOM     38  O   UNL A   1      45.020  18.925  24.142  1.00  0.00    -0.269 OA
BRANCH  36  39
ATOM     39  C   UNL A   1      44.508  21.025  25.067  1.00  0.00     0.039 A 
ATOM     40  C   UNL A   1      43.901  21.998  24.280  1.00  0.00     0.014 A 
ATOM     41  C   UNL A   1      45.251  21.366  26.197  1.00  0.00     0.014 A 
ATOM     42  C   UNL A   1      44.012  23.331  24.672  1.00  0.00     0.010 A 
ATOM     43  C   UNL A   1      45.165  22.645  26.694  1.00  0.00     0.010 A 
ATOM     44  C   UNL A   1      44.618  23.655  25.899  1.00  0.00    -0.014 A 
BRANCH  44  45
ATOM     45  C   UNL A   1      44.801  25.049  26.352  1.00  0.00     0.031 A 
ATOM     46  C   UNL A   1      46.175  25.666  26.249  1.00  0.00     0.074 A 
ATOM     47  C   UNL A   1      43.777  25.710  26.918  1.00  0.00     0.049 A 
ATOM     48  N   UNL A   1      46.594  26.828  26.675  1.00  0.00    -0.248 NA
ATOM     49  C   UNL A   1      47.241  24.838  25.650  1.00  0.00     0.031 C 
ATOM     50  C   UNL A   1      42.435  25.169  27.150  1.00  0.00     0.029 A 
ATOM     51  N   UNL A   1      43.707  26.988  27.400  1.00  0.00    -0.354 N 
ATOM     52  C   UNL A   1      47.961  26.842  26.429  1.00  0.00     0.074 A 
ATOM     53  C   UNL A   1      48.324  25.542  25.925  1.00  0.00     0.031 C 
ATOM     54  C   UNL A   1      41.659  26.130  27.674  1.00  0.00     0.029 A 
ATOM     55  C   UNL A   1      42.458  27.337  27.853  1.00  0.00     0.049 A 
ATOM     56  H   UNL A   1      44.478  27.601  27.421  1.00  0.00     0.167 HD
ATOM     57  C   UNL A   1      48.831  27.869  26.555  1.00  0.00     0.037 A 
ATOM     58  C   UNL A   1      42.019  28.510  28.342  1.00  0.00     0.037 A 
ATOM     59  C   UNL A   1      48.435  29.178  26.987  1.00  0.00     0.049 A 
ATOM     60  C   UNL A   1      42.990  29.655  28.425  1.00  0.00     0.074 A 
ATOM     61  C   UNL A   1      49.196  30.326  27.077  1.00  0.00     0.029 A 
ATOM     62  N   UNL A   1      47.148  29.510  27.390  1.00  0.00    -0.354 N 
ATOM     63  N   UNL A   1      44.263  29.685  28.110  1.00  0.00    -0.248 NA
ATOM     64  C   UNL A   1      42.459  30.932  28.918  1.00  0.00     0.031 C 
ATOM     65  C   UNL A   1      48.379  31.346  27.577  1.00  0.00     0.029 A 
ATOM     66  C   UNL A   1      47.096  30.843  27.748  1.00  0.00     0.049 A 
ATOM     67  H   UNL A   1      46.386  28.886  27.417  1.00  0.00     0.167 HD
ATOM     68  C   UNL A   1      44.682  30.988  28.344  1.00  0.00     0.074 A 
ATOM     69  C   UNL A   1      43.519  31.720  28.804  1.00  0.00     0.031 C 
ATOM     70  C   UNL A   1      45.916  31.534  28.198  1.00  0.00     0.037 A 
BRANCH  57  71
ATOM     71  C   UNL A   1      50.267  27.610  26.195  1.00  0.00     0.057 A 
ATOM     72  C   UNL A   1      51.239  27.326  27.166  1.00  0.00     0.134 A 
ATOM     73  C   UNL A   1      50.687  27.653  24.860  1.00  0.00     0.134 A 
ATOM     74  F   UNL A   1      50.911  27.290  28.468  1.00  0.00    -0.206 F 
ATOM     75  C   UNL A   1      52.579  27.133  26.828  1.00  0.00     0.040 A 
ATOM     76  C   UNL A   1      52.019  27.426  24.506  1.00  0.00     0.040 A 
ATOM     77  F   UNL A   1      49.813  27.921  23.879  1.00  0.00    -0.206 F 
ATOM     78  C   UNL A   1      52.971  27.176  25.492  1.00  0.00     0.006 A 
ENDBRANCH  57  71
BRANCH  58  79
ATOM     79  C   UNL A   1      40.595  28.668  28.732  1.00  0.00     0.057 A 
ATOM     80  C   UNL A   1      39.636  29.089  27.803  1.00  0.00     0.134 A 
ATOM     81  C   UNL A   1      40.154  28.395  30.032  1.00  0.00     0.134 A 
ATOM     82  F   UNL A   1      39.996  29.375  26.543  1.00  0.00    -0.206 F 
ATOM     83  C   UNL A   1      38.296  29.256  28.157  1.00  0.00     0.040 A 
ATOM     84  C   UNL A   1      38.813  28.532  30.394  1.00  0.00     0.040 A 
ATOM     85  F   UNL A   1      41.019  27.971  30.966  1.00  0.00    -0.206 F 
ATOM     86  C   UNL A   1      37.881  28.972  29.457  1.00  0.00     0.006 A 
ENDBRANCH  58  79
BRANCH  70  87
ATOM     87  C   UNL A   1      46.051  32.993  28.515  1.00  0.00     0.057 A 
ATOM     88  C   UNL A   1      46.405  33.440  29.793  1.00  0.00     0.134 A 
ATOM     89  C   UNL A   1      45.857  33.957  27.518  1.00  0.00     0.134 A 
ATOM     90  F   UNL A   1      46.593  32.564  30.793  1.00  0.00    -0.206 F 
ATOM     91  C   UNL A   1      46.531  34.799  30.078  1.00  0.00     0.040 A 
ATOM     92  C   UNL A   1      46.013  35.317  27.782  1.00  0.00     0.040 A 
ATOM     93  F   UNL A   1      45.532  33.591  26.269  1.00  0.00    -0.206 F 
ATOM     94  C   UNL A   1      46.343  35.741  29.067  1.00  0.00     0.006 A 
ENDBRANCH  70  87
ENDBRANCH  44  45
ENDBRANCH  36  39
ENDBRANCH  34  35
ENDBRANCH  33  34
ENDBRANCH  32  33
ENDBRANCH  31  32
ENDBRANCH  30  31
ENDBRANCH   1  30
TORSDOF 19
ENDMDL
