MODEL 1
REMARK VINA RESULT:     -10.5      0.000      0.000
REMARK SMILES CC(C)[C@@H](NC(N)=O)C(=O)N[C@H](C(=O)NCCCCCCNC(=O)c1ccc(-c2c3nc(c(-c4c(F)cccc4F)c4ccc([nH]4)c(-c4c(F)cccc4F)c4nc(c(-c5c(F)cccc5F)c5ccc2[nH]5)C=C4)C=C3)cc1)[C@@H](C)O
REMARK SMILES IDX 18 1 17 2 16 3 15 4 13 5 14 6 12 8 11 9 9 10 10 11 4 13 2 14
REMARK SMILES IDX 1 15 3 16 5 17 6 18 7 20 8 21 79 24 80 25 81 26 19 28 20 29
REMARK SMILES IDX 21 30 22 31 23 32 24 34 25 35 26 36 78 37 27 38 77 39 28 40
REMARK SMILES IDX 29 41 30 42 71 43 31 44 76 45 70 46 72 47 32 48 75 49 69 50
REMARK SMILES IDX 68 51 33 53 59 54 42 55 58 56 43 57 46 58 57 59 73 60 44 61
REMARK SMILES IDX 45 62 56 64 74 65 47 66 34 67 35 68 40 69 36 70 37 71 39 72
REMARK SMILES IDX 41 73 38 74 60 75 61 76 66 77 62 78 63 79 65 80 67 81 64 82
REMARK SMILES IDX 48 83 49 84 54 85 50 86 51 87 53 88 55 89 52 90
REMARK H PARENT 15 7 11 12 5 19 7 22 7 23 81 27 22 33 72 52 46 63
REMARK Flexibility Score: inf
ROOT
ATOM      1  C   UNL A   1      36.826  21.761  24.918  1.00  0.00     0.002 C 
ENDROOT
BRANCH   1   2
ATOM      2  C   UNL A   1      36.446  22.523  23.645  1.00  0.00     0.021 C 
BRANCH   2   3
ATOM      3  C   UNL A   1      35.245  23.454  23.758  1.00  0.00     0.116 C 
BRANCH   3   4
ATOM      4  N   UNL A   1      34.006  22.933  23.213  1.00  0.00    -0.354 N 
ATOM      5  C   UNL A   1      32.800  22.729  23.845  1.00  0.00     0.245 C 
ATOM      6  O   UNL A   1      31.809  22.526  23.141  1.00  0.00    -0.273 OA
ATOM      7  H   UNL A   1      34.031  22.691  22.259  1.00  0.00     0.163 HD
BRANCH   5   8
ATOM      8  C   UNL A   1      32.734  22.674  25.384  1.00  0.00     0.200 C 
BRANCH   8   9
ATOM      9  N   UNL A   1      31.403  22.905  25.962  1.00  0.00    -0.340 N 
ATOM     10  C   UNL A   1      30.734  24.045  26.293  1.00  0.00     0.243 C 
ATOM     11  O   UNL A   1      29.829  23.949  27.129  1.00  0.00    -0.273 OA
ATOM     12  H   UNL A   1      30.898  22.079  26.143  1.00  0.00     0.164 HD
BRANCH  10  13
ATOM     13  C   UNL A   1      31.156  25.447  25.772  1.00  0.00     0.175 C 
BRANCH  13  14
ATOM     14  C   UNL A   1      30.537  25.719  24.365  1.00  0.00     0.015 C 
ATOM     15  C   UNL A   1      29.152  26.373  24.390  1.00  0.00     0.010 C 
ATOM     16  C   UNL A   1      31.478  26.563  23.496  1.00  0.00     0.010 C 
ENDBRANCH  13  14
BRANCH  13  17
ATOM     17  N   UNL A   1      30.830  26.475  26.766  1.00  0.00    -0.326 N 
ATOM     18  C   UNL A   1      31.753  27.409  27.147  1.00  0.00     0.312 C 
ATOM     19  H   UNL A   1      29.931  26.491  27.167  1.00  0.00     0.166 HD
ATOM     20  N   UNL A   1      31.283  28.272  28.074  1.00  0.00    -0.352 N 
ATOM     21  O   UNL A   1      32.914  27.467  26.770  1.00  0.00    -0.249 OA
ATOM     22  H   UNL A   1      30.346  28.213  28.370  1.00  0.00     0.161 HD
ATOM     23  H   UNL A   1      31.877  28.958  28.454  1.00  0.00     0.161 HD
ENDBRANCH  13  17
ENDBRANCH  10  13
ENDBRANCH   8   9
BRANCH   8  24
ATOM     24  C   UNL A   1      33.241  21.285  25.860  1.00  0.00     0.143 C 
ATOM     25  C   UNL A   1      33.804  21.305  27.274  1.00  0.00     0.041 C 
BRANCH  24  26
ATOM     26  O   UNL A   1      32.170  20.324  25.851  1.00  0.00    -0.391 OA
ATOM     27  H   UNL A   1      31.328  20.778  26.009  1.00  0.00     0.211 HD
ENDBRANCH  24  26
ENDBRANCH   8  24
ENDBRANCH   5   8
ENDBRANCH   3   4
ENDBRANCH   2   3
ENDBRANCH   1   2
BRANCH   1  28
ATOM     28  C   UNL A   1      36.637  20.242  24.895  1.00  0.00     0.002 C 
BRANCH  28  29
ATOM     29  C   UNL A   1      37.908  19.392  24.934  1.00  0.00     0.021 C 
BRANCH  29  30
ATOM     30  C   UNL A   1      39.059  19.976  25.746  1.00  0.00     0.116 C 
BRANCH  30  31
ATOM     31  N   UNL A   1      40.206  19.089  25.816  1.00  0.00    -0.352 N 
ATOM     32  C   UNL A   1      41.518  19.367  26.106  1.00  0.00     0.251 C 
ATOM     33  H   UNL A   1      40.012  18.142  25.625  1.00  0.00     0.163 HD
ATOM     34  O   UNL A   1      42.367  18.492  25.971  1.00  0.00    -0.269 OA
BRANCH  32  35
ATOM     35  C   UNL A   1      41.918  20.717  26.559  1.00  0.00     0.039 A 
ATOM     36  C   UNL A   1      42.231  21.680  25.597  1.00  0.00     0.014 A 
ATOM     37  C   UNL A   1      42.017  21.032  27.918  1.00  0.00     0.014 A 
ATOM     38  C   UNL A   1      42.603  22.965  25.995  1.00  0.00     0.010 A 
ATOM     39  C   UNL A   1      42.302  22.336  28.312  1.00  0.00     0.010 A 
ATOM     40  C   UNL A   1      42.617  23.313  27.356  1.00  0.00    -0.014 A 
BRANCH  40  41
ATOM     41  C   UNL A   1      42.986  24.687  27.787  1.00  0.00     0.031 A 
ATOM     42  C   UNL A   1      44.435  25.094  27.860  1.00  0.00     0.074 A 
ATOM     43  C   UNL A   1      42.020  25.552  28.152  1.00  0.00     0.049 A 
ATOM     44  N   UNL A   1      44.954  26.237  28.233  1.00  0.00    -0.248 NA
ATOM     45  C   UNL A   1      45.435  24.078  27.493  1.00  0.00     0.031 C 
ATOM     46  C   UNL A   1      40.586  25.258  28.184  1.00  0.00     0.029 A 
ATOM     47  N   UNL A   1      42.099  26.856  28.573  1.00  0.00    -0.354 N 
ATOM     48  C   UNL A   1      46.332  26.069  28.166  1.00  0.00     0.074 A 
ATOM     49  C   UNL A   1      46.572  24.701  27.766  1.00  0.00     0.031 C 
ATOM     50  C   UNL A   1      39.919  26.356  28.577  1.00  0.00     0.029 A 
ATOM     51  C   UNL A   1      40.878  27.419  28.859  1.00  0.00     0.049 A 
ATOM     52  H   UNL A   1      42.950  27.343  28.662  1.00  0.00     0.167 HD
ATOM     53  C   UNL A   1      47.307  26.979  28.395  1.00  0.00     0.037 A 
ATOM     54  C   UNL A   1      40.568  28.651  29.304  1.00  0.00     0.037 A 
ATOM     55  C   UNL A   1      47.062  28.352  28.753  1.00  0.00     0.049 A 
ATOM     56  C   UNL A   1      41.674  29.649  29.521  1.00  0.00     0.074 A 
ATOM     57  C   UNL A   1      47.980  29.373  28.924  1.00  0.00     0.029 A 
ATOM     58  N   UNL A   1      45.810  28.894  28.997  1.00  0.00    -0.354 N 
ATOM     59  N   UNL A   1      42.967  29.501  29.364  1.00  0.00    -0.248 NA
ATOM     60  C   UNL A   1      41.274  30.993  29.963  1.00  0.00     0.031 C 
ATOM     61  C   UNL A   1      47.289  30.519  29.329  1.00  0.00     0.029 A 
ATOM     62  C   UNL A   1      45.935  30.229  29.344  1.00  0.00     0.049 A 
ATOM     63  H   UNL A   1      44.959  28.403  28.933  1.00  0.00     0.167 HD
ATOM     64  C   UNL A   1      43.529  30.739  29.649  1.00  0.00     0.074 A 
ATOM     65  C   UNL A   1      42.435  31.630  29.968  1.00  0.00     0.031 C 
ATOM     66  C   UNL A   1      44.834  31.107  29.647  1.00  0.00     0.037 A 
BRANCH  53  67
ATOM     67  C   UNL A   1      48.735  26.530  28.267  1.00  0.00     0.057 A 
ATOM     68  C   UNL A   1      49.423  26.578  27.048  1.00  0.00     0.134 A 
ATOM     69  C   UNL A   1      49.451  26.109  29.395  1.00  0.00     0.134 A 
ATOM     70  F   UNL A   1      48.796  26.959  25.926  1.00  0.00    -0.206 F 
ATOM     71  C   UNL A   1      50.767  26.210  26.953  1.00  0.00     0.040 A 
ATOM     72  C   UNL A   1      50.801  25.766  29.319  1.00  0.00     0.040 A 
ATOM     73  F   UNL A   1      48.853  26.042  30.595  1.00  0.00    -0.206 F 
ATOM     74  C   UNL A   1      51.463  25.813  28.094  1.00  0.00     0.006 A 
ENDBRANCH  53  67
BRANCH  54  75
ATOM     75  C   UNL A   1      39.153  29.025  29.567  1.00  0.00     0.057 A 
ATOM     76  C   UNL A   1      38.567  28.825  30.823  1.00  0.00     0.134 A 
ATOM     77  C   UNL A   1      38.338  29.546  28.554  1.00  0.00     0.134 A 
ATOM     78  F   UNL A   1      39.289  28.314  31.831  1.00  0.00    -0.206 F 
ATOM     79  C   UNL A   1      37.215  29.088  31.052  1.00  0.00     0.040 A 
ATOM     80  C   UNL A   1      36.993  29.845  28.777  1.00  0.00     0.040 A 
ATOM     81  F   UNL A   1      38.839  29.775  27.331  1.00  0.00    -0.206 F 
ATOM     82  C   UNL A   1      36.424  29.601  30.026  1.00  0.00     0.006 A 
ENDBRANCH  54  75
BRANCH  66  83
ATOM     83  C   UNL A   1      45.141  32.547  29.947  1.00  0.00     0.057 A 
ATOM     84  C   UNL A   1      45.175  33.527  28.947  1.00  0.00     0.134 A 
ATOM     85  C   UNL A   1      45.395  32.958  31.263  1.00  0.00     0.134 A 
ATOM     86  F   UNL A   1      44.949  33.201  27.665  1.00  0.00    -0.206 F 
ATOM     87  C   UNL A   1      45.492  34.856  29.239  1.00  0.00     0.040 A 
ATOM     88  C   UNL A   1      45.679  34.288  31.571  1.00  0.00     0.040 A 
ATOM     89  F   UNL A   1      45.365  32.073  32.272  1.00  0.00    -0.206 F 
ATOM     90  C   UNL A   1      45.741  35.239  30.556  1.00  0.00     0.006 A 
ENDBRANCH  66  83
ENDBRANCH  40  41
ENDBRANCH  32  35
ENDBRANCH  30  31
ENDBRANCH  29  30
ENDBRANCH  28  29
ENDBRANCH   1  28
TORSDOF 19
ENDMDL
MODEL 2
REMARK VINA RESULT:     -10.4      1.595      6.609
REMARK SMILES CC(C)[C@@H](NC(N)=O)C(=O)N[C@H](C(=O)NCCCCCCNC(=O)c1ccc(-c2c3nc(c(-c4c(F)cccc4F)c4ccc([nH]4)c(-c4c(F)cccc4F)c4nc(c(-c5c(F)cccc5F)c5ccc2[nH]5)C=C4)C=C3)cc1)[C@@H](C)O
REMARK SMILES IDX 18 1 17 2 16 3 15 4 13 5 14 6 12 8 11 9 9 10 10 11 4 13 2 14
REMARK SMILES IDX 1 15 3 16 5 17 6 18 7 20 8 21 79 24 80 25 81 26 19 28 20 29
REMARK SMILES IDX 21 30 22 31 23 32 24 34 25 35 26 36 78 37 27 38 77 39 28 40
REMARK SMILES IDX 29 41 30 42 71 43 31 44 76 45 70 46 72 47 32 48 75 49 69 50
REMARK SMILES IDX 68 51 33 53 59 54 42 55 58 56 43 57 46 58 57 59 73 60 44 61
REMARK SMILES IDX 45 62 56 64 74 65 47 66 34 67 35 68 40 69 36 70 37 71 39 72
REMARK SMILES IDX 41 73 38 74 60 75 61 76 66 77 62 78 63 79 65 80 67 81 64 82
REMARK SMILES IDX 48 83 49 84 54 85 50 86 51 87 53 88 55 89 52 90
REMARK H PARENT 15 7 11 12 5 19 7 22 7 23 81 27 22 33 72 52 46 63
REMARK Flexibility Score: inf
ROOT
ATOM      1  C   UNL A   1      36.338  21.966  24.940  1.00  0.00     0.002 C 
ENDROOT
BRANCH   1   2
ATOM      2  C   UNL A   1      35.643  22.753  26.055  1.00  0.00     0.021 C 
BRANCH   2   3
ATOM      3  C   UNL A   1      34.499  23.659  25.617  1.00  0.00     0.116 C 
BRANCH   3   4
ATOM      4  N   UNL A   1      33.428  23.812  26.585  1.00  0.00    -0.354 N 
ATOM      5  C   UNL A   1      32.140  24.253  26.389  1.00  0.00     0.245 C 
ATOM      6  O   UNL A   1      31.322  24.059  27.289  1.00  0.00    -0.273 OA
ATOM      7  H   UNL A   1      33.656  23.566  27.511  1.00  0.00     0.163 HD
BRANCH   5   8
ATOM      8  C   UNL A   1      31.779  25.040  25.113  1.00  0.00     0.200 C 
BRANCH   8   9
ATOM      9  N   UNL A   1      32.858  25.875  24.567  1.00  0.00    -0.340 N 
ATOM     10  C   UNL A   1      32.898  27.181  24.182  1.00  0.00     0.243 C 
ATOM     11  O   UNL A   1      33.786  27.511  23.387  1.00  0.00    -0.273 OA
ATOM     12  H   UNL A   1      33.715  25.401  24.461  1.00  0.00     0.164 HD
BRANCH  10  13
ATOM     13  C   UNL A   1      31.809  28.211  24.590  1.00  0.00     0.175 C 
BRANCH  13  14
ATOM     14  C   UNL A   1      32.124  28.816  25.994  1.00  0.00     0.015 C 
ATOM     15  C   UNL A   1      31.541  28.034  27.175  1.00  0.00     0.010 C 
ATOM     16  C   UNL A   1      33.633  28.992  26.201  1.00  0.00     0.010 C 
ENDBRANCH  13  14
BRANCH  13  17
ATOM     17  N   UNL A   1      31.647  29.219  23.538  1.00  0.00    -0.326 N 
ATOM     18  C   UNL A   1      30.800  29.013  22.484  1.00  0.00     0.312 C 
ATOM     19  H   UNL A   1      32.157  30.059  23.591  1.00  0.00     0.166 HD
ATOM     20  N   UNL A   1      30.781  30.042  21.610  1.00  0.00    -0.352 N 
ATOM     21  O   UNL A   1      30.152  27.998  22.271  1.00  0.00    -0.249 OA
ATOM     22  H   UNL A   1      31.307  30.853  21.793  1.00  0.00     0.161 HD
ATOM     23  H   UNL A   1      30.241  29.981  20.789  1.00  0.00     0.161 HD
ENDBRANCH  13  17
ENDBRANCH  10  13
ENDBRANCH   8   9
BRANCH   8  24
ATOM     24  C   UNL A   1      31.332  24.038  24.013  1.00  0.00     0.143 C 
ATOM     25  C   UNL A   1      32.215  24.073  22.775  1.00  0.00     0.041 C 
BRANCH  24  26
ATOM     26  O   UNL A   1      31.365  22.689  24.513  1.00  0.00    -0.391 OA
ATOM     27  H   UNL A   1      31.119  22.685  25.450  1.00  0.00     0.211 HD
ENDBRANCH  24  26
ENDBRANCH   8  24
ENDBRANCH   5   8
ENDBRANCH   3   4
ENDBRANCH   2   3
ENDBRANCH   1   2
BRANCH   1  28
ATOM     28  C   UNL A   1      36.210  20.441  24.988  1.00  0.00     0.002 C 
BRANCH  28  29
ATOM     29  C   UNL A   1      37.507  19.639  24.867  1.00  0.00     0.021 C 
BRANCH  29  30
ATOM     30  C   UNL A   1      38.693  20.195  25.648  1.00  0.00     0.116 C 
BRANCH  30  31
ATOM     31  N   UNL A   1      39.807  19.267  25.715  1.00  0.00    -0.352 N 
ATOM     32  C   UNL A   1      41.114  19.485  26.070  1.00  0.00     0.251 C 
ATOM     33  H   UNL A   1      39.591  18.338  25.468  1.00  0.00     0.163 HD
ATOM     34  O   UNL A   1      41.940  18.590  25.922  1.00  0.00    -0.269 OA
BRANCH  32  35
ATOM     35  C   UNL A   1      41.539  20.796  26.609  1.00  0.00     0.039 A 
ATOM     36  C   UNL A   1      41.987  21.772  25.715  1.00  0.00     0.014 A 
ATOM     37  C   UNL A   1      41.529  21.059  27.981  1.00  0.00     0.014 A 
ATOM     38  C   UNL A   1      42.385  23.022  26.195  1.00  0.00     0.010 A 
ATOM     39  C   UNL A   1      41.842  22.333  28.449  1.00  0.00     0.010 A 
ATOM     40  C   UNL A   1      42.292  23.323  27.563  1.00  0.00    -0.014 A 
BRANCH  40  41
ATOM     41  C   UNL A   1      42.689  24.659  28.078  1.00  0.00     0.031 A 
ATOM     42  C   UNL A   1      41.644  25.715  28.330  1.00  0.00     0.074 A 
ATOM     43  C   UNL A   1      43.992  24.935  28.280  1.00  0.00     0.049 A 
ATOM     44  N   UNL A   1      41.798  26.944  28.755  1.00  0.00    -0.248 NA
ATOM     45  C   UNL A   1      40.246  25.357  28.039  1.00  0.00     0.031 C 
ATOM     46  C   UNL A   1      45.103  24.018  28.016  1.00  0.00     0.029 A 
ATOM     47  N   UNL A   1      44.605  26.069  28.748  1.00  0.00    -0.354 N 
ATOM     48  C   UNL A   1      40.527  27.506  28.762  1.00  0.00     0.074 A 
ATOM     49  C   UNL A   1      39.618  26.504  28.250  1.00  0.00     0.031 C 
ATOM     50  C   UNL A   1      46.258  24.616  28.350  1.00  0.00     0.029 A 
ATOM     51  C   UNL A   1      45.974  25.969  28.817  1.00  0.00     0.049 A 
ATOM     52  H   UNL A   1      44.111  26.879  29.011  1.00  0.00     0.167 HD
ATOM     53  C   UNL A   1      40.148  28.737  29.178  1.00  0.00     0.037 A 
ATOM     54  C   UNL A   1      46.897  26.869  29.207  1.00  0.00     0.037 A 
ATOM     55  C   UNL A   1      41.050  29.717  29.726  1.00  0.00     0.049 A 
ATOM     56  C   UNL A   1      46.441  28.219  29.691  1.00  0.00     0.074 A 
ATOM     57  C   UNL A   1      40.751  30.961  30.253  1.00  0.00     0.029 A 
ATOM     58  N   UNL A   1      42.425  29.564  29.813  1.00  0.00    -0.354 N 
ATOM     59  N   UNL A   1      45.224  28.702  29.778  1.00  0.00    -0.248 NA
ATOM     60  C   UNL A   1      47.487  29.145  30.148  1.00  0.00     0.031 C 
ATOM     61  C   UNL A   1      41.951  31.585  30.606  1.00  0.00     0.029 A 
ATOM     62  C   UNL A   1      42.990  30.704  30.361  1.00  0.00     0.049 A 
ATOM     63  H   UNL A   1      42.924  28.765  29.529  1.00  0.00     0.167 HD
ATOM     64  C   UNL A   1      45.356  29.968  30.333  1.00  0.00     0.074 A 
ATOM     65  C   UNL A   1      46.768  30.170  30.582  1.00  0.00     0.031 C 
ATOM     66  C   UNL A   1      44.397  30.884  30.614  1.00  0.00     0.037 A 
BRANCH  53  67
ATOM     67  C   UNL A   1      38.695  29.104  29.064  1.00  0.00     0.057 A 
ATOM     68  C   UNL A   1      37.818  29.016  30.151  1.00  0.00     0.134 A 
ATOM     69  C   UNL A   1      38.187  29.619  27.864  1.00  0.00     0.134 A 
ATOM     70  F   UNL A   1      38.236  28.521  31.325  1.00  0.00    -0.206 F 
ATOM     71  C   UNL A   1      36.483  29.413  30.046  1.00  0.00     0.040 A 
ATOM     72  C   UNL A   1      36.862  30.047  27.755  1.00  0.00     0.040 A 
ATOM     73  F   UNL A   1      38.974  29.734  26.783  1.00  0.00    -0.206 F 
ATOM     74  C   UNL A   1      36.005  29.941  28.848  1.00  0.00     0.006 A 
ENDBRANCH  53  67
BRANCH  54  75
ATOM     75  C   UNL A   1      48.345  26.531  29.169  1.00  0.00     0.057 A 
ATOM     76  C   UNL A   1      49.138  26.843  28.059  1.00  0.00     0.134 A 
ATOM     77  C   UNL A   1      48.958  25.844  30.224  1.00  0.00     0.134 A 
ATOM     78  F   UNL A   1      48.607  27.485  27.009  1.00  0.00    -0.206 F 
ATOM     79  C   UNL A   1      50.475  26.447  27.978  1.00  0.00     0.040 A 
ATOM     80  C   UNL A   1      50.302  25.472  30.172  1.00  0.00     0.040 A 
ATOM     81  F   UNL A   1      48.260  25.525  31.324  1.00  0.00    -0.206 F 
ATOM     82  C   UNL A   1      51.061  25.760  29.039  1.00  0.00     0.006 A 
ENDBRANCH  54  75
BRANCH  66  83
ATOM     83  C   UNL A   1      44.839  32.161  31.271  1.00  0.00     0.057 A 
ATOM     84  C   UNL A   1      45.195  33.296  30.533  1.00  0.00     0.134 A 
ATOM     85  C   UNL A   1      44.896  32.255  32.668  1.00  0.00     0.134 A 
ATOM     86  F   UNL A   1      45.171  33.273  29.191  1.00  0.00    -0.206 F 
ATOM     87  C   UNL A   1      45.634  34.465  31.159  1.00  0.00     0.040 A 
ATOM     88  C   UNL A   1      45.300  33.428  33.306  1.00  0.00     0.040 A 
ATOM     89  F   UNL A   1      44.555  31.209  33.437  1.00  0.00    -0.206 F 
ATOM     90  C   UNL A   1      45.682  34.534  32.550  1.00  0.00     0.006 A 
ENDBRANCH  66  83
ENDBRANCH  40  41
ENDBRANCH  32  35
ENDBRANCH  30  31
ENDBRANCH  29  30
ENDBRANCH  28  29
ENDBRANCH   1  28
TORSDOF 19
ENDMDL
MODEL 3
REMARK VINA RESULT:     -10.4      1.732      2.353
REMARK SMILES CC(C)[C@@H](NC(N)=O)C(=O)N[C@H](C(=O)NCCCCCCNC(=O)c1ccc(-c2c3nc(c(-c4c(F)cccc4F)c4ccc([nH]4)c(-c4c(F)cccc4F)c4nc(c(-c5c(F)cccc5F)c5ccc2[nH]5)C=C4)C=C3)cc1)[C@@H](C)O
REMARK SMILES IDX 18 1 17 2 16 3 15 4 13 5 14 6 12 8 11 9 9 10 10 11 4 13 2 14
REMARK SMILES IDX 1 15 3 16 5 17 6 18 7 20 8 21 79 24 80 25 81 26 19 28 20 29
REMARK SMILES IDX 21 30 22 31 23 32 24 34 25 35 26 36 78 37 27 38 77 39 28 40
REMARK SMILES IDX 29 41 30 42 71 43 31 44 76 45 70 46 72 47 32 48 75 49 69 50
REMARK SMILES IDX 68 51 33 53 59 54 42 55 58 56 43 57 46 58 57 59 73 60 44 61
REMARK SMILES IDX 45 62 56 64 74 65 47 66 34 67 35 68 40 69 36 70 37 71 39 72
REMARK SMILES IDX 41 73 38 74 60 75 61 76 66 77 62 78 63 79 65 80 67 81 64 82
REMARK SMILES IDX 48 83 49 84 54 85 50 86 51 87 53 88 55 89 52 90
REMARK H PARENT 15 7 11 12 5 19 7 22 7 23 81 27 22 33 72 52 46 63
REMARK Flexibility Score: inf
ROOT
ATOM      1  C   UNL A   1      36.282  21.839  24.842  1.00  0.00     0.002 C 
ENDROOT
BRANCH   1   2
ATOM      2  C   UNL A   1      35.730  22.693  25.987  1.00  0.00     0.021 C 
BRANCH   2   3
ATOM      3  C   UNL A   1      34.735  23.777  25.591  1.00  0.00     0.116 C 
BRANCH   3   4
ATOM      4  N   UNL A   1      33.651  23.993  26.531  1.00  0.00    -0.354 N 
ATOM      5  C   UNL A   1      32.320  24.234  26.277  1.00  0.00     0.245 C 
ATOM      6  O   UNL A   1      31.527  24.128  27.214  1.00  0.00    -0.273 OA
ATOM      7  H   UNL A   1      33.903  23.962  27.482  1.00  0.00     0.163 HD
BRANCH   5   8
ATOM      8  C   UNL A   1      31.874  24.706  24.879  1.00  0.00     0.200 C 
BRANCH   8   9
ATOM      9  N   UNL A   1      32.868  25.495  24.138  1.00  0.00    -0.340 N 
ATOM     10  C   UNL A   1      32.873  26.786  23.704  1.00  0.00     0.243 C 
ATOM     11  O   UNL A   1      33.628  27.067  22.766  1.00  0.00    -0.273 OA
ATOM     12  H   UNL A   1      33.687  24.996  23.914  1.00  0.00     0.164 HD
BRANCH  10  13
ATOM     13  C   UNL A   1      31.884  27.856  24.243  1.00  0.00     0.175 C 
BRANCH  13  14
ATOM     14  C   UNL A   1      32.279  28.292  25.688  1.00  0.00     0.015 C 
ATOM     15  C   UNL A   1      33.751  28.063  26.047  1.00  0.00     0.010 C 
ATOM     16  C   UNL A   1      31.918  29.760  25.947  1.00  0.00     0.010 C 
ENDBRANCH  13  14
BRANCH  13  17
ATOM     17  N   UNL A   1      31.785  28.974  23.299  1.00  0.00    -0.326 N 
ATOM     18  C   UNL A   1      30.749  29.061  22.410  1.00  0.00     0.312 C 
ATOM     19  H   UNL A   1      32.477  29.674  23.304  1.00  0.00     0.166 HD
ATOM     20  N   UNL A   1      30.822  30.151  21.615  1.00  0.00    -0.352 N 
ATOM     21  O   UNL A   1      29.858  28.237  22.263  1.00  0.00    -0.249 OA
ATOM     22  H   UNL A   1      31.545  30.806  21.744  1.00  0.00     0.161 HD
ATOM     23  H   UNL A   1      30.152  30.289  20.907  1.00  0.00     0.161 HD
ENDBRANCH  13  17
ENDBRANCH  10  13
ENDBRANCH   8   9
BRANCH   8  24
ATOM     24  C   UNL A   1      31.499  23.464  24.024  1.00  0.00     0.143 C 
ATOM     25  C   UNL A   1      32.447  23.231  22.857  1.00  0.00     0.041 C 
BRANCH  24  26
ATOM     26  O   UNL A   1      31.522  22.270  24.827  1.00  0.00    -0.391 OA
ATOM     27  H   UNL A   1      31.466  22.511  25.764  1.00  0.00     0.211 HD
ENDBRANCH  24  26
ENDBRANCH   8  24
ENDBRANCH   5   8
ENDBRANCH   3   4
ENDBRANCH   2   3
ENDBRANCH   1   2
BRANCH   1  28
ATOM     28  C   UNL A   1      36.124  20.322  24.973  1.00  0.00     0.002 C 
BRANCH  28  29
ATOM     29  C   UNL A   1      37.408  19.492  24.936  1.00  0.00     0.021 C 
BRANCH  29  30
ATOM     30  C   UNL A   1      38.639  20.169  25.529  1.00  0.00     0.116 C 
BRANCH  30  31
ATOM     31  N   UNL A   1      39.779  19.275  25.627  1.00  0.00    -0.352 N 
ATOM     32  C   UNL A   1      41.066  19.531  26.028  1.00  0.00     0.251 C 
ATOM     33  H   UNL A   1      39.602  18.343  25.366  1.00  0.00     0.163 HD
ATOM     34  O   UNL A   1      41.925  18.664  25.901  1.00  0.00    -0.269 OA
BRANCH  32  35
ATOM     35  C   UNL A   1      41.430  20.850  26.591  1.00  0.00     0.039 A 
ATOM     36  C   UNL A   1      41.944  21.824  25.731  1.00  0.00     0.014 A 
ATOM     37  C   UNL A   1      41.301  21.124  27.955  1.00  0.00     0.014 A 
ATOM     38  C   UNL A   1      42.288  23.082  26.233  1.00  0.00     0.010 A 
ATOM     39  C   UNL A   1      41.560  22.403  28.438  1.00  0.00     0.010 A 
ATOM     40  C   UNL A   1      42.075  23.391  27.586  1.00  0.00    -0.014 A 
BRANCH  40  41
ATOM     41  C   UNL A   1      42.414  24.735  28.122  1.00  0.00     0.031 A 
ATOM     42  C   UNL A   1      43.826  25.049  28.544  1.00  0.00     0.074 A 
ATOM     43  C   UNL A   1      41.443  25.659  28.268  1.00  0.00     0.049 A 
ATOM     44  N   UNL A   1      44.309  26.154  29.055  1.00  0.00    -0.248 NA
ATOM     45  C   UNL A   1      44.821  23.974  28.402  1.00  0.00     0.031 C 
ATOM     46  C   UNL A   1      40.027  25.456  27.953  1.00  0.00     0.029 A 
ATOM     47  N   UNL A   1      41.498  26.952  28.723  1.00  0.00    -0.354 N 
ATOM     48  C   UNL A   1      45.651  25.899  29.312  1.00  0.00     0.074 A 
ATOM     49  C   UNL A   1      45.896  24.520  28.951  1.00  0.00     0.031 C 
ATOM     50  C   UNL A   1      39.353  26.591  28.200  1.00  0.00     0.029 A 
ATOM     51  C   UNL A   1      40.280  27.589  28.724  1.00  0.00     0.049 A 
ATOM     52  H   UNL A   1      42.331  27.382  29.021  1.00  0.00     0.167 HD
ATOM     53  C   UNL A   1      46.597  26.743  29.785  1.00  0.00     0.037 A 
ATOM     54  C   UNL A   1      39.948  28.836  29.110  1.00  0.00     0.037 A 
ATOM     55  C   UNL A   1      46.358  28.126  30.105  1.00  0.00     0.049 A 
ATOM     56  C   UNL A   1      41.029  29.760  29.605  1.00  0.00     0.074 A 
ATOM     57  C   UNL A   1      47.269  29.085  30.511  1.00  0.00     0.029 A 
ATOM     58  N   UNL A   1      45.118  28.746  30.057  1.00  0.00    -0.354 N 
ATOM     59  N   UNL A   1      42.312  29.530  29.754  1.00  0.00    -0.248 NA
ATOM     60  C   UNL A   1      40.618  31.123  29.968  1.00  0.00     0.031 C 
ATOM     61  C   UNL A   1      46.572  30.270  30.765  1.00  0.00     0.029 A 
ATOM     62  C   UNL A   1      45.238  30.068  30.453  1.00  0.00     0.049 A 
ATOM     63  H   UNL A   1      44.279  28.311  29.783  1.00  0.00     0.167 HD
ATOM     64  C   UNL A   1      42.864  30.727  30.192  1.00  0.00     0.074 A 
ATOM     65  C   UNL A   1      41.781  31.685  30.262  1.00  0.00     0.031 C 
ATOM     66  C   UNL A   1      44.152  31.011  30.507  1.00  0.00     0.037 A 
BRANCH  53  67
ATOM     67  C   UNL A   1      47.985  26.204  29.988  1.00  0.00     0.057 A 
ATOM     68  C   UNL A   1      48.949  26.230  28.973  1.00  0.00     0.134 A 
ATOM     69  C   UNL A   1      48.380  25.717  31.241  1.00  0.00     0.134 A 
ATOM     70  F   UNL A   1      48.635  26.672  27.746  1.00  0.00    -0.206 F 
ATOM     71  C   UNL A   1      50.251  25.777  29.191  1.00  0.00     0.040 A 
ATOM     72  C   UNL A   1      49.687  25.288  31.480  1.00  0.00     0.040 A 
ATOM     73  F   UNL A   1      47.508  25.667  32.259  1.00  0.00    -0.206 F 
ATOM     74  C   UNL A   1      50.627  25.315  30.451  1.00  0.00     0.006 A 
ENDBRANCH  53  67
BRANCH  54  75
ATOM     75  C   UNL A   1      38.536  29.297  29.039  1.00  0.00     0.057 A 
ATOM     76  C   UNL A   1      37.704  29.272  30.164  1.00  0.00     0.134 A 
ATOM     77  C   UNL A   1      37.972  29.728  27.832  1.00  0.00     0.134 A 
ATOM     78  F   UNL A   1      38.178  28.854  31.347  1.00  0.00    -0.206 F 
ATOM     79  C   UNL A   1      36.353  29.617  30.084  1.00  0.00     0.040 A 
ATOM     80  C   UNL A   1      36.632  30.109  27.744  1.00  0.00     0.040 A 
ATOM     81  F   UNL A   1      38.718  29.790  26.719  1.00  0.00    -0.206 F 
ATOM     82  C   UNL A   1      35.814  30.038  28.871  1.00  0.00     0.006 A 
ENDBRANCH  54  75
BRANCH  66  83
ATOM     83  C   UNL A   1      44.465  32.427  30.902  1.00  0.00     0.057 A 
ATOM     84  C   UNL A   1      44.803  33.408  29.961  1.00  0.00     0.134 A 
ATOM     85  C   UNL A   1      44.415  32.814  32.248  1.00  0.00     0.134 A 
ATOM     86  F   UNL A   1      44.877  33.104  28.656  1.00  0.00    -0.206 F 
ATOM     87  C   UNL A   1      45.121  34.711  30.348  1.00  0.00     0.040 A 
ATOM     88  C   UNL A   1      44.697  34.121  32.644  1.00  0.00     0.040 A 
ATOM     89  F   UNL A   1      44.085  31.928  33.201  1.00  0.00    -0.206 F 
ATOM     90  C   UNL A   1      45.064  35.071  31.694  1.00  0.00     0.006 A 
ENDBRANCH  66  83
ENDBRANCH  40  41
ENDBRANCH  32  35
ENDBRANCH  30  31
ENDBRANCH  29  30
ENDBRANCH  28  29
ENDBRANCH   1  28
TORSDOF 19
ENDMDL
