MODEL 1
REMARK VINA RESULT:     -10.8      0.000      0.000
REMARK SMILES CN(C)c1cccc(C(C)(C)C(=O)NCCCCCCNC(=O)c2ccc(-c3c4nc(c(-c5c(F)cccc5F)c5ccc([nH]5)c(-c5c(F)cccc5F)c5nc(c(-c6c(F)cccc6F)c6ccc3[nH]6)C=C5)C=C4)cc2)c1
REMARK SMILES IDX 17 1 16 2 15 3 14 4 12 5 13 6 9 8 10 9 11 10 8 11 4 12 5 13
REMARK SMILES IDX 78 14 6 15 7 16 2 17 1 18 3 19 18 20 19 21 20 22 21 23 22 24
REMARK SMILES IDX 23 26 24 27 25 28 77 29 26 30 76 31 27 32 28 33 29 34 70 35
REMARK SMILES IDX 30 36 75 37 69 38 71 39 31 40 74 41 68 42 67 43 32 45 58 46
REMARK SMILES IDX 41 47 57 48 42 49 45 50 56 51 72 52 43 53 44 54 55 56 73 57
REMARK SMILES IDX 46 58 33 59 34 60 39 61 35 62 36 63 38 64 40 65 37 66 59 67
REMARK SMILES IDX 60 68 65 69 61 70 62 71 64 72 66 73 63 74 47 75 48 76 53 77
REMARK SMILES IDX 49 78 50 79 52 80 54 81 51 82
REMARK H PARENT 14 7 21 25 71 44 45 55
REMARK Flexibility Score: inf
ROOT
ATOM      1  C   UNL A   1      36.932  21.852  24.209  1.00  0.00     0.002 C 
ENDROOT
BRANCH   1   2
ATOM      2  C   UNL A   1      35.863  22.944  24.348  1.00  0.00     0.021 C 
BRANCH   2   3
ATOM      3  C   UNL A   1      35.681  23.475  25.769  1.00  0.00     0.116 C 
BRANCH   3   4
ATOM      4  N   UNL A   1      34.539  24.364  25.842  1.00  0.00    -0.355 N 
ATOM      5  C   UNL A   1      33.211  24.193  26.086  1.00  0.00     0.230 C 
ATOM      6  O   UNL A   1      32.574  25.242  25.956  1.00  0.00    -0.274 OA
ATOM      7  H   UNL A   1      34.779  25.305  25.678  1.00  0.00     0.163 HD
BRANCH   5   8
ATOM      8  C   UNL A   1      32.598  22.822  26.520  1.00  0.00     0.068 C 
ATOM      9  C   UNL A   1      31.111  23.101  26.868  1.00  0.00     0.026 C 
ATOM     10  C   UNL A   1      33.392  22.272  27.727  1.00  0.00     0.026 C 
BRANCH   8  11
ATOM     11  C   UNL A   1      32.586  21.671  25.460  1.00  0.00    -0.031 A 
ATOM     12  C   UNL A   1      33.040  19.343  24.730  1.00  0.00     0.036 A 
ATOM     13  C   UNL A   1      32.609  19.686  23.445  1.00  0.00     0.026 A 
ATOM     14  C   UNL A   1      32.989  20.348  25.717  1.00  0.00     0.030 A 
ATOM     15  C   UNL A   1      32.154  20.970  23.155  1.00  0.00     0.002 A 
ATOM     16  C   UNL A   1      32.147  21.947  24.149  1.00  0.00     0.005 A 
BRANCH  12  17
ATOM     17  N   UNL A   1      33.512  18.057  25.004  1.00  0.00    -0.378 N 
ATOM     18  C   UNL A   1      34.638  17.520  24.250  1.00  0.00     0.143 C 
ATOM     19  C   UNL A   1      32.528  17.099  25.495  1.00  0.00     0.143 C 
ENDBRANCH  12  17
ENDBRANCH   8  11
ENDBRANCH   5   8
ENDBRANCH   3   4
ENDBRANCH   2   3
ENDBRANCH   1   2
BRANCH   1  20
ATOM     20  C   UNL A   1      36.596  20.514  24.875  1.00  0.00     0.002 C 
BRANCH  20  21
ATOM     21  C   UNL A   1      37.765  19.535  25.001  1.00  0.00     0.021 C 
BRANCH  21  22
ATOM     22  C   UNL A   1      38.982  20.084  25.733  1.00  0.00     0.116 C 
BRANCH  22  23
ATOM     23  N   UNL A   1      40.032  19.093  25.881  1.00  0.00    -0.352 N 
ATOM     24  C   UNL A   1      41.370  19.281  26.101  1.00  0.00     0.251 C 
ATOM     25  H   UNL A   1      39.741  18.156  25.814  1.00  0.00     0.163 HD
ATOM     26  O   UNL A   1      42.143  18.324  26.036  1.00  0.00    -0.269 OA
BRANCH  24  27
ATOM     27  C   UNL A   1      41.899  20.629  26.399  1.00  0.00     0.039 A 
ATOM     28  C   UNL A   1      42.057  21.005  27.735  1.00  0.00     0.014 A 
ATOM     29  C   UNL A   1      42.200  21.535  25.375  1.00  0.00     0.014 A 
ATOM     30  C   UNL A   1      42.537  22.277  28.046  1.00  0.00     0.010 A 
ATOM     31  C   UNL A   1      42.747  22.777  25.685  1.00  0.00     0.010 A 
ATOM     32  C   UNL A   1      42.896  23.170  27.022  1.00  0.00    -0.014 A 
BRANCH  32  33
ATOM     33  C   UNL A   1      43.375  24.537  27.345  1.00  0.00     0.031 A 
ATOM     34  C   UNL A   1      42.398  25.592  27.785  1.00  0.00     0.074 A 
ATOM     35  C   UNL A   1      44.680  24.838  27.211  1.00  0.00     0.049 A 
ATOM     36  N   UNL A   1      42.619  26.842  28.107  1.00  0.00    -0.248 NA
ATOM     37  C   UNL A   1      40.982  25.199  27.842  1.00  0.00     0.031 C 
ATOM     38  C   UNL A   1      45.715  23.920  26.733  1.00  0.00     0.029 A 
ATOM     39  N   UNL A   1      45.356  26.004  27.462  1.00  0.00    -0.354 N 
ATOM     40  C   UNL A   1      41.373  27.383  28.394  1.00  0.00     0.074 A 
ATOM     41  C   UNL A   1      40.395  26.347  28.146  1.00  0.00     0.031 C 
ATOM     42  C   UNL A   1      46.899  24.554  26.744  1.00  0.00     0.029 A 
ATOM     43  C   UNL A   1      46.703  25.923  27.211  1.00  0.00     0.049 A 
ATOM     44  H   UNL A   1      44.917  26.822  27.791  1.00  0.00     0.167 HD
ATOM     45  C   UNL A   1      41.070  28.621  28.853  1.00  0.00     0.037 A 
ATOM     46  C   UNL A   1      47.672  26.847  27.349  1.00  0.00     0.037 A 
ATOM     47  C   UNL A   1      42.047  29.645  29.120  1.00  0.00     0.049 A 
ATOM     48  C   UNL A   1      47.321  28.203  27.895  1.00  0.00     0.074 A 
ATOM     49  C   UNL A   1      41.851  30.914  29.633  1.00  0.00     0.029 A 
ATOM     50  N   UNL A   1      43.409  29.509  28.897  1.00  0.00    -0.354 N 
ATOM     51  N   UNL A   1      46.148  28.680  28.232  1.00  0.00    -0.248 NA
ATOM     52  C   UNL A   1      48.434  29.141  28.100  1.00  0.00     0.031 C 
ATOM     53  C   UNL A   1      43.092  31.559  29.688  1.00  0.00     0.029 A 
ATOM     54  C   UNL A   1      44.065  30.676  29.250  1.00  0.00     0.049 A 
ATOM     55  H   UNL A   1      43.845  28.701  28.540  1.00  0.00     0.167 HD
ATOM     56  C   UNL A   1      46.380  29.963  28.709  1.00  0.00     0.074 A 
ATOM     57  C   UNL A   1      47.810  30.183  28.633  1.00  0.00     0.031 C 
ATOM     58  C   UNL A   1      45.491  30.877  29.168  1.00  0.00     0.037 A 
BRANCH  45  59
ATOM     59  C   UNL A   1      39.620  28.924  29.097  1.00  0.00     0.057 A 
ATOM     60  C   UNL A   1      38.791  29.426  28.084  1.00  0.00     0.134 A 
ATOM     61  C   UNL A   1      39.045  28.716  30.357  1.00  0.00     0.134 A 
ATOM     62  F   UNL A   1      39.283  29.662  26.858  1.00  0.00    -0.206 F 
ATOM     63  C   UNL A   1      37.454  29.749  28.326  1.00  0.00     0.040 A 
ATOM     64  C   UNL A   1      37.702  29.008  30.603  1.00  0.00     0.040 A 
ATOM     65  F   UNL A   1      39.779  28.233  31.370  1.00  0.00    -0.206 F 
ATOM     66  C   UNL A   1      36.905  29.535  29.588  1.00  0.00     0.006 A 
ENDBRANCH  45  59
BRANCH  46  67
ATOM     67  C   UNL A   1      49.071  26.499  27.004  1.00  0.00     0.057 A 
ATOM     68  C   UNL A   1      49.930  25.926  27.950  1.00  0.00     0.134 A 
ATOM     69  C   UNL A   1      49.576  26.708  25.716  1.00  0.00     0.134 A 
ATOM     70  F   UNL A   1      49.507  25.715  29.205  1.00  0.00    -0.206 F 
ATOM     71  C   UNL A   1      51.245  25.587  27.632  1.00  0.00     0.040 A 
ATOM     72  C   UNL A   1      50.882  26.354  25.377  1.00  0.00     0.040 A 
ATOM     73  F   UNL A   1      48.799  27.243  24.763  1.00  0.00    -0.206 F 
ATOM     74  C   UNL A   1      51.722  25.795  26.339  1.00  0.00     0.006 A 
ENDBRANCH  46  67
BRANCH  58  75
ATOM     75  C   UNL A   1      46.044  32.186  29.648  1.00  0.00     0.057 A 
ATOM     76  C   UNL A   1      46.455  32.373  30.974  1.00  0.00     0.134 A 
ATOM     77  C   UNL A   1      46.191  33.264  28.765  1.00  0.00     0.134 A 
ATOM     78  F   UNL A   1      46.328  31.384  31.871  1.00  0.00    -0.206 F 
ATOM     79  C   UNL A   1      46.968  33.595  31.411  1.00  0.00     0.040 A 
ATOM     80  C   UNL A   1      46.726  34.482  29.184  1.00  0.00     0.040 A 
ATOM     81  F   UNL A   1      45.824  33.146  27.480  1.00  0.00    -0.206 F 
ATOM     82  C   UNL A   1      47.111  34.652  30.512  1.00  0.00     0.006 A 
ENDBRANCH  58  75
ENDBRANCH  32  33
ENDBRANCH  24  27
ENDBRANCH  22  23
ENDBRANCH  21  22
ENDBRANCH  20  21
ENDBRANCH   1  20
TORSDOF 15
ENDMDL
MODEL 2
REMARK VINA RESULT:     -10.8      0.922      6.469
REMARK SMILES CN(C)c1cccc(C(C)(C)C(=O)NCCCCCCNC(=O)c2ccc(-c3c4nc(c(-c5c(F)cccc5F)c5ccc([nH]5)c(-c5c(F)cccc5F)c5nc(c(-c6c(F)cccc6F)c6ccc3[nH]6)C=C5)C=C4)cc2)c1
REMARK SMILES IDX 17 1 16 2 15 3 14 4 12 5 13 6 9 8 10 9 11 10 8 11 4 12 5 13
REMARK SMILES IDX 78 14 6 15 7 16 2 17 1 18 3 19 18 20 19 21 20 22 21 23 22 24
REMARK SMILES IDX 23 26 24 27 25 28 77 29 26 30 76 31 27 32 28 33 29 34 70 35
REMARK SMILES IDX 30 36 75 37 69 38 71 39 31 40 74 41 68 42 67 43 32 45 58 46
REMARK SMILES IDX 41 47 57 48 42 49 45 50 56 51 72 52 43 53 44 54 55 56 73 57
REMARK SMILES IDX 46 58 33 59 34 60 39 61 35 62 36 63 38 64 40 65 37 66 59 67
REMARK SMILES IDX 60 68 65 69 61 70 62 71 64 72 66 73 63 74 47 75 48 76 53 77
REMARK SMILES IDX 49 78 50 79 52 80 54 81 51 82
REMARK H PARENT 14 7 21 25 71 44 45 55
REMARK Flexibility Score: inf
ROOT
ATOM      1  C   UNL A   1      36.896  21.856  24.184  1.00  0.00     0.002 C 
ENDROOT
BRANCH   1   2
ATOM      2  C   UNL A   1      35.817  22.930  24.375  1.00  0.00     0.021 C 
BRANCH   2   3
ATOM      3  C   UNL A   1      35.667  23.428  25.811  1.00  0.00     0.116 C 
BRANCH   3   4
ATOM      4  N   UNL A   1      34.527  24.316  25.930  1.00  0.00    -0.355 N 
ATOM      5  C   UNL A   1      33.200  24.138  26.175  1.00  0.00     0.230 C 
ATOM      6  O   UNL A   1      32.565  25.192  26.094  1.00  0.00    -0.274 OA
ATOM      7  H   UNL A   1      34.768  25.262  25.804  1.00  0.00     0.163 HD
BRANCH   5   8
ATOM      8  C   UNL A   1      32.587  22.751  26.556  1.00  0.00     0.068 C 
ATOM      9  C   UNL A   1      31.095  23.012  26.893  1.00  0.00     0.026 C 
ATOM     10  C   UNL A   1      33.367  22.164  27.755  1.00  0.00     0.026 C 
BRANCH   8  11
ATOM     11  C   UNL A   1      32.594  21.636  25.459  1.00  0.00    -0.031 A 
ATOM     12  C   UNL A   1      33.068  19.334  24.658  1.00  0.00     0.036 A 
ATOM     13  C   UNL A   1      32.653  19.718  23.380  1.00  0.00     0.026 A 
ATOM     14  C   UNL A   1      33.000  20.306  25.678  1.00  0.00     0.030 A 
ATOM     15  C   UNL A   1      32.197  21.009  23.126  1.00  0.00     0.002 A 
ATOM     16  C   UNL A   1      32.172  21.952  24.151  1.00  0.00     0.005 A 
BRANCH  12  17
ATOM     17  N   UNL A   1      33.541  18.042  24.896  1.00  0.00    -0.378 N 
ATOM     18  C   UNL A   1      34.395  17.387  23.913  1.00  0.00     0.143 C 
ATOM     19  C   UNL A   1      32.688  17.181  25.707  1.00  0.00     0.143 C 
ENDBRANCH  12  17
ENDBRANCH   8  11
ENDBRANCH   5   8
ENDBRANCH   3   4
ENDBRANCH   2   3
ENDBRANCH   1   2
BRANCH   1  20
ATOM     20  C   UNL A   1      36.589  20.495  24.817  1.00  0.00     0.002 C 
BRANCH  20  21
ATOM     21  C   UNL A   1      37.789  19.556  24.961  1.00  0.00     0.021 C 
BRANCH  21  22
ATOM     22  C   UNL A   1      38.950  20.123  25.767  1.00  0.00     0.116 C 
BRANCH  22  23
ATOM     23  N   UNL A   1      40.083  19.218  25.816  1.00  0.00    -0.352 N 
ATOM     24  C   UNL A   1      41.398  19.495  26.077  1.00  0.00     0.251 C 
ATOM     25  H   UNL A   1      39.878  18.272  25.636  1.00  0.00     0.163 HD
ATOM     26  O   UNL A   1      42.253  18.624  25.914  1.00  0.00    -0.269 OA
BRANCH  24  27
ATOM     27  C   UNL A   1      41.803  20.840  26.537  1.00  0.00     0.039 A 
ATOM     28  C   UNL A   1      41.745  21.125  27.904  1.00  0.00     0.014 A 
ATOM     29  C   UNL A   1      42.200  21.830  25.631  1.00  0.00     0.014 A 
ATOM     30  C   UNL A   1      42.104  22.392  28.364  1.00  0.00     0.010 A 
ATOM     31  C   UNL A   1      42.628  23.070  26.098  1.00  0.00     0.010 A 
ATOM     32  C   UNL A   1      42.559  23.371  27.465  1.00  0.00    -0.014 A 
BRANCH  32  33
ATOM     33  C   UNL A   1      42.910  24.731  27.944  1.00  0.00     0.031 A 
ATOM     34  C   UNL A   1      44.352  25.124  28.106  1.00  0.00     0.074 A 
ATOM     35  C   UNL A   1      41.933  25.602  28.262  1.00  0.00     0.049 A 
ATOM     36  N   UNL A   1      44.860  26.260  28.515  1.00  0.00    -0.248 NA
ATOM     37  C   UNL A   1      45.356  24.093  27.800  1.00  0.00     0.031 C 
ATOM     38  C   UNL A   1      40.498  25.319  28.207  1.00  0.00     0.029 A 
ATOM     39  N   UNL A   1      42.003  26.899  28.700  1.00  0.00    -0.354 N 
ATOM     40  C   UNL A   1      46.237  26.076  28.521  1.00  0.00     0.074 A 
ATOM     41  C   UNL A   1      46.482  24.702  28.141  1.00  0.00     0.031 C 
ATOM     42  C   UNL A   1      39.822  26.419  28.577  1.00  0.00     0.029 A 
ATOM     43  C   UNL A   1      40.774  27.473  28.913  1.00  0.00     0.049 A 
ATOM     44  H   UNL A   1      42.853  27.373  28.847  1.00  0.00     0.167 HD
ATOM     45  C   UNL A   1      47.212  26.977  28.790  1.00  0.00     0.037 A 
ATOM     46  C   UNL A   1      40.452  28.713  29.325  1.00  0.00     0.037 A 
ATOM     47  C   UNL A   1      46.967  28.350  29.147  1.00  0.00     0.049 A 
ATOM     48  C   UNL A   1      41.548  29.709  29.582  1.00  0.00     0.074 A 
ATOM     49  C   UNL A   1      47.883  29.357  29.391  1.00  0.00     0.029 A 
ATOM     50  N   UNL A   1      45.707  28.908  29.308  1.00  0.00    -0.354 N 
ATOM     51  N   UNL A   1      42.847  29.545  29.515  1.00  0.00    -0.248 NA
ATOM     52  C   UNL A   1      41.132  31.070  29.951  1.00  0.00     0.031 C 
ATOM     53  C   UNL A   1      47.178  30.516  29.732  1.00  0.00     0.029 A 
ATOM     54  C   UNL A   1      45.822  30.243  29.659  1.00  0.00     0.049 A 
ATOM     55  H   UNL A   1      44.856  28.426  29.190  1.00  0.00     0.167 HD
ATOM     56  C   UNL A   1      43.404  30.782  29.810  1.00  0.00     0.074 A 
ATOM     57  C   UNL A   1      42.300  31.692  30.040  1.00  0.00     0.031 C 
ATOM     58  C   UNL A   1      44.711  31.134  29.884  1.00  0.00     0.037 A 
BRANCH  45  59
ATOM     59  C   UNL A   1      48.631  26.496  28.698  1.00  0.00     0.057 A 
ATOM     60  C   UNL A   1      49.321  26.015  29.820  1.00  0.00     0.134 A 
ATOM     61  C   UNL A   1      49.319  26.516  27.478  1.00  0.00     0.134 A 
ATOM     62  F   UNL A   1      48.725  25.983  31.021  1.00  0.00    -0.206 F 
ATOM     63  C   UNL A   1      50.655  25.609  29.740  1.00  0.00     0.040 A 
ATOM     64  C   UNL A   1      50.643  26.086  27.381  1.00  0.00     0.040 A 
ATOM     65  F   UNL A   1      48.718  26.958  26.364  1.00  0.00    -0.206 F 
ATOM     66  C   UNL A   1      51.318  25.640  28.516  1.00  0.00     0.006 A 
ENDBRANCH  45  59
BRANCH  46  67
ATOM     67  C   UNL A   1      39.026  29.088  29.476  1.00  0.00     0.057 A 
ATOM     68  C   UNL A   1      38.291  29.595  28.397  1.00  0.00     0.134 A 
ATOM     69  C   UNL A   1      38.357  28.928  30.695  1.00  0.00     0.134 A 
ATOM     70  F   UNL A   1      38.883  29.784  27.208  1.00  0.00    -0.206 F 
ATOM     71  C   UNL A   1      36.947  29.941  28.527  1.00  0.00     0.040 A 
ATOM     72  C   UNL A   1      37.006  29.250  30.834  1.00  0.00     0.040 A 
ATOM     73  F   UNL A   1      39.003  28.437  31.763  1.00  0.00    -0.206 F 
ATOM     74  C   UNL A   1      36.299  29.763  29.749  1.00  0.00     0.006 A 
ENDBRANCH  46  67
BRANCH  58  75
ATOM     75  C   UNL A   1      45.015  32.568  30.202  1.00  0.00     0.057 A 
ATOM     76  C   UNL A   1      45.119  33.541  29.200  1.00  0.00     0.134 A 
ATOM     77  C   UNL A   1      45.178  32.985  31.529  1.00  0.00     0.134 A 
ATOM     78  F   UNL A   1      44.985  33.204  27.908  1.00  0.00    -0.206 F 
ATOM     79  C   UNL A   1      45.402  34.873  29.505  1.00  0.00     0.040 A 
ATOM     80  C   UNL A   1      45.436  34.317  31.849  1.00  0.00     0.040 A 
ATOM     81  F   UNL A   1      45.082  32.103  32.536  1.00  0.00    -0.206 F 
ATOM     82  C   UNL A   1      45.555  35.265  30.834  1.00  0.00     0.006 A 
ENDBRANCH  58  75
ENDBRANCH  32  33
ENDBRANCH  24  27
ENDBRANCH  22  23
ENDBRANCH  21  22
ENDBRANCH  20  21
ENDBRANCH   1  20
TORSDOF 15
ENDMDL
MODEL 3
REMARK VINA RESULT:     -10.7      5.658      9.792
REMARK SMILES CN(C)c1cccc(C(C)(C)C(=O)NCCCCCCNC(=O)c2ccc(-c3c4nc(c(-c5c(F)cccc5F)c5ccc([nH]5)c(-c5c(F)cccc5F)c5nc(c(-c6c(F)cccc6F)c6ccc3[nH]6)C=C5)C=C4)cc2)c1
REMARK SMILES IDX 17 1 16 2 15 3 14 4 12 5 13 6 9 8 10 9 11 10 8 11 4 12 5 13
REMARK SMILES IDX 78 14 6 15 7 16 2 17 1 18 3 19 18 20 19 21 20 22 21 23 22 24
REMARK SMILES IDX 23 26 24 27 25 28 77 29 26 30 76 31 27 32 28 33 29 34 70 35
REMARK SMILES IDX 30 36 75 37 69 38 71 39 31 40 74 41 68 42 67 43 32 45 58 46
REMARK SMILES IDX 41 47 57 48 42 49 45 50 56 51 72 52 43 53 44 54 55 56 73 57
REMARK SMILES IDX 46 58 33 59 34 60 39 61 35 62 36 63 38 64 40 65 37 66 59 67
REMARK SMILES IDX 60 68 65 69 61 70 62 71 64 72 66 73 63 74 47 75 48 76 53 77
REMARK SMILES IDX 49 78 50 79 52 80 54 81 51 82
REMARK H PARENT 14 7 21 25 71 44 45 55
REMARK Flexibility Score: inf
ROOT
ATOM      1  C   UNL A   1      33.112  30.070  26.813  1.00  0.00     0.002 C 
ENDROOT
BRANCH   1   2
ATOM      2  C   UNL A   1      33.226  28.624  27.315  1.00  0.00     0.021 C 
BRANCH   2   3
ATOM      3  C   UNL A   1      32.375  27.618  26.544  1.00  0.00     0.116 C 
BRANCH   3   4
ATOM      4  N   UNL A   1      33.214  26.705  25.792  1.00  0.00    -0.355 N 
ATOM      5  C   UNL A   1      33.415  26.468  24.467  1.00  0.00     0.230 C 
ATOM      6  O   UNL A   1      34.172  25.513  24.275  1.00  0.00    -0.274 OA
ATOM      7  H   UNL A   1      33.761  26.127  26.371  1.00  0.00     0.163 HD
BRANCH   5   8
ATOM      8  C   UNL A   1      32.782  27.348  23.340  1.00  0.00     0.068 C 
ATOM      9  C   UNL A   1      33.121  26.648  21.998  1.00  0.00     0.026 C 
ATOM     10  C   UNL A   1      33.368  28.776  23.424  1.00  0.00     0.026 C 
BRANCH   8  11
ATOM     11  C   UNL A   1      31.228  27.526  23.355  1.00  0.00    -0.031 A 
ATOM     12  C   UNL A   1      29.162  28.884  23.127  1.00  0.00     0.036 A 
ATOM     13  C   UNL A   1      28.413  27.764  23.500  1.00  0.00     0.026 A 
ATOM     14  C   UNL A   1      30.560  28.723  23.037  1.00  0.00     0.030 A 
ATOM     15  C   UNL A   1      29.025  26.545  23.777  1.00  0.00     0.002 A 
ATOM     16  C   UNL A   1      30.412  26.431  23.708  1.00  0.00     0.005 A 
BRANCH  12  17
ATOM     17  N   UNL A   1      28.539  30.107  22.870  1.00  0.00    -0.378 N 
ATOM     18  C   UNL A   1      28.066  30.414  21.526  1.00  0.00     0.143 C 
ATOM     19  C   UNL A   1      28.962  31.233  23.695  1.00  0.00     0.143 C 
ENDBRANCH  12  17
ENDBRANCH   8  11
ENDBRANCH   5   8
ENDBRANCH   3   4
ENDBRANCH   2   3
ENDBRANCH   1   2
BRANCH   1  20
ATOM     20  C   UNL A   1      31.689  30.552  26.512  1.00  0.00     0.002 C 
BRANCH  20  21
ATOM     21  C   UNL A   1      31.434  32.038  26.772  1.00  0.00     0.021 C 
BRANCH  21  22
ATOM     22  C   UNL A   1      32.690  32.892  26.879  1.00  0.00     0.116 C 
BRANCH  22  23
ATOM     23  N   UNL A   1      32.446  34.151  27.559  1.00  0.00    -0.352 N 
ATOM     24  C   UNL A   1      33.033  34.648  28.691  1.00  0.00     0.251 C 
ATOM     25  H   UNL A   1      31.762  34.728  27.149  1.00  0.00     0.163 HD
ATOM     26  O   UNL A   1      32.584  35.665  29.221  1.00  0.00    -0.269 OA
BRANCH  24  27
ATOM     27  C   UNL A   1      34.196  33.962  29.294  1.00  0.00     0.039 A 
ATOM     28  C   UNL A   1      35.480  34.387  28.943  1.00  0.00     0.014 A 
ATOM     29  C   UNL A   1      34.030  32.881  30.168  1.00  0.00     0.014 A 
ATOM     30  C   UNL A   1      36.595  33.746  29.484  1.00  0.00     0.010 A 
ATOM     31  C   UNL A   1      35.142  32.290  30.763  1.00  0.00     0.010 A 
ATOM     32  C   UNL A   1      36.434  32.699  30.407  1.00  0.00    -0.014 A 
BRANCH  32  33
ATOM     33  C   UNL A   1      37.615  31.991  30.959  1.00  0.00     0.031 A 
ATOM     34  C   UNL A   1      38.114  32.320  32.338  1.00  0.00     0.074 A 
ATOM     35  C   UNL A   1      38.258  31.076  30.208  1.00  0.00     0.049 A 
ATOM     36  N   UNL A   1      39.130  31.815  32.993  1.00  0.00    -0.248 NA
ATOM     37  C   UNL A   1      37.396  33.378  33.066  1.00  0.00     0.031 C 
ATOM     38  C   UNL A   1      37.909  30.714  28.833  1.00  0.00     0.029 A 
ATOM     39  N   UNL A   1      39.342  30.288  30.498  1.00  0.00    -0.354 N 
ATOM     40  C   UNL A   1      39.176  32.499  34.201  1.00  0.00     0.074 A 
ATOM     41  C   UNL A   1      38.130  33.497  34.162  1.00  0.00     0.031 C 
ATOM     42  C   UNL A   1      38.752  29.759  28.406  1.00  0.00     0.029 A 
ATOM     43  C   UNL A   1      39.708  29.457  29.467  1.00  0.00     0.049 A 
ATOM     44  H   UNL A   1      39.812  30.314  31.362  1.00  0.00     0.167 HD
ATOM     45  C   UNL A   1      39.995  32.296  35.261  1.00  0.00     0.037 A 
ATOM     46  C   UNL A   1      40.699  28.551  29.390  1.00  0.00     0.037 A 
ATOM     47  C   UNL A   1      41.021  31.287  35.307  1.00  0.00     0.049 A 
ATOM     48  C   UNL A   1      41.572  28.313  30.590  1.00  0.00     0.074 A 
ATOM     49  C   UNL A   1      41.871  30.966  36.350  1.00  0.00     0.029 A 
ATOM     50  N   UNL A   1      41.332  30.434  34.259  1.00  0.00    -0.354 N 
ATOM     51  N   UNL A   1      41.560  28.917  31.754  1.00  0.00    -0.248 NA
ATOM     52  C   UNL A   1      42.584  27.254  30.473  1.00  0.00     0.031 C 
ATOM     53  C   UNL A   1      42.720  29.939  35.920  1.00  0.00     0.029 A 
ATOM     54  C   UNL A   1      42.369  29.593  34.625  1.00  0.00     0.049 A 
ATOM     55  H   UNL A   1      40.881  30.427  33.383  1.00  0.00     0.167 HD
ATOM     56  C   UNL A   1      42.543  28.298  32.515  1.00  0.00     0.074 A 
ATOM     57  C   UNL A   1      43.121  27.261  31.685  1.00  0.00     0.031 C 
ATOM     58  C   UNL A   1      42.932  28.565  33.786  1.00  0.00     0.037 A 
BRANCH  45  59
ATOM     59  C   UNL A   1      39.799  33.184  36.455  1.00  0.00     0.057 A 
ATOM     60  C   UNL A   1      40.529  34.369  36.620  1.00  0.00     0.134 A 
ATOM     61  C   UNL A   1      38.876  32.852  37.455  1.00  0.00     0.134 A 
ATOM     62  F   UNL A   1      41.440  34.739  35.707  1.00  0.00    -0.206 F 
ATOM     63  C   UNL A   1      40.377  35.171  37.754  1.00  0.00     0.040 A 
ATOM     64  C   UNL A   1      38.695  33.660  38.579  1.00  0.00     0.040 A 
ATOM     65  F   UNL A   1      38.141  31.734  37.360  1.00  0.00    -0.206 F 
ATOM     66  C   UNL A   1      39.454  34.819  38.735  1.00  0.00     0.006 A 
ENDBRANCH  45  59
BRANCH  46  67
ATOM     67  C   UNL A   1      40.884  27.771  28.143  1.00  0.00     0.057 A 
ATOM     68  C   UNL A   1      40.250  26.537  27.958  1.00  0.00     0.134 A 
ATOM     69  C   UNL A   1      41.679  28.252  27.096  1.00  0.00     0.134 A 
ATOM     70  F   UNL A   1      39.487  26.018  28.932  1.00  0.00    -0.206 F 
ATOM     71  C   UNL A   1      40.410  25.801  26.784  1.00  0.00     0.040 A 
ATOM     72  C   UNL A   1      41.832  27.538  25.907  1.00  0.00     0.040 A 
ATOM     73  F   UNL A   1      42.304  29.434  27.208  1.00  0.00    -0.206 F 
ATOM     74  C   UNL A   1      41.199  26.306  25.751  1.00  0.00     0.006 A 
ENDBRANCH  46  67
BRANCH  58  75
ATOM     75  C   UNL A   1      44.016  27.703  34.363  1.00  0.00     0.057 A 
ATOM     76  C   UNL A   1      45.367  28.066  34.288  1.00  0.00     0.134 A 
ATOM     77  C   UNL A   1      43.701  26.509  35.025  1.00  0.00     0.134 A 
ATOM     78  F   UNL A   1      45.735  29.191  33.657  1.00  0.00    -0.206 F 
ATOM     79  C   UNL A   1      46.368  27.258  34.828  1.00  0.00     0.040 A 
ATOM     80  C   UNL A   1      44.691  25.706  35.590  1.00  0.00     0.040 A 
ATOM     81  F   UNL A   1      42.426  26.110  35.138  1.00  0.00    -0.206 F 
ATOM     82  C   UNL A   1      46.030  26.077  35.488  1.00  0.00     0.006 A 
ENDBRANCH  58  75
ENDBRANCH  32  33
ENDBRANCH  24  27
ENDBRANCH  22  23
ENDBRANCH  21  22
ENDBRANCH  20  21
ENDBRANCH   1  20
TORSDOF 15
ENDMDL
