MODEL 1
REMARK VINA RESULT:     -12.5      0.000      0.000
REMARK SMILES CCc1sc(NC(=O)[C@H]2CC(C)=C(C)C[C@H]2C(=O)NCCCCCCNC(=O)c2ccc(-c3c4nc(c(-c5c(F)cccc5F)c5ccc([nH]5)c(-c5c(F)cccc5F)c5nc(c(-c6c(F)cccc6F)c6ccc3[nH]6)C=C5)C=C4)cc2)nc1-c1ccccc1
REMARK SMILES IDX 22 1 21 2 20 3 19 4 17 5 18 6 16 8 9 9 10 10 11 11 15 12
REMARK SMILES IDX 12 13 13 14 14 15 7 16 6 17 8 19 5 20 3 21 4 22 84 23 83 24
REMARK SMILES IDX 2 25 1 26 85 27 86 28 90 29 87 30 89 31 88 32 23 33 24 34
REMARK SMILES IDX 25 35 26 36 27 37 28 39 29 40 30 41 82 42 31 43 81 44 32 45
REMARK SMILES IDX 33 46 34 47 75 48 35 49 80 50 74 51 76 52 36 53 79 54 73 55
REMARK SMILES IDX 72 56 37 58 63 59 46 60 62 61 47 62 50 63 61 64 77 65 48 66
REMARK SMILES IDX 49 67 60 69 78 70 51 71 38 72 39 73 44 74 40 75 41 76 43 77
REMARK SMILES IDX 45 78 42 79 64 80 65 81 70 82 66 83 67 84 69 85 71 86 68 87
REMARK SMILES IDX 52 88 53 89 58 90 54 91 55 92 57 93 59 94 56 95
REMARK H PARENT 19 7 6 18 26 38 76 57 50 68
REMARK Flexibility Score: inf
ROOT
ATOM      1  C   UNL A   1      36.027  21.331  25.614  1.00  0.00     0.002 C 
ENDROOT
BRANCH   1   2
ATOM      2  C   UNL A   1      35.940  22.804  26.011  1.00  0.00     0.021 C 
BRANCH   2   3
ATOM      3  C   UNL A   1      35.028  23.626  25.113  1.00  0.00     0.116 C 
BRANCH   3   4
ATOM      4  N   UNL A   1      34.498  24.771  25.807  1.00  0.00    -0.356 N 
ATOM      5  C   UNL A   1      33.455  25.583  25.506  1.00  0.00     0.224 C 
ATOM      6  O   UNL A   1      33.154  26.438  26.346  1.00  0.00    -0.275 OA
ATOM      7  H   UNL A   1      34.972  25.002  26.639  1.00  0.00     0.163 HD
BRANCH   5   8
ATOM      8  C   UNL A   1      32.587  25.391  24.256  1.00  0.00     0.095 C 
ATOM      9  C   UNL A   1      31.124  24.873  24.418  1.00  0.00     0.095 C 
ATOM     10  C   UNL A   1      30.069  25.931  24.085  1.00  0.00     0.045 C 
ATOM     11  C   UNL A   1      30.413  27.228  23.422  1.00  0.00    -0.074 C 
ATOM     12  C   UNL A   1      32.816  26.593  23.311  1.00  0.00     0.045 C 
ATOM     13  C   UNL A   1      29.209  28.117  23.223  1.00  0.00     0.039 C 
ATOM     14  C   UNL A   1      31.674  27.550  23.095  1.00  0.00    -0.074 C 
ATOM     15  C   UNL A   1      32.029  28.890  22.508  1.00  0.00     0.039 C 
BRANCH   9  16
ATOM     16  C   UNL A   1      30.930  24.057  25.735  1.00  0.00     0.230 C 
ATOM     17  N   UNL A   1      31.121  22.720  25.917  1.00  0.00    -0.302 N 
ATOM     18  H   UNL A   1      30.719  22.377  26.747  1.00  0.00     0.172 HD
ATOM     19  O   UNL A   1      30.532  24.658  26.744  1.00  0.00    -0.274 OA
BRANCH  17  20
ATOM     20  C   UNL A   1      31.755  21.760  25.185  1.00  0.00     0.190 A 
ATOM     21  C   UNL A   1      32.317  20.298  23.375  1.00  0.00     0.034 A 
ATOM     22  S   UNL A   1      32.141  22.018  23.547  1.00  0.00    -0.101 S 
ATOM     23  C   UNL A   1      32.631  19.812  24.641  1.00  0.00     0.087 A 
ATOM     24  N   UNL A   1      32.263  20.658  25.688  1.00  0.00    -0.220 NA
BRANCH  21  25
ATOM     25  C   UNL A   1      32.117  19.711  22.007  1.00  0.00     0.046 C 
ATOM     26  C   UNL A   1      32.151  18.201  21.866  1.00  0.00     0.010 C 
ENDBRANCH  21  25
BRANCH  23  27
ATOM     27  C   UNL A   1      33.229  18.512  24.892  1.00  0.00     0.001 A 
ATOM     28  C   UNL A   1      34.541  18.266  24.459  1.00  0.00     0.010 A 
ATOM     29  C   UNL A   1      32.521  17.494  25.533  1.00  0.00     0.010 A 
ATOM     30  C   UNL A   1      35.104  16.995  24.572  1.00  0.00     0.001 A 
ATOM     31  C   UNL A   1      33.102  16.229  25.670  1.00  0.00     0.001 A 
ATOM     32  C   UNL A   1      34.377  15.971  25.168  1.00  0.00     0.000 A 
ENDBRANCH  23  27
ENDBRANCH  17  20
ENDBRANCH   9  16
ENDBRANCH   5   8
ENDBRANCH   3   4
ENDBRANCH   2   3
ENDBRANCH   1   2
BRANCH   1  33
ATOM     33  C   UNL A   1      37.070  21.021  24.538  1.00  0.00     0.002 C 
BRANCH  33  34
ATOM     34  C   UNL A   1      38.009  19.858  24.866  1.00  0.00     0.021 C 
BRANCH  34  35
ATOM     35  C   UNL A   1      38.997  20.145  25.991  1.00  0.00     0.116 C 
BRANCH  35  36
ATOM     36  N   UNL A   1      40.165  19.281  25.916  1.00  0.00    -0.352 N 
ATOM     37  C   UNL A   1      41.495  19.601  26.020  1.00  0.00     0.251 C 
ATOM     38  H   UNL A   1      39.973  18.327  25.771  1.00  0.00     0.163 HD
ATOM     39  O   UNL A   1      42.356  18.790  25.700  1.00  0.00    -0.269 OA
BRANCH  37  40
ATOM     40  C   UNL A   1      41.887  20.935  26.518  1.00  0.00     0.039 A 
ATOM     41  C   UNL A   1      42.298  21.914  25.611  1.00  0.00     0.014 A 
ATOM     42  C   UNL A   1      41.858  21.210  27.887  1.00  0.00     0.014 A 
ATOM     43  C   UNL A   1      42.633  23.189  26.074  1.00  0.00     0.010 A 
ATOM     44  C   UNL A   1      42.107  22.501  28.332  1.00  0.00     0.010 A 
ATOM     45  C   UNL A   1      42.516  23.497  27.438  1.00  0.00    -0.014 A 
BRANCH  45  46
ATOM     46  C   UNL A   1      42.795  24.850  27.974  1.00  0.00     0.031 A 
ATOM     47  C   UNL A   1      44.184  25.219  28.416  1.00  0.00     0.074 A 
ATOM     48  C   UNL A   1      41.771  25.700  28.178  1.00  0.00     0.049 A 
ATOM     49  N   UNL A   1      44.608  26.323  28.975  1.00  0.00    -0.248 NA
ATOM     50  C   UNL A   1      45.226  24.194  28.245  1.00  0.00     0.031 C 
ATOM     51  C   UNL A   1      40.368  25.422  27.869  1.00  0.00     0.029 A 
ATOM     52  N   UNL A   1      41.754  26.963  28.710  1.00  0.00    -0.354 N 
ATOM     53  C   UNL A   1      45.958  26.122  29.232  1.00  0.00     0.074 A 
ATOM     54  C   UNL A   1      46.266  24.766  28.832  1.00  0.00     0.031 C 
ATOM     55  C   UNL A   1      39.630  26.497  28.186  1.00  0.00     0.029 A 
ATOM     56  C   UNL A   1      40.502  27.524  28.750  1.00  0.00     0.049 A 
ATOM     57  H   UNL A   1      42.562  27.423  29.034  1.00  0.00     0.167 HD
ATOM     58  C   UNL A   1      46.866  26.997  29.727  1.00  0.00     0.037 A 
ATOM     59  C   UNL A   1      40.104  28.733  29.184  1.00  0.00     0.037 A 
ATOM     60  C   UNL A   1      46.554  28.351  30.107  1.00  0.00     0.049 A 
ATOM     61  C   UNL A   1      41.126  29.691  29.727  1.00  0.00     0.074 A 
ATOM     62  C   UNL A   1      47.411  29.347  30.540  1.00  0.00     0.029 A 
ATOM     63  N   UNL A   1      45.277  28.894  30.111  1.00  0.00    -0.354 N 
ATOM     64  N   UNL A   1      42.420  29.528  29.870  1.00  0.00    -0.248 NA
ATOM     65  C   UNL A   1      40.633  31.004  30.162  1.00  0.00     0.031 C 
ATOM     66  C   UNL A   1      46.647  30.475  30.856  1.00  0.00     0.029 A 
ATOM     67  C   UNL A   1      45.319  30.201  30.569  1.00  0.00     0.049 A 
ATOM     68  H   UNL A   1      44.461  28.420  29.831  1.00  0.00     0.167 HD
ATOM     69  C   UNL A   1      42.901  30.727  30.379  1.00  0.00     0.074 A 
ATOM     70  C   UNL A   1      41.759  31.609  30.513  1.00  0.00     0.031 C 
ATOM     71  C   UNL A   1      44.173  31.067  30.699  1.00  0.00     0.037 A 
BRANCH  58  72
ATOM     72  C   UNL A   1      48.281  26.510  29.879  1.00  0.00     0.057 A 
ATOM     73  C   UNL A   1      48.715  25.841  31.033  1.00  0.00     0.134 A 
ATOM     74  C   UNL A   1      49.221  26.706  28.859  1.00  0.00     0.134 A 
ATOM     75  F   UNL A   1      47.869  25.627  32.053  1.00  0.00    -0.206 F 
ATOM     76  C   UNL A   1      50.039  25.427  31.186  1.00  0.00     0.040 A 
ATOM     77  C   UNL A   1      50.540  26.266  28.987  1.00  0.00     0.040 A 
ATOM     78  F   UNL A   1      48.875  27.329  27.723  1.00  0.00    -0.206 F 
ATOM     79  C   UNL A   1      50.956  25.637  30.158  1.00  0.00     0.006 A 
ENDBRANCH  58  72
BRANCH  59  80
ATOM     80  C   UNL A   1      38.680  29.124  29.054  1.00  0.00     0.057 A 
ATOM     81  C   UNL A   1      37.825  29.072  30.160  1.00  0.00     0.134 A 
ATOM     82  C   UNL A   1      38.148  29.589  27.846  1.00  0.00     0.134 A 
ATOM     83  F   UNL A   1      38.276  28.624  31.341  1.00  0.00    -0.206 F 
ATOM     84  C   UNL A   1      36.487  29.460  30.069  1.00  0.00     0.040 A 
ATOM     85  C   UNL A   1      36.819  30.000  27.745  1.00  0.00     0.040 A 
ATOM     86  F   UNL A   1      38.922  29.673  26.753  1.00  0.00    -0.206 F 
ATOM     87  C   UNL A   1      35.983  29.932  28.860  1.00  0.00     0.006 A 
ENDBRANCH  59  80
BRANCH  71  88
ATOM     88  C   UNL A   1      44.404  32.465  31.197  1.00  0.00     0.057 A 
ATOM     89  C   UNL A   1      44.428  32.773  32.563  1.00  0.00     0.134 A 
ATOM     90  C   UNL A   1      44.639  33.511  30.295  1.00  0.00     0.134 A 
ATOM     91  F   UNL A   1      44.197  31.820  33.478  1.00  0.00    -0.206 F 
ATOM     92  C   UNL A   1      44.655  34.074  33.014  1.00  0.00     0.040 A 
ATOM     93  C   UNL A   1      44.896  34.810  30.733  1.00  0.00     0.040 A 
ATOM     94  F   UNL A   1      44.638  33.285  28.972  1.00  0.00    -0.206 F 
ATOM     95  C   UNL A   1      44.898  35.096  32.098  1.00  0.00     0.006 A 
ENDBRANCH  71  88
ENDBRANCH  45  46
ENDBRANCH  37  40
ENDBRANCH  35  36
ENDBRANCH  34  35
ENDBRANCH  33  34
ENDBRANCH   1  33
TORSDOF 17
ENDMDL
MODEL 2
REMARK VINA RESULT:     -12.4      1.878      7.740
REMARK SMILES CCc1sc(NC(=O)[C@H]2CC(C)=C(C)C[C@H]2C(=O)NCCCCCCNC(=O)c2ccc(-c3c4nc(c(-c5c(F)cccc5F)c5ccc([nH]5)c(-c5c(F)cccc5F)c5nc(c(-c6c(F)cccc6F)c6ccc3[nH]6)C=C5)C=C4)cc2)nc1-c1ccccc1
REMARK SMILES IDX 22 1 21 2 20 3 19 4 17 5 18 6 16 8 9 9 10 10 11 11 15 12
REMARK SMILES IDX 12 13 13 14 14 15 7 16 6 17 8 19 5 20 3 21 4 22 84 23 83 24
REMARK SMILES IDX 2 25 1 26 85 27 86 28 90 29 87 30 89 31 88 32 23 33 24 34
REMARK SMILES IDX 25 35 26 36 27 37 28 39 29 40 30 41 82 42 31 43 81 44 32 45
REMARK SMILES IDX 33 46 34 47 75 48 35 49 80 50 74 51 76 52 36 53 79 54 73 55
REMARK SMILES IDX 72 56 37 58 63 59 46 60 62 61 47 62 50 63 61 64 77 65 48 66
REMARK SMILES IDX 49 67 60 69 78 70 51 71 38 72 39 73 44 74 40 75 41 76 43 77
REMARK SMILES IDX 45 78 42 79 64 80 65 81 70 82 66 83 67 84 69 85 71 86 68 87
REMARK SMILES IDX 52 88 53 89 58 90 54 91 55 92 57 93 59 94 56 95
REMARK H PARENT 19 7 6 18 26 38 76 57 50 68
REMARK Flexibility Score: inf
ROOT
ATOM      1  C   UNL A   1      35.200  18.918  24.613  1.00  0.00     0.002 C 
ENDROOT
BRANCH   1   2
ATOM      2  C   UNL A   1      33.795  19.517  24.637  1.00  0.00     0.021 C 
BRANCH   2   3
ATOM      3  C   UNL A   1      33.777  21.025  24.842  1.00  0.00     0.116 C 
BRANCH   3   4
ATOM      4  N   UNL A   1      32.609  21.623  24.249  1.00  0.00    -0.356 N 
ATOM      5  C   UNL A   1      32.381  22.893  23.833  1.00  0.00     0.224 C 
ATOM      6  O   UNL A   1      31.308  23.106  23.257  1.00  0.00    -0.275 OA
ATOM      7  H   UNL A   1      31.850  21.008  24.125  1.00  0.00     0.163 HD
BRANCH   5   8
ATOM      8  C   UNL A   1      33.435  24.003  23.936  1.00  0.00     0.095 C 
ATOM      9  C   UNL A   1      33.737  24.638  25.329  1.00  0.00     0.095 C 
ATOM     10  C   UNL A   1      35.126  24.285  25.865  1.00  0.00     0.045 C 
ATOM     11  C   UNL A   1      36.170  23.625  25.019  1.00  0.00    -0.074 C 
ATOM     12  C   UNL A   1      34.644  23.613  23.054  1.00  0.00     0.045 C 
ATOM     13  C   UNL A   1      37.448  23.353  25.777  1.00  0.00     0.039 C 
ATOM     14  C   UNL A   1      35.943  23.286  23.740  1.00  0.00    -0.074 C 
ATOM     15  C   UNL A   1      36.963  22.545  22.919  1.00  0.00     0.039 C 
BRANCH   9  16
ATOM     16  C   UNL A   1      32.533  24.500  26.313  1.00  0.00     0.230 C 
ATOM     17  N   UNL A   1      31.705  25.490  26.754  1.00  0.00    -0.302 N 
ATOM     18  H   UNL A   1      31.172  25.232  27.540  1.00  0.00     0.172 HD
ATOM     19  O   UNL A   1      32.288  23.381  26.788  1.00  0.00    -0.274 OA
BRANCH  17  20
ATOM     20  C   UNL A   1      31.465  26.763  26.329  1.00  0.00     0.190 A 
ATOM     21  C   UNL A   1      31.095  28.634  24.884  1.00  0.00     0.034 A 
ATOM     22  S   UNL A   1      30.351  27.077  25.081  1.00  0.00    -0.101 S 
ATOM     23  C   UNL A   1      31.673  28.946  26.112  1.00  0.00     0.087 A 
ATOM     24  N   UNL A   1      31.917  27.841  26.928  1.00  0.00    -0.220 NA
BRANCH  21  25
ATOM     25  C   UNL A   1      30.983  29.295  23.540  1.00  0.00     0.046 C 
ATOM     26  C   UNL A   1      29.595  29.528  22.973  1.00  0.00     0.010 C 
ENDBRANCH  21  25
BRANCH  23  27
ATOM     27  C   UNL A   1      32.062  30.287  26.514  1.00  0.00     0.001 A 
ATOM     28  C   UNL A   1      33.299  30.480  27.148  1.00  0.00     0.010 A 
ATOM     29  C   UNL A   1      31.224  31.384  26.307  1.00  0.00     0.010 A 
ATOM     30  C   UNL A   1      33.653  31.729  27.657  1.00  0.00     0.001 A 
ATOM     31  C   UNL A   1      31.598  32.640  26.794  1.00  0.00     0.001 A 
ATOM     32  C   UNL A   1      32.794  32.809  27.491  1.00  0.00     0.000 A 
ENDBRANCH  23  27
ENDBRANCH  17  20
ENDBRANCH   9  16
ENDBRANCH   5   8
ENDBRANCH   3   4
ENDBRANCH   2   3
ENDBRANCH   1   2
BRANCH   1  33
ATOM     33  C   UNL A   1      36.313  19.885  25.024  1.00  0.00     0.002 C 
BRANCH  33  34
ATOM     34  C   UNL A   1      37.734  19.372  24.785  1.00  0.00     0.021 C 
BRANCH  34  35
ATOM     35  C   UNL A   1      38.773  19.919  25.758  1.00  0.00     0.116 C 
BRANCH  35  36
ATOM     36  N   UNL A   1      39.931  19.044  25.859  1.00  0.00    -0.352 N 
ATOM     37  C   UNL A   1      41.244  19.359  26.098  1.00  0.00     0.251 C 
ATOM     38  H   UNL A   1      39.744  18.085  25.739  1.00  0.00     0.163 HD
ATOM     39  O   UNL A   1      42.125  18.527  25.918  1.00  0.00    -0.269 OA
BRANCH  37  40
ATOM     40  C   UNL A   1      41.594  20.713  26.573  1.00  0.00     0.039 A 
ATOM     41  C   UNL A   1      41.651  20.966  27.946  1.00  0.00     0.014 A 
ATOM     42  C   UNL A   1      41.854  21.733  25.656  1.00  0.00     0.014 A 
ATOM     43  C   UNL A   1      42.019  22.235  28.400  1.00  0.00     0.010 A 
ATOM     44  C   UNL A   1      42.303  22.965  26.112  1.00  0.00     0.010 A 
ATOM     45  C   UNL A   1      42.371  23.237  27.483  1.00  0.00    -0.014 A 
BRANCH  45  46
ATOM     46  C   UNL A   1      42.831  24.580  27.910  1.00  0.00     0.031 A 
ATOM     47  C   UNL A   1      41.833  25.658  28.229  1.00  0.00     0.074 A 
ATOM     48  C   UNL A   1      44.147  24.860  27.888  1.00  0.00     0.049 A 
ATOM     49  N   UNL A   1      42.040  26.910  28.549  1.00  0.00    -0.248 NA
ATOM     50  C   UNL A   1      40.411  25.290  28.135  1.00  0.00     0.031 C 
ATOM     51  C   UNL A   1      45.206  23.922  27.513  1.00  0.00     0.029 A 
ATOM     52  N   UNL A   1      44.815  26.024  28.172  1.00  0.00    -0.354 N 
ATOM     53  C   UNL A   1      40.781  27.479  28.683  1.00  0.00     0.074 A 
ATOM     54  C   UNL A   1      39.817  26.455  28.341  1.00  0.00     0.031 C 
ATOM     55  C   UNL A   1      46.393  24.538  27.622  1.00  0.00     0.029 A 
ATOM     56  C   UNL A   1      46.177  25.919  28.042  1.00  0.00     0.049 A 
ATOM     57  H   UNL A   1      44.361  26.854  28.442  1.00  0.00     0.167 HD
ATOM     58  C   UNL A   1      40.456  28.731  29.083  1.00  0.00     0.037 A 
ATOM     59  C   UNL A   1      47.143  26.833  28.247  1.00  0.00     0.037 A 
ATOM     60  C   UNL A   1      41.422  29.739  29.437  1.00  0.00     0.049 A 
ATOM     61  C   UNL A   1      46.763  28.215  28.694  1.00  0.00     0.074 A 
ATOM     62  C   UNL A   1      41.202  31.011  29.935  1.00  0.00     0.029 A 
ATOM     63  N   UNL A   1      42.797  29.590  29.316  1.00  0.00    -0.354 N 
ATOM     64  N   UNL A   1      45.571  28.714  28.917  1.00  0.00    -0.248 NA
ATOM     65  C   UNL A   1      47.864  29.159  28.924  1.00  0.00     0.031 C 
ATOM     66  C   UNL A   1      42.440  31.649  30.066  1.00  0.00     0.029 A 
ATOM     67  C   UNL A   1      43.436  30.757  29.701  1.00  0.00     0.049 A 
ATOM     68  H   UNL A   1      43.250  28.775  29.003  1.00  0.00     0.167 HD
ATOM     69  C   UNL A   1      45.778  30.018  29.346  1.00  0.00     0.074 A 
ATOM     70  C   UNL A   1      47.212  30.229  29.357  1.00  0.00     0.031 C 
ATOM     71  C   UNL A   1      44.865  30.954  29.704  1.00  0.00     0.037 A 
BRANCH  58  72
ATOM     72  C   UNL A   1      38.993  29.072  29.160  1.00  0.00     0.057 A 
ATOM     73  C   UNL A   1      38.283  29.550  28.048  1.00  0.00     0.134 A 
ATOM     74  C   UNL A   1      38.282  28.917  30.356  1.00  0.00     0.134 A 
ATOM     75  F   UNL A   1      38.904  29.731  26.872  1.00  0.00    -0.206 F 
ATOM     76  C   UNL A   1      36.936  29.904  28.136  1.00  0.00     0.040 A 
ATOM     77  C   UNL A   1      36.925  29.235  30.447  1.00  0.00     0.040 A 
ATOM     78  F   UNL A   1      38.892  28.456  31.458  1.00  0.00    -0.206 F 
ATOM     79  C   UNL A   1      36.251  29.743  29.338  1.00  0.00     0.006 A 
ENDBRANCH  58  72
BRANCH  59  80
ATOM     80  C   UNL A   1      48.564  26.439  28.097  1.00  0.00     0.057 A 
ATOM     81  C   UNL A   1      49.202  26.537  26.855  1.00  0.00     0.134 A 
ATOM     82  C   UNL A   1      49.327  25.993  29.182  1.00  0.00     0.134 A 
ATOM     83  F   UNL A   1      48.519  26.947  25.776  1.00  0.00    -0.206 F 
ATOM     84  C   UNL A   1      50.547  26.198  26.694  1.00  0.00     0.040 A 
ATOM     85  C   UNL A   1      50.677  25.671  29.041  1.00  0.00     0.040 A 
ATOM     86  F   UNL A   1      48.775  25.890  30.401  1.00  0.00    -0.206 F 
ATOM     87  C   UNL A   1      51.289  25.770  27.792  1.00  0.00     0.006 A 
ENDBRANCH  59  80
BRANCH  71  88
ATOM     88  C   UNL A   1      45.389  32.282  30.170  1.00  0.00     0.057 A 
ATOM     89  C   UNL A   1      45.718  32.522  31.510  1.00  0.00     0.134 A 
ATOM     90  C   UNL A   1      45.600  33.323  29.256  1.00  0.00     0.134 A 
ATOM     91  F   UNL A   1      45.528  31.571  32.437  1.00  0.00    -0.206 F 
ATOM     92  C   UNL A   1      46.216  33.756  31.928  1.00  0.00     0.040 A 
ATOM     93  C   UNL A   1      46.124  34.552  29.657  1.00  0.00     0.040 A 
ATOM     94  F   UNL A   1      45.313  33.157  27.956  1.00  0.00    -0.206 F 
ATOM     95  C   UNL A   1      46.428  34.774  30.999  1.00  0.00     0.006 A 
ENDBRANCH  71  88
ENDBRANCH  45  46
ENDBRANCH  37  40
ENDBRANCH  35  36
ENDBRANCH  34  35
ENDBRANCH  33  34
ENDBRANCH   1  33
TORSDOF 17
ENDMDL
MODEL 3
REMARK VINA RESULT:     -12.3      1.413      6.096
REMARK SMILES CCc1sc(NC(=O)[C@H]2CC(C)=C(C)C[C@H]2C(=O)NCCCCCCNC(=O)c2ccc(-c3c4nc(c(-c5c(F)cccc5F)c5ccc([nH]5)c(-c5c(F)cccc5F)c5nc(c(-c6c(F)cccc6F)c6ccc3[nH]6)C=C5)C=C4)cc2)nc1-c1ccccc1
REMARK SMILES IDX 22 1 21 2 20 3 19 4 17 5 18 6 16 8 9 9 10 10 11 11 15 12
REMARK SMILES IDX 12 13 13 14 14 15 7 16 6 17 8 19 5 20 3 21 4 22 84 23 83 24
REMARK SMILES IDX 2 25 1 26 85 27 86 28 90 29 87 30 89 31 88 32 23 33 24 34
REMARK SMILES IDX 25 35 26 36 27 37 28 39 29 40 30 41 82 42 31 43 81 44 32 45
REMARK SMILES IDX 33 46 34 47 75 48 35 49 80 50 74 51 76 52 36 53 79 54 73 55
REMARK SMILES IDX 72 56 37 58 63 59 46 60 62 61 47 62 50 63 61 64 77 65 48 66
REMARK SMILES IDX 49 67 60 69 78 70 51 71 38 72 39 73 44 74 40 75 41 76 43 77
REMARK SMILES IDX 45 78 42 79 64 80 65 81 70 82 66 83 67 84 69 85 71 86 68 87
REMARK SMILES IDX 52 88 53 89 58 90 54 91 55 92 57 93 59 94 56 95
REMARK H PARENT 19 7 6 18 26 38 76 57 50 68
REMARK Flexibility Score: inf
ROOT
ATOM      1  C   UNL A   1      36.150  21.421  25.723  1.00  0.00     0.002 C 
ENDROOT
BRANCH   1   2
ATOM      2  C   UNL A   1      36.137  22.946  25.819  1.00  0.00     0.021 C 
BRANCH   2   3
ATOM      3  C   UNL A   1      34.968  23.594  25.093  1.00  0.00     0.116 C 
BRANCH   3   4
ATOM      4  N   UNL A   1      34.511  24.775  25.778  1.00  0.00    -0.356 N 
ATOM      5  C   UNL A   1      33.488  25.620  25.499  1.00  0.00     0.224 C 
ATOM      6  O   UNL A   1      33.256  26.507  26.329  1.00  0.00    -0.275 OA
ATOM      7  H   UNL A   1      35.029  25.009  26.582  1.00  0.00     0.163 HD
BRANCH   5   8
ATOM      8  C   UNL A   1      32.561  25.431  24.292  1.00  0.00     0.095 C 
ATOM      9  C   UNL A   1      31.118  24.883  24.520  1.00  0.00     0.095 C 
ATOM     10  C   UNL A   1      30.028  25.925  24.259  1.00  0.00     0.045 C 
ATOM     11  C   UNL A   1      30.313  27.239  23.601  1.00  0.00    -0.074 C 
ATOM     12  C   UNL A   1      32.719  26.651  23.357  1.00  0.00     0.045 C 
ATOM     13  C   UNL A   1      29.084  28.107  23.478  1.00  0.00     0.039 C 
ATOM     14  C   UNL A   1      31.550  27.590  23.215  1.00  0.00    -0.074 C 
ATOM     15  C   UNL A   1      31.849  28.945  22.634  1.00  0.00     0.039 C 
BRANCH   9  16
ATOM     16  C   UNL A   1      31.006  24.042  25.832  1.00  0.00     0.230 C 
ATOM     17  N   UNL A   1      31.223  22.705  25.980  1.00  0.00    -0.302 N 
ATOM     18  H   UNL A   1      30.871  22.344  26.825  1.00  0.00     0.172 HD
ATOM     19  O   UNL A   1      30.659  24.621  26.871  1.00  0.00    -0.274 OA
BRANCH  17  20
ATOM     20  C   UNL A   1      31.825  21.765  25.197  1.00  0.00     0.190 A 
ATOM     21  C   UNL A   1      32.326  20.367  23.320  1.00  0.00     0.034 A 
ATOM     22  S   UNL A   1      32.181  22.082  23.562  1.00  0.00    -0.101 S 
ATOM     23  C   UNL A   1      32.657  19.827  24.559  1.00  0.00     0.087 A 
ATOM     24  N   UNL A   1      32.325  20.636  25.645  1.00  0.00    -0.220 NA
BRANCH  21  25
ATOM     25  C   UNL A   1      32.088  19.838  21.934  1.00  0.00     0.046 C 
ATOM     26  C   UNL A   1      32.155  18.338  21.722  1.00  0.00     0.010 C 
ENDBRANCH  21  25
BRANCH  23  27
ATOM     27  C   UNL A   1      33.238  18.508  24.745  1.00  0.00     0.001 A 
ATOM     28  C   UNL A   1      32.481  17.508  25.375  1.00  0.00     0.010 A 
ATOM     29  C   UNL A   1      34.541  18.219  24.335  1.00  0.00     0.010 A 
ATOM     30  C   UNL A   1      33.046  16.270  25.680  1.00  0.00     0.001 A 
ATOM     31  C   UNL A   1      35.092  16.965  24.619  1.00  0.00     0.001 A 
ATOM     32  C   UNL A   1      34.359  16.003  25.313  1.00  0.00     0.000 A 
ENDBRANCH  23  27
ENDBRANCH  17  20
ENDBRANCH   9  16
ENDBRANCH   5   8
ENDBRANCH   3   4
ENDBRANCH   2   3
ENDBRANCH   1   2
BRANCH   1  33
ATOM     33  C   UNL A   1      37.008  20.862  24.585  1.00  0.00     0.002 C 
BRANCH  33  34
ATOM     34  C   UNL A   1      37.974  19.748  24.994  1.00  0.00     0.021 C 
BRANCH  34  35
ATOM     35  C   UNL A   1      39.131  20.209  25.874  1.00  0.00     0.116 C 
BRANCH  35  36
ATOM     36  N   UNL A   1      40.164  19.191  25.985  1.00  0.00    -0.352 N 
ATOM     37  C   UNL A   1      41.522  19.335  26.112  1.00  0.00     0.251 C 
ATOM     38  H   UNL A   1      39.840  18.261  25.969  1.00  0.00     0.163 HD
ATOM     39  O   UNL A   1      42.266  18.374  25.957  1.00  0.00    -0.269 OA
BRANCH  37  40
ATOM     40  C   UNL A   1      42.087  20.661  26.433  1.00  0.00     0.039 A 
ATOM     41  C   UNL A   1      42.451  21.523  25.396  1.00  0.00     0.014 A 
ATOM     42  C   UNL A   1      42.266  21.045  27.764  1.00  0.00     0.014 A 
ATOM     43  C   UNL A   1      42.950  22.793  25.694  1.00  0.00     0.010 A 
ATOM     44  C   UNL A   1      42.679  22.338  28.054  1.00  0.00     0.010 A 
ATOM     45  C   UNL A   1      43.044  23.217  27.029  1.00  0.00    -0.014 A 
BRANCH  45  46
ATOM     46  C   UNL A   1      43.505  24.576  27.400  1.00  0.00     0.031 A 
ATOM     47  C   UNL A   1      42.513  25.623  27.826  1.00  0.00     0.074 A 
ATOM     48  C   UNL A   1      44.801  24.899  27.232  1.00  0.00     0.049 A 
ATOM     49  N   UNL A   1      42.715  26.883  28.119  1.00  0.00    -0.248 NA
ATOM     50  C   UNL A   1      41.102  25.209  27.891  1.00  0.00     0.031 C 
ATOM     51  C   UNL A   1      45.841  23.993  26.742  1.00  0.00     0.029 A 
ATOM     52  N   UNL A   1      45.457  26.085  27.437  1.00  0.00    -0.354 N 
ATOM     53  C   UNL A   1      41.460  27.412  28.391  1.00  0.00     0.074 A 
ATOM     54  C   UNL A   1      40.498  26.356  28.160  1.00  0.00     0.031 C 
ATOM     55  C   UNL A   1      47.013  24.647  26.718  1.00  0.00     0.029 A 
ATOM     56  C   UNL A   1      46.799  26.023  27.157  1.00  0.00     0.049 A 
ATOM     57  H   UNL A   1      45.009  26.901  27.755  1.00  0.00     0.167 HD
ATOM     58  C   UNL A   1      41.141  28.655  28.823  1.00  0.00     0.037 A 
ATOM     59  C   UNL A   1      47.752  26.968  27.251  1.00  0.00     0.037 A 
ATOM     60  C   UNL A   1      42.107  29.695  29.065  1.00  0.00     0.049 A 
ATOM     61  C   UNL A   1      47.379  28.340  27.735  1.00  0.00     0.074 A 
ATOM     62  C   UNL A   1      41.902  30.962  29.583  1.00  0.00     0.029 A 
ATOM     63  N   UNL A   1      43.464  29.590  28.793  1.00  0.00    -0.354 N 
ATOM     64  N   UNL A   1      46.204  28.802  28.089  1.00  0.00    -0.248 NA
ATOM     65  C   UNL A   1      48.468  29.321  27.840  1.00  0.00     0.031 C 
ATOM     66  C   UNL A   1      43.126  31.641  29.574  1.00  0.00     0.029 A 
ATOM     67  C   UNL A   1      44.103  30.779  29.102  1.00  0.00     0.049 A 
ATOM     68  H   UNL A   1      43.906  28.788  28.432  1.00  0.00     0.167 HD
ATOM     69  C   UNL A   1      46.415  30.114  28.490  1.00  0.00     0.074 A 
ATOM     70  C   UNL A   1      47.834  30.371  28.341  1.00  0.00     0.031 C 
ATOM     71  C   UNL A   1      45.517  31.021  28.946  1.00  0.00     0.037 A 
BRANCH  58  72
ATOM     72  C   UNL A   1      39.685  28.949  29.061  1.00  0.00     0.057 A 
ATOM     73  C   UNL A   1      38.851  29.442  28.046  1.00  0.00     0.134 A 
ATOM     74  C   UNL A   1      39.106  28.733  30.318  1.00  0.00     0.134 A 
ATOM     75  F   UNL A   1      39.343  29.680  26.819  1.00  0.00    -0.206 F 
ATOM     76  C   UNL A   1      37.512  29.752  28.283  1.00  0.00     0.040 A 
ATOM     77  C   UNL A   1      37.758  29.007  30.558  1.00  0.00     0.040 A 
ATOM     78  F   UNL A   1      39.839  28.255  31.334  1.00  0.00    -0.206 F 
ATOM     79  C   UNL A   1      36.960  29.531  29.543  1.00  0.00     0.006 A 
ENDBRANCH  58  72
BRANCH  59  80
ATOM     80  C   UNL A   1      49.160  26.620  26.945  1.00  0.00     0.057 A 
ATOM     81  C   UNL A   1      49.662  26.765  25.647  1.00  0.00     0.134 A 
ATOM     82  C   UNL A   1      50.043  26.172  27.934  1.00  0.00     0.134 A 
ATOM     83  F   UNL A   1      48.859  27.179  24.655  1.00  0.00    -0.206 F 
ATOM     84  C   UNL A   1      50.991  26.469  25.339  1.00  0.00     0.040 A 
ATOM     85  C   UNL A   1      51.380  25.893  27.645  1.00  0.00     0.040 A 
ATOM     86  F   UNL A   1      49.625  26.025  29.200  1.00  0.00    -0.206 F 
ATOM     87  C   UNL A   1      51.855  26.038  26.342  1.00  0.00     0.006 A 
ENDBRANCH  59  80
BRANCH  71  88
ATOM     88  C   UNL A   1      46.046  32.368  29.349  1.00  0.00     0.057 A 
ATOM     89  C   UNL A   1      46.096  33.444  28.454  1.00  0.00     0.134 A 
ATOM     90  C   UNL A   1      46.480  32.598  30.661  1.00  0.00     0.134 A 
ATOM     91  F   UNL A   1      45.708  33.286  27.179  1.00  0.00    -0.206 F 
ATOM     92  C   UNL A   1      46.579  34.694  28.843  1.00  0.00     0.040 A 
ATOM     93  C   UNL A   1      46.938  33.850  31.070  1.00  0.00     0.040 A 
ATOM     94  F   UNL A   1      46.452  31.613  31.571  1.00  0.00    -0.206 F 
ATOM     95  C   UNL A   1      46.995  34.902  30.157  1.00  0.00     0.006 A 
ENDBRANCH  71  88
ENDBRANCH  45  46
ENDBRANCH  37  40
ENDBRANCH  35  36
ENDBRANCH  34  35
ENDBRANCH  33  34
ENDBRANCH   1  33
TORSDOF 17
ENDMDL
