MODEL 1
REMARK VINA RESULT:     -10.7      0.000      0.000
REMARK SMILES CCSc1cccc(-c2ccc([C@@H](C)C(=O)NCCCCCCNC(=O)c3ccc(-c4c5nc(c(-c6c(F)cccc6F)c6ccc([nH]6)c(-c6c(F)cccc6F)c6nc(c(-c7c(F)cccc7F)c7ccc4[nH]7)C=C6)C=C5)cc3)cc2)c1
REMARK SMILES IDX 19 1 18 2 17 3 15 4 16 5 13 7 14 8 12 9 9 10 10 11 82 12
REMARK SMILES IDX 11 13 81 14 8 15 4 16 5 17 83 18 6 19 7 20 3 21 2 22 1 23
REMARK SMILES IDX 20 24 21 25 22 26 23 27 24 28 25 29 26 31 27 32 28 33 80 34
REMARK SMILES IDX 29 35 79 36 30 37 31 38 32 39 73 40 33 41 78 42 72 43 74 44
REMARK SMILES IDX 34 45 77 46 71 47 70 48 35 50 61 51 44 52 60 53 45 54 48 55
REMARK SMILES IDX 59 56 75 57 46 58 47 59 58 61 76 62 49 63 36 64 37 65 42 66
REMARK SMILES IDX 38 67 39 68 41 69 43 70 40 71 62 72 63 73 68 74 64 75 65 76
REMARK SMILES IDX 67 77 69 78 66 79 50 80 51 81 56 82 52 83 53 84 55 85 57 86
REMARK SMILES IDX 54 87
REMARK H PARENT 17 6 24 30 74 49 48 60
REMARK Flexibility Score: inf
ROOT
ATOM      1  C   UNL A   1      30.474  26.429  24.771  1.00  0.00     0.021 C 
ENDROOT
BRANCH   1   2
ATOM      2  C   UNL A   1      30.355  25.159  23.924  1.00  0.00     0.116 C 
BRANCH   2   3
ATOM      3  N   UNL A   1      30.491  23.962  24.726  1.00  0.00    -0.356 N 
ATOM      4  C   UNL A   1      31.297  22.872  24.598  1.00  0.00     0.227 C 
ATOM      5  O   UNL A   1      31.116  21.957  25.411  1.00  0.00    -0.274 OA
ATOM      6  H   UNL A   1      29.891  23.929  25.505  1.00  0.00     0.163 HD
BRANCH   4   7
ATOM      7  C   UNL A   1      32.399  22.744  23.535  1.00  0.00     0.105 C 
ATOM      8  C   UNL A   1      32.140  21.641  22.506  1.00  0.00     0.023 C 
BRANCH   7   9
ATOM      9  C   UNL A   1      33.808  22.808  24.104  1.00  0.00    -0.036 A 
ATOM     10  C   UNL A   1      36.409  23.000  25.288  1.00  0.00    -0.018 A 
ATOM     11  C   UNL A   1      35.855  21.768  24.902  1.00  0.00     0.009 A 
ATOM     12  C   UNL A   1      35.630  24.141  25.047  1.00  0.00     0.009 A 
ATOM     13  C   UNL A   1      34.600  21.676  24.293  1.00  0.00     0.005 A 
ATOM     14  C   UNL A   1      34.348  24.047  24.483  1.00  0.00     0.005 A 
BRANCH  10  15
ATOM     15  C   UNL A   1      37.745  23.059  25.933  1.00  0.00    -0.017 A 
ATOM     16  C   UNL A   1      39.905  22.048  26.503  1.00  0.00     0.008 A 
ATOM     17  C   UNL A   1      40.351  23.269  27.010  1.00  0.00     0.015 A 
ATOM     18  C   UNL A   1      38.620  21.955  25.947  1.00  0.00     0.023 A 
ATOM     19  C   UNL A   1      39.498  24.363  27.040  1.00  0.00     0.002 A 
ATOM     20  C   UNL A   1      38.207  24.251  26.525  1.00  0.00     0.009 A 
BRANCH  16  21
ATOM     21  S   UNL A   1      40.990  20.633  26.513  1.00  0.00    -0.126 SA
BRANCH  21  22
ATOM     22  C   UNL A   1      42.582  21.441  26.903  1.00  0.00     0.071 C 
ATOM     23  C   UNL A   1      43.489  21.597  25.692  1.00  0.00     0.016 C 
ENDBRANCH  21  22
ENDBRANCH  16  21
ENDBRANCH  10  15
ENDBRANCH   7   9
ENDBRANCH   4   7
ENDBRANCH   2   3
ENDBRANCH   1   2
BRANCH   1  24
ATOM     24  C   UNL A   1      31.245  26.233  26.081  1.00  0.00     0.002 C 
BRANCH  24  25
ATOM     25  C   UNL A   1      32.582  26.983  26.174  1.00  0.00     0.002 C 
BRANCH  25  26
ATOM     26  C   UNL A   1      33.104  27.572  24.859  1.00  0.00     0.021 C 
BRANCH  26  27
ATOM     27  C   UNL A   1      33.891  28.874  25.002  1.00  0.00     0.116 C 
BRANCH  27  28
ATOM     28  N   UNL A   1      33.063  29.959  25.505  1.00  0.00    -0.352 N 
ATOM     29  C   UNL A   1      33.192  30.710  26.645  1.00  0.00     0.251 C 
ATOM     30  H   UNL A   1      32.291  30.189  24.940  1.00  0.00     0.163 HD
ATOM     31  O   UNL A   1      32.272  31.437  27.008  1.00  0.00    -0.269 OA
BRANCH  29  32
ATOM     32  C   UNL A   1      34.431  30.644  27.451  1.00  0.00     0.039 A 
ATOM     33  C   UNL A   1      34.777  29.431  28.057  1.00  0.00     0.014 A 
ATOM     34  C   UNL A   1      35.226  31.777  27.651  1.00  0.00     0.014 A 
ATOM     35  C   UNL A   1      35.947  29.341  28.813  1.00  0.00     0.010 A 
ATOM     36  C   UNL A   1      36.423  31.671  28.356  1.00  0.00     0.010 A 
ATOM     37  C   UNL A   1      36.794  30.453  28.946  1.00  0.00    -0.014 A 
BRANCH  37  38
ATOM     38  C   UNL A   1      38.075  30.356  29.691  1.00  0.00     0.031 A 
ATOM     39  C   UNL A   1      39.250  29.634  29.095  1.00  0.00     0.074 A 
ATOM     40  C   UNL A   1      38.156  30.864  30.936  1.00  0.00     0.049 A 
ATOM     41  N   UNL A   1      40.424  29.390  29.622  1.00  0.00    -0.248 NA
ATOM     42  C   UNL A   1      39.076  29.090  27.739  1.00  0.00     0.031 C 
ATOM     43  C   UNL A   1      37.071  31.545  31.645  1.00  0.00     0.029 A 
ATOM     44  N   UNL A   1      39.196  30.876  31.831  1.00  0.00    -0.354 N 
ATOM     45  C   UNL A   1      41.120  28.653  28.671  1.00  0.00     0.074 A 
ATOM     46  C   UNL A   1      40.223  28.453  27.553  1.00  0.00     0.031 C 
ATOM     47  C   UNL A   1      37.506  31.919  32.859  1.00  0.00     0.029 A 
ATOM     48  C   UNL A   1      38.889  31.480  33.025  1.00  0.00     0.049 A 
ATOM     49  H   UNL A   1      40.080  30.487  31.636  1.00  0.00     0.167 HD
ATOM     50  C   UNL A   1      42.395  28.201  28.718  1.00  0.00     0.037 A 
ATOM     51  C   UNL A   1      39.634  31.655  34.133  1.00  0.00     0.037 A 
ATOM     52  C   UNL A   1      43.297  28.428  29.817  1.00  0.00     0.049 A 
ATOM     53  C   UNL A   1      41.052  31.159  34.154  1.00  0.00     0.074 A 
ATOM     54  C   UNL A   1      44.631  28.073  29.927  1.00  0.00     0.029 A 
ATOM     55  N   UNL A   1      42.957  29.072  30.998  1.00  0.00    -0.354 N 
ATOM     56  N   UNL A   1      41.718  30.525  33.220  1.00  0.00    -0.248 NA
ATOM     57  C   UNL A   1      41.824  31.408  35.379  1.00  0.00     0.031 C 
ATOM     58  C   UNL A   1      45.087  28.468  31.189  1.00  0.00     0.029 A 
ATOM     59  C   UNL A   1      44.048  29.105  31.849  1.00  0.00     0.049 A 
ATOM     60  H   UNL A   1      42.070  29.448  31.200  1.00  0.00     0.167 HD
ATOM     61  C   UNL A   1      42.991  30.320  33.733  1.00  0.00     0.074 A 
ATOM     62  C   UNL A   1      43.009  30.910  35.056  1.00  0.00     0.031 C 
ATOM     63  C   UNL A   1      44.051  29.699  33.161  1.00  0.00     0.037 A 
BRANCH  50  64
ATOM     64  C   UNL A   1      42.897  27.416  27.542  1.00  0.00     0.057 A 
ATOM     65  C   UNL A   1      43.428  28.045  26.409  1.00  0.00     0.134 A 
ATOM     66  C   UNL A   1      42.888  26.016  27.560  1.00  0.00     0.134 A 
ATOM     67  F   UNL A   1      43.457  29.384  26.324  1.00  0.00    -0.206 F 
ATOM     68  C   UNL A   1      43.913  27.310  25.326  1.00  0.00     0.040 A 
ATOM     69  C   UNL A   1      43.391  25.269  26.493  1.00  0.00     0.040 A 
ATOM     70  F   UNL A   1      42.398  25.351  28.617  1.00  0.00    -0.206 F 
ATOM     71  C   UNL A   1      43.901  25.916  25.369  1.00  0.00     0.006 A 
ENDBRANCH  50  64
BRANCH  51  72
ATOM     72  C   UNL A   1      39.059  32.354  35.308  1.00  0.00     0.057 A 
ATOM     73  C   UNL A   1      39.159  33.744  35.440  1.00  0.00     0.134 A 
ATOM     74  C   UNL A   1      38.403  31.654  36.327  1.00  0.00     0.134 A 
ATOM     75  F   UNL A   1      39.792  34.467  34.506  1.00  0.00    -0.206 F 
ATOM     76  C   UNL A   1      38.641  34.411  36.552  1.00  0.00     0.040 A 
ATOM     77  C   UNL A   1      37.860  32.310  37.433  1.00  0.00     0.040 A 
ATOM     78  F   UNL A   1      38.268  30.321  36.254  1.00  0.00    -0.206 F 
ATOM     79  C   UNL A   1      37.986  33.693  37.550  1.00  0.00     0.006 A 
ENDBRANCH  51  72
BRANCH  63  80
ATOM     80  C   UNL A   1      45.323  29.650  33.952  1.00  0.00     0.057 A 
ATOM     81  C   UNL A   1      45.632  28.568  34.786  1.00  0.00     0.134 A 
ATOM     82  C   UNL A   1      46.267  30.681  33.849  1.00  0.00     0.134 A 
ATOM     83  F   UNL A   1      44.765  27.557  34.937  1.00  0.00    -0.206 F 
ATOM     84  C   UNL A   1      46.826  28.523  35.507  1.00  0.00     0.040 A 
ATOM     85  C   UNL A   1      47.475  30.636  34.548  1.00  0.00     0.040 A 
ATOM     86  F   UNL A   1      46.034  31.742  33.062  1.00  0.00    -0.206 F 
ATOM     87  C   UNL A   1      47.754  29.556  35.383  1.00  0.00     0.006 A 
ENDBRANCH  63  80
ENDBRANCH  37  38
ENDBRANCH  29  32
ENDBRANCH  27  28
ENDBRANCH  26  27
ENDBRANCH  25  26
ENDBRANCH  24  25
ENDBRANCH   1  24
TORSDOF 17
ENDMDL
MODEL 2
REMARK VINA RESULT:     -10.4      0.632      6.206
REMARK SMILES CCSc1cccc(-c2ccc([C@@H](C)C(=O)NCCCCCCNC(=O)c3ccc(-c4c5nc(c(-c6c(F)cccc6F)c6ccc([nH]6)c(-c6c(F)cccc6F)c6nc(c(-c7c(F)cccc7F)c7ccc4[nH]7)C=C6)C=C5)cc3)cc2)c1
REMARK SMILES IDX 19 1 18 2 17 3 15 4 16 5 13 7 14 8 12 9 9 10 10 11 82 12
REMARK SMILES IDX 11 13 81 14 8 15 4 16 5 17 83 18 6 19 7 20 3 21 2 22 1 23
REMARK SMILES IDX 20 24 21 25 22 26 23 27 24 28 25 29 26 31 27 32 28 33 80 34
REMARK SMILES IDX 29 35 79 36 30 37 31 38 32 39 73 40 33 41 78 42 72 43 74 44
REMARK SMILES IDX 34 45 77 46 71 47 70 48 35 50 61 51 44 52 60 53 45 54 48 55
REMARK SMILES IDX 59 56 75 57 46 58 47 59 58 61 76 62 49 63 36 64 37 65 42 66
REMARK SMILES IDX 38 67 39 68 41 69 43 70 40 71 62 72 63 73 68 74 64 75 65 76
REMARK SMILES IDX 67 77 69 78 66 79 50 80 51 81 56 82 52 83 53 84 55 85 57 86
REMARK SMILES IDX 54 87
REMARK H PARENT 17 6 24 30 74 49 48 60
REMARK Flexibility Score: inf
ROOT
ATOM      1  C   UNL A   1      30.153  26.325  24.636  1.00  0.00     0.021 C 
ENDROOT
BRANCH   1   2
ATOM      2  C   UNL A   1      30.280  25.183  23.624  1.00  0.00     0.116 C 
BRANCH   2   3
ATOM      3  N   UNL A   1      30.745  23.961  24.246  1.00  0.00    -0.356 N 
ATOM      4  C   UNL A   1      31.888  23.240  24.083  1.00  0.00     0.227 C 
ATOM      5  O   UNL A   1      31.959  22.175  24.708  1.00  0.00    -0.274 OA
ATOM      6  H   UNL A   1      30.121  23.582  24.905  1.00  0.00     0.163 HD
BRANCH   4   7
ATOM      7  C   UNL A   1      33.064  23.689  23.202  1.00  0.00     0.105 C 
ATOM      8  C   UNL A   1      33.024  23.121  21.781  1.00  0.00     0.023 C 
BRANCH   7   9
ATOM      9  C   UNL A   1      34.412  23.633  23.905  1.00  0.00    -0.036 A 
ATOM     10  C   UNL A   1      36.882  23.485  25.348  1.00  0.00    -0.018 A 
ATOM     11  C   UNL A   1      36.691  22.817  24.127  1.00  0.00     0.009 A 
ATOM     12  C   UNL A   1      35.804  24.248  25.821  1.00  0.00     0.009 A 
ATOM     13  C   UNL A   1      35.497  22.916  23.404  1.00  0.00     0.005 A 
ATOM     14  C   UNL A   1      34.587  24.307  25.124  1.00  0.00     0.005 A 
BRANCH  10  15
ATOM     15  C   UNL A   1      38.162  23.355  26.087  1.00  0.00    -0.017 A 
ATOM     16  C   UNL A   1      40.122  22.058  26.785  1.00  0.00     0.008 A 
ATOM     17  C   UNL A   1      40.687  23.201  27.352  1.00  0.00     0.015 A 
ATOM     18  C   UNL A   1      38.880  22.145  26.137  1.00  0.00     0.023 A 
ATOM     19  C   UNL A   1      39.986  24.399  27.348  1.00  0.00     0.002 A 
ATOM     20  C   UNL A   1      38.733  24.467  26.739  1.00  0.00     0.009 A 
BRANCH  16  21
ATOM     21  S   UNL A   1      41.007  20.511  26.838  1.00  0.00    -0.126 SA
BRANCH  21  22
ATOM     22  C   UNL A   1      42.644  21.047  26.223  1.00  0.00     0.071 C 
ATOM     23  C   UNL A   1      43.431  19.929  25.559  1.00  0.00     0.016 C 
ENDBRANCH  21  22
ENDBRANCH  16  21
ENDBRANCH  10  15
ENDBRANCH   7   9
ENDBRANCH   4   7
ENDBRANCH   2   3
ENDBRANCH   1   2
BRANCH   1  24
ATOM     24  C   UNL A   1      30.926  26.090  25.939  1.00  0.00     0.002 C 
BRANCH  24  25
ATOM     25  C   UNL A   1      32.258  26.844  26.056  1.00  0.00     0.002 C 
BRANCH  25  26
ATOM     26  C   UNL A   1      32.586  27.797  24.902  1.00  0.00     0.021 C 
BRANCH  26  27
ATOM     27  C   UNL A   1      33.631  28.864  25.221  1.00  0.00     0.116 C 
BRANCH  27  28
ATOM     28  N   UNL A   1      33.027  30.077  25.748  1.00  0.00    -0.352 N 
ATOM     29  C   UNL A   1      33.375  30.831  26.841  1.00  0.00     0.251 C 
ATOM     30  H   UNL A   1      32.249  30.408  25.245  1.00  0.00     0.163 HD
ATOM     31  O   UNL A   1      32.613  31.701  27.252  1.00  0.00    -0.269 OA
BRANCH  29  32
ATOM     32  C   UNL A   1      34.659  30.597  27.536  1.00  0.00     0.039 A 
ATOM     33  C   UNL A   1      35.549  31.667  27.686  1.00  0.00     0.014 A 
ATOM     34  C   UNL A   1      35.012  29.326  27.998  1.00  0.00     0.014 A 
ATOM     35  C   UNL A   1      36.762  31.474  28.348  1.00  0.00     0.010 A 
ATOM     36  C   UNL A   1      36.196  29.148  28.711  1.00  0.00     0.010 A 
ATOM     37  C   UNL A   1      37.084  30.220  28.891  1.00  0.00    -0.014 A 
BRANCH  37  38
ATOM     38  C   UNL A   1      38.340  30.014  29.655  1.00  0.00     0.031 A 
ATOM     39  C   UNL A   1      38.490  30.578  31.040  1.00  0.00     0.074 A 
ATOM     40  C   UNL A   1      39.372  29.374  29.072  1.00  0.00     0.049 A 
ATOM     41  N   UNL A   1      39.533  30.558  31.832  1.00  0.00    -0.248 NA
ATOM     42  C   UNL A   1      37.325  31.280  31.599  1.00  0.00     0.031 C 
ATOM     43  C   UNL A   1      39.370  28.823  27.715  1.00  0.00     0.029 A 
ATOM     44  N   UNL A   1      40.629  29.089  29.544  1.00  0.00    -0.354 N 
ATOM     45  C   UNL A   1      39.155  31.256  32.973  1.00  0.00     0.074 A 
ATOM     46  C   UNL A   1      37.802  31.723  32.753  1.00  0.00     0.031 C 
ATOM     47  C   UNL A   1      40.561  28.256  27.469  1.00  0.00     0.029 A 
ATOM     48  C   UNL A   1      41.420  28.427  28.637  1.00  0.00     0.049 A 
ATOM     49  H   UNL A   1      40.935  29.335  30.447  1.00  0.00     0.167 HD
ATOM     50  C   UNL A   1      39.863  31.471  34.106  1.00  0.00     0.037 A 
ATOM     51  C   UNL A   1      42.697  28.012  28.733  1.00  0.00     0.037 A 
ATOM     52  C   UNL A   1      41.196  30.978  34.337  1.00  0.00     0.049 A 
ATOM     53  C   UNL A   1      43.457  28.248  30.007  1.00  0.00     0.074 A 
ATOM     54  C   UNL A   1      41.969  31.082  35.480  1.00  0.00     0.029 A 
ATOM     55  N   UNL A   1      41.954  30.285  33.404  1.00  0.00    -0.354 N 
ATOM     56  N   UNL A   1      43.062  28.849  31.104  1.00  0.00    -0.248 NA
ATOM     57  C   UNL A   1      44.835  27.743  30.062  1.00  0.00     0.031 C 
ATOM     58  C   UNL A   1      43.209  30.485  35.228  1.00  0.00     0.029 A 
ATOM     59  C   UNL A   1      43.192  29.974  33.940  1.00  0.00     0.049 A 
ATOM     60  H   UNL A   1      41.655  30.050  32.496  1.00  0.00     0.167 HD
ATOM     61  C   UNL A   1      44.132  28.774  31.985  1.00  0.00     0.074 A 
ATOM     62  C   UNL A   1      45.188  28.057  31.300  1.00  0.00     0.031 C 
ATOM     63  C   UNL A   1      44.231  29.256  33.247  1.00  0.00     0.037 A 
BRANCH  50  64
ATOM     64  C   UNL A   1      39.208  32.273  35.192  1.00  0.00     0.057 A 
ATOM     65  C   UNL A   1      38.455  31.667  36.205  1.00  0.00     0.134 A 
ATOM     66  C   UNL A   1      39.367  33.663  35.249  1.00  0.00     0.134 A 
ATOM     67  F   UNL A   1      38.256  30.339  36.202  1.00  0.00    -0.206 F 
ATOM     68  C   UNL A   1      37.864  32.415  37.224  1.00  0.00     0.040 A 
ATOM     69  C   UNL A   1      38.802  34.421  36.276  1.00  0.00     0.040 A 
ATOM     70  F   UNL A   1      40.081  34.307  34.313  1.00  0.00    -0.206 F 
ATOM     71  C   UNL A   1      38.043  33.798  37.265  1.00  0.00     0.006 A 
ENDBRANCH  50  64
BRANCH  51  72
ATOM     72  C   UNL A   1      43.333  27.306  27.593  1.00  0.00     0.057 A 
ATOM     73  C   UNL A   1      43.456  25.912  27.586  1.00  0.00     0.134 A 
ATOM     74  C   UNL A   1      43.836  28.004  26.489  1.00  0.00     0.134 A 
ATOM     75  F   UNL A   1      43.010  25.190  28.624  1.00  0.00    -0.206 F 
ATOM     76  C   UNL A   1      44.071  25.238  26.530  1.00  0.00     0.040 A 
ATOM     77  C   UNL A   1      44.432  27.342  25.415  1.00  0.00     0.040 A 
ATOM     78  F   UNL A   1      43.741  29.342  26.433  1.00  0.00    -0.206 F 
ATOM     79  C   UNL A   1      44.558  25.954  25.438  1.00  0.00     0.006 A 
ENDBRANCH  51  72
BRANCH  63  80
ATOM     80  C   UNL A   1      45.515  29.001  33.977  1.00  0.00     0.057 A 
ATOM     81  C   UNL A   1      45.712  27.842  34.740  1.00  0.00     0.134 A 
ATOM     82  C   UNL A   1      46.580  29.907  33.887  1.00  0.00     0.134 A 
ATOM     83  F   UNL A   1      44.727  26.943  34.876  1.00  0.00    -0.206 F 
ATOM     84  C   UNL A   1      46.917  27.604  35.403  1.00  0.00     0.040 A 
ATOM     85  C   UNL A   1      47.797  29.668  34.527  1.00  0.00     0.040 A 
ATOM     86  F   UNL A   1      46.457  31.033  33.167  1.00  0.00    -0.206 F 
ATOM     87  C   UNL A   1      47.965  28.515  35.292  1.00  0.00     0.006 A 
ENDBRANCH  63  80
ENDBRANCH  37  38
ENDBRANCH  29  32
ENDBRANCH  27  28
ENDBRANCH  26  27
ENDBRANCH  25  26
ENDBRANCH  24  25
ENDBRANCH   1  24
TORSDOF 17
ENDMDL
MODEL 3
REMARK VINA RESULT:     -10.4      3.361      7.230
REMARK SMILES CCSc1cccc(-c2ccc([C@@H](C)C(=O)NCCCCCCNC(=O)c3ccc(-c4c5nc(c(-c6c(F)cccc6F)c6ccc([nH]6)c(-c6c(F)cccc6F)c6nc(c(-c7c(F)cccc7F)c7ccc4[nH]7)C=C6)C=C5)cc3)cc2)c1
REMARK SMILES IDX 19 1 18 2 17 3 15 4 16 5 13 7 14 8 12 9 9 10 10 11 82 12
REMARK SMILES IDX 11 13 81 14 8 15 4 16 5 17 83 18 6 19 7 20 3 21 2 22 1 23
REMARK SMILES IDX 20 24 21 25 22 26 23 27 24 28 25 29 26 31 27 32 28 33 80 34
REMARK SMILES IDX 29 35 79 36 30 37 31 38 32 39 73 40 33 41 78 42 72 43 74 44
REMARK SMILES IDX 34 45 77 46 71 47 70 48 35 50 61 51 44 52 60 53 45 54 48 55
REMARK SMILES IDX 59 56 75 57 46 58 47 59 58 61 76 62 49 63 36 64 37 65 42 66
REMARK SMILES IDX 38 67 39 68 41 69 43 70 40 71 62 72 63 73 68 74 64 75 65 76
REMARK SMILES IDX 67 77 69 78 66 79 50 80 51 81 56 82 52 83 53 84 55 85 57 86
REMARK SMILES IDX 54 87
REMARK H PARENT 17 6 24 30 74 49 48 60
REMARK Flexibility Score: inf
ROOT
ATOM      1  C   UNL A   1      33.371  29.005  22.534  1.00  0.00     0.021 C 
ENDROOT
BRANCH   1   2
ATOM      2  C   UNL A   1      31.981  28.785  21.931  1.00  0.00     0.116 C 
BRANCH   2   3
ATOM      3  N   UNL A   1      30.971  29.578  22.599  1.00  0.00    -0.356 N 
ATOM      4  C   UNL A   1      29.759  29.248  23.123  1.00  0.00     0.227 C 
ATOM      5  O   UNL A   1      29.078  30.182  23.561  1.00  0.00    -0.274 OA
ATOM      6  H   UNL A   1      31.203  30.530  22.690  1.00  0.00     0.163 HD
BRANCH   4   7
ATOM      7  C   UNL A   1      29.229  27.808  23.209  1.00  0.00     0.105 C 
ATOM      8  C   UNL A   1      27.763  27.714  23.637  1.00  0.00     0.023 C 
BRANCH   7   9
ATOM      9  C   UNL A   1      30.187  26.844  23.892  1.00  0.00    -0.036 A 
ATOM     10  C   UNL A   1      31.889  25.002  25.276  1.00  0.00    -0.018 A 
ATOM     11  C   UNL A   1      31.612  24.874  23.905  1.00  0.00     0.009 A 
ATOM     12  C   UNL A   1      31.303  26.092  25.936  1.00  0.00     0.009 A 
ATOM     13  C   UNL A   1      30.809  25.792  23.220  1.00  0.00     0.005 A 
ATOM     14  C   UNL A   1      30.455  26.986  25.263  1.00  0.00     0.005 A 
BRANCH  10  15
ATOM     15  C   UNL A   1      32.746  24.008  25.969  1.00  0.00    -0.017 A 
ATOM     16  C   UNL A   1      34.913  22.920  26.337  1.00  0.00     0.008 A 
ATOM     17  C   UNL A   1      34.391  22.234  27.434  1.00  0.00     0.015 A 
ATOM     18  C   UNL A   1      34.100  23.817  25.628  1.00  0.00     0.023 A 
ATOM     19  C   UNL A   1      33.052  22.376  27.771  1.00  0.00     0.002 A 
ATOM     20  C   UNL A   1      32.239  23.238  27.035  1.00  0.00     0.009 A 
BRANCH  16  21
ATOM     21  S   UNL A   1      36.622  22.695  25.881  1.00  0.00    -0.126 SA
BRANCH  21  22
ATOM     22  C   UNL A   1      36.475  21.269  24.746  1.00  0.00     0.071 C 
ATOM     23  C   UNL A   1      37.578  20.239  24.931  1.00  0.00     0.016 C 
ENDBRANCH  21  22
ENDBRANCH  16  21
ENDBRANCH  10  15
ENDBRANCH   7   9
ENDBRANCH   4   7
ENDBRANCH   2   3
ENDBRANCH   1   2
BRANCH   1  24
ATOM     24  C   UNL A   1      33.650  28.156  23.779  1.00  0.00     0.002 C 
BRANCH  24  25
ATOM     25  C   UNL A   1      33.736  28.936  25.099  1.00  0.00     0.002 C 
BRANCH  25  26
ATOM     26  C   UNL A   1      34.296  28.157  26.294  1.00  0.00     0.021 C 
BRANCH  26  27
ATOM     27  C   UNL A   1      33.687  28.523  27.647  1.00  0.00     0.116 C 
BRANCH  27  28
ATOM     28  N   UNL A   1      33.691  29.959  27.875  1.00  0.00    -0.352 N 
ATOM     29  C   UNL A   1      34.672  30.767  28.392  1.00  0.00     0.251 C 
ATOM     30  H   UNL A   1      32.861  30.423  27.620  1.00  0.00     0.163 HD
ATOM     31  O   UNL A   1      34.410  31.924  28.708  1.00  0.00    -0.269 OA
BRANCH  29  32
ATOM     32  C   UNL A   1      36.045  30.252  28.582  1.00  0.00     0.039 A 
ATOM     33  C   UNL A   1      36.938  30.301  27.506  1.00  0.00     0.014 A 
ATOM     34  C   UNL A   1      36.443  29.681  29.794  1.00  0.00     0.014 A 
ATOM     35  C   UNL A   1      38.243  29.831  27.664  1.00  0.00     0.010 A 
ATOM     36  C   UNL A   1      37.762  29.267  29.969  1.00  0.00     0.010 A 
ATOM     37  C   UNL A   1      38.674  29.336  28.905  1.00  0.00    -0.014 A 
BRANCH  37  38
ATOM     38  C   UNL A   1      40.077  28.893  29.109  1.00  0.00     0.031 A 
ATOM     39  C   UNL A   1      41.095  29.833  29.691  1.00  0.00     0.074 A 
ATOM     40  C   UNL A   1      40.448  27.662  28.706  1.00  0.00     0.049 A 
ATOM     41  N   UNL A   1      42.377  29.648  29.881  1.00  0.00    -0.248 NA
ATOM     42  C   UNL A   1      40.615  31.166  30.088  1.00  0.00     0.031 C 
ATOM     43  C   UNL A   1      39.566  26.674  28.082  1.00  0.00     0.029 A 
ATOM     44  N   UNL A   1      41.669  27.037  28.751  1.00  0.00    -0.354 N 
ATOM     45  C   UNL A   1      42.859  30.842  30.403  1.00  0.00     0.074 A 
ATOM     46  C   UNL A   1      41.740  31.759  30.460  1.00  0.00     0.031 C 
ATOM     47  C   UNL A   1      40.271  25.563  27.815  1.00  0.00     0.029 A 
ATOM     48  C   UNL A   1      41.658  25.770  28.221  1.00  0.00     0.049 A 
ATOM     49  H   UNL A   1      42.476  27.456  29.128  1.00  0.00     0.167 HD
ATOM     50  C   UNL A   1      44.115  31.141  30.813  1.00  0.00     0.037 A 
ATOM     51  C   UNL A   1      42.655  24.878  28.072  1.00  0.00     0.037 A 
ATOM     52  C   UNL A   1      45.219  30.218  30.786  1.00  0.00     0.049 A 
ATOM     53  C   UNL A   1      44.035  25.227  28.551  1.00  0.00     0.074 A 
ATOM     54  C   UNL A   1      46.511  30.403  31.247  1.00  0.00     0.029 A 
ATOM     55  N   UNL A   1      45.161  28.932  30.268  1.00  0.00    -0.354 N 
ATOM     56  N   UNL A   1      44.460  26.336  29.106  1.00  0.00    -0.248 NA
ATOM     57  C   UNL A   1      45.073  24.200  28.389  1.00  0.00     0.031 C 
ATOM     58  C   UNL A   1      47.244  29.244  30.976  1.00  0.00     0.029 A 
ATOM     59  C   UNL A   1      46.398  28.322  30.381  1.00  0.00     0.049 A 
ATOM     60  H   UNL A   1      44.358  28.516  29.879  1.00  0.00     0.167 HD
ATOM     61  C   UNL A   1      45.805  26.132  29.381  1.00  0.00     0.074 A 
ATOM     62  C   UNL A   1      46.123  24.788  28.945  1.00  0.00     0.031 C 
ATOM     63  C   UNL A   1      46.698  26.982  29.945  1.00  0.00     0.037 A 
BRANCH  50  64
ATOM     64  C   UNL A   1      44.362  32.525  31.335  1.00  0.00     0.057 A 
ATOM     65  C   UNL A   1      44.769  33.569  30.494  1.00  0.00     0.134 A 
ATOM     66  C   UNL A   1      44.151  32.829  32.686  1.00  0.00     0.134 A 
ATOM     67  F   UNL A   1      44.999  33.342  29.191  1.00  0.00    -0.206 F 
ATOM     68  C   UNL A   1      44.978  34.860  30.980  1.00  0.00     0.040 A 
ATOM     69  C   UNL A   1      44.334  34.122  33.180  1.00  0.00     0.040 A 
ATOM     70  F   UNL A   1      43.756  31.877  33.545  1.00  0.00    -0.206 F 
ATOM     71  C   UNL A   1      44.754  35.141  32.327  1.00  0.00     0.006 A 
ENDBRANCH  50  64
BRANCH  51  72
ATOM     72  C   UNL A   1      42.378  23.554  27.460  1.00  0.00     0.057 A 
ATOM     73  C   UNL A   1      42.056  22.447  28.253  1.00  0.00     0.134 A 
ATOM     74  C   UNL A   1      42.433  23.363  26.075  1.00  0.00     0.134 A 
ATOM     75  F   UNL A   1      42.006  22.565  29.588  1.00  0.00    -0.206 F 
ATOM     76  C   UNL A   1      41.814  21.192  27.692  1.00  0.00     0.040 A 
ATOM     77  C   UNL A   1      42.171  22.119  25.498  1.00  0.00     0.040 A 
ATOM     78  F   UNL A   1      42.729  24.388  25.261  1.00  0.00    -0.206 F 
ATOM     79  C   UNL A   1      41.868  21.028  26.309  1.00  0.00     0.006 A 
ENDBRANCH  51  72
BRANCH  63  80
ATOM     80  C   UNL A   1      48.094  26.474  30.145  1.00  0.00     0.057 A 
ATOM     81  C   UNL A   1      49.090  26.656  29.178  1.00  0.00     0.134 A 
ATOM     82  C   UNL A   1      48.453  25.826  31.334  1.00  0.00     0.134 A 
ATOM     83  F   UNL A   1      48.806  27.256  28.013  1.00  0.00    -0.206 F 
ATOM     84  C   UNL A   1      50.392  26.193  29.378  1.00  0.00     0.040 A 
ATOM     85  C   UNL A   1      49.757  25.380  31.555  1.00  0.00     0.040 A 
ATOM     86  F   UNL A   1      47.547  25.627  32.303  1.00  0.00    -0.206 F 
ATOM     87  C   UNL A   1      50.729  25.560  30.573  1.00  0.00     0.006 A 
ENDBRANCH  63  80
ENDBRANCH  37  38
ENDBRANCH  29  32
ENDBRANCH  27  28
ENDBRANCH  26  27
ENDBRANCH  25  26
ENDBRANCH  24  25
ENDBRANCH   1  24
TORSDOF 17
ENDMDL
