MODEL 1
REMARK VINA RESULT:     -12.3      0.000      0.000
REMARK SMILES Cc1cccc(NS(=O)(=O)c2ccc(Br)c(C(=O)NCCCCCCNC(=O)c3ccc(-c4c5nc(c(-c6c(F)cccc6F)c6ccc([nH]6)c(-c6c(F)cccc6F)c6nc(c(-c7c(F)cccc7F)c7ccc4[nH]7)C=C6)C=C5)cc3)c2)c1
REMARK SMILES IDX 22 1 21 2 20 3 19 4 17 5 18 6 16 8 11 9 12 10 83 11 13 12
REMARK SMILES IDX 14 13 15 14 8 15 9 16 10 17 7 18 6 20 1 21 2 22 3 23 84 24
REMARK SMILES IDX 4 25 5 26 23 27 24 28 25 29 26 30 27 31 28 33 29 34 30 35
REMARK SMILES IDX 82 36 31 37 81 38 32 39 33 40 34 41 75 42 35 43 80 44 74 45
REMARK SMILES IDX 76 46 36 47 79 48 73 49 72 50 37 52 63 53 46 54 62 55 47 56
REMARK SMILES IDX 50 57 61 58 77 59 48 60 49 61 60 63 78 64 51 65 38 66 39 67
REMARK SMILES IDX 44 68 40 69 41 70 43 71 45 72 42 73 64 74 65 75 70 76 66 77
REMARK SMILES IDX 67 78 69 79 71 80 68 81 52 82 53 83 58 84 54 85 55 86 57 87
REMARK SMILES IDX 59 88 56 89
REMARK H PARENT 19 7 7 19 26 32 76 51 50 62
REMARK Flexibility Score: inf
ROOT
ATOM      1  C   UNL A   1      32.986  28.981  25.246  1.00  0.00     0.002 C 
ENDROOT
BRANCH   1   2
ATOM      2  C   UNL A   1      33.464  28.739  23.815  1.00  0.00     0.021 C 
BRANCH   2   3
ATOM      3  C   UNL A   1      32.436  28.290  22.790  1.00  0.00     0.116 C 
BRANCH   3   4
ATOM      4  N   UNL A   1      32.857  27.374  21.752  1.00  0.00    -0.352 N 
ATOM      5  C   UNL A   1      33.061  26.004  21.832  1.00  0.00     0.252 C 
ATOM      6  O   UNL A   1      33.248  25.377  20.790  1.00  0.00    -0.269 OA
ATOM      7  H   UNL A   1      33.023  27.778  20.869  1.00  0.00     0.163 HD
BRANCH   5   8
ATOM      8  C   UNL A   1      33.222  25.303  23.143  1.00  0.00     0.055 A 
ATOM      9  C   UNL A   1      34.773  24.334  24.742  1.00  0.00     0.088 A 
ATOM     10  C   UNL A   1      33.958  24.752  25.786  1.00  0.00     0.023 A 
ATOM     11  C   UNL A   1      34.467  24.724  23.427  1.00  0.00     0.037 A 
ATOM     12  C   UNL A   1      32.651  25.120  25.479  1.00  0.00     0.018 A 
ATOM     13  C   UNL A   1      32.258  25.236  24.144  1.00  0.00     0.030 A 
ATOM     14  Br  UNL A   1      30.424  24.871  23.768  1.00  0.00    -0.050 Br
BRANCH   9  15
ATOM     15  S   UNL A   1      36.092  23.173  25.004  1.00  0.00     0.261 S 
ATOM     16  O   UNL A   1      36.886  23.707  26.095  1.00  0.00    -0.201 OA
ATOM     17  O   UNL A   1      36.693  22.920  23.714  1.00  0.00    -0.201 OA
BRANCH  15  18
ATOM     18  N   UNL A   1      35.545  21.660  25.555  1.00  0.00    -0.280 N 
ATOM     19  H   UNL A   1      35.954  21.323  26.385  1.00  0.00     0.180 HD
BRANCH  18  20
ATOM     20  C   UNL A   1      34.557  20.820  24.943  1.00  0.00     0.049 A 
ATOM     21  C   UNL A   1      34.281  17.116  24.024  1.00  0.00     0.044 C 
ATOM     22  C   UNL A   1      33.933  18.559  24.247  1.00  0.00    -0.049 A 
ATOM     23  C   UNL A   1      32.670  19.032  23.884  1.00  0.00     0.003 A 
ATOM     24  C   UNL A   1      34.858  19.457  24.806  1.00  0.00     0.030 A 
ATOM     25  C   UNL A   1      32.412  20.400  23.909  1.00  0.00     0.002 A 
ATOM     26  C   UNL A   1      33.392  21.297  24.351  1.00  0.00     0.027 A 
ENDBRANCH  18  20
ENDBRANCH  15  18
ENDBRANCH   9  15
ENDBRANCH   5   8
ENDBRANCH   3   4
ENDBRANCH   2   3
ENDBRANCH   1   2
BRANCH   1  27
ATOM     27  C   UNL A   1      33.927  28.613  26.400  1.00  0.00     0.002 C 
BRANCH  27  28
ATOM     28  C   UNL A   1      33.997  29.561  27.594  1.00  0.00     0.021 C 
BRANCH  28  29
ATOM     29  C   UNL A   1      34.123  31.036  27.263  1.00  0.00     0.116 C 
BRANCH  29  30
ATOM     30  N   UNL A   1      34.964  31.784  28.185  1.00  0.00    -0.352 N 
ATOM     31  C   UNL A   1      36.038  31.379  28.956  1.00  0.00     0.251 C 
ATOM     32  H   UNL A   1      34.731  32.737  28.273  1.00  0.00     0.163 HD
ATOM     33  O   UNL A   1      36.540  32.177  29.745  1.00  0.00    -0.269 OA
BRANCH  31  34
ATOM     34  C   UNL A   1      36.723  30.083  28.695  1.00  0.00     0.039 A 
ATOM     35  C   UNL A   1      36.772  29.190  29.778  1.00  0.00     0.014 A 
ATOM     36  C   UNL A   1      37.630  29.952  27.656  1.00  0.00     0.014 A 
ATOM     37  C   UNL A   1      37.931  28.465  30.000  1.00  0.00     0.010 A 
ATOM     38  C   UNL A   1      38.839  29.379  27.944  1.00  0.00     0.010 A 
ATOM     39  C   UNL A   1      39.005  28.713  29.158  1.00  0.00    -0.014 A 
BRANCH  39  40
ATOM     40  C   UNL A   1      40.360  28.276  29.397  1.00  0.00     0.031 A 
ATOM     41  C   UNL A   1      40.726  26.955  28.876  1.00  0.00     0.074 A 
ATOM     42  C   UNL A   1      41.246  29.186  29.853  1.00  0.00     0.049 A 
ATOM     43  N   UNL A   1      41.830  26.360  29.129  1.00  0.00    -0.248 NA
ATOM     44  C   UNL A   1      39.819  26.158  28.050  1.00  0.00     0.031 C 
ATOM     45  C   UNL A   1      42.703  29.141  29.802  1.00  0.00     0.029 A 
ATOM     46  N   UNL A   1      40.967  30.292  30.667  1.00  0.00    -0.354 N 
ATOM     47  C   UNL A   1      41.916  25.270  28.292  1.00  0.00     0.074 A 
ATOM     48  C   UNL A   1      40.597  25.118  27.742  1.00  0.00     0.031 C 
ATOM     49  C   UNL A   1      43.196  29.953  30.755  1.00  0.00     0.029 A 
ATOM     50  C   UNL A   1      42.064  30.402  31.550  1.00  0.00     0.049 A 
ATOM     51  H   UNL A   1      40.171  30.871  30.631  1.00  0.00     0.167 HD
ATOM     52  C   UNL A   1      43.151  24.738  28.084  1.00  0.00     0.037 A 
ATOM     53  C   UNL A   1      41.901  30.127  32.880  1.00  0.00     0.037 A 
ATOM     54  C   UNL A   1      44.087  25.301  29.060  1.00  0.00     0.049 A 
ATOM     55  C   UNL A   1      42.710  28.928  33.324  1.00  0.00     0.074 A 
ATOM     56  C   UNL A   1      45.016  26.326  28.993  1.00  0.00     0.029 A 
ATOM     57  N   UNL A   1      43.858  25.064  30.414  1.00  0.00    -0.354 N 
ATOM     58  N   UNL A   1      43.078  27.956  32.532  1.00  0.00    -0.248 NA
ATOM     59  C   UNL A   1      43.214  28.765  34.684  1.00  0.00     0.031 C 
ATOM     60  C   UNL A   1      45.259  26.775  30.322  1.00  0.00     0.029 A 
ATOM     61  C   UNL A   1      44.515  25.994  31.194  1.00  0.00     0.049 A 
ATOM     62  H   UNL A   1      43.302  24.331  30.766  1.00  0.00     0.167 HD
ATOM     63  C   UNL A   1      43.861  27.068  33.227  1.00  0.00     0.074 A 
ATOM     64  C   UNL A   1      43.920  27.626  34.567  1.00  0.00     0.031 C 
ATOM     65  C   UNL A   1      44.405  25.954  32.649  1.00  0.00     0.037 A 
BRANCH  52  66
ATOM     66  C   UNL A   1      43.579  23.901  26.895  1.00  0.00     0.057 A 
ATOM     67  C   UNL A   1      44.163  24.532  25.776  1.00  0.00     0.134 A 
ATOM     68  C   UNL A   1      43.360  22.520  26.715  1.00  0.00     0.134 A 
ATOM     69  F   UNL A   1      44.452  25.840  25.779  1.00  0.00    -0.206 F 
ATOM     70  C   UNL A   1      44.462  23.858  24.582  1.00  0.00     0.040 A 
ATOM     71  C   UNL A   1      43.673  21.832  25.534  1.00  0.00     0.040 A 
ATOM     72  F   UNL A   1      42.809  21.745  27.650  1.00  0.00    -0.206 F 
ATOM     73  C   UNL A   1      44.215  22.502  24.455  1.00  0.00     0.006 A 
ENDBRANCH  52  66
BRANCH  53  74
ATOM     74  C   UNL A   1      40.537  30.504  33.362  1.00  0.00     0.057 A 
ATOM     75  C   UNL A   1      40.256  31.879  33.496  1.00  0.00     0.134 A 
ATOM     76  C   UNL A   1      39.444  29.647  33.205  1.00  0.00     0.134 A 
ATOM     77  F   UNL A   1      41.257  32.755  33.678  1.00  0.00    -0.206 F 
ATOM     78  C   UNL A   1      38.974  32.395  33.284  1.00  0.00     0.040 A 
ATOM     79  C   UNL A   1      38.149  30.154  33.026  1.00  0.00     0.040 A 
ATOM     80  F   UNL A   1      39.622  28.324  33.080  1.00  0.00    -0.206 F 
ATOM     81  C   UNL A   1      37.923  31.531  32.998  1.00  0.00     0.006 A 
ENDBRANCH  53  74
BRANCH  65  82
ATOM     82  C   UNL A   1      44.966  24.753  33.387  1.00  0.00     0.057 A 
ATOM     83  C   UNL A   1      44.340  23.499  33.459  1.00  0.00     0.134 A 
ATOM     84  C   UNL A   1      46.274  24.784  33.931  1.00  0.00     0.134 A 
ATOM     85  F   UNL A   1      43.160  23.260  32.872  1.00  0.00    -0.206 F 
ATOM     86  C   UNL A   1      44.929  22.392  34.086  1.00  0.00     0.040 A 
ATOM     87  C   UNL A   1      46.901  23.668  34.491  1.00  0.00     0.040 A 
ATOM     88  F   UNL A   1      47.026  25.895  33.917  1.00  0.00    -0.206 F 
ATOM     89  C   UNL A   1      46.219  22.468  34.591  1.00  0.00     0.006 A 
ENDBRANCH  65  82
ENDBRANCH  39  40
ENDBRANCH  31  34
ENDBRANCH  29  30
ENDBRANCH  28  29
ENDBRANCH  27  28
ENDBRANCH   1  27
TORSDOF 16
ENDMDL
MODEL 2
REMARK VINA RESULT:     -12.3      0.982      1.687
REMARK SMILES Cc1cccc(NS(=O)(=O)c2ccc(Br)c(C(=O)NCCCCCCNC(=O)c3ccc(-c4c5nc(c(-c6c(F)cccc6F)c6ccc([nH]6)c(-c6c(F)cccc6F)c6nc(c(-c7c(F)cccc7F)c7ccc4[nH]7)C=C6)C=C5)cc3)c2)c1
REMARK SMILES IDX 22 1 21 2 20 3 19 4 17 5 18 6 16 8 11 9 12 10 83 11 13 12
REMARK SMILES IDX 14 13 15 14 8 15 9 16 10 17 7 18 6 20 1 21 2 22 3 23 84 24
REMARK SMILES IDX 4 25 5 26 23 27 24 28 25 29 26 30 27 31 28 33 29 34 30 35
REMARK SMILES IDX 82 36 31 37 81 38 32 39 33 40 34 41 75 42 35 43 80 44 74 45
REMARK SMILES IDX 76 46 36 47 79 48 73 49 72 50 37 52 63 53 46 54 62 55 47 56
REMARK SMILES IDX 50 57 61 58 77 59 48 60 49 61 60 63 78 64 51 65 38 66 39 67
REMARK SMILES IDX 44 68 40 69 41 70 43 71 45 72 42 73 64 74 65 75 70 76 66 77
REMARK SMILES IDX 67 78 69 79 71 80 68 81 52 82 53 83 58 84 54 85 55 86 57 87
REMARK SMILES IDX 59 88 56 89
REMARK H PARENT 19 7 7 19 26 32 76 51 50 62
REMARK Flexibility Score: inf
ROOT
ATOM      1  C   UNL A   1      32.243  29.263  24.990  1.00  0.00     0.002 C 
ENDROOT
BRANCH   1   2
ATOM      2  C   UNL A   1      32.285  28.965  23.492  1.00  0.00     0.021 C 
BRANCH   2   3
ATOM      3  C   UNL A   1      33.624  28.581  22.882  1.00  0.00     0.116 C 
BRANCH   3   4
ATOM      4  N   UNL A   1      33.648  27.527  21.891  1.00  0.00    -0.352 N 
ATOM      5  C   UNL A   1      33.288  26.195  22.030  1.00  0.00     0.252 C 
ATOM      6  O   UNL A   1      33.212  25.498  21.019  1.00  0.00    -0.269 OA
ATOM      7  H   UNL A   1      33.961  27.791  20.996  1.00  0.00     0.163 HD
BRANCH   5   8
ATOM      8  C   UNL A   1      33.154  25.547  23.371  1.00  0.00     0.055 A 
ATOM      9  C   UNL A   1      34.310  24.562  25.268  1.00  0.00     0.088 A 
ATOM     10  C   UNL A   1      33.345  25.077  26.124  1.00  0.00     0.023 A 
ATOM     11  C   UNL A   1      34.282  24.908  23.906  1.00  0.00     0.037 A 
ATOM     12  C   UNL A   1      32.146  25.507  25.562  1.00  0.00     0.018 A 
ATOM     13  C   UNL A   1      32.017  25.584  24.174  1.00  0.00     0.030 A 
ATOM     14  Br  UNL A   1      30.266  25.312  23.469  1.00  0.00    -0.050 Br
BRANCH   9  15
ATOM     15  S   UNL A   1      35.476  23.338  25.815  1.00  0.00     0.261 S 
ATOM     16  O   UNL A   1      34.965  22.833  27.076  1.00  0.00    -0.201 OA
ATOM     17  O   UNL A   1      36.786  23.944  25.744  1.00  0.00    -0.201 OA
BRANCH  15  18
ATOM     18  N   UNL A   1      35.546  21.983  24.791  1.00  0.00    -0.280 N 
ATOM     19  H   UNL A   1      36.376  21.869  24.273  1.00  0.00     0.180 HD
BRANCH  18  20
ATOM     20  C   UNL A   1      34.531  20.989  24.597  1.00  0.00     0.049 A 
ATOM     21  C   UNL A   1      34.424  17.168  24.408  1.00  0.00     0.044 C 
ATOM     22  C   UNL A   1      33.994  18.605  24.467  1.00  0.00    -0.049 A 
ATOM     23  C   UNL A   1      32.640  18.928  24.361  1.00  0.00     0.003 A 
ATOM     24  C   UNL A   1      34.929  19.643  24.617  1.00  0.00     0.030 A 
ATOM     25  C   UNL A   1      32.257  20.260  24.222  1.00  0.00     0.002 A 
ATOM     26  C   UNL A   1      33.217  21.278  24.246  1.00  0.00     0.027 A 
ENDBRANCH  18  20
ENDBRANCH  15  18
ENDBRANCH   9  15
ENDBRANCH   5   8
ENDBRANCH   3   4
ENDBRANCH   2   3
ENDBRANCH   1   2
BRANCH   1  27
ATOM     27  C   UNL A   1      31.405  30.454  25.471  1.00  0.00     0.002 C 
BRANCH  27  28
ATOM     28  C   UNL A   1      31.960  31.306  26.609  1.00  0.00     0.021 C 
BRANCH  28  29
ATOM     29  C   UNL A   1      33.147  30.725  27.353  1.00  0.00     0.116 C 
BRANCH  29  30
ATOM     30  N   UNL A   1      34.103  31.718  27.821  1.00  0.00    -0.352 N 
ATOM     31  C   UNL A   1      35.334  31.565  28.431  1.00  0.00     0.251 C 
ATOM     32  H   UNL A   1      33.827  32.652  27.678  1.00  0.00     0.163 HD
ATOM     33  O   UNL A   1      35.928  32.564  28.833  1.00  0.00    -0.269 OA
BRANCH  31  34
ATOM     34  C   UNL A   1      36.040  30.254  28.416  1.00  0.00     0.039 A 
ATOM     35  C   UNL A   1      36.218  29.643  29.668  1.00  0.00     0.014 A 
ATOM     36  C   UNL A   1      36.854  29.894  27.354  1.00  0.00     0.014 A 
ATOM     37  C   UNL A   1      37.419  29.008  29.941  1.00  0.00     0.010 A 
ATOM     38  C   UNL A   1      38.104  29.423  27.651  1.00  0.00     0.010 A 
ATOM     39  C   UNL A   1      38.403  29.065  28.966  1.00  0.00    -0.014 A 
BRANCH  39  40
ATOM     40  C   UNL A   1      39.788  28.717  29.168  1.00  0.00     0.031 A 
ATOM     41  C   UNL A   1      40.189  27.361  28.779  1.00  0.00     0.074 A 
ATOM     42  C   UNL A   1      40.653  29.710  29.463  1.00  0.00     0.049 A 
ATOM     43  N   UNL A   1      41.333  26.846  29.029  1.00  0.00    -0.248 NA
ATOM     44  C   UNL A   1      39.277  26.436  28.107  1.00  0.00     0.031 C 
ATOM     45  C   UNL A   1      42.105  29.721  29.327  1.00  0.00     0.029 A 
ATOM     46  N   UNL A   1      40.367  30.891  30.161  1.00  0.00    -0.354 N 
ATOM     47  C   UNL A   1      41.425  25.670  28.318  1.00  0.00     0.074 A 
ATOM     48  C   UNL A   1      40.086  25.400  27.871  1.00  0.00     0.031 C 
ATOM     49  C   UNL A   1      42.611  30.658  30.150  1.00  0.00     0.029 A 
ATOM     50  C   UNL A   1      41.506  31.149  30.956  1.00  0.00     0.049 A 
ATOM     51  H   UNL A   1      39.543  31.428  30.109  1.00  0.00     0.167 HD
ATOM     52  C   UNL A   1      42.671  25.170  28.097  1.00  0.00     0.037 A 
ATOM     53  C   UNL A   1      41.431  31.024  32.316  1.00  0.00     0.037 A 
ATOM     54  C   UNL A   1      43.632  25.882  28.943  1.00  0.00     0.049 A 
ATOM     55  C   UNL A   1      42.321  29.920  32.843  1.00  0.00     0.074 A 
ATOM     56  C   UNL A   1      44.504  26.931  28.702  1.00  0.00     0.029 A 
ATOM     57  N   UNL A   1      43.492  25.795  30.326  1.00  0.00    -0.354 N 
ATOM     58  N   UNL A   1      42.691  28.878  32.145  1.00  0.00    -0.248 NA
ATOM     59  C   UNL A   1      42.909  29.938  34.179  1.00  0.00     0.031 C 
ATOM     60  C   UNL A   1      44.800  27.541  29.954  1.00  0.00     0.029 A 
ATOM     61  C   UNL A   1      44.145  26.837  30.953  1.00  0.00     0.049 A 
ATOM     62  H   UNL A   1      42.993  25.086  30.793  1.00  0.00     0.167 HD
ATOM     63  C   UNL A   1      43.555  28.112  32.888  1.00  0.00     0.074 A 
ATOM     64  C   UNL A   1      43.662  28.824  34.149  1.00  0.00     0.031 C 
ATOM     65  C   UNL A   1      44.119  26.962  32.407  1.00  0.00     0.037 A 
BRANCH  52  66
ATOM     66  C   UNL A   1      43.072  24.220  26.986  1.00  0.00     0.057 A 
ATOM     67  C   UNL A   1      42.847  22.836  27.141  1.00  0.00     0.134 A 
ATOM     68  C   UNL A   1      43.771  24.551  25.808  1.00  0.00     0.134 A 
ATOM     69  F   UNL A   1      42.185  22.346  28.198  1.00  0.00    -0.206 F 
ATOM     70  C   UNL A   1      43.308  21.874  26.229  1.00  0.00     0.040 A 
ATOM     71  C   UNL A   1      44.220  23.601  24.878  1.00  0.00     0.040 A 
ATOM     72  F   UNL A   1      44.091  25.803  25.481  1.00  0.00    -0.206 F 
ATOM     73  C   UNL A   1      44.002  22.254  25.092  1.00  0.00     0.006 A 
ENDBRANCH  52  66
BRANCH  53  74
ATOM     74  C   UNL A   1      40.080  31.396  32.836  1.00  0.00     0.057 A 
ATOM     75  C   UNL A   1      39.221  30.345  33.217  1.00  0.00     0.134 A 
ATOM     76  C   UNL A   1      39.835  32.650  33.403  1.00  0.00     0.134 A 
ATOM     77  F   UNL A   1      39.383  29.121  32.689  1.00  0.00    -0.206 F 
ATOM     78  C   UNL A   1      38.298  30.485  34.257  1.00  0.00     0.040 A 
ATOM     79  C   UNL A   1      38.886  32.808  34.423  1.00  0.00     0.040 A 
ATOM     80  F   UNL A   1      40.598  33.706  33.088  1.00  0.00    -0.206 F 
ATOM     81  C   UNL A   1      38.164  31.712  34.898  1.00  0.00     0.006 A 
ENDBRANCH  53  74
BRANCH  65  82
ATOM     82  C   UNL A   1      44.780  25.879  33.242  1.00  0.00     0.057 A 
ATOM     83  C   UNL A   1      44.101  25.042  34.141  1.00  0.00     0.134 A 
ATOM     84  C   UNL A   1      46.138  25.535  33.035  1.00  0.00     0.134 A 
ATOM     85  F   UNL A   1      42.782  25.143  34.346  1.00  0.00    -0.206 F 
ATOM     86  C   UNL A   1      44.735  24.003  34.835  1.00  0.00     0.040 A 
ATOM     87  C   UNL A   1      46.761  24.454  33.665  1.00  0.00     0.040 A 
ATOM     88  F   UNL A   1      46.924  26.211  32.185  1.00  0.00    -0.206 F 
ATOM     89  C   UNL A   1      46.065  23.695  34.588  1.00  0.00     0.006 A 
ENDBRANCH  65  82
ENDBRANCH  39  40
ENDBRANCH  31  34
ENDBRANCH  29  30
ENDBRANCH  28  29
ENDBRANCH  27  28
ENDBRANCH   1  27
TORSDOF 16
ENDMDL
MODEL 3
REMARK VINA RESULT:     -12.2      1.839      2.701
REMARK SMILES Cc1cccc(NS(=O)(=O)c2ccc(Br)c(C(=O)NCCCCCCNC(=O)c3ccc(-c4c5nc(c(-c6c(F)cccc6F)c6ccc([nH]6)c(-c6c(F)cccc6F)c6nc(c(-c7c(F)cccc7F)c7ccc4[nH]7)C=C6)C=C5)cc3)c2)c1
REMARK SMILES IDX 22 1 21 2 20 3 19 4 17 5 18 6 16 8 11 9 12 10 83 11 13 12
REMARK SMILES IDX 14 13 15 14 8 15 9 16 10 17 7 18 6 20 1 21 2 22 3 23 84 24
REMARK SMILES IDX 4 25 5 26 23 27 24 28 25 29 26 30 27 31 28 33 29 34 30 35
REMARK SMILES IDX 82 36 31 37 81 38 32 39 33 40 34 41 75 42 35 43 80 44 74 45
REMARK SMILES IDX 76 46 36 47 79 48 73 49 72 50 37 52 63 53 46 54 62 55 47 56
REMARK SMILES IDX 50 57 61 58 77 59 48 60 49 61 60 63 78 64 51 65 38 66 39 67
REMARK SMILES IDX 44 68 40 69 41 70 43 71 45 72 42 73 64 74 65 75 70 76 66 77
REMARK SMILES IDX 67 78 69 79 71 80 68 81 52 82 53 83 58 84 54 85 55 86 57 87
REMARK SMILES IDX 59 88 56 89
REMARK H PARENT 19 7 7 19 26 32 76 51 50 62
REMARK Flexibility Score: inf
ROOT
ATOM      1  C   UNL A   1      33.763  28.138  26.424  1.00  0.00     0.002 C 
ENDROOT
BRANCH   1   2
ATOM      2  C   UNL A   1      33.403  26.685  26.117  1.00  0.00     0.021 C 
BRANCH   2   3
ATOM      3  C   UNL A   1      32.000  26.214  26.464  1.00  0.00     0.116 C 
BRANCH   3   4
ATOM      4  N   UNL A   1      30.954  26.393  25.480  1.00  0.00    -0.352 N 
ATOM      5  C   UNL A   1      30.682  25.632  24.353  1.00  0.00     0.252 C 
ATOM      6  O   UNL A   1      29.637  25.844  23.739  1.00  0.00    -0.269 OA
ATOM      7  H   UNL A   1      30.355  27.160  25.630  1.00  0.00     0.163 HD
BRANCH   5   8
ATOM      8  C   UNL A   1      31.686  24.686  23.775  1.00  0.00     0.055 A 
ATOM      9  C   UNL A   1      32.434  22.380  23.612  1.00  0.00     0.088 A 
ATOM     10  C   UNL A   1      32.824  22.599  22.297  1.00  0.00     0.023 A 
ATOM     11  C   UNL A   1      31.747  23.390  24.307  1.00  0.00     0.037 A 
ATOM     12  C   UNL A   1      32.955  23.919  21.872  1.00  0.00     0.018 A 
ATOM     13  C   UNL A   1      32.523  24.960  22.697  1.00  0.00     0.030 A 
ATOM     14  Br  UNL A   1      33.454  26.615  22.528  1.00  0.00    -0.050 Br
BRANCH   9  15
ATOM     15  S   UNL A   1      32.937  20.923  24.496  1.00  0.00     0.261 S 
ATOM     16  O   UNL A   1      32.539  19.797  23.673  1.00  0.00    -0.201 OA
ATOM     17  O   UNL A   1      32.438  21.058  25.846  1.00  0.00    -0.201 OA
BRANCH  15  18
ATOM     18  N   UNL A   1      34.625  20.787  24.647  1.00  0.00    -0.280 N 
ATOM     19  H   UNL A   1      35.015  19.912  24.418  1.00  0.00     0.180 HD
BRANCH  18  20
ATOM     20  C   UNL A   1      35.542  21.803  25.071  1.00  0.00     0.049 A 
ATOM     21  C   UNL A   1      39.220  21.925  26.122  1.00  0.00     0.044 C 
ATOM     22  C   UNL A   1      37.831  22.350  25.743  1.00  0.00    -0.049 A 
ATOM     23  C   UNL A   1      37.483  23.701  25.787  1.00  0.00     0.003 A 
ATOM     24  C   UNL A   1      36.860  21.412  25.352  1.00  0.00     0.030 A 
ATOM     25  C   UNL A   1      36.152  24.077  25.625  1.00  0.00     0.002 A 
ATOM     26  C   UNL A   1      35.172  23.113  25.360  1.00  0.00     0.027 A 
ENDBRANCH  18  20
ENDBRANCH  15  18
ENDBRANCH   9  15
ENDBRANCH   5   8
ENDBRANCH   3   4
ENDBRANCH   2   3
ENDBRANCH   1   2
BRANCH   1  27
ATOM     27  C   UNL A   1      33.216  29.233  25.500  1.00  0.00     0.002 C 
BRANCH  27  28
ATOM     28  C   UNL A   1      32.710  30.522  26.142  1.00  0.00     0.021 C 
BRANCH  28  29
ATOM     29  C   UNL A   1      33.087  30.731  27.596  1.00  0.00     0.116 C 
BRANCH  29  30
ATOM     30  N   UNL A   1      34.113  31.741  27.808  1.00  0.00    -0.352 N 
ATOM     31  C   UNL A   1      35.417  31.622  28.251  1.00  0.00     0.251 C 
ATOM     32  H   UNL A   1      33.832  32.662  27.600  1.00  0.00     0.163 HD
ATOM     33  O   UNL A   1      36.076  32.641  28.448  1.00  0.00    -0.269 OA
BRANCH  31  34
ATOM     34  C   UNL A   1      36.096  30.297  28.286  1.00  0.00     0.039 A 
ATOM     35  C   UNL A   1      36.237  29.717  29.557  1.00  0.00     0.014 A 
ATOM     36  C   UNL A   1      36.924  29.892  27.251  1.00  0.00     0.014 A 
ATOM     37  C   UNL A   1      37.419  29.066  29.871  1.00  0.00     0.010 A 
ATOM     38  C   UNL A   1      38.158  29.404  27.585  1.00  0.00     0.010 A 
ATOM     39  C   UNL A   1      38.423  29.077  28.915  1.00  0.00    -0.014 A 
BRANCH  39  40
ATOM     40  C   UNL A   1      39.797  28.707  29.155  1.00  0.00     0.031 A 
ATOM     41  C   UNL A   1      40.190  27.349  28.763  1.00  0.00     0.074 A 
ATOM     42  C   UNL A   1      40.666  29.684  29.488  1.00  0.00     0.049 A 
ATOM     43  N   UNL A   1      41.320  26.816  29.041  1.00  0.00    -0.248 NA
ATOM     44  C   UNL A   1      39.287  26.445  28.052  1.00  0.00     0.031 C 
ATOM     45  C   UNL A   1      42.122  29.676  29.397  1.00  0.00     0.029 A 
ATOM     46  N   UNL A   1      40.374  30.861  30.191  1.00  0.00    -0.354 N 
ATOM     47  C   UNL A   1      41.417  25.647  28.320  1.00  0.00     0.074 A 
ATOM     48  C   UNL A   1      40.088  25.401  27.829  1.00  0.00     0.031 C 
ATOM     49  C   UNL A   1      42.615  30.597  30.245  1.00  0.00     0.029 A 
ATOM     50  C   UNL A   1      41.492  31.094  31.024  1.00  0.00     0.049 A 
ATOM     51  H   UNL A   1      39.560  31.410  30.121  1.00  0.00     0.167 HD
ATOM     52  C   UNL A   1      42.662  25.132  28.130  1.00  0.00     0.037 A 
ATOM     53  C   UNL A   1      41.375  30.954  32.379  1.00  0.00     0.037 A 
ATOM     54  C   UNL A   1      43.607  25.821  29.013  1.00  0.00     0.049 A 
ATOM     55  C   UNL A   1      42.233  29.831  32.920  1.00  0.00     0.074 A 
ATOM     56  C   UNL A   1      44.500  26.860  28.811  1.00  0.00     0.029 A 
ATOM     57  N   UNL A   1      43.423  25.719  30.390  1.00  0.00    -0.354 N 
ATOM     58  N   UNL A   1      42.610  28.793  32.221  1.00  0.00    -0.248 NA
ATOM     59  C   UNL A   1      42.780  29.826  34.273  1.00  0.00     0.031 C 
ATOM     60  C   UNL A   1      44.766  27.452  30.079  1.00  0.00     0.029 A 
ATOM     61  C   UNL A   1      44.072  26.745  31.049  1.00  0.00     0.049 A 
ATOM     62  H   UNL A   1      42.901  25.012  30.834  1.00  0.00     0.167 HD
ATOM     63  C   UNL A   1      43.440  28.006  32.980  1.00  0.00     0.074 A 
ATOM     64  C   UNL A   1      43.518  28.702  34.252  1.00  0.00     0.031 C 
ATOM     65  C   UNL A   1      44.003  26.854  32.504  1.00  0.00     0.037 A 
BRANCH  52  66
ATOM     66  C   UNL A   1      43.083  24.189  27.021  1.00  0.00     0.057 A 
ATOM     67  C   UNL A   1      43.727  22.977  27.347  1.00  0.00     0.134 A 
ATOM     68  C   UNL A   1      43.004  24.433  25.634  1.00  0.00     0.134 A 
ATOM     69  F   UNL A   1      43.877  22.581  28.618  1.00  0.00    -0.206 F 
ATOM     70  C   UNL A   1      44.272  22.112  26.385  1.00  0.00     0.040 A 
ATOM     71  C   UNL A   1      43.528  23.567  24.663  1.00  0.00     0.040 A 
ATOM     72  F   UNL A   1      42.443  25.527  25.121  1.00  0.00    -0.206 F 
ATOM     73  C   UNL A   1      44.177  22.406  25.035  1.00  0.00     0.006 A 
ENDBRANCH  52  66
BRANCH  53  74
ATOM     74  C   UNL A   1      40.014  31.339  32.862  1.00  0.00     0.057 A 
ATOM     75  C   UNL A   1      39.144  30.297  33.244  1.00  0.00     0.134 A 
ATOM     76  C   UNL A   1      39.760  32.604  33.401  1.00  0.00     0.134 A 
ATOM     77  F   UNL A   1      39.313  29.063  32.742  1.00  0.00    -0.206 F 
ATOM     78  C   UNL A   1      38.198  30.459  34.260  1.00  0.00     0.040 A 
ATOM     79  C   UNL A   1      38.789  32.783  34.397  1.00  0.00     0.040 A 
ATOM     80  F   UNL A   1      40.532  33.652  33.083  1.00  0.00    -0.206 F 
ATOM     81  C   UNL A   1      38.054  31.698  34.875  1.00  0.00     0.006 A 
ENDBRANCH  53  74
BRANCH  65  82
ATOM     82  C   UNL A   1      44.623  25.753  33.344  1.00  0.00     0.057 A 
ATOM     83  C   UNL A   1      43.909  24.932  34.232  1.00  0.00     0.134 A 
ATOM     84  C   UNL A   1      45.974  25.373  33.157  1.00  0.00     0.134 A 
ATOM     85  F   UNL A   1      42.590  25.066  34.418  1.00  0.00    -0.206 F 
ATOM     86  C   UNL A   1      44.506  23.874  34.932  1.00  0.00     0.040 A 
ATOM     87  C   UNL A   1      46.560  24.275  33.793  1.00  0.00     0.040 A 
ATOM     88  F   UNL A   1      46.790  26.031  32.319  1.00  0.00    -0.206 F 
ATOM     89  C   UNL A   1      45.831  23.532  34.704  1.00  0.00     0.006 A 
ENDBRANCH  65  82
ENDBRANCH  39  40
ENDBRANCH  31  34
ENDBRANCH  29  30
ENDBRANCH  28  29
ENDBRANCH  27  28
ENDBRANCH   1  27
TORSDOF 16
ENDMDL
