MODEL 1
REMARK VINA RESULT:     -10.4      0.000      0.000
REMARK SMILES C[C@@H](O)[C@H](C)[N@@H+]1CCOC[C@@H]1C(=O)NCCCCCCNC(=O)c1ccc(-c2c3nc(c(-c4c(F)cccc4F)c4ccc([nH]4)c(-c4c(F)cccc4F)c4nc(c(-c5c(F)cccc5F)c5ccc2[nH]5)C=C4)C=C3)cc1
REMARK SMILES IDX 17 1 16 2 15 3 14 4 12 5 13 6 11 8 6 9 7 10 8 12 10 13 9 14
REMARK SMILES IDX 4 15 5 16 2 17 1 18 3 19 18 21 19 22 20 23 21 24 22 25 23 27
REMARK SMILES IDX 24 28 25 29 77 30 26 31 76 32 27 33 28 34 29 35 70 36 30 37
REMARK SMILES IDX 75 38 69 39 71 40 31 41 74 42 68 43 67 44 32 46 58 47 41 48
REMARK SMILES IDX 57 49 42 50 45 51 56 52 72 53 43 54 44 55 55 57 73 58 46 59
REMARK SMILES IDX 33 60 34 61 39 62 35 63 36 64 38 65 40 66 37 67 59 68 60 69
REMARK SMILES IDX 65 70 61 71 62 72 64 73 66 74 63 75 47 76 48 77 53 78 49 79
REMARK SMILES IDX 50 80 52 81 54 82 51 83
REMARK H PARENT 14 7 6 11 3 20 21 26 71 45 45 56
REMARK Flexibility Score: inf
ROOT
ATOM      1  C   UNL A   1      32.219  29.743  27.190  1.00  0.00     0.002 C 
ENDROOT
BRANCH   1   2
ATOM      2  C   UNL A   1      33.742  29.637  27.059  1.00  0.00     0.021 C 
BRANCH   2   3
ATOM      3  C   UNL A   1      34.212  28.455  26.213  1.00  0.00     0.116 C 
BRANCH   3   4
ATOM      4  N   UNL A   1      33.934  28.686  24.811  1.00  0.00    -0.351 N 
ATOM      5  C   UNL A   1      33.751  27.891  23.727  1.00  0.00     0.280 C 
ATOM      6  O   UNL A   1      33.685  28.512  22.656  1.00  0.00    -0.268 OA
ATOM      7  H   UNL A   1      33.859  29.643  24.594  1.00  0.00     0.163 HD
BRANCH   5   8
ATOM      8  C   UNL A   1      33.591  26.349  23.744  1.00  0.00     0.300 C 
ATOM      9  N   UNL A   1      32.266  25.918  23.203  1.00  0.00    -0.317 N 
ATOM     10  C   UNL A   1      32.276  24.447  23.024  1.00  0.00     0.292 C 
ATOM     11  H   UNL A   1      32.221  26.449  22.333  1.00  0.00     0.349 HD
ATOM     12  C   UNL A   1      32.696  23.703  24.303  1.00  0.00     0.221 C 
ATOM     13  C   UNL A   1      34.028  25.533  24.965  1.00  0.00     0.235 C 
ATOM     14  O   UNL A   1      34.002  24.116  24.720  1.00  0.00    -0.369 OA
BRANCH   9  15
ATOM     15  C   UNL A   1      30.989  26.381  23.797  1.00  0.00     0.210 C 
ATOM     16  C   UNL A   1      30.998  26.908  25.237  1.00  0.00     0.078 C 
BRANCH  15  17
ATOM     17  C   UNL A   1      30.313  27.453  22.867  1.00  0.00     0.169 C 
ATOM     18  C   UNL A   1      30.212  28.857  23.467  1.00  0.00     0.045 C 
BRANCH  17  19
ATOM     19  O   UNL A   1      31.028  27.534  21.626  1.00  0.00    -0.387 OA
ATOM     20  H   UNL A   1      30.546  28.110  21.012  1.00  0.00     0.211 HD
ENDBRANCH  17  19
ENDBRANCH  15  17
ENDBRANCH   9  15
ENDBRANCH   5   8
ENDBRANCH   3   4
ENDBRANCH   2   3
ENDBRANCH   1   2
BRANCH   1  21
ATOM     21  C   UNL A   1      31.553  30.782  26.278  1.00  0.00     0.002 C 
BRANCH  21  22
ATOM     22  C   UNL A   1      31.403  32.184  26.876  1.00  0.00     0.021 C 
BRANCH  22  23
ATOM     23  C   UNL A   1      32.698  32.984  26.965  1.00  0.00     0.116 C 
BRANCH  23  24
ATOM     24  N   UNL A   1      32.503  34.263  27.625  1.00  0.00    -0.352 N 
ATOM     25  C   UNL A   1      33.095  34.761  28.752  1.00  0.00     0.251 C 
ATOM     26  H   UNL A   1      31.847  34.860  27.197  1.00  0.00     0.163 HD
ATOM     27  O   UNL A   1      32.651  35.791  29.268  1.00  0.00    -0.269 OA
BRANCH  25  28
ATOM     28  C   UNL A   1      34.255  34.080  29.367  1.00  0.00     0.039 A 
ATOM     29  C   UNL A   1      35.540  34.477  28.988  1.00  0.00     0.014 A 
ATOM     30  C   UNL A   1      34.090  33.014  30.257  1.00  0.00     0.014 A 
ATOM     31  C   UNL A   1      36.656  33.819  29.511  1.00  0.00     0.010 A 
ATOM     32  C   UNL A   1      35.203  32.403  30.831  1.00  0.00     0.010 A 
ATOM     33  C   UNL A   1      36.497  32.781  30.442  1.00  0.00    -0.014 A 
BRANCH  33  34
ATOM     34  C   UNL A   1      37.677  32.043  30.959  1.00  0.00     0.031 A 
ATOM     35  C   UNL A   1      38.186  32.319  32.349  1.00  0.00     0.074 A 
ATOM     36  C   UNL A   1      38.293  31.132  30.182  1.00  0.00     0.049 A 
ATOM     37  N   UNL A   1      39.199  31.782  32.981  1.00  0.00    -0.248 NA
ATOM     38  C   UNL A   1      37.475  33.348  33.124  1.00  0.00     0.031 C 
ATOM     39  C   UNL A   1      37.919  30.799  28.806  1.00  0.00     0.029 A 
ATOM     40  N   UNL A   1      39.363  30.314  30.444  1.00  0.00    -0.354 N 
ATOM     41  C   UNL A   1      39.246  32.408  34.221  1.00  0.00     0.074 A 
ATOM     42  C   UNL A   1      38.203  33.409  34.229  1.00  0.00     0.031 C 
ATOM     43  C   UNL A   1      38.725  29.824  28.356  1.00  0.00     0.029 A 
ATOM     44  C   UNL A   1      39.686  29.480  29.400  1.00  0.00     0.049 A 
ATOM     45  H   UNL A   1      39.852  30.322  31.297  1.00  0.00     0.167 HD
ATOM     46  C   UNL A   1      40.062  32.153  35.271  1.00  0.00     0.037 A 
ATOM     47  C   UNL A   1      40.644  28.541  29.304  1.00  0.00     0.037 A 
ATOM     48  C   UNL A   1      41.088  31.143  35.274  1.00  0.00     0.049 A 
ATOM     49  C   UNL A   1      41.538  28.278  30.485  1.00  0.00     0.074 A 
ATOM     50  C   UNL A   1      41.959  30.797  36.293  1.00  0.00     0.029 A 
ATOM     51  N   UNL A   1      41.372  30.309  34.204  1.00  0.00    -0.354 N 
ATOM     52  N   UNL A   1      41.541  28.849  31.665  1.00  0.00    -0.248 NA
ATOM     53  C   UNL A   1      42.553  27.227  30.323  1.00  0.00     0.031 C 
ATOM     54  C   UNL A   1      42.786  29.767  35.830  1.00  0.00     0.029 A 
ATOM     55  C   UNL A   1      42.405  29.448  34.537  1.00  0.00     0.049 A 
ATOM     56  H   UNL A   1      40.909  30.327  33.335  1.00  0.00     0.167 HD
ATOM     57  C   UNL A   1      42.530  28.204  32.396  1.00  0.00     0.074 A 
ATOM     58  C   UNL A   1      43.093  27.189  31.531  1.00  0.00     0.031 C 
ATOM     59  C   UNL A   1      42.938  28.431  33.669  1.00  0.00     0.037 A 
BRANCH  46  60
ATOM     60  C   UNL A   1      39.859  32.970  36.514  1.00  0.00     0.057 A 
ATOM     61  C   UNL A   1      40.619  34.119  36.768  1.00  0.00     0.134 A 
ATOM     62  C   UNL A   1      38.881  32.623  37.454  1.00  0.00     0.134 A 
ATOM     63  F   UNL A   1      41.583  34.498  35.914  1.00  0.00    -0.206 F 
ATOM     64  C   UNL A   1      40.432  34.879  37.923  1.00  0.00     0.040 A 
ATOM     65  C   UNL A   1      38.667  33.390  38.600  1.00  0.00     0.040 A 
ATOM     66  F   UNL A   1      38.115  31.537  37.271  1.00  0.00    -0.206 F 
ATOM     67  C   UNL A   1      39.448  34.518  38.840  1.00  0.00     0.006 A 
ENDBRANCH  46  60
BRANCH  47  68
ATOM     68  C   UNL A   1      40.791  27.742  28.061  1.00  0.00     0.057 A 
ATOM     69  C   UNL A   1      40.156  26.502  27.923  1.00  0.00     0.134 A 
ATOM     70  C   UNL A   1      41.599  28.175  27.003  1.00  0.00     0.134 A 
ATOM     71  F   UNL A   1      39.385  26.025  28.911  1.00  0.00    -0.206 F 
ATOM     72  C   UNL A   1      40.342  25.706  26.791  1.00  0.00     0.040 A 
ATOM     73  C   UNL A   1      41.773  27.402  25.855  1.00  0.00     0.040 A 
ATOM     74  F   UNL A   1      42.228  29.358  27.071  1.00  0.00    -0.206 F 
ATOM     75  C   UNL A   1      41.153  26.158  25.751  1.00  0.00     0.006 A 
ENDBRANCH  47  68
BRANCH  59  76
ATOM     76  C   UNL A   1      44.009  27.531  34.210  1.00  0.00     0.057 A 
ATOM     77  C   UNL A   1      45.367  27.864  34.132  1.00  0.00     0.134 A 
ATOM     78  C   UNL A   1      43.674  26.319  34.827  1.00  0.00     0.134 A 
ATOM     79  F   UNL A   1      45.754  29.004  33.541  1.00  0.00    -0.206 F 
ATOM     80  C   UNL A   1      46.356  27.006  34.616  1.00  0.00     0.040 A 
ATOM     81  C   UNL A   1      44.651  25.466  35.337  1.00  0.00     0.040 A 
ATOM     82  F   UNL A   1      42.389  25.945  34.942  1.00  0.00    -0.206 F 
ATOM     83  C   UNL A   1      45.998  25.804  35.224  1.00  0.00     0.006 A 
ENDBRANCH  59  76
ENDBRANCH  33  34
ENDBRANCH  25  28
ENDBRANCH  23  24
ENDBRANCH  22  23
ENDBRANCH  21  22
ENDBRANCH   1  21
TORSDOF 16
ENDMDL
MODEL 2
REMARK VINA RESULT:     -10.0      0.965      1.925
REMARK SMILES C[C@@H](O)[C@H](C)[N@@H+]1CCOC[C@@H]1C(=O)NCCCCCCNC(=O)c1ccc(-c2c3nc(c(-c4c(F)cccc4F)c4ccc([nH]4)c(-c4c(F)cccc4F)c4nc(c(-c5c(F)cccc5F)c5ccc2[nH]5)C=C4)C=C3)cc1
REMARK SMILES IDX 17 1 16 2 15 3 14 4 12 5 13 6 11 8 6 9 7 10 8 12 10 13 9 14
REMARK SMILES IDX 4 15 5 16 2 17 1 18 3 19 18 21 19 22 20 23 21 24 22 25 23 27
REMARK SMILES IDX 24 28 25 29 77 30 26 31 76 32 27 33 28 34 29 35 70 36 30 37
REMARK SMILES IDX 75 38 69 39 71 40 31 41 74 42 68 43 67 44 32 46 58 47 41 48
REMARK SMILES IDX 57 49 42 50 45 51 56 52 72 53 43 54 44 55 55 57 73 58 46 59
REMARK SMILES IDX 33 60 34 61 39 62 35 63 36 64 38 65 40 66 37 67 59 68 60 69
REMARK SMILES IDX 65 70 61 71 62 72 64 73 66 74 63 75 47 76 48 77 53 78 49 79
REMARK SMILES IDX 50 80 52 81 54 82 51 83
REMARK H PARENT 14 7 6 11 3 20 21 26 71 45 45 56
REMARK Flexibility Score: inf
ROOT
ATOM      1  C   UNL A   1      32.260  29.937  26.856  1.00  0.00     0.002 C 
ENDROOT
BRANCH   1   2
ATOM      2  C   UNL A   1      31.582  28.634  27.295  1.00  0.00     0.021 C 
BRANCH   2   3
ATOM      3  C   UNL A   1      32.308  27.370  26.837  1.00  0.00     0.116 C 
BRANCH   3   4
ATOM      4  N   UNL A   1      31.401  26.243  26.802  1.00  0.00    -0.351 N 
ATOM      5  C   UNL A   1      31.399  25.034  26.186  1.00  0.00     0.280 C 
ATOM      6  O   UNL A   1      30.331  24.415  26.303  1.00  0.00    -0.268 OA
ATOM      7  H   UNL A   1      30.599  26.387  27.353  1.00  0.00     0.163 HD
BRANCH   5   8
ATOM      8  C   UNL A   1      32.589  24.397  25.422  1.00  0.00     0.300 C 
ATOM      9  N   UNL A   1      32.893  25.127  24.153  1.00  0.00    -0.317 N 
ATOM     10  C   UNL A   1      34.174  24.621  23.605  1.00  0.00     0.292 C 
ATOM     11  H   UNL A   1      32.926  26.093  24.479  1.00  0.00     0.349 HD
ATOM     12  C   UNL A   1      34.186  23.091  23.459  1.00  0.00     0.221 C 
ATOM     13  C   UNL A   1      32.694  22.876  25.272  1.00  0.00     0.235 C 
ATOM     14  O   UNL A   1      33.957  22.462  24.725  1.00  0.00    -0.369 OA
BRANCH   9  15
ATOM     15  C   UNL A   1      31.880  25.301  23.086  1.00  0.00     0.210 C 
ATOM     16  C   UNL A   1      30.608  24.445  23.135  1.00  0.00     0.078 C 
BRANCH  15  17
ATOM     17  C   UNL A   1      31.469  26.813  22.965  1.00  0.00     0.169 C 
ATOM     18  C   UNL A   1      32.565  27.813  23.337  1.00  0.00     0.045 C 
BRANCH  17  19
ATOM     19  O   UNL A   1      31.032  27.088  21.627  1.00  0.00    -0.387 OA
ATOM     20  H   UNL A   1      31.414  26.434  21.021  1.00  0.00     0.211 HD
ENDBRANCH  17  19
ENDBRANCH  15  17
ENDBRANCH   9  15
ENDBRANCH   5   8
ENDBRANCH   3   4
ENDBRANCH   2   3
ENDBRANCH   1   2
BRANCH   1  21
ATOM     21  C   UNL A   1      31.389  30.878  26.015  1.00  0.00     0.002 C 
BRANCH  21  22
ATOM     22  C   UNL A   1      31.325  32.328  26.504  1.00  0.00     0.021 C 
BRANCH  22  23
ATOM     23  C   UNL A   1      32.621  32.858  27.108  1.00  0.00     0.116 C 
BRANCH  23  24
ATOM     24  N   UNL A   1      32.465  34.203  27.634  1.00  0.00    -0.352 N 
ATOM     25  C   UNL A   1      33.091  34.802  28.692  1.00  0.00     0.251 C 
ATOM     26  H   UNL A   1      31.814  34.767  27.158  1.00  0.00     0.163 HD
ATOM     27  O   UNL A   1      32.678  35.890  29.105  1.00  0.00    -0.269 OA
BRANCH  25  28
ATOM     28  C   UNL A   1      34.248  34.163  29.354  1.00  0.00     0.039 A 
ATOM     29  C   UNL A   1      35.534  34.496  28.919  1.00  0.00     0.014 A 
ATOM     30  C   UNL A   1      34.079  33.192  30.346  1.00  0.00     0.014 A 
ATOM     31  C   UNL A   1      36.647  33.872  29.487  1.00  0.00     0.010 A 
ATOM     32  C   UNL A   1      35.191  32.620  30.961  1.00  0.00     0.010 A 
ATOM     33  C   UNL A   1      36.485  32.934  30.518  1.00  0.00    -0.014 A 
BRANCH  33  34
ATOM     34  C   UNL A   1      37.660  32.228  31.088  1.00  0.00     0.031 A 
ATOM     35  C   UNL A   1      38.135  32.559  32.478  1.00  0.00     0.074 A 
ATOM     36  C   UNL A   1      38.303  31.295  30.359  1.00  0.00     0.049 A 
ATOM     37  N   UNL A   1      39.139  32.057  33.152  1.00  0.00    -0.248 NA
ATOM     38  C   UNL A   1      37.396  33.608  33.199  1.00  0.00     0.031 C 
ATOM     39  C   UNL A   1      37.963  30.909  28.988  1.00  0.00     0.029 A 
ATOM     40  N   UNL A   1      39.374  30.499  30.674  1.00  0.00    -0.354 N 
ATOM     41  C   UNL A   1      39.151  32.728  34.369  1.00  0.00     0.074 A 
ATOM     42  C   UNL A   1      38.098  33.716  34.317  1.00  0.00     0.031 C 
ATOM     43  C   UNL A   1      38.790  29.927  28.592  1.00  0.00     0.029 A 
ATOM     44  C   UNL A   1      39.730  29.632  29.669  1.00  0.00     0.049 A 
ATOM     45  H   UNL A   1      39.844  30.544  31.537  1.00  0.00     0.167 HD
ATOM     46  C   UNL A   1      39.946  32.520  35.446  1.00  0.00     0.037 A 
ATOM     47  C   UNL A   1      40.699  28.700  29.629  1.00  0.00     0.037 A 
ATOM     48  C   UNL A   1      40.981  31.522  35.509  1.00  0.00     0.049 A 
ATOM     49  C   UNL A   1      41.569  28.490  30.839  1.00  0.00     0.074 A 
ATOM     50  C   UNL A   1      41.832  31.222  36.558  1.00  0.00     0.029 A 
ATOM     51  N   UNL A   1      41.298  30.652  34.475  1.00  0.00    -0.354 N 
ATOM     52  N   UNL A   1      41.539  29.103  31.996  1.00  0.00    -0.248 NA
ATOM     53  C   UNL A   1      42.597  27.445  30.738  1.00  0.00     0.031 C 
ATOM     54  C   UNL A   1      42.680  30.185  36.152  1.00  0.00     0.029 A 
ATOM     55  C   UNL A   1      42.331  29.815  34.863  1.00  0.00     0.049 A 
ATOM     56  H   UNL A   1      40.854  30.634  33.597  1.00  0.00     0.167 HD
ATOM     57  C   UNL A   1      42.518  28.496  32.773  1.00  0.00     0.074 A 
ATOM     58  C   UNL A   1      43.111  27.456  31.958  1.00  0.00     0.031 C 
ATOM     59  C   UNL A   1      42.894  28.774  34.045  1.00  0.00     0.037 A 
BRANCH  46  60
ATOM     60  C   UNL A   1      39.706  33.379  36.653  1.00  0.00     0.057 A 
ATOM     61  C   UNL A   1      38.777  33.015  37.638  1.00  0.00     0.134 A 
ATOM     62  C   UNL A   1      40.423  34.564  36.849  1.00  0.00     0.134 A 
ATOM     63  F   UNL A   1      38.047  31.898  37.503  1.00  0.00    -0.206 F 
ATOM     64  C   UNL A   1      38.553  33.812  38.761  1.00  0.00     0.040 A 
ATOM     65  C   UNL A   1      40.225  35.358  37.981  1.00  0.00     0.040 A 
ATOM     66  F   UNL A   1      41.331  34.970  35.948  1.00  0.00    -0.206 F 
ATOM     67  C   UNL A   1      39.284  34.985  38.937  1.00  0.00     0.006 A 
ENDBRANCH  46  60
BRANCH  47  68
ATOM     68  C   UNL A   1      40.883  27.858  28.419  1.00  0.00     0.057 A 
ATOM     69  C   UNL A   1      41.707  28.278  27.368  1.00  0.00     0.134 A 
ATOM     70  C   UNL A   1      40.211  26.640  28.266  1.00  0.00     0.134 A 
ATOM     71  F   UNL A   1      42.361  29.447  27.449  1.00  0.00    -0.206 F 
ATOM     72  C   UNL A   1      41.833  27.534  26.194  1.00  0.00     0.040 A 
ATOM     73  C   UNL A   1      40.348  25.873  27.109  1.00  0.00     0.040 A 
ATOM     74  F   UNL A   1      39.414  26.179  29.240  1.00  0.00    -0.206 F 
ATOM     75  C   UNL A   1      41.152  26.324  26.063  1.00  0.00     0.006 A 
ENDBRANCH  47  68
BRANCH  59  76
ATOM     76  C   UNL A   1      43.962  27.905  34.642  1.00  0.00     0.057 A 
ATOM     77  C   UNL A   1      45.319  28.241  34.567  1.00  0.00     0.134 A 
ATOM     78  C   UNL A   1      43.623  26.722  35.311  1.00  0.00     0.134 A 
ATOM     79  F   UNL A   1      45.710  29.354  33.927  1.00  0.00    -0.206 F 
ATOM     80  C   UNL A   1      46.305  27.412  35.104  1.00  0.00     0.040 A 
ATOM     81  C   UNL A   1      44.597  25.899  35.875  1.00  0.00     0.040 A 
ATOM     82  F   UNL A   1      42.339  26.348  35.427  1.00  0.00    -0.206 F 
ATOM     83  C   UNL A   1      45.944  26.239  35.764  1.00  0.00     0.006 A 
ENDBRANCH  59  76
ENDBRANCH  33  34
ENDBRANCH  25  28
ENDBRANCH  23  24
ENDBRANCH  22  23
ENDBRANCH  21  22
ENDBRANCH   1  21
TORSDOF 16
ENDMDL
MODEL 3
REMARK VINA RESULT:     -10.0      5.260     10.295
REMARK SMILES C[C@@H](O)[C@H](C)[N@@H+]1CCOC[C@@H]1C(=O)NCCCCCCNC(=O)c1ccc(-c2c3nc(c(-c4c(F)cccc4F)c4ccc([nH]4)c(-c4c(F)cccc4F)c4nc(c(-c5c(F)cccc5F)c5ccc2[nH]5)C=C4)C=C3)cc1
REMARK SMILES IDX 17 1 16 2 15 3 14 4 12 5 13 6 11 8 6 9 7 10 8 12 10 13 9 14
REMARK SMILES IDX 4 15 5 16 2 17 1 18 3 19 18 21 19 22 20 23 21 24 22 25 23 27
REMARK SMILES IDX 24 28 25 29 77 30 26 31 76 32 27 33 28 34 29 35 70 36 30 37
REMARK SMILES IDX 75 38 69 39 71 40 31 41 74 42 68 43 67 44 32 46 58 47 41 48
REMARK SMILES IDX 57 49 42 50 45 51 56 52 72 53 43 54 44 55 55 57 73 58 46 59
REMARK SMILES IDX 33 60 34 61 39 62 35 63 36 64 38 65 40 66 37 67 59 68 60 69
REMARK SMILES IDX 65 70 61 71 62 72 64 73 66 74 63 75 47 76 48 77 53 78 49 79
REMARK SMILES IDX 50 80 52 81 54 82 51 83
REMARK H PARENT 14 7 6 11 3 20 21 26 71 45 45 56
REMARK Flexibility Score: inf
ROOT
ATOM      1  C   UNL A   1      37.358  21.515  24.406  1.00  0.00     0.002 C 
ENDROOT
BRANCH   1   2
ATOM      2  C   UNL A   1      37.042  22.639  25.400  1.00  0.00     0.021 C 
BRANCH   2   3
ATOM      3  C   UNL A   1      36.370  23.857  24.767  1.00  0.00     0.116 C 
BRANCH   3   4
ATOM      4  N   UNL A   1      35.266  24.314  25.583  1.00  0.00    -0.351 N 
ATOM      5  C   UNL A   1      33.914  24.239  25.494  1.00  0.00     0.280 C 
ATOM      6  O   UNL A   1      33.318  24.911  26.349  1.00  0.00    -0.268 OA
ATOM      7  H   UNL A   1      35.565  24.789  26.391  1.00  0.00     0.163 HD
BRANCH   5   8
ATOM      8  C   UNL A   1      33.113  23.388  24.475  1.00  0.00     0.300 C 
ATOM      9  N   UNL A   1      32.647  22.097  25.068  1.00  0.00    -0.317 N 
ATOM     10  C   UNL A   1      31.696  21.454  24.131  1.00  0.00     0.292 C 
ATOM     11  H   UNL A   1      32.228  22.416  25.942  1.00  0.00     0.349 HD
ATOM     12  C   UNL A   1      32.275  21.312  22.714  1.00  0.00     0.221 C 
ATOM     13  C   UNL A   1      33.602  23.235  23.031  1.00  0.00     0.235 C 
ATOM     14  O   UNL A   1      32.633  22.594  22.185  1.00  0.00    -0.369 OA
BRANCH   9  15
ATOM     15  C   UNL A   1      33.594  21.110  25.640  1.00  0.00     0.210 C 
ATOM     16  C   UNL A   1      34.047  21.285  27.095  1.00  0.00     0.078 C 
BRANCH  15  17
ATOM     17  C   UNL A   1      33.038  19.651  25.453  1.00  0.00     0.169 C 
ATOM     18  C   UNL A   1      33.879  18.750  24.547  1.00  0.00     0.045 C 
BRANCH  17  19
ATOM     19  O   UNL A   1      32.905  19.019  26.734  1.00  0.00    -0.387 OA
ATOM     20  H   UNL A   1      33.782  18.763  27.061  1.00  0.00     0.211 HD
ENDBRANCH  17  19
ENDBRANCH  15  17
ENDBRANCH   9  15
ENDBRANCH   5   8
ENDBRANCH   3   4
ENDBRANCH   2   3
ENDBRANCH   1   2
BRANCH   1  21
ATOM     21  C   UNL A   1      37.010  20.100  24.886  1.00  0.00     0.002 C 
BRANCH  21  22
ATOM     22  C   UNL A   1      38.205  19.165  25.097  1.00  0.00     0.021 C 
BRANCH  22  23
ATOM     23  C   UNL A   1      39.415  19.811  25.761  1.00  0.00     0.116 C 
BRANCH  23  24
ATOM     24  N   UNL A   1      40.542  18.899  25.843  1.00  0.00    -0.352 N 
ATOM     25  C   UNL A   1      41.868  19.168  26.037  1.00  0.00     0.251 C 
ATOM     26  H   UNL A   1      40.317  17.945  25.747  1.00  0.00     0.163 HD
ATOM     27  O   UNL A   1      42.700  18.269  25.880  1.00  0.00    -0.269 OA
BRANCH  25  28
ATOM     28  C   UNL A   1      42.322  20.521  26.423  1.00  0.00     0.039 A 
ATOM     29  C   UNL A   1      42.268  20.884  27.772  1.00  0.00     0.014 A 
ATOM     30  C   UNL A   1      42.734  21.455  25.468  1.00  0.00     0.014 A 
ATOM     31  C   UNL A   1      42.640  22.171  28.164  1.00  0.00     0.010 A 
ATOM     32  C   UNL A   1      43.171  22.717  25.866  1.00  0.00     0.010 A 
ATOM     33  C   UNL A   1      43.101  23.097  27.215  1.00  0.00    -0.014 A 
BRANCH  33  34
ATOM     34  C   UNL A   1      43.447  24.484  27.618  1.00  0.00     0.031 A 
ATOM     35  C   UNL A   1      44.882  24.938  27.594  1.00  0.00     0.074 A 
ATOM     36  C   UNL A   1      42.476  25.331  28.010  1.00  0.00     0.049 A 
ATOM     37  N   UNL A   1      45.387  26.105  27.908  1.00  0.00    -0.248 NA
ATOM     38  C   UNL A   1      45.886  23.945  27.179  1.00  0.00     0.031 C 
ATOM     39  C   UNL A   1      41.053  25.001  28.111  1.00  0.00     0.029 A 
ATOM     40  N   UNL A   1      42.541  26.647  28.391  1.00  0.00    -0.354 N 
ATOM     41  C   UNL A   1      46.760  25.983  27.732  1.00  0.00     0.074 A 
ATOM     42  C   UNL A   1      47.016  24.614  27.347  1.00  0.00     0.031 C 
ATOM     43  C   UNL A   1      40.376  26.096  28.496  1.00  0.00     0.029 A 
ATOM     44  C   UNL A   1      41.317  27.194  28.691  1.00  0.00     0.049 A 
ATOM     45  H   UNL A   1      43.384  27.152  28.445  1.00  0.00     0.167 HD
ATOM     46  C   UNL A   1      47.719  26.932  27.849  1.00  0.00     0.037 A 
ATOM     47  C   UNL A   1      40.994  28.444  29.072  1.00  0.00     0.037 A 
ATOM     48  C   UNL A   1      47.464  28.302  28.212  1.00  0.00     0.049 A 
ATOM     49  C   UNL A   1      42.079  29.479  29.195  1.00  0.00     0.074 A 
ATOM     50  C   UNL A   1      48.365  29.344  28.345  1.00  0.00     0.029 A 
ATOM     51  N   UNL A   1      46.208  28.820  28.491  1.00  0.00    -0.354 N 
ATOM     52  N   UNL A   1      43.367  29.358  28.983  1.00  0.00    -0.248 NA
ATOM     53  C   UNL A   1      41.660  30.829  29.596  1.00  0.00     0.031 C 
ATOM     54  C   UNL A   1      47.656  30.489  28.726  1.00  0.00     0.029 A 
ATOM     55  C   UNL A   1      46.310  30.167  28.795  1.00  0.00     0.049 A 
ATOM     56  H   UNL A   1      45.369  28.305  28.476  1.00  0.00     0.167 HD
ATOM     57  C   UNL A   1      43.905  30.622  29.190  1.00  0.00     0.074 A 
ATOM     58  C   UNL A   1      42.802  31.496  29.528  1.00  0.00     0.031 C 
ATOM     59  C   UNL A   1      45.198  31.024  29.109  1.00  0.00     0.037 A 
BRANCH  46  60
ATOM     60  C   UNL A   1      49.132  26.521  27.558  1.00  0.00     0.057 A 
ATOM     61  C   UNL A   1      49.658  26.572  26.260  1.00  0.00     0.134 A 
ATOM     62  C   UNL A   1      49.985  26.093  28.582  1.00  0.00     0.134 A 
ATOM     63  F   UNL A   1      48.888  26.959  25.231  1.00  0.00    -0.206 F 
ATOM     64  C   UNL A   1      50.972  26.190  25.987  1.00  0.00     0.040 A 
ATOM     65  C   UNL A   1      51.309  25.732  28.326  1.00  0.00     0.040 A 
ATOM     66  F   UNL A   1      49.549  26.024  29.849  1.00  0.00    -0.206 F 
ATOM     67  C   UNL A   1      51.803  25.774  27.024  1.00  0.00     0.006 A 
ENDBRANCH  46  60
BRANCH  47  68
ATOM     68  C   UNL A   1      39.578  28.809  29.326  1.00  0.00     0.057 A 
ATOM     69  C   UNL A   1      39.015  28.666  30.600  1.00  0.00     0.134 A 
ATOM     70  C   UNL A   1      38.744  29.269  28.300  1.00  0.00     0.134 A 
ATOM     71  F   UNL A   1      39.760  28.212  31.619  1.00  0.00    -0.206 F 
ATOM     72  C   UNL A   1      37.667  28.937  30.840  1.00  0.00     0.040 A 
ATOM     73  C   UNL A   1      37.401  29.568  28.530  1.00  0.00     0.040 A 
ATOM     74  F   UNL A   1      39.225  29.435  27.059  1.00  0.00    -0.206 F 
ATOM     75  C   UNL A   1      36.855  29.391  29.801  1.00  0.00     0.006 A 
ENDBRANCH  47  68
BRANCH  59  76
ATOM     76  C   UNL A   1      45.471  32.480  29.343  1.00  0.00     0.057 A 
ATOM     77  C   UNL A   1      45.767  32.985  30.616  1.00  0.00     0.134 A 
ATOM     78  C   UNL A   1      45.449  33.387  28.276  1.00  0.00     0.134 A 
ATOM     79  F   UNL A   1      45.790  32.170  31.681  1.00  0.00    -0.206 F 
ATOM     80  C   UNL A   1      45.994  34.346  30.825  1.00  0.00     0.040 A 
ATOM     81  C   UNL A   1      45.700  34.745  28.468  1.00  0.00     0.040 A 
ATOM     82  F   UNL A   1      45.181  32.967  27.030  1.00  0.00    -0.206 F 
ATOM     83  C   UNL A   1      45.965  35.230  29.748  1.00  0.00     0.006 A 
ENDBRANCH  59  76
ENDBRANCH  33  34
ENDBRANCH  25  28
ENDBRANCH  23  24
ENDBRANCH  22  23
ENDBRANCH  21  22
ENDBRANCH   1  21
TORSDOF 16
ENDMDL
