MODEL 1
REMARK VINA RESULT:     -11.4      0.000      0.000
REMARK SMILES O=C(NCCCCCCNC(=O)[C@H]1CCCCN1C(=O)c1nc(C2CC2)n[nH]1)c1ccc(-c2c3nc(c(-c4c(F)cccc4F)c4ccc([nH]4)c(-c4c(F)cccc4F)c4nc(c(-c5c(F)cccc5F)c5ccc2[nH]5)C=C4)C=C3)cc1
REMARK SMILES IDX 7 1 6 2 5 3 4 4 3 5 1 6 2 7 29 9 30 10 82 11 31 12 81 13
REMARK SMILES IDX 32 14 33 15 34 16 75 17 35 18 80 19 74 20 76 21 36 22 79 23
REMARK SMILES IDX 73 24 72 25 37 27 63 28 46 29 62 30 47 31 50 32 61 33 77 34
REMARK SMILES IDX 48 35 49 36 60 38 78 39 51 40 38 41 39 42 44 43 40 44 41 45
REMARK SMILES IDX 43 46 45 47 42 48 64 49 65 50 70 51 66 52 67 53 69 54 71 55
REMARK SMILES IDX 68 56 52 57 53 58 58 59 54 60 55 61 57 62 59 63 56 64 8 65
REMARK SMILES IDX 9 66 10 67 11 68 12 70 13 71 14 72 18 73 15 74 17 75 16 76
REMARK SMILES IDX 19 77 20 78 21 79 22 80 28 81 23 82 27 83 24 85 25 86 26 87
REMARK H PARENT 3 8 76 26 50 37 10 69 28 84
REMARK Flexibility Score: inf
ROOT
ATOM      1  C   UNL A   1      36.913  21.902  24.633  1.00  0.00     0.002 C 
ENDROOT
BRANCH   1   2
ATOM      2  C   UNL A   1      36.709  20.413  24.923  1.00  0.00     0.002 C 
BRANCH   2   3
ATOM      3  C   UNL A   1      37.980  19.564  24.900  1.00  0.00     0.021 C 
BRANCH   3   4
ATOM      4  C   UNL A   1      39.074  20.035  25.848  1.00  0.00     0.116 C 
BRANCH   4   5
ATOM      5  N   UNL A   1      40.260  19.196  25.788  1.00  0.00    -0.352 N 
ATOM      6  O   UNL A   1      42.478  18.763  25.770  1.00  0.00    -0.269 OA
ATOM      7  C   UNL A   1      41.567  19.543  26.026  1.00  0.00     0.251 C 
ATOM      8  H   UNL A   1      40.106  18.255  25.545  1.00  0.00     0.163 HD
BRANCH   7   9
ATOM      9  C   UNL A   1      41.868  20.878  26.582  1.00  0.00     0.039 A 
ATOM     10  C   UNL A   1      41.841  21.085  27.963  1.00  0.00     0.014 A 
ATOM     11  C   UNL A   1      42.181  21.930  25.716  1.00  0.00     0.014 A 
ATOM     12  C   UNL A   1      42.002  22.367  28.469  1.00  0.00     0.010 A 
ATOM     13  C   UNL A   1      42.432  23.203  26.235  1.00  0.00     0.010 A 
ATOM     14  C   UNL A   1      42.328  23.435  27.615  1.00  0.00    -0.014 A 
BRANCH  14  15
ATOM     15  C   UNL A   1      42.653  24.751  28.217  1.00  0.00     0.031 A 
ATOM     16  C   UNL A   1      44.057  25.119  28.602  1.00  0.00     0.074 A 
ATOM     17  C   UNL A   1      41.651  25.639  28.372  1.00  0.00     0.049 A 
ATOM     18  N   UNL A   1      44.502  26.248  29.094  1.00  0.00    -0.248 NA
ATOM     19  C   UNL A   1      45.095  24.094  28.418  1.00  0.00     0.031 C 
ATOM     20  C   UNL A   1      40.242  25.378  28.054  1.00  0.00     0.029 A 
ATOM     21  N   UNL A   1      41.657  26.939  28.803  1.00  0.00    -0.354 N 
ATOM     22  C   UNL A   1      45.866  26.069  29.289  1.00  0.00     0.074 A 
ATOM     23  C   UNL A   1      46.173  24.713  28.886  1.00  0.00     0.031 C 
ATOM     24  C   UNL A   1      39.533  26.498  28.248  1.00  0.00     0.029 A 
ATOM     25  C   UNL A   1      40.419  27.533  28.763  1.00  0.00     0.049 A 
ATOM     26  H   UNL A   1      42.469  27.401  29.112  1.00  0.00     0.167 HD
ATOM     27  C   UNL A   1      46.774  26.960  29.754  1.00  0.00     0.037 A 
ATOM     28  C   UNL A   1      40.034  28.772  29.116  1.00  0.00     0.037 A 
ATOM     29  C   UNL A   1      46.461  28.311  30.149  1.00  0.00     0.049 A 
ATOM     30  C   UNL A   1      41.064  29.730  29.634  1.00  0.00     0.074 A 
ATOM     31  C   UNL A   1      47.317  29.293  30.619  1.00  0.00     0.029 A 
ATOM     32  N   UNL A   1      45.192  28.871  30.118  1.00  0.00    -0.354 N 
ATOM     33  N   UNL A   1      42.353  29.552  29.789  1.00  0.00    -0.248 NA
ATOM     34  C   UNL A   1      40.585  31.062  30.030  1.00  0.00     0.031 C 
ATOM     35  C   UNL A   1      46.560  30.434  30.907  1.00  0.00     0.029 A 
ATOM     36  C   UNL A   1      45.240  30.179  30.575  1.00  0.00     0.049 A 
ATOM     37  H   UNL A   1      44.378  28.407  29.816  1.00  0.00     0.167 HD
ATOM     38  C   UNL A   1      42.841  30.747  30.296  1.00  0.00     0.074 A 
ATOM     39  C   UNL A   1      41.716  31.654  30.387  1.00  0.00     0.031 C 
ATOM     40  C   UNL A   1      44.107  31.063  30.665  1.00  0.00     0.037 A 
BRANCH  27  41
ATOM     41  C   UNL A   1      48.202  26.508  29.871  1.00  0.00     0.057 A 
ATOM     42  C   UNL A   1      48.667  25.824  31.001  1.00  0.00     0.134 A 
ATOM     43  C   UNL A   1      49.101  26.692  28.813  1.00  0.00     0.134 A 
ATOM     44  F   UNL A   1      47.860  25.623  32.054  1.00  0.00    -0.206 F 
ATOM     45  C   UNL A   1      49.977  25.348  31.079  1.00  0.00     0.040 A 
ATOM     46  C   UNL A   1      50.407  26.202  28.869  1.00  0.00     0.040 A 
ATOM     47  F   UNL A   1      48.718  27.332  27.697  1.00  0.00    -0.206 F 
ATOM     48  C   UNL A   1      50.849  25.528  30.006  1.00  0.00     0.006 A 
ENDBRANCH  27  41
BRANCH  28  49
ATOM     49  C   UNL A   1      38.608  29.165  29.006  1.00  0.00     0.057 A 
ATOM     50  C   UNL A   1      37.751  29.114  30.111  1.00  0.00     0.134 A 
ATOM     51  C   UNL A   1      38.066  29.600  27.790  1.00  0.00     0.134 A 
ATOM     52  F   UNL A   1      38.207  28.691  31.299  1.00  0.00    -0.206 F 
ATOM     53  C   UNL A   1      36.403  29.460  30.007  1.00  0.00     0.040 A 
ATOM     54  C   UNL A   1      36.729  29.979  27.677  1.00  0.00     0.040 A 
ATOM     55  F   UNL A   1      38.838  29.682  26.696  1.00  0.00    -0.206 F 
ATOM     56  C   UNL A   1      35.890  29.900  28.788  1.00  0.00     0.006 A 
ENDBRANCH  28  49
BRANCH  40  57
ATOM     57  C   UNL A   1      44.327  32.452  31.186  1.00  0.00     0.057 A 
ATOM     58  C   UNL A   1      44.639  33.516  30.330  1.00  0.00     0.134 A 
ATOM     59  C   UNL A   1      44.231  32.726  32.555  1.00  0.00     0.134 A 
ATOM     60  F   UNL A   1      44.762  33.313  29.010  1.00  0.00    -0.206 F 
ATOM     61  C   UNL A   1      44.881  34.799  30.822  1.00  0.00     0.040 A 
ATOM     62  C   UNL A   1      44.445  34.011  33.056  1.00  0.00     0.040 A 
ATOM     63  F   UNL A   1      43.930  31.752  33.427  1.00  0.00    -0.206 F 
ATOM     64  C   UNL A   1      44.781  35.049  32.190  1.00  0.00     0.006 A 
ENDBRANCH  40  57
ENDBRANCH  14  15
ENDBRANCH   7   9
ENDBRANCH   4   5
ENDBRANCH   3   4
ENDBRANCH   2   3
ENDBRANCH   1   2
BRANCH   1  65
ATOM     65  C   UNL A   1      36.631  22.848  25.805  1.00  0.00     0.021 C 
BRANCH  65  66
ATOM     66  C   UNL A   1      35.673  23.996  25.482  1.00  0.00     0.116 C 
BRANCH  66  67
ATOM     67  N   UNL A   1      35.242  23.931  24.103  1.00  0.00    -0.354 N 
ATOM     68  C   UNL A   1      34.099  23.480  23.522  1.00  0.00     0.242 C 
ATOM     69  H   UNL A   1      35.903  24.280  23.462  1.00  0.00     0.163 HD
ATOM     70  O   UNL A   1      34.094  23.518  22.284  1.00  0.00    -0.273 OA
BRANCH  68  71
ATOM     71  C   UNL A   1      32.795  23.129  24.304  1.00  0.00     0.174 C 
ATOM     72  C   UNL A   1      31.855  22.302  23.404  1.00  0.00     0.035 C 
ATOM     73  N   UNL A   1      32.893  22.470  25.620  1.00  0.00    -0.324 N 
ATOM     74  C   UNL A   1      32.322  20.848  23.308  1.00  0.00     0.004 C 
ATOM     75  C   UNL A   1      33.309  21.065  25.615  1.00  0.00     0.121 C 
ATOM     76  C   UNL A   1      32.420  20.228  24.700  1.00  0.00     0.022 C 
BRANCH  73  77
ATOM     77  C   UNL A   1      32.425  23.139  26.759  1.00  0.00     0.291 C 
ATOM     78  O   UNL A   1      32.530  22.653  27.883  1.00  0.00    -0.265 OA
BRANCH  77  79
ATOM     79  C   UNL A   1      31.840  24.446  26.571  1.00  0.00     0.214 A 
ATOM     80  N   UNL A   1      32.489  25.586  26.415  1.00  0.00    -0.207 NA
ATOM     81  N   UNL A   1      30.501  24.684  26.492  1.00  0.00    -0.255 N 
ATOM     82  C   UNL A   1      31.474  26.510  26.329  1.00  0.00     0.154 A 
ATOM     83  N   UNL A   1      30.244  26.001  26.447  1.00  0.00    -0.158 NA
ATOM     84  H   UNL A   1      29.812  23.981  26.471  1.00  0.00     0.192 HD
BRANCH  82  85
ATOM     85  C   UNL A   1      31.709  28.001  26.150  1.00  0.00     0.060 C 
ATOM     86  C   UNL A   1      31.964  28.851  27.376  1.00  0.00     0.012 C 
ATOM     87  C   UNL A   1      33.082  28.576  26.425  1.00  0.00     0.012 C 
ENDBRANCH  82  85
ENDBRANCH  77  79
ENDBRANCH  73  77
ENDBRANCH  68  71
ENDBRANCH  66  67
ENDBRANCH  65  66
ENDBRANCH   1  65
TORSDOF 16
ENDMDL
MODEL 2
REMARK VINA RESULT:     -11.3      3.779      9.198
REMARK SMILES O=C(NCCCCCCNC(=O)[C@H]1CCCCN1C(=O)c1nc(C2CC2)n[nH]1)c1ccc(-c2c3nc(c(-c4c(F)cccc4F)c4ccc([nH]4)c(-c4c(F)cccc4F)c4nc(c(-c5c(F)cccc5F)c5ccc2[nH]5)C=C4)C=C3)cc1
REMARK SMILES IDX 7 1 6 2 5 3 4 4 3 5 1 6 2 7 29 9 30 10 82 11 31 12 81 13
REMARK SMILES IDX 32 14 33 15 34 16 75 17 35 18 80 19 74 20 76 21 36 22 79 23
REMARK SMILES IDX 73 24 72 25 37 27 63 28 46 29 62 30 47 31 50 32 61 33 77 34
REMARK SMILES IDX 48 35 49 36 60 38 78 39 51 40 38 41 39 42 44 43 40 44 41 45
REMARK SMILES IDX 43 46 45 47 42 48 64 49 65 50 70 51 66 52 67 53 69 54 71 55
REMARK SMILES IDX 68 56 52 57 53 58 58 59 54 60 55 61 57 62 59 63 56 64 8 65
REMARK SMILES IDX 9 66 10 67 11 68 12 70 13 71 14 72 18 73 15 74 17 75 16 76
REMARK SMILES IDX 19 77 20 78 21 79 22 80 28 81 23 82 27 83 24 85 25 86 26 87
REMARK H PARENT 3 8 76 26 50 37 10 69 28 84
REMARK Flexibility Score: inf
ROOT
ATOM      1  C   UNL A   1      32.259  29.397  26.664  1.00  0.00     0.002 C 
ENDROOT
BRANCH   1   2
ATOM      2  C   UNL A   1      31.465  30.422  25.852  1.00  0.00     0.002 C 
BRANCH   2   3
ATOM      3  C   UNL A   1      31.254  31.773  26.536  1.00  0.00     0.021 C 
BRANCH   3   4
ATOM      4  C   UNL A   1      32.533  32.456  26.999  1.00  0.00     0.116 C 
BRANCH   4   5
ATOM      5  N   UNL A   1      32.302  33.815  27.460  1.00  0.00    -0.352 N 
ATOM      6  O   UNL A   1      32.575  35.608  28.809  1.00  0.00    -0.269 OA
ATOM      7  C   UNL A   1      32.995  34.527  28.407  1.00  0.00     0.251 C 
ATOM      8  H   UNL A   1      31.550  34.287  27.036  1.00  0.00     0.163 HD
BRANCH   7   9
ATOM      9  C   UNL A   1      34.250  33.971  28.952  1.00  0.00     0.039 A 
ATOM     10  C   UNL A   1      34.212  33.036  29.988  1.00  0.00     0.014 A 
ATOM     11  C   UNL A   1      35.475  34.389  28.422  1.00  0.00     0.014 A 
ATOM     12  C   UNL A   1      35.395  32.614  30.578  1.00  0.00     0.010 A 
ATOM     13  C   UNL A   1      36.667  33.893  28.959  1.00  0.00     0.010 A 
ATOM     14  C   UNL A   1      36.636  33.014  30.052  1.00  0.00    -0.014 A 
BRANCH  14  15
ATOM     15  C   UNL A   1      37.871  32.408  30.609  1.00  0.00     0.031 A 
ATOM     16  C   UNL A   1      38.508  32.925  31.866  1.00  0.00     0.074 A 
ATOM     17  C   UNL A   1      38.389  31.339  29.973  1.00  0.00     0.049 A 
ATOM     18  N   UNL A   1      39.560  32.469  32.498  1.00  0.00    -0.248 NA
ATOM     19  C   UNL A   1      37.895  34.104  32.495  1.00  0.00     0.031 C 
ATOM     20  C   UNL A   1      37.865  30.767  28.728  1.00  0.00     0.029 A 
ATOM     21  N   UNL A   1      39.444  30.526  30.291  1.00  0.00    -0.354 N 
ATOM     22  C   UNL A   1      39.744  33.307  33.590  1.00  0.00     0.074 A 
ATOM     23  C   UNL A   1      38.708  34.317  33.522  1.00  0.00     0.031 C 
ATOM     24  C   UNL A   1      38.564  29.666  28.420  1.00  0.00     0.029 A 
ATOM     25  C   UNL A   1      39.623  29.491  29.406  1.00  0.00     0.049 A 
ATOM     26  H   UNL A   1      40.019  30.669  31.078  1.00  0.00     0.167 HD
ATOM     27  C   UNL A   1      40.685  33.232  34.561  1.00  0.00     0.037 A 
ATOM     28  C   UNL A   1      40.547  28.514  29.379  1.00  0.00     0.037 A 
ATOM     29  C   UNL A   1      41.710  32.218  34.624  1.00  0.00     0.049 A 
ATOM     30  C   UNL A   1      41.579  28.465  30.465  1.00  0.00     0.074 A 
ATOM     31  C   UNL A   1      42.701  32.051  35.577  1.00  0.00     0.029 A 
ATOM     32  N   UNL A   1      41.875  31.201  33.696  1.00  0.00    -0.354 N 
ATOM     33  N   UNL A   1      41.723  29.251  31.503  1.00  0.00    -0.248 NA
ATOM     34  C   UNL A   1      42.581  27.394  30.373  1.00  0.00     0.031 C 
ATOM     35  C   UNL A   1      43.486  30.954  35.206  1.00  0.00     0.029 A 
ATOM     36  C   UNL A   1      42.960  30.412  34.046  1.00  0.00     0.049 A 
ATOM     37  H   UNL A   1      41.306  31.060  32.905  1.00  0.00     0.167 HD
ATOM     38  C   UNL A   1      42.826  28.770  32.191  1.00  0.00     0.074 A 
ATOM     39  C   UNL A   1      43.291  27.601  31.473  1.00  0.00     0.031 C 
ATOM     40  C   UNL A   1      43.411  29.257  33.313  1.00  0.00     0.037 A 
BRANCH  27  41
ATOM     41  C   UNL A   1      40.663  34.275  35.641  1.00  0.00     0.057 A 
ATOM     42  C   UNL A   1      41.318  35.503  35.491  1.00  0.00     0.134 A 
ATOM     43  C   UNL A   1      39.918  34.080  36.811  1.00  0.00     0.134 A 
ATOM     44  F   UNL A   1      42.056  35.751  34.398  1.00  0.00    -0.206 F 
ATOM     45  C   UNL A   1      41.241  36.497  36.469  1.00  0.00     0.040 A 
ATOM     46  C   UNL A   1      39.815  35.073  37.787  1.00  0.00     0.040 A 
ATOM     47  F   UNL A   1      39.259  32.928  37.015  1.00  0.00    -0.206 F 
ATOM     48  C   UNL A   1      40.480  36.287  37.617  1.00  0.00     0.006 A 
ENDBRANCH  27  41
BRANCH  28  49
ATOM     49  C   UNL A   1      40.543  27.520  28.278  1.00  0.00     0.057 A 
ATOM     50  C   UNL A   1      39.842  26.314  28.388  1.00  0.00     0.134 A 
ATOM     51  C   UNL A   1      41.245  27.752  27.088  1.00  0.00     0.134 A 
ATOM     52  F   UNL A   1      39.164  26.028  29.508  1.00  0.00    -0.206 F 
ATOM     53  C   UNL A   1      39.856  25.366  27.364  1.00  0.00     0.040 A 
ATOM     54  C   UNL A   1      41.243  26.828  26.044  1.00  0.00     0.040 A 
ATOM     55  F   UNL A   1      41.928  28.894  26.917  1.00  0.00    -0.206 F 
ATOM     56  C   UNL A   1      40.553  25.625  26.185  1.00  0.00     0.006 A 
ENDBRANCH  28  49
BRANCH  40  57
ATOM     57  C   UNL A   1      44.607  28.511  33.825  1.00  0.00     0.057 A 
ATOM     58  C   UNL A   1      45.908  28.853  33.435  1.00  0.00     0.134 A 
ATOM     59  C   UNL A   1      44.455  27.438  34.710  1.00  0.00     0.134 A 
ATOM     60  F   UNL A   1      46.118  29.861  32.575  1.00  0.00    -0.206 F 
ATOM     61  C   UNL A   1      47.016  28.132  33.883  1.00  0.00     0.040 A 
ATOM     62  C   UNL A   1      45.557  26.725  35.185  1.00  0.00     0.040 A 
ATOM     63  F   UNL A   1      43.236  27.063  35.125  1.00  0.00    -0.206 F 
ATOM     64  C   UNL A   1      46.841  27.066  34.764  1.00  0.00     0.006 A 
ENDBRANCH  40  57
ENDBRANCH  14  15
ENDBRANCH   7   9
ENDBRANCH   4   5
ENDBRANCH   3   4
ENDBRANCH   2   3
ENDBRANCH   1   2
BRANCH   1  65
ATOM     65  C   UNL A   1      31.442  28.238  27.245  1.00  0.00     0.021 C 
BRANCH  65  66
ATOM     66  C   UNL A   1      31.183  27.088  26.270  1.00  0.00     0.116 C 
BRANCH  66  67
ATOM     67  N   UNL A   1      31.290  25.812  26.941  1.00  0.00    -0.354 N 
ATOM     68  C   UNL A   1      31.581  24.563  26.492  1.00  0.00     0.242 C 
ATOM     69  H   UNL A   1      31.118  25.856  27.909  1.00  0.00     0.163 HD
ATOM     70  O   UNL A   1      31.523  23.673  27.352  1.00  0.00    -0.273 OA
BRANCH  68  71
ATOM     71  C   UNL A   1      32.151  24.251  25.073  1.00  0.00     0.174 C 
ATOM     72  C   UNL A   1      33.093  25.388  24.628  1.00  0.00     0.035 C 
ATOM     73  N   UNL A   1      32.819  22.960  24.826  1.00  0.00    -0.324 N 
ATOM     74  C   UNL A   1      34.453  25.280  25.321  1.00  0.00     0.004 C 
ATOM     75  C   UNL A   1      34.140  22.783  25.432  1.00  0.00     0.121 C 
ATOM     76  C   UNL A   1      35.084  23.918  25.042  1.00  0.00     0.022 C 
BRANCH  73  77
ATOM     77  C   UNL A   1      32.259  22.062  23.907  1.00  0.00     0.291 C 
ATOM     78  O   UNL A   1      31.707  22.450  22.879  1.00  0.00    -0.265 OA
BRANCH  77  79
ATOM     79  C   UNL A   1      32.381  20.652  24.193  1.00  0.00     0.214 A 
ATOM     80  N   UNL A   1      32.687  19.696  23.334  1.00  0.00    -0.207 NA
ATOM     81  N   UNL A   1      32.226  20.103  25.429  1.00  0.00    -0.255 N 
ATOM     82  C   UNL A   1      32.620  18.557  24.101  1.00  0.00     0.154 A 
ATOM     83  N   UNL A   1      32.267  18.762  25.374  1.00  0.00    -0.158 NA
ATOM     84  H   UNL A   1      32.101  20.622  26.257  1.00  0.00     0.192 HD
BRANCH  82  85
ATOM     85  C   UNL A   1      32.887  17.163  23.559  1.00  0.00     0.060 C 
ATOM     86  C   UNL A   1      34.313  16.658  23.513  1.00  0.00     0.012 C 
ATOM     87  C   UNL A   1      33.359  16.076  24.502  1.00  0.00     0.012 C 
ENDBRANCH  82  85
ENDBRANCH  77  79
ENDBRANCH  73  77
ENDBRANCH  68  71
ENDBRANCH  66  67
ENDBRANCH  65  66
ENDBRANCH   1  65
TORSDOF 16
ENDMDL
MODEL 3
REMARK VINA RESULT:     -11.3      3.466      9.054
REMARK SMILES O=C(NCCCCCCNC(=O)[C@H]1CCCCN1C(=O)c1nc(C2CC2)n[nH]1)c1ccc(-c2c3nc(c(-c4c(F)cccc4F)c4ccc([nH]4)c(-c4c(F)cccc4F)c4nc(c(-c5c(F)cccc5F)c5ccc2[nH]5)C=C4)C=C3)cc1
REMARK SMILES IDX 7 1 6 2 5 3 4 4 3 5 1 6 2 7 29 9 30 10 82 11 31 12 81 13
REMARK SMILES IDX 32 14 33 15 34 16 75 17 35 18 80 19 74 20 76 21 36 22 79 23
REMARK SMILES IDX 73 24 72 25 37 27 63 28 46 29 62 30 47 31 50 32 61 33 77 34
REMARK SMILES IDX 48 35 49 36 60 38 78 39 51 40 38 41 39 42 44 43 40 44 41 45
REMARK SMILES IDX 43 46 45 47 42 48 64 49 65 50 70 51 66 52 67 53 69 54 71 55
REMARK SMILES IDX 68 56 52 57 53 58 58 59 54 60 55 61 57 62 59 63 56 64 8 65
REMARK SMILES IDX 9 66 10 67 11 68 12 70 13 71 14 72 18 73 15 74 17 75 16 76
REMARK SMILES IDX 19 77 20 78 21 79 22 80 28 81 23 82 27 83 24 85 25 86 26 87
REMARK H PARENT 3 8 76 26 50 37 10 69 28 84
REMARK Flexibility Score: inf
ROOT
ATOM      1  C   UNL A   1      32.439  29.548  26.460  1.00  0.00     0.002 C 
ENDROOT
BRANCH   1   2
ATOM      2  C   UNL A   1      31.404  30.507  25.864  1.00  0.00     0.002 C 
BRANCH   2   3
ATOM      3  C   UNL A   1      31.245  31.834  26.604  1.00  0.00     0.021 C 
BRANCH   3   4
ATOM      4  C   UNL A   1      32.554  32.479  27.039  1.00  0.00     0.116 C 
BRANCH   4   5
ATOM      5  N   UNL A   1      32.365  33.822  27.563  1.00  0.00    -0.352 N 
ATOM      6  O   UNL A   1      32.716  35.551  28.977  1.00  0.00    -0.269 OA
ATOM      7  C   UNL A   1      33.101  34.480  28.517  1.00  0.00     0.251 C 
ATOM      8  H   UNL A   1      31.609  34.326  27.184  1.00  0.00     0.163 HD
BRANCH   7   9
ATOM      9  C   UNL A   1      34.361  33.878  28.998  1.00  0.00     0.039 A 
ATOM     10  C   UNL A   1      35.565  34.156  28.346  1.00  0.00     0.014 A 
ATOM     11  C   UNL A   1      34.339  33.029  30.108  1.00  0.00     0.014 A 
ATOM     12  C   UNL A   1      36.722  33.490  28.725  1.00  0.00     0.010 A 
ATOM     13  C   UNL A   1      35.523  32.429  30.544  1.00  0.00     0.010 A 
ATOM     14  C   UNL A   1      36.721  32.641  29.846  1.00  0.00    -0.014 A 
BRANCH  14  15
ATOM     15  C   UNL A   1      38.013  32.082  30.313  1.00  0.00     0.031 A 
ATOM     16  C   UNL A   1      38.773  32.694  31.455  1.00  0.00     0.074 A 
ATOM     17  C   UNL A   1      38.473  30.969  29.709  1.00  0.00     0.049 A 
ATOM     18  N   UNL A   1      39.890  32.290  32.005  1.00  0.00    -0.248 NA
ATOM     19  C   UNL A   1      38.216  33.916  32.054  1.00  0.00     0.031 C 
ATOM     20  C   UNL A   1      37.828  30.303  28.572  1.00  0.00     0.029 A 
ATOM     21  N   UNL A   1      39.564  30.185  29.975  1.00  0.00    -0.354 N 
ATOM     22  C   UNL A   1      40.178  33.209  33.006  1.00  0.00     0.074 A 
ATOM     23  C   UNL A   1      39.131  34.208  32.972  1.00  0.00     0.031 C 
ATOM     24  C   UNL A   1      38.503  29.184  28.276  1.00  0.00     0.029 A 
ATOM     25  C   UNL A   1      39.660  29.086  29.156  1.00  0.00     0.049 A 
ATOM     26  H   UNL A   1      40.216  30.389  30.683  1.00  0.00     0.167 HD
ATOM     27  C   UNL A   1      41.217  33.210  33.875  1.00  0.00     0.037 A 
ATOM     28  C   UNL A   1      40.586  28.113  29.105  1.00  0.00     0.037 A 
ATOM     29  C   UNL A   1      42.253  32.207  33.906  1.00  0.00     0.049 A 
ATOM     30  C   UNL A   1      41.727  28.149  30.077  1.00  0.00     0.074 A 
ATOM     31  C   UNL A   1      43.340  32.114  34.760  1.00  0.00     0.029 A 
ATOM     32  N   UNL A   1      42.331  31.122  33.045  1.00  0.00    -0.354 N 
ATOM     33  N   UNL A   1      41.971  29.011  31.032  1.00  0.00    -0.248 NA
ATOM     34  C   UNL A   1      42.725  27.076  29.962  1.00  0.00     0.031 C 
ATOM     35  C   UNL A   1      44.093  30.994  34.392  1.00  0.00     0.029 A 
ATOM     36  C   UNL A   1      43.454  30.364  33.338  1.00  0.00     0.049 A 
ATOM     37  H   UNL A   1      41.684  30.921  32.331  1.00  0.00     0.167 HD
ATOM     38  C   UNL A   1      43.145  28.586  31.636  1.00  0.00     0.074 A 
ATOM     39  C   UNL A   1      43.544  27.368  30.962  1.00  0.00     0.031 C 
ATOM     40  C   UNL A   1      43.839  29.159  32.650  1.00  0.00     0.037 A 
BRANCH  27  41
ATOM     41  C   UNL A   1      41.296  34.331  34.870  1.00  0.00     0.057 A 
ATOM     42  C   UNL A   1      41.915  35.548  34.559  1.00  0.00     0.134 A 
ATOM     43  C   UNL A   1      40.683  34.222  36.125  1.00  0.00     0.134 A 
ATOM     44  F   UNL A   1      42.530  35.715  33.377  1.00  0.00    -0.206 F 
ATOM     45  C   UNL A   1      41.931  36.613  35.463  1.00  0.00     0.040 A 
ATOM     46  C   UNL A   1      40.672  35.286  37.029  1.00  0.00     0.040 A 
ATOM     47  F   UNL A   1      40.065  33.086  36.484  1.00  0.00    -0.206 F 
ATOM     48  C   UNL A   1      41.300  36.486  36.699  1.00  0.00     0.006 A 
ENDBRANCH  27  41
BRANCH  28  49
ATOM     49  C   UNL A   1      40.479  27.038  28.088  1.00  0.00     0.057 A 
ATOM     50  C   UNL A   1      41.122  27.141  26.850  1.00  0.00     0.134 A 
ATOM     51  C   UNL A   1      39.727  25.882  28.331  1.00  0.00     0.134 A 
ATOM     52  F   UNL A   1      41.843  28.231  26.552  1.00  0.00    -0.206 F 
ATOM     53  C   UNL A   1      41.003  26.143  25.881  1.00  0.00     0.040 A 
ATOM     54  C   UNL A   1      39.625  24.862  27.385  1.00  0.00     0.040 A 
ATOM     55  F   UNL A   1      39.096  25.718  29.503  1.00  0.00    -0.206 F 
ATOM     56  C   UNL A   1      40.258  24.997  26.151  1.00  0.00     0.006 A 
ENDBRANCH  28  49
BRANCH  40  57
ATOM     57  C   UNL A   1      45.089  28.456  33.088  1.00  0.00     0.057 A 
ATOM     58  C   UNL A   1      45.066  27.462  34.074  1.00  0.00     0.134 A 
ATOM     59  C   UNL A   1      46.327  28.782  32.523  1.00  0.00     0.134 A 
ATOM     60  F   UNL A   1      43.912  27.119  34.666  1.00  0.00    -0.206 F 
ATOM     61  C   UNL A   1      46.237  26.838  34.507  1.00  0.00     0.040 A 
ATOM     62  C   UNL A   1      47.502  28.146  32.928  1.00  0.00     0.040 A 
ATOM     63  F   UNL A   1      46.417  29.722  31.569  1.00  0.00    -0.206 F 
ATOM     64  C   UNL A   1      47.459  27.178  33.930  1.00  0.00     0.006 A 
ENDBRANCH  40  57
ENDBRANCH  14  15
ENDBRANCH   7   9
ENDBRANCH   4   5
ENDBRANCH   3   4
ENDBRANCH   2   3
ENDBRANCH   1   2
BRANCH   1  65
ATOM     65  C   UNL A   1      31.866  28.349  27.223  1.00  0.00     0.021 C 
BRANCH  65  66
ATOM     66  C   UNL A   1      31.249  27.265  26.337  1.00  0.00     0.116 C 
BRANCH  66  67
ATOM     67  N   UNL A   1      31.303  25.976  26.992  1.00  0.00    -0.354 N 
ATOM     68  C   UNL A   1      31.544  24.723  26.526  1.00  0.00     0.242 C 
ATOM     69  H   UNL A   1      31.130  26.014  27.960  1.00  0.00     0.163 HD
ATOM     70  O   UNL A   1      31.447  23.824  27.373  1.00  0.00    -0.273 OA
BRANCH  68  71
ATOM     71  C   UNL A   1      32.104  24.407  25.104  1.00  0.00     0.174 C 
ATOM     72  C   UNL A   1      33.068  25.528  24.664  1.00  0.00     0.035 C 
ATOM     73  N   UNL A   1      32.744  23.104  24.848  1.00  0.00    -0.324 N 
ATOM     74  C   UNL A   1      34.428  25.387  25.352  1.00  0.00     0.004 C 
ATOM     75  C   UNL A   1      34.064  22.897  25.450  1.00  0.00     0.121 C 
ATOM     76  C   UNL A   1      35.029  24.014  25.065  1.00  0.00     0.022 C 
BRANCH  73  77
ATOM     77  C   UNL A   1      32.164  22.224  23.925  1.00  0.00     0.291 C 
ATOM     78  O   UNL A   1      31.560  22.631  22.935  1.00  0.00    -0.265 OA
BRANCH  77  79
ATOM     79  C   UNL A   1      32.329  20.808  24.159  1.00  0.00     0.214 A 
ATOM     80  N   UNL A   1      32.619  19.888  23.257  1.00  0.00    -0.207 NA
ATOM     81  N   UNL A   1      32.239  20.216  25.382  1.00  0.00    -0.255 N 
ATOM     82  C   UNL A   1      32.610  18.724  23.988  1.00  0.00     0.154 A 
ATOM     83  N   UNL A   1      32.307  18.879  25.281  1.00  0.00    -0.158 NA
ATOM     84  H   UNL A   1      32.138  20.706  26.231  1.00  0.00     0.192 HD
BRANCH  82  85
ATOM     85  C   UNL A   1      32.883  17.353  23.390  1.00  0.00     0.060 C 
ATOM     86  C   UNL A   1      34.310  16.850  23.341  1.00  0.00     0.012 C 
ATOM     87  C   UNL A   1      33.342  16.227  24.291  1.00  0.00     0.012 C 
ENDBRANCH  82  85
ENDBRANCH  77  79
ENDBRANCH  73  77
ENDBRANCH  68  71
ENDBRANCH  66  67
ENDBRANCH  65  66
ENDBRANCH   1  65
TORSDOF 16
ENDMDL
