MODEL 1
REMARK VINA RESULT:     -11.2      0.000      0.000
REMARK SMILES Cc1ccc(C)c([C@@H](C)[N@@H+](CC(=O)NCCCCCCNC(=O)c2ccc(-c3c4nc(c(-c5c(F)cccc5F)c5ccc([nH]5)c(-c5c(F)cccc5F)c5nc(c(-c6c(F)cccc6F)c6ccc3[nH]6)C=C5)C=C4)cc2)CC(F)(F)F)c1
REMARK SMILES IDX 17 1 16 2 15 3 14 4 12 5 13 6 11 8 10 9 8 11 9 12 7 13 1 14
REMARK SMILES IDX 2 15 3 16 83 17 4 18 5 19 6 20 78 21 79 22 80 23 81 24 82 25
REMARK SMILES IDX 18 26 19 27 20 28 21 29 22 30 23 32 24 33 25 34 77 35 26 36
REMARK SMILES IDX 76 37 27 38 28 39 29 40 70 41 30 42 75 43 69 44 71 45 31 46
REMARK SMILES IDX 74 47 68 48 67 49 32 51 58 52 41 53 57 54 42 55 45 56 56 57
REMARK SMILES IDX 72 58 43 59 44 60 55 62 73 63 46 64 33 65 34 66 39 67 35 68
REMARK SMILES IDX 36 69 38 70 40 71 37 72 59 73 60 74 65 75 61 76 62 77 64 78
REMARK SMILES IDX 66 79 63 80 47 81 48 82 53 83 49 84 50 85 52 86 54 87 51 88
REMARK H PARENT 14 7 10 10 21 31 71 50 45 61
REMARK Flexibility Score: inf
ROOT
ATOM      1  C   UNL A   1      40.041  20.287  26.269  1.00  0.00     0.002 C 
ENDROOT
BRANCH   1   2
ATOM      2  C   UNL A   1      39.813  21.800  26.150  1.00  0.00     0.021 C 
BRANCH   2   3
ATOM      3  C   UNL A   1      38.349  22.289  25.999  1.00  0.00     0.116 C 
BRANCH   3   4
ATOM      4  N   UNL A   1      37.809  22.309  24.640  1.00  0.00    -0.351 N 
ATOM      5  C   UNL A   1      36.827  23.030  24.009  1.00  0.00     0.275 C 
ATOM      6  O   UNL A   1      36.617  22.752  22.824  1.00  0.00    -0.269 OA
ATOM      7  H   UNL A   1      38.246  21.658  24.045  1.00  0.00     0.163 HD
BRANCH   5   8
ATOM      8  C   UNL A   1      35.994  24.112  24.714  1.00  0.00     0.364 C 
BRANCH   8   9
ATOM      9  N   UNL A   1      34.620  23.707  25.094  1.00  0.00    -0.314 N 
ATOM     10  H   UNL A   1      34.443  22.786  24.690  1.00  0.00     0.349 HD
BRANCH   9  11
ATOM     11  C   UNL A   1      33.592  24.489  24.409  1.00  0.00     0.212 C 
ATOM     12  C   UNL A   1      33.816  24.729  22.892  1.00  0.00     0.081 C 
BRANCH  11  13
ATOM     13  C   UNL A   1      33.006  25.711  25.136  1.00  0.00     0.012 A 
ATOM     14  C   UNL A   1      34.289  28.876  26.976  1.00  0.00     0.044 C 
ATOM     15  C   UNL A   1      33.428  27.756  26.477  1.00  0.00    -0.051 A 
ATOM     16  C   UNL A   1      32.178  27.626  27.052  1.00  0.00     0.004 A 
ATOM     17  C   UNL A   1      33.841  26.798  25.527  1.00  0.00     0.013 A 
ATOM     18  C   UNL A   1      31.375  26.563  26.686  1.00  0.00     0.004 A 
ATOM     19  C   UNL A   1      31.721  25.655  25.668  1.00  0.00    -0.042 A 
ATOM     20  C   UNL A   1      30.736  24.645  25.172  1.00  0.00     0.045 C 
ENDBRANCH  11  13
ENDBRANCH   9  11
BRANCH   9  21
ATOM     21  C   UNL A   1      34.429  23.244  26.492  1.00  0.00     0.380 C 
BRANCH  21  22
ATOM     22  C   UNL A   1      33.371  22.239  27.043  1.00  0.00     0.438 C 
ATOM     23  F   UNL A   1      33.870  21.312  27.883  1.00  0.00    -0.165 F 
ATOM     24  F   UNL A   1      32.451  22.930  27.772  1.00  0.00    -0.165 F 
ATOM     25  F   UNL A   1      32.694  21.608  26.068  1.00  0.00    -0.165 F 
ENDBRANCH  21  22
ENDBRANCH   9  21
ENDBRANCH   8   9
ENDBRANCH   5   8
ENDBRANCH   3   4
ENDBRANCH   2   3
ENDBRANCH   1   2
BRANCH   1  26
ATOM     26  C   UNL A   1      41.448  19.865  26.667  1.00  0.00     0.002 C 
BRANCH  26  27
ATOM     27  C   UNL A   1      42.046  18.690  25.884  1.00  0.00     0.021 C 
BRANCH  27  28
ATOM     28  C   UNL A   1      43.548  18.478  26.068  1.00  0.00     0.116 C 
BRANCH  28  29
ATOM     29  N   UNL A   1      44.292  18.703  24.827  1.00  0.00    -0.352 N 
ATOM     30  C   UNL A   1      44.593  19.825  24.089  1.00  0.00     0.251 C 
ATOM     31  H   UNL A   1      44.654  17.875  24.437  1.00  0.00     0.163 HD
ATOM     32  O   UNL A   1      44.878  19.677  22.895  1.00  0.00    -0.269 OA
BRANCH  30  33
ATOM     33  C   UNL A   1      44.650  21.184  24.671  1.00  0.00     0.039 A 
ATOM     34  C   UNL A   1      45.740  21.603  25.447  1.00  0.00     0.014 A 
ATOM     35  C   UNL A   1      43.534  21.994  24.663  1.00  0.00     0.014 A 
ATOM     36  C   UNL A   1      45.582  22.703  26.310  1.00  0.00     0.010 A 
ATOM     37  C   UNL A   1      43.598  23.271  25.142  1.00  0.00     0.010 A 
ATOM     38  C   UNL A   1      44.415  23.468  26.237  1.00  0.00    -0.014 A 
BRANCH  38  39
ATOM     39  C   UNL A   1      44.152  24.684  27.014  1.00  0.00     0.031 A 
ATOM     40  C   UNL A   1      45.217  25.691  26.790  1.00  0.00     0.074 A 
ATOM     41  C   UNL A   1      42.978  24.999  27.621  1.00  0.00     0.049 A 
ATOM     42  N   UNL A   1      46.309  25.835  27.469  1.00  0.00    -0.248 NA
ATOM     43  C   UNL A   1      45.232  26.397  25.489  1.00  0.00     0.031 C 
ATOM     44  C   UNL A   1      41.713  24.260  27.589  1.00  0.00     0.029 A 
ATOM     45  N   UNL A   1      42.657  26.092  28.396  1.00  0.00    -0.354 N 
ATOM     46  C   UNL A   1      47.001  26.840  26.799  1.00  0.00     0.074 A 
ATOM     47  C   UNL A   1      46.499  26.813  25.460  1.00  0.00     0.031 C 
ATOM     48  C   UNL A   1      40.743  24.975  28.217  1.00  0.00     0.029 A 
ATOM     49  C   UNL A   1      41.302  26.203  28.771  1.00  0.00     0.049 A 
ATOM     50  H   UNL A   1      43.332  26.755  28.671  1.00  0.00     0.167 HD
ATOM     51  C   UNL A   1      47.544  27.887  27.485  1.00  0.00     0.037 A 
ATOM     52  C   UNL A   1      40.717  27.249  29.449  1.00  0.00     0.037 A 
ATOM     53  C   UNL A   1      47.512  27.600  28.902  1.00  0.00     0.049 A 
ATOM     54  C   UNL A   1      41.806  28.016  30.068  1.00  0.00     0.074 A 
ATOM     55  C   UNL A   1      48.175  26.782  29.789  1.00  0.00     0.029 A 
ATOM     56  N   UNL A   1      46.336  27.979  29.499  1.00  0.00    -0.354 N 
ATOM     57  N   UNL A   1      42.463  27.586  31.101  1.00  0.00    -0.248 NA
ATOM     58  C   UNL A   1      42.432  29.101  29.320  1.00  0.00     0.031 C 
ATOM     59  C   UNL A   1      47.278  26.561  30.879  1.00  0.00     0.029 A 
ATOM     60  C   UNL A   1      46.110  27.283  30.651  1.00  0.00     0.049 A 
ATOM     61  H   UNL A   1      45.730  28.667  29.140  1.00  0.00     0.167 HD
ATOM     62  C   UNL A   1      43.751  28.023  30.877  1.00  0.00     0.074 A 
ATOM     63  C   UNL A   1      43.636  29.101  29.901  1.00  0.00     0.031 C 
ATOM     64  C   UNL A   1      44.799  27.237  31.244  1.00  0.00     0.037 A 
BRANCH  51  65
ATOM     65  C   UNL A   1      47.570  29.341  27.000  1.00  0.00     0.057 A 
ATOM     66  C   UNL A   1      48.777  30.057  27.141  1.00  0.00     0.134 A 
ATOM     67  C   UNL A   1      46.458  30.150  26.676  1.00  0.00     0.134 A 
ATOM     68  F   UNL A   1      49.930  29.422  27.398  1.00  0.00    -0.206 F 
ATOM     69  C   UNL A   1      48.843  31.456  27.096  1.00  0.00     0.040 A 
ATOM     70  C   UNL A   1      46.520  31.545  26.602  1.00  0.00     0.040 A 
ATOM     71  F   UNL A   1      45.229  29.676  26.468  1.00  0.00    -0.206 F 
ATOM     72  C   UNL A   1      47.705  32.208  26.849  1.00  0.00     0.006 A 
ENDBRANCH  51  65
BRANCH  52  73
ATOM     73  C   UNL A   1      39.365  27.895  29.376  1.00  0.00     0.057 A 
ATOM     74  C   UNL A   1      38.524  28.275  30.419  1.00  0.00     0.134 A 
ATOM     75  C   UNL A   1      39.088  28.574  28.201  1.00  0.00     0.134 A 
ATOM     76  F   UNL A   1      38.771  27.870  31.670  1.00  0.00    -0.206 F 
ATOM     77  C   UNL A   1      37.449  29.189  30.231  1.00  0.00     0.040 A 
ATOM     78  C   UNL A   1      38.025  29.445  27.953  1.00  0.00     0.040 A 
ATOM     79  F   UNL A   1      40.026  28.546  27.283  1.00  0.00    -0.206 F 
ATOM     80  C   UNL A   1      37.182  29.759  28.987  1.00  0.00     0.006 A 
ENDBRANCH  52  73
BRANCH  64  81
ATOM     81  C   UNL A   1      44.490  26.145  32.218  1.00  0.00     0.057 A 
ATOM     82  C   UNL A   1      44.235  26.350  33.583  1.00  0.00     0.134 A 
ATOM     83  C   UNL A   1      44.412  24.837  31.742  1.00  0.00     0.134 A 
ATOM     84  F   UNL A   1      44.234  27.580  34.108  1.00  0.00    -0.206 F 
ATOM     85  C   UNL A   1      43.946  25.288  34.443  1.00  0.00     0.040 A 
ATOM     86  C   UNL A   1      44.094  23.771  32.583  1.00  0.00     0.040 A 
ATOM     87  F   UNL A   1      44.620  24.580  30.441  1.00  0.00    -0.206 F 
ATOM     88  C   UNL A   1      43.868  23.993  33.940  1.00  0.00     0.006 A 
ENDBRANCH  64  81
ENDBRANCH  38  39
ENDBRANCH  30  33
ENDBRANCH  28  29
ENDBRANCH  27  28
ENDBRANCH  26  27
ENDBRANCH   1  26
TORSDOF 18
ENDMDL
MODEL 2
REMARK VINA RESULT:     -10.8      3.155      4.871
REMARK SMILES Cc1ccc(C)c([C@@H](C)[N@@H+](CC(=O)NCCCCCCNC(=O)c2ccc(-c3c4nc(c(-c5c(F)cccc5F)c5ccc([nH]5)c(-c5c(F)cccc5F)c5nc(c(-c6c(F)cccc6F)c6ccc3[nH]6)C=C5)C=C4)cc2)CC(F)(F)F)c1
REMARK SMILES IDX 17 1 16 2 15 3 14 4 12 5 13 6 11 8 10 9 8 11 9 12 7 13 1 14
REMARK SMILES IDX 2 15 3 16 83 17 4 18 5 19 6 20 78 21 79 22 80 23 81 24 82 25
REMARK SMILES IDX 18 26 19 27 20 28 21 29 22 30 23 32 24 33 25 34 77 35 26 36
REMARK SMILES IDX 76 37 27 38 28 39 29 40 70 41 30 42 75 43 69 44 71 45 31 46
REMARK SMILES IDX 74 47 68 48 67 49 32 51 58 52 41 53 57 54 42 55 45 56 56 57
REMARK SMILES IDX 72 58 43 59 44 60 55 62 73 63 46 64 33 65 34 66 39 67 35 68
REMARK SMILES IDX 36 69 38 70 40 71 37 72 59 73 60 74 65 75 61 76 62 77 64 78
REMARK SMILES IDX 66 79 63 80 47 81 48 82 53 83 49 84 50 85 52 86 54 87 51 88
REMARK H PARENT 14 7 10 10 21 31 71 50 45 61
REMARK Flexibility Score: inf
ROOT
ATOM      1  C   UNL A   1      34.706  21.136  24.617  1.00  0.00     0.002 C 
ENDROOT
BRANCH   1   2
ATOM      2  C   UNL A   1      33.610  20.935  25.672  1.00  0.00     0.021 C 
BRANCH   2   3
ATOM      3  C   UNL A   1      32.141  21.130  25.218  1.00  0.00     0.116 C 
BRANCH   3   4
ATOM      4  N   UNL A   1      31.258  21.820  26.158  1.00  0.00    -0.351 N 
ATOM      5  C   UNL A   1      31.248  23.069  26.725  1.00  0.00     0.275 C 
ATOM      6  O   UNL A   1      30.334  23.305  27.521  1.00  0.00    -0.269 OA
ATOM      7  H   UNL A   1      30.501  21.263  26.451  1.00  0.00     0.163 HD
BRANCH   5   8
ATOM      8  C   UNL A   1      32.319  24.132  26.433  1.00  0.00     0.364 C 
BRANCH   8   9
ATOM      9  N   UNL A   1      32.351  24.634  25.039  1.00  0.00    -0.314 N 
ATOM     10  H   UNL A   1      32.394  23.825  24.417  1.00  0.00     0.349 HD
BRANCH   9  11
ATOM     11  C   UNL A   1      33.616  25.284  24.702  1.00  0.00     0.212 C 
ATOM     12  C   UNL A   1      34.895  24.636  25.296  1.00  0.00     0.081 C 
BRANCH  11  13
ATOM     13  C   UNL A   1      33.663  26.822  24.697  1.00  0.00     0.012 A 
ATOM     14  C   UNL A   1      33.485  29.732  27.256  1.00  0.00     0.044 C 
ATOM     15  C   UNL A   1      33.467  28.930  25.990  1.00  0.00    -0.051 A 
ATOM     16  C   UNL A   1      33.057  29.584  24.844  1.00  0.00     0.004 A 
ATOM     17  C   UNL A   1      33.762  27.553  25.917  1.00  0.00     0.013 A 
ATOM     18  C   UNL A   1      32.944  28.873  23.665  1.00  0.00     0.004 A 
ATOM     19  C   UNL A   1      33.331  27.525  23.543  1.00  0.00    -0.042 A 
ATOM     20  C   UNL A   1      33.378  26.857  22.205  1.00  0.00     0.045 C 
ENDBRANCH  11  13
ENDBRANCH   9  11
BRANCH   9  21
ATOM     21  C   UNL A   1      31.065  25.123  24.482  1.00  0.00     0.380 C 
BRANCH  21  22
ATOM     22  C   UNL A   1      30.060  26.138  25.110  1.00  0.00     0.438 C 
ATOM     23  F   UNL A   1      29.090  25.572  25.853  1.00  0.00    -0.165 F 
ATOM     24  F   UNL A   1      30.740  26.954  25.963  1.00  0.00    -0.165 F 
ATOM     25  F   UNL A   1      29.483  26.935  24.194  1.00  0.00    -0.165 F 
ENDBRANCH  21  22
ENDBRANCH   9  21
ENDBRANCH   8   9
ENDBRANCH   5   8
ENDBRANCH   3   4
ENDBRANCH   2   3
ENDBRANCH   1   2
BRANCH   1  26
ATOM     26  C   UNL A   1      36.090  20.633  25.003  1.00  0.00     0.002 C 
BRANCH  26  27
ATOM     27  C   UNL A   1      37.273  21.483  24.526  1.00  0.00     0.021 C 
BRANCH  27  28
ATOM     28  C   UNL A   1      37.918  22.366  25.595  1.00  0.00     0.116 C 
BRANCH  28  29
ATOM     29  N   UNL A   1      39.287  21.948  25.902  1.00  0.00    -0.352 N 
ATOM     30  C   UNL A   1      40.391  22.600  26.401  1.00  0.00     0.251 C 
ATOM     31  H   UNL A   1      39.453  20.996  25.710  1.00  0.00     0.163 HD
ATOM     32  O   UNL A   1      41.505  22.113  26.176  1.00  0.00    -0.269 OA
BRANCH  30  33
ATOM     33  C   UNL A   1      40.302  23.815  27.239  1.00  0.00     0.039 A 
ATOM     34  C   UNL A   1      39.160  24.629  27.230  1.00  0.00     0.014 A 
ATOM     35  C   UNL A   1      41.422  24.311  27.873  1.00  0.00     0.014 A 
ATOM     36  C   UNL A   1      39.261  25.955  27.690  1.00  0.00     0.010 A 
ATOM     37  C   UNL A   1      41.334  25.395  28.697  1.00  0.00     0.010 A 
ATOM     38  C   UNL A   1      40.438  26.374  28.317  1.00  0.00    -0.014 A 
BRANCH  38  39
ATOM     39  C   UNL A   1      40.651  27.696  28.915  1.00  0.00     0.031 A 
ATOM     40  C   UNL A   1      41.850  28.348  28.335  1.00  0.00     0.074 A 
ATOM     41  C   UNL A   1      39.749  28.382  29.664  1.00  0.00     0.049 A 
ATOM     42  N   UNL A   1      43.066  28.269  28.769  1.00  0.00    -0.248 NA
ATOM     43  C   UNL A   1      41.748  28.871  26.954  1.00  0.00     0.031 C 
ATOM     44  C   UNL A   1      38.368  28.011  29.987  1.00  0.00     0.029 A 
ATOM     45  N   UNL A   1      39.877  29.603  30.292  1.00  0.00    -0.354 N 
ATOM     46  C   UNL A   1      43.814  28.969  27.827  1.00  0.00     0.074 A 
ATOM     47  C   UNL A   1      43.039  28.925  26.626  1.00  0.00     0.031 C 
ATOM     48  C   UNL A   1      37.760  29.028  30.654  1.00  0.00     0.029 A 
ATOM     49  C   UNL A   1      38.704  30.115  30.883  1.00  0.00     0.049 A 
ATOM     50  H   UNL A   1      40.734  30.087  30.324  1.00  0.00     0.167 HD
ATOM     51  C   UNL A   1      44.729  29.903  28.217  1.00  0.00     0.037 A 
ATOM     52  C   UNL A   1      38.550  31.351  31.473  1.00  0.00     0.037 A 
ATOM     53  C   UNL A   1      44.941  29.798  29.644  1.00  0.00     0.049 A 
ATOM     54  C   UNL A   1      39.900  31.861  31.746  1.00  0.00     0.074 A 
ATOM     55  C   UNL A   1      45.566  28.939  30.520  1.00  0.00     0.029 A 
ATOM     56  N   UNL A   1      44.050  30.544  30.374  1.00  0.00    -0.354 N 
ATOM     57  N   UNL A   1      40.645  31.391  32.699  1.00  0.00    -0.248 NA
ATOM     58  C   UNL A   1      40.588  32.646  30.726  1.00  0.00     0.031 C 
ATOM     59  C   UNL A   1      44.904  29.092  31.776  1.00  0.00     0.029 A 
ATOM     60  C   UNL A   1      43.922  30.070  31.648  1.00  0.00     0.049 A 
ATOM     61  H   UNL A   1      43.563  31.324  30.022  1.00  0.00     0.167 HD
ATOM     62  C   UNL A   1      41.918  31.438  32.174  1.00  0.00     0.074 A 
ATOM     63  C   UNL A   1      41.854  32.389  31.070  1.00  0.00     0.031 C 
ATOM     64  C   UNL A   1      42.802  30.447  32.470  1.00  0.00     0.037 A 
BRANCH  51  65
ATOM     65  C   UNL A   1      44.995  31.231  27.501  1.00  0.00     0.057 A 
ATOM     66  C   UNL A   1      46.243  31.391  26.861  1.00  0.00     0.134 A 
ATOM     67  C   UNL A   1      44.258  32.429  27.627  1.00  0.00     0.134 A 
ATOM     68  F   UNL A   1      47.037  30.337  26.623  1.00  0.00    -0.206 F 
ATOM     69  C   UNL A   1      46.760  32.643  26.503  1.00  0.00     0.040 A 
ATOM     70  C   UNL A   1      44.755  33.680  27.248  1.00  0.00     0.040 A 
ATOM     71  F   UNL A   1      43.043  32.500  28.172  1.00  0.00    -0.206 F 
ATOM     72  C   UNL A   1      46.024  33.798  26.719  1.00  0.00     0.006 A 
ENDBRANCH  51  65
BRANCH  52  73
ATOM     73  C   UNL A   1      37.411  32.323  31.541  1.00  0.00     0.057 A 
ATOM     74  C   UNL A   1      36.868  33.101  30.520  1.00  0.00     0.134 A 
ATOM     75  C   UNL A   1      36.526  32.139  32.589  1.00  0.00     0.134 A 
ATOM     76  F   UNL A   1      37.503  33.219  29.348  1.00  0.00    -0.206 F 
ATOM     77  C   UNL A   1      35.582  33.701  30.626  1.00  0.00     0.040 A 
ATOM     78  C   UNL A   1      35.276  32.736  32.762  1.00  0.00     0.040 A 
ATOM     79  F   UNL A   1      36.806  31.157  33.415  1.00  0.00    -0.206 F 
ATOM     80  C   UNL A   1      34.790  33.538  31.763  1.00  0.00     0.006 A 
ENDBRANCH  52  73
BRANCH  64  81
ATOM     81  C   UNL A   1      42.461  29.596  33.652  1.00  0.00     0.057 A 
ATOM     82  C   UNL A   1      41.815  28.354  33.573  1.00  0.00     0.134 A 
ATOM     83  C   UNL A   1      42.838  30.042  34.918  1.00  0.00     0.134 A 
ATOM     84  F   UNL A   1      41.470  27.827  32.392  1.00  0.00    -0.206 F 
ATOM     85  C   UNL A   1      41.527  27.602  34.715  1.00  0.00     0.040 A 
ATOM     86  C   UNL A   1      42.586  29.288  36.063  1.00  0.00     0.040 A 
ATOM     87  F   UNL A   1      43.484  31.211  35.056  1.00  0.00    -0.206 F 
ATOM     88  C   UNL A   1      41.921  28.068  35.966  1.00  0.00     0.006 A 
ENDBRANCH  64  81
ENDBRANCH  38  39
ENDBRANCH  30  33
ENDBRANCH  28  29
ENDBRANCH  27  28
ENDBRANCH  26  27
ENDBRANCH   1  26
TORSDOF 18
ENDMDL
MODEL 3
REMARK VINA RESULT:     -10.5      1.499      2.403
REMARK SMILES Cc1ccc(C)c([C@@H](C)[N@@H+](CC(=O)NCCCCCCNC(=O)c2ccc(-c3c4nc(c(-c5c(F)cccc5F)c5ccc([nH]5)c(-c5c(F)cccc5F)c5nc(c(-c6c(F)cccc6F)c6ccc3[nH]6)C=C5)C=C4)cc2)CC(F)(F)F)c1
REMARK SMILES IDX 17 1 16 2 15 3 14 4 12 5 13 6 11 8 10 9 8 11 9 12 7 13 1 14
REMARK SMILES IDX 2 15 3 16 83 17 4 18 5 19 6 20 78 21 79 22 80 23 81 24 82 25
REMARK SMILES IDX 18 26 19 27 20 28 21 29 22 30 23 32 24 33 25 34 77 35 26 36
REMARK SMILES IDX 76 37 27 38 28 39 29 40 70 41 30 42 75 43 69 44 71 45 31 46
REMARK SMILES IDX 74 47 68 48 67 49 32 51 58 52 41 53 57 54 42 55 45 56 56 57
REMARK SMILES IDX 72 58 43 59 44 60 55 62 73 63 46 64 33 65 34 66 39 67 35 68
REMARK SMILES IDX 36 69 38 70 40 71 37 72 59 73 60 74 65 75 61 76 62 77 64 78
REMARK SMILES IDX 66 79 63 80 47 81 48 82 53 83 49 84 50 85 52 86 54 87 51 88
REMARK H PARENT 14 7 10 10 21 31 71 50 45 61
REMARK Flexibility Score: inf
ROOT
ATOM      1  C   UNL A   1      39.881  20.966  26.012  1.00  0.00     0.002 C 
ENDROOT
BRANCH   1   2
ATOM      2  C   UNL A   1      39.859  22.383  26.602  1.00  0.00     0.021 C 
BRANCH   2   3
ATOM      3  C   UNL A   1      38.592  23.240  26.350  1.00  0.00     0.116 C 
BRANCH   3   4
ATOM      4  N   UNL A   1      38.033  23.190  25.000  1.00  0.00    -0.351 N 
ATOM      5  C   UNL A   1      37.014  22.488  24.408  1.00  0.00     0.275 C 
ATOM      6  O   UNL A   1      36.836  22.687  23.203  1.00  0.00    -0.269 OA
ATOM      7  H   UNL A   1      38.492  23.795  24.374  1.00  0.00     0.163 HD
BRANCH   5   8
ATOM      8  C   UNL A   1      36.139  21.477  25.168  1.00  0.00     0.364 C 
BRANCH   8   9
ATOM      9  N   UNL A   1      34.690  21.783  25.190  1.00  0.00    -0.314 N 
ATOM     10  H   UNL A   1      34.521  22.541  24.528  1.00  0.00     0.349 HD
BRANCH   9  11
ATOM     11  C   UNL A   1      34.268  22.427  26.432  1.00  0.00     0.212 C 
ATOM     12  C   UNL A   1      34.339  21.553  27.713  1.00  0.00     0.081 C 
BRANCH  11  13
ATOM     13  C   UNL A   1      33.033  23.342  26.392  1.00  0.00     0.012 A 
ATOM     14  C   UNL A   1      29.244  23.128  27.198  1.00  0.00     0.044 C 
ATOM     15  C   UNL A   1      30.577  23.564  26.671  1.00  0.00    -0.051 A 
ATOM     16  C   UNL A   1      30.578  24.610  25.768  1.00  0.00     0.004 A 
ATOM     17  C   UNL A   1      31.799  22.930  26.976  1.00  0.00     0.013 A 
ATOM     18  C   UNL A   1      31.771  25.000  25.188  1.00  0.00     0.004 A 
ATOM     19  C   UNL A   1      33.015  24.453  25.553  1.00  0.00    -0.042 A 
ATOM     20  C   UNL A   1      34.292  25.043  25.046  1.00  0.00     0.045 C 
ENDBRANCH  11  13
ENDBRANCH   9  11
BRANCH   9  21
ATOM     21  C   UNL A   1      33.801  20.827  24.481  1.00  0.00     0.380 C 
BRANCH  21  22
ATOM     22  C   UNL A   1      32.587  21.140  23.553  1.00  0.00     0.438 C 
ATOM     23  F   UNL A   1      32.262  20.143  22.708  1.00  0.00    -0.165 F 
ATOM     24  F   UNL A   1      31.483  21.332  24.328  1.00  0.00    -0.165 F 
ATOM     25  F   UNL A   1      32.754  22.266  22.838  1.00  0.00    -0.165 F 
ENDBRANCH  21  22
ENDBRANCH   9  21
ENDBRANCH   8   9
ENDBRANCH   5   8
ENDBRANCH   3   4
ENDBRANCH   2   3
ENDBRANCH   1   2
BRANCH   1  26
ATOM     26  C   UNL A   1      40.673  19.937  26.804  1.00  0.00     0.002 C 
BRANCH  26  27
ATOM     27  C   UNL A   1      41.778  19.201  26.038  1.00  0.00     0.021 C 
BRANCH  27  28
ATOM     28  C   UNL A   1      43.203  19.478  26.518  1.00  0.00     0.116 C 
BRANCH  28  29
ATOM     29  N   UNL A   1      44.130  19.679  25.403  1.00  0.00    -0.352 N 
ATOM     30  C   UNL A   1      44.539  20.785  24.693  1.00  0.00     0.251 C 
ATOM     31  H   UNL A   1      44.551  18.844  25.094  1.00  0.00     0.163 HD
ATOM     32  O   UNL A   1      45.006  20.610  23.562  1.00  0.00    -0.269 OA
BRANCH  30  33
ATOM     33  C   UNL A   1      44.500  22.157  25.243  1.00  0.00     0.039 A 
ATOM     34  C   UNL A   1      45.450  22.600  26.174  1.00  0.00     0.014 A 
ATOM     35  C   UNL A   1      43.399  22.962  25.035  1.00  0.00     0.014 A 
ATOM     36  C   UNL A   1      45.155  23.721  26.973  1.00  0.00     0.010 A 
ATOM     37  C   UNL A   1      43.384  24.250  25.487  1.00  0.00     0.010 A 
ATOM     38  C   UNL A   1      44.013  24.477  26.694  1.00  0.00    -0.014 A 
BRANCH  38  39
ATOM     39  C   UNL A   1      43.628  25.710  27.389  1.00  0.00     0.031 A 
ATOM     40  C   UNL A   1      44.544  26.822  27.034  1.00  0.00     0.074 A 
ATOM     41  C   UNL A   1      42.449  25.925  28.029  1.00  0.00     0.049 A 
ATOM     42  N   UNL A   1      45.635  27.156  27.643  1.00  0.00    -0.248 NA
ATOM     43  C   UNL A   1      44.414  27.415  25.684  1.00  0.00     0.031 C 
ATOM     44  C   UNL A   1      41.290  25.032  28.118  1.00  0.00     0.029 A 
ATOM     45  N   UNL A   1      42.021  27.029  28.734  1.00  0.00    -0.354 N 
ATOM     46  C   UNL A   1      46.163  28.182  26.865  1.00  0.00     0.074 A 
ATOM     47  C   UNL A   1      45.614  27.982  25.559  1.00  0.00     0.031 C 
ATOM     48  C   UNL A   1      40.262  25.669  28.739  1.00  0.00     0.029 A 
ATOM     49  C   UNL A   1      40.680  26.999  29.168  1.00  0.00     0.049 A 
ATOM     50  H   UNL A   1      42.615  27.791  28.922  1.00  0.00     0.167 HD
ATOM     51  C   UNL A   1      46.594  29.342  27.440  1.00  0.00     0.037 A 
ATOM     52  C   UNL A   1      39.993  28.016  29.794  1.00  0.00     0.037 A 
ATOM     53  C   UNL A   1      46.657  29.170  28.875  1.00  0.00     0.049 A 
ATOM     54  C   UNL A   1      40.998  28.961  30.296  1.00  0.00     0.074 A 
ATOM     55  C   UNL A   1      47.456  28.517  29.786  1.00  0.00     0.029 A 
ATOM     56  N   UNL A   1      45.468  29.446  29.500  1.00  0.00    -0.354 N 
ATOM     57  N   UNL A   1      41.747  28.703  31.324  1.00  0.00    -0.248 NA
ATOM     58  C   UNL A   1      41.448  30.051  29.436  1.00  0.00     0.031 C 
ATOM     59  C   UNL A   1      46.641  28.276  30.935  1.00  0.00     0.029 A 
ATOM     60  C   UNL A   1      45.381  28.824  30.712  1.00  0.00     0.049 A 
ATOM     61  H   UNL A   1      44.764  30.021  29.122  1.00  0.00     0.167 HD
ATOM     62  C   UNL A   1      42.957  29.279  31.002  1.00  0.00     0.074 A 
ATOM     63  C   UNL A   1      42.664  30.250  29.954  1.00  0.00     0.031 C 
ATOM     64  C   UNL A   1      44.113  28.663  31.374  1.00  0.00     0.037 A 
BRANCH  51  65
ATOM     65  C   UNL A   1      46.412  30.743  26.845  1.00  0.00     0.057 A 
ATOM     66  C   UNL A   1      47.541  31.587  26.801  1.00  0.00     0.134 A 
ATOM     67  C   UNL A   1      45.192  31.403  26.581  1.00  0.00     0.134 A 
ATOM     68  F   UNL A   1      48.777  31.098  26.982  1.00  0.00    -0.206 F 
ATOM     69  C   UNL A   1      47.448  32.976  26.642  1.00  0.00     0.040 A 
ATOM     70  C   UNL A   1      45.091  32.785  26.394  1.00  0.00     0.040 A 
ATOM     71  F   UNL A   1      44.008  30.790  26.542  1.00  0.00    -0.206 F 
ATOM     72  C   UNL A   1      46.215  33.584  26.462  1.00  0.00     0.006 A 
ENDBRANCH  51  65
BRANCH  52  73
ATOM     73  C   UNL A   1      38.567  28.478  29.740  1.00  0.00     0.057 A 
ATOM     74  C   UNL A   1      37.748  28.898  30.786  1.00  0.00     0.134 A 
ATOM     75  C   UNL A   1      38.135  28.947  28.512  1.00  0.00     0.134 A 
ATOM     76  F   UNL A   1      38.121  28.706  32.057  1.00  0.00    -0.206 F 
ATOM     77  C   UNL A   1      36.555  29.641  30.564  1.00  0.00     0.040 A 
ATOM     78  C   UNL A   1      36.955  29.641  28.234  1.00  0.00     0.040 A 
ATOM     79  F   UNL A   1      39.011  28.903  27.536  1.00  0.00    -0.206 F 
ATOM     80  C   UNL A   1      36.142  29.995  29.279  1.00  0.00     0.006 A 
ENDBRANCH  52  73
BRANCH  64  81
ATOM     81  C   UNL A   1      43.987  27.624  32.443  1.00  0.00     0.057 A 
ATOM     82  C   UNL A   1      43.931  26.243  32.201  1.00  0.00     0.134 A 
ATOM     83  C   UNL A   1      43.957  28.044  33.772  1.00  0.00     0.134 A 
ATOM     84  F   UNL A   1      44.012  25.755  30.959  1.00  0.00    -0.206 F 
ATOM     85  C   UNL A   1      43.819  25.320  33.244  1.00  0.00     0.040 A 
ATOM     86  C   UNL A   1      43.876  27.132  34.824  1.00  0.00     0.040 A 
ATOM     87  F   UNL A   1      44.033  29.351  34.067  1.00  0.00    -0.206 F 
ATOM     88  C   UNL A   1      43.798  25.766  34.562  1.00  0.00     0.006 A 
ENDBRANCH  64  81
ENDBRANCH  38  39
ENDBRANCH  30  33
ENDBRANCH  28  29
ENDBRANCH  27  28
ENDBRANCH  26  27
ENDBRANCH   1  26
TORSDOF 18
ENDMDL
