MODEL 1
REMARK VINA RESULT:     -11.0      0.000      0.000
REMARK SMILES O=C(NCCCCCCNC(=O)C1CN(S(=O)(=O)c2ccc(F)cc2)C1)c1ccc(-c2c3nc(c(-c4c(F)cccc4F)c4ccc([nH]4)c(-c4c(F)cccc4F)c4nc(c(-c5c(F)cccc5F)c5ccc2[nH]5)C=C4)C=C3)cc1
REMARK SMILES IDX 6 1 5 2 4 3 3 4 1 5 2 6 27 8 28 9 80 10 29 11 79 12 30 13
REMARK SMILES IDX 31 14 32 15 73 16 33 17 78 18 72 19 74 20 34 21 77 22 71 23
REMARK SMILES IDX 70 24 35 26 61 27 44 28 60 29 45 30 48 31 59 32 75 33 46 34
REMARK SMILES IDX 47 35 58 37 76 38 49 39 36 40 37 41 42 42 38 43 39 44 41 45
REMARK SMILES IDX 43 46 40 47 62 48 63 49 68 50 64 51 65 52 67 53 69 54 66 55
REMARK SMILES IDX 50 56 51 57 56 58 52 59 53 60 55 61 57 62 54 63 7 64 8 65
REMARK SMILES IDX 9 66 10 67 11 68 12 70 13 71 14 72 26 73 15 74 16 75 17 76
REMARK SMILES IDX 18 77 19 78 20 79 25 80 21 81 24 82 22 83 23 84
REMARK H PARENT 3 7 74 25 48 36 10 69
REMARK Flexibility Score: inf
ROOT
ATOM      1  C   UNL A   1      32.653  27.930  24.985  1.00  0.00     0.002 C 
ENDROOT
BRANCH   1   2
ATOM      2  C   UNL A   1      33.929  28.460  25.643  1.00  0.00     0.021 C 
BRANCH   2   3
ATOM      3  C   UNL A   1      33.882  28.540  27.165  1.00  0.00     0.116 C 
BRANCH   3   4
ATOM      4  N   UNL A   1      33.774  29.908  27.642  1.00  0.00    -0.352 N 
ATOM      5  O   UNL A   1      34.375  31.745  28.801  1.00  0.00    -0.269 OA
ATOM      6  C   UNL A   1      34.694  30.659  28.328  1.00  0.00     0.251 C 
ATOM      7  H   UNL A   1      32.921  30.360  27.444  1.00  0.00     0.163 HD
BRANCH   6   8
ATOM      8  C   UNL A   1      36.071  30.154  28.508  1.00  0.00     0.039 A 
ATOM      9  C   UNL A   1      37.011  30.249  27.477  1.00  0.00     0.014 A 
ATOM     10  C   UNL A   1      36.439  29.618  29.747  1.00  0.00     0.014 A 
ATOM     11  C   UNL A   1      38.291  29.733  27.655  1.00  0.00     0.010 A 
ATOM     12  C   UNL A   1      37.742  29.157  29.945  1.00  0.00     0.010 A 
ATOM     13  C   UNL A   1      38.675  29.207  28.898  1.00  0.00    -0.014 A 
BRANCH  13  14
ATOM     14  C   UNL A   1      40.089  28.824  29.127  1.00  0.00     0.031 A 
ATOM     15  C   UNL A   1      41.063  29.774  29.757  1.00  0.00     0.074 A 
ATOM     16  C   UNL A   1      40.489  27.598  28.735  1.00  0.00     0.049 A 
ATOM     17  N   UNL A   1      42.341  29.605  29.985  1.00  0.00    -0.248 NA
ATOM     18  C   UNL A   1      40.544  31.083  30.186  1.00  0.00     0.031 C 
ATOM     19  C   UNL A   1      39.629  26.600  28.096  1.00  0.00     0.029 A 
ATOM     20  N   UNL A   1      41.712  26.984  28.811  1.00  0.00    -0.354 N 
ATOM     21  C   UNL A   1      42.783  30.785  30.567  1.00  0.00     0.074 A 
ATOM     22  C   UNL A   1      41.642  31.671  30.647  1.00  0.00     0.031 C 
ATOM     23  C   UNL A   1      40.344  25.491  27.857  1.00  0.00     0.029 A 
ATOM     24  C   UNL A   1      41.723  25.721  28.271  1.00  0.00     0.049 A 
ATOM     25  H   UNL A   1      42.504  27.405  29.215  1.00  0.00     0.167 HD
ATOM     26  C   UNL A   1      44.029  31.092  30.997  1.00  0.00     0.037 A 
ATOM     27  C   UNL A   1      42.737  24.853  28.096  1.00  0.00     0.037 A 
ATOM     28  C   UNL A   1      45.154  30.193  30.935  1.00  0.00     0.049 A 
ATOM     29  C   UNL A   1      44.113  25.235  28.550  1.00  0.00     0.074 A 
ATOM     30  C   UNL A   1      46.437  30.389  31.417  1.00  0.00     0.029 A 
ATOM     31  N   UNL A   1      45.133  28.937  30.351  1.00  0.00    -0.354 N 
ATOM     32  N   UNL A   1      44.505  26.336  29.144  1.00  0.00    -0.248 NA
ATOM     33  C   UNL A   1      45.190  24.267  28.300  1.00  0.00     0.031 C 
ATOM     34  C   UNL A   1      47.204  29.271  31.083  1.00  0.00     0.029 A 
ATOM     35  C   UNL A   1      46.390  28.361  30.427  1.00  0.00     0.049 A 
ATOM     36  H   UNL A   1      44.342  28.516  29.941  1.00  0.00     0.167 HD
ATOM     37  C   UNL A   1      45.871  26.195  29.340  1.00  0.00     0.074 A 
ATOM     38  C   UNL A   1      46.238  24.894  28.820  1.00  0.00     0.031 C 
ATOM     39  C   UNL A   1      46.741  27.070  29.895  1.00  0.00     0.037 A 
BRANCH  26  40
ATOM     40  C   UNL A   1      44.267  32.452  31.577  1.00  0.00     0.057 A 
ATOM     41  C   UNL A   1      44.713  33.503  30.765  1.00  0.00     0.134 A 
ATOM     42  C   UNL A   1      44.173  32.691  32.953  1.00  0.00     0.134 A 
ATOM     43  F   UNL A   1      44.833  33.334  29.439  1.00  0.00    -0.206 F 
ATOM     44  C   UNL A   1      45.074  34.738  31.303  1.00  0.00     0.040 A 
ATOM     45  C   UNL A   1      44.517  33.929  33.502  1.00  0.00     0.040 A 
ATOM     46  F   UNL A   1      43.749  31.726  33.784  1.00  0.00    -0.206 F 
ATOM     47  C   UNL A   1      44.980  34.952  32.677  1.00  0.00     0.006 A 
ENDBRANCH  26  40
BRANCH  27  48
ATOM     48  C   UNL A   1      42.475  23.552  27.435  1.00  0.00     0.057 A 
ATOM     49  C   UNL A   1      42.116  22.420  28.178  1.00  0.00     0.134 A 
ATOM     50  C   UNL A   1      42.621  23.399  26.053  1.00  0.00     0.134 A 
ATOM     51  F   UNL A   1      41.969  22.503  29.508  1.00  0.00    -0.206 F 
ATOM     52  C   UNL A   1      41.934  21.177  27.574  1.00  0.00     0.040 A 
ATOM     53  C   UNL A   1      42.419  22.166  25.431  1.00  0.00     0.040 A 
ATOM     54  F   UNL A   1      42.949  24.451  25.288  1.00  0.00    -0.206 F 
ATOM     55  C   UNL A   1      42.083  21.048  26.195  1.00  0.00     0.006 A 
ENDBRANCH  27  48
BRANCH  39  56
ATOM     56  C   UNL A   1      48.180  26.661  29.967  1.00  0.00     0.057 A 
ATOM     57  C   UNL A   1      49.068  26.979  28.933  1.00  0.00     0.134 A 
ATOM     58  C   UNL A   1      48.661  25.879  31.024  1.00  0.00     0.134 A 
ATOM     59  F   UNL A   1      48.662  27.719  27.889  1.00  0.00    -0.206 F 
ATOM     60  C   UNL A   1      50.384  26.516  28.938  1.00  0.00     0.040 A 
ATOM     61  C   UNL A   1      49.980  25.426  31.049  1.00  0.00     0.040 A 
ATOM     62  F   UNL A   1      47.858  25.553  32.049  1.00  0.00    -0.206 F 
ATOM     63  C   UNL A   1      50.842  25.736  29.998  1.00  0.00     0.006 A 
ENDBRANCH  39  56
ENDBRANCH  13  14
ENDBRANCH   6   8
ENDBRANCH   3   4
ENDBRANCH   2   3
ENDBRANCH   1   2
BRANCH   1  64
ATOM     64  C   UNL A   1      31.656  28.997  24.522  1.00  0.00     0.002 C 
BRANCH  64  65
ATOM     65  C   UNL A   1      31.075  28.791  23.120  1.00  0.00     0.021 C 
BRANCH  65  66
ATOM     66  C   UNL A   1      30.816  27.335  22.740  1.00  0.00     0.116 C 
BRANCH  66  67
ATOM     67  N   UNL A   1      31.619  26.916  21.603  1.00  0.00    -0.356 N 
ATOM     68  C   UNL A   1      32.523  25.879  21.543  1.00  0.00     0.225 C 
ATOM     69  H   UNL A   1      31.502  27.435  20.776  1.00  0.00     0.163 HD
ATOM     70  O   UNL A   1      33.098  25.672  20.472  1.00  0.00    -0.275 OA
BRANCH  68  71
ATOM     71  C   UNL A   1      32.737  25.057  22.814  1.00  0.00     0.109 C 
ATOM     72  C   UNL A   1      31.707  23.991  23.237  1.00  0.00     0.117 C 
ATOM     73  C   UNL A   1      33.695  23.851  22.714  1.00  0.00     0.117 C 
ATOM     74  N   UNL A   1      32.857  23.131  23.742  1.00  0.00    -0.196 NA
BRANCH  74  75
ATOM     75  S   UNL A   1      33.289  23.153  25.409  1.00  0.00     0.243 S 
ATOM     76  O   UNL A   1      33.143  24.512  25.888  1.00  0.00    -0.207 OA
ATOM     77  O   UNL A   1      32.604  22.050  26.050  1.00  0.00    -0.207 OA
BRANCH  75  78
ATOM     78  C   UNL A   1      35.027  22.788  25.379  1.00  0.00     0.082 A 
ATOM     79  C   UNL A   1      35.951  23.782  25.722  1.00  0.00     0.025 A 
ATOM     80  C   UNL A   1      35.454  21.487  25.088  1.00  0.00     0.025 A 
ATOM     81  C   UNL A   1      37.312  23.475  25.753  1.00  0.00     0.040 A 
ATOM     82  C   UNL A   1      36.816  21.184  25.133  1.00  0.00     0.040 A 
ATOM     83  C   UNL A   1      37.731  22.180  25.462  1.00  0.00     0.123 A 
ATOM     84  F   UNL A   1      39.037  21.885  25.510  1.00  0.00    -0.207 F 
ENDBRANCH  75  78
ENDBRANCH  74  75
ENDBRANCH  68  71
ENDBRANCH  66  67
ENDBRANCH  65  66
ENDBRANCH  64  65
ENDBRANCH   1  64
TORSDOF 15
ENDMDL
MODEL 2
REMARK VINA RESULT:     -10.9      2.948      7.922
REMARK SMILES O=C(NCCCCCCNC(=O)C1CN(S(=O)(=O)c2ccc(F)cc2)C1)c1ccc(-c2c3nc(c(-c4c(F)cccc4F)c4ccc([nH]4)c(-c4c(F)cccc4F)c4nc(c(-c5c(F)cccc5F)c5ccc2[nH]5)C=C4)C=C3)cc1
REMARK SMILES IDX 6 1 5 2 4 3 3 4 1 5 2 6 27 8 28 9 80 10 29 11 79 12 30 13
REMARK SMILES IDX 31 14 32 15 73 16 33 17 78 18 72 19 74 20 34 21 77 22 71 23
REMARK SMILES IDX 70 24 35 26 61 27 44 28 60 29 45 30 48 31 59 32 75 33 46 34
REMARK SMILES IDX 47 35 58 37 76 38 49 39 36 40 37 41 42 42 38 43 39 44 41 45
REMARK SMILES IDX 43 46 40 47 62 48 63 49 68 50 64 51 65 52 67 53 69 54 66 55
REMARK SMILES IDX 50 56 51 57 56 58 52 59 53 60 55 61 57 62 54 63 7 64 8 65
REMARK SMILES IDX 9 66 10 67 11 68 12 70 13 71 14 72 26 73 15 74 16 75 17 76
REMARK SMILES IDX 18 77 19 78 20 79 25 80 21 81 24 82 22 83 23 84
REMARK H PARENT 3 7 74 25 48 36 10 69
REMARK Flexibility Score: inf
ROOT
ATOM      1  C   UNL A   1      36.284  20.936  24.741  1.00  0.00     0.002 C 
ENDROOT
BRANCH   1   2
ATOM      2  C   UNL A   1      37.350  19.865  24.982  1.00  0.00     0.021 C 
BRANCH   2   3
ATOM      3  C   UNL A   1      38.565  20.334  25.774  1.00  0.00     0.116 C 
BRANCH   3   4
ATOM      4  N   UNL A   1      39.634  19.350  25.780  1.00  0.00    -0.352 N 
ATOM      5  O   UNL A   1      41.763  18.614  25.830  1.00  0.00    -0.269 OA
ATOM      6  C   UNL A   1      40.970  19.528  26.031  1.00  0.00     0.251 C 
ATOM      7  H   UNL A   1      39.360  18.427  25.574  1.00  0.00     0.163 HD
BRANCH   6   8
ATOM      8  C   UNL A   1      41.459  20.828  26.538  1.00  0.00     0.039 A 
ATOM      9  C   UNL A   1      41.914  21.816  25.658  1.00  0.00     0.014 A 
ATOM     10  C   UNL A   1      41.418  21.077  27.914  1.00  0.00     0.014 A 
ATOM     11  C   UNL A   1      42.405  23.017  26.159  1.00  0.00     0.010 A 
ATOM     12  C   UNL A   1      41.853  22.307  28.411  1.00  0.00     0.010 A 
ATOM     13  C   UNL A   1      42.355  23.283  27.537  1.00  0.00    -0.014 A 
BRANCH  13  14
ATOM     14  C   UNL A   1      42.716  24.632  28.037  1.00  0.00     0.031 A 
ATOM     15  C   UNL A   1      41.670  25.671  28.305  1.00  0.00     0.074 A 
ATOM     16  C   UNL A   1      44.020  24.912  28.229  1.00  0.00     0.049 A 
ATOM     17  N   UNL A   1      41.828  26.908  28.703  1.00  0.00    -0.248 NA
ATOM     18  C   UNL A   1      40.266  25.280  28.101  1.00  0.00     0.031 C 
ATOM     19  C   UNL A   1      45.123  23.979  27.984  1.00  0.00     0.029 A 
ATOM     20  N   UNL A   1      44.640  26.052  28.669  1.00  0.00    -0.354 N 
ATOM     21  C   UNL A   1      40.552  27.449  28.781  1.00  0.00     0.074 A 
ATOM     22  C   UNL A   1      39.627  26.411  28.378  1.00  0.00     0.031 C 
ATOM     23  C   UNL A   1      46.283  24.577  28.295  1.00  0.00     0.029 A 
ATOM     24  C   UNL A   1      46.010  25.950  28.705  1.00  0.00     0.049 A 
ATOM     25  H   UNL A   1      44.152  26.864  28.935  1.00  0.00     0.167 HD
ATOM     26  C   UNL A   1      40.193  28.697  29.162  1.00  0.00     0.037 A 
ATOM     27  C   UNL A   1      46.949  26.868  29.004  1.00  0.00     0.037 A 
ATOM     28  C   UNL A   1      41.120  29.715  29.585  1.00  0.00     0.049 A 
ATOM     29  C   UNL A   1      46.521  28.252  29.386  1.00  0.00     0.074 A 
ATOM     30  C   UNL A   1      40.841  30.985  30.062  1.00  0.00     0.029 A 
ATOM     31  N   UNL A   1      42.499  29.585  29.576  1.00  0.00    -0.354 N 
ATOM     32  N   UNL A   1      45.308  28.733  29.504  1.00  0.00    -0.248 NA
ATOM     33  C   UNL A   1      47.587  29.226  29.664  1.00  0.00     0.031 C 
ATOM     34  C   UNL A   1      42.053  31.638  30.296  1.00  0.00     0.029 A 
ATOM     35  C   UNL A   1      43.087  30.763  30.003  1.00  0.00     0.049 A 
ATOM     36  H   UNL A   1      42.989  28.774  29.305  1.00  0.00     0.167 HD
ATOM     37  C   UNL A   1      45.460  30.062  29.869  1.00  0.00     0.074 A 
ATOM     38  C   UNL A   1      46.884  30.308  29.974  1.00  0.00     0.031 C 
ATOM     39  C   UNL A   1      44.505  30.995  30.092  1.00  0.00     0.037 A 
BRANCH  26  40
ATOM     40  C   UNL A   1      38.738  29.055  29.145  1.00  0.00     0.057 A 
ATOM     41  C   UNL A   1      38.155  29.604  27.995  1.00  0.00     0.134 A 
ATOM     42  C   UNL A   1      37.947  28.971  30.296  1.00  0.00     0.134 A 
ATOM     43  F   UNL A   1      38.864  29.720  26.861  1.00  0.00    -0.206 F 
ATOM     44  C   UNL A   1      36.842  30.074  27.996  1.00  0.00     0.040 A 
ATOM     45  C   UNL A   1      36.626  29.423  30.305  1.00  0.00     0.040 A 
ATOM     46  F   UNL A   1      38.446  28.451  31.428  1.00  0.00    -0.206 F 
ATOM     47  C   UNL A   1      36.074  29.987  29.157  1.00  0.00     0.006 A 
ENDBRANCH  26  40
BRANCH  27  48
ATOM     48  C   UNL A   1      48.381  26.496  28.920  1.00  0.00     0.057 A 
ATOM     49  C   UNL A   1      49.108  26.670  27.734  1.00  0.00     0.134 A 
ATOM     50  C   UNL A   1      49.045  25.917  30.006  1.00  0.00     0.134 A 
ATOM     51  F   UNL A   1      48.523  27.213  26.657  1.00  0.00    -0.206 F 
ATOM     52  C   UNL A   1      50.436  26.261  27.625  1.00  0.00     0.040 A 
ATOM     53  C   UNL A   1      50.381  25.525  29.918  1.00  0.00     0.040 A 
ATOM     54  F   UNL A   1      48.405  25.739  31.170  1.00  0.00    -0.206 F 
ATOM     55  C   UNL A   1      51.077  25.688  28.720  1.00  0.00     0.006 A 
ENDBRANCH  27  48
BRANCH  39  56
ATOM     56  C   UNL A   1      44.959  32.373  30.463  1.00  0.00     0.057 A 
ATOM     57  C   UNL A   1      45.156  32.726  31.803  1.00  0.00     0.134 A 
ATOM     58  C   UNL A   1      45.117  33.371  29.495  1.00  0.00     0.134 A 
ATOM     59  F   UNL A   1      45.010  31.814  32.777  1.00  0.00    -0.206 F 
ATOM     60  C   UNL A   1      45.478  34.033  32.169  1.00  0.00     0.040 A 
ATOM     61  C   UNL A   1      45.457  34.677  29.848  1.00  0.00     0.040 A 
ATOM     62  F   UNL A   1      44.952  33.088  28.193  1.00  0.00    -0.206 F 
ATOM     63  C   UNL A   1      45.628  35.013  31.190  1.00  0.00     0.006 A 
ENDBRANCH  39  56
ENDBRANCH  13  14
ENDBRANCH   6   8
ENDBRANCH   3   4
ENDBRANCH   2   3
ENDBRANCH   1   2
BRANCH   1  64
ATOM     64  C   UNL A   1      34.833  20.453  24.829  1.00  0.00     0.002 C 
BRANCH  64  65
ATOM     65  C   UNL A   1      34.014  21.033  25.986  1.00  0.00     0.021 C 
BRANCH  65  66
ATOM     66  C   UNL A   1      32.924  22.019  25.571  1.00  0.00     0.116 C 
BRANCH  66  67
ATOM     67  N   UNL A   1      31.870  22.119  26.567  1.00  0.00    -0.356 N 
ATOM     68  C   UNL A   1      30.945  23.126  26.720  1.00  0.00     0.225 C 
ATOM     69  H   UNL A   1      31.811  21.377  27.210  1.00  0.00     0.163 HD
ATOM     70  O   UNL A   1      30.114  23.019  27.625  1.00  0.00    -0.275 OA
BRANCH  68  71
ATOM     71  C   UNL A   1      31.014  24.300  25.744  1.00  0.00     0.109 C 
ATOM     72  C   UNL A   1      29.867  25.328  25.675  1.00  0.00     0.117 C 
ATOM     73  C   UNL A   1      31.856  25.521  26.176  1.00  0.00     0.117 C 
ATOM     74  N   UNL A   1      30.902  26.415  25.423  1.00  0.00    -0.196 NA
BRANCH  74  75
ATOM     75  S   UNL A   1      31.248  26.925  23.815  1.00  0.00     0.243 S 
ATOM     76  O   UNL A   1      32.559  27.542  23.817  1.00  0.00    -0.207 OA
ATOM     77  O   UNL A   1      30.935  25.822  22.932  1.00  0.00    -0.207 OA
BRANCH  75  78
ATOM     78  C   UNL A   1      30.059  28.215  23.537  1.00  0.00     0.082 A 
ATOM     79  C   UNL A   1      28.749  27.884  23.170  1.00  0.00     0.025 A 
ATOM     80  C   UNL A   1      30.420  29.548  23.762  1.00  0.00     0.025 A 
ATOM     81  C   UNL A   1      27.802  28.897  23.009  1.00  0.00     0.040 A 
ATOM     82  C   UNL A   1      29.465  30.555  23.611  1.00  0.00     0.040 A 
ATOM     83  C   UNL A   1      28.168  30.221  23.234  1.00  0.00     0.123 A 
ATOM     84  F   UNL A   1      27.252  31.189  23.095  1.00  0.00    -0.207 F 
ENDBRANCH  75  78
ENDBRANCH  74  75
ENDBRANCH  68  71
ENDBRANCH  66  67
ENDBRANCH  65  66
ENDBRANCH  64  65
ENDBRANCH   1  64
TORSDOF 15
ENDMDL
MODEL 3
REMARK VINA RESULT:     -10.9      4.030      7.828
REMARK SMILES O=C(NCCCCCCNC(=O)C1CN(S(=O)(=O)c2ccc(F)cc2)C1)c1ccc(-c2c3nc(c(-c4c(F)cccc4F)c4ccc([nH]4)c(-c4c(F)cccc4F)c4nc(c(-c5c(F)cccc5F)c5ccc2[nH]5)C=C4)C=C3)cc1
REMARK SMILES IDX 6 1 5 2 4 3 3 4 1 5 2 6 27 8 28 9 80 10 29 11 79 12 30 13
REMARK SMILES IDX 31 14 32 15 73 16 33 17 78 18 72 19 74 20 34 21 77 22 71 23
REMARK SMILES IDX 70 24 35 26 61 27 44 28 60 29 45 30 48 31 59 32 75 33 46 34
REMARK SMILES IDX 47 35 58 37 76 38 49 39 36 40 37 41 42 42 38 43 39 44 41 45
REMARK SMILES IDX 43 46 40 47 62 48 63 49 68 50 64 51 65 52 67 53 69 54 66 55
REMARK SMILES IDX 50 56 51 57 56 58 52 59 53 60 55 61 57 62 54 63 7 64 8 65
REMARK SMILES IDX 9 66 10 67 11 68 12 70 13 71 14 72 26 73 15 74 16 75 17 76
REMARK SMILES IDX 18 77 19 78 20 79 25 80 21 81 24 82 22 83 23 84
REMARK H PARENT 3 7 74 25 48 36 10 69
REMARK Flexibility Score: inf
ROOT
ATOM      1  C   UNL A   1      31.576  30.403  26.010  1.00  0.00     0.002 C 
ENDROOT
BRANCH   1   2
ATOM      2  C   UNL A   1      31.425  31.843  26.505  1.00  0.00     0.021 C 
BRANCH   2   3
ATOM      3  C   UNL A   1      32.657  32.419  27.194  1.00  0.00     0.116 C 
BRANCH   3   4
ATOM      4  N   UNL A   1      32.484  33.815  27.556  1.00  0.00    -0.352 N 
ATOM      5  O   UNL A   1      32.752  35.673  28.803  1.00  0.00    -0.269 OA
ATOM      6  C   UNL A   1      33.139  34.545  28.515  1.00  0.00     0.251 C 
ATOM      7  H   UNL A   1      31.802  34.304  27.042  1.00  0.00     0.163 HD
BRANCH   6   8
ATOM      8  C   UNL A   1      34.310  33.969  29.210  1.00  0.00     0.039 A 
ATOM      9  C   UNL A   1      34.145  33.072  30.270  1.00  0.00     0.014 A 
ATOM     10  C   UNL A   1      35.593  34.300  28.762  1.00  0.00     0.014 A 
ATOM     11  C   UNL A   1      35.260  32.572  30.934  1.00  0.00     0.010 A 
ATOM     12  C   UNL A   1      36.712  33.748  29.389  1.00  0.00     0.010 A 
ATOM     13  C   UNL A   1      36.552  32.885  30.483  1.00  0.00    -0.014 A 
BRANCH  13  14
ATOM     14  C   UNL A   1      37.725  32.207  31.088  1.00  0.00     0.031 A 
ATOM     15  C   UNL A   1      38.454  31.115  30.364  1.00  0.00     0.074 A 
ATOM     16  C   UNL A   1      38.112  32.583  32.323  1.00  0.00     0.049 A 
ATOM     17  N   UNL A   1      39.468  30.396  30.775  1.00  0.00    -0.248 NA
ATOM     18  C   UNL A   1      37.990  30.781  29.008  1.00  0.00     0.031 C 
ATOM     19  C   UNL A   1      37.462  33.623  33.124  1.00  0.00     0.029 A 
ATOM     20  N   UNL A   1      39.135  32.140  33.119  1.00  0.00    -0.354 N 
ATOM     21  C   UNL A   1      39.755  29.517  29.740  1.00  0.00     0.074 A 
ATOM     22  C   UNL A   1      38.801  29.780  28.685  1.00  0.00     0.031 C 
ATOM     23  C   UNL A   1      38.114  33.751  34.290  1.00  0.00     0.029 A 
ATOM     24  C   UNL A   1      39.187  32.766  34.340  1.00  0.00     0.049 A 
ATOM     25  H   UNL A   1      39.771  31.441  32.843  1.00  0.00     0.167 HD
ATOM     26  C   UNL A   1      40.731  28.581  29.683  1.00  0.00     0.037 A 
ATOM     27  C   UNL A   1      39.990  32.552  35.401  1.00  0.00     0.037 A 
ATOM     28  C   UNL A   1      41.692  28.344  30.730  1.00  0.00     0.049 A 
ATOM     29  C   UNL A   1      41.038  31.484  35.320  1.00  0.00     0.074 A 
ATOM     30  C   UNL A   1      42.765  27.469  30.728  1.00  0.00     0.029 A 
ATOM     31  N   UNL A   1      41.691  28.975  31.963  1.00  0.00    -0.354 N 
ATOM     32  N   UNL A   1      41.329  30.694  34.315  1.00  0.00    -0.248 NA
ATOM     33  C   UNL A   1      41.860  31.264  36.518  1.00  0.00     0.031 C 
ATOM     34  C   UNL A   1      43.385  27.537  31.977  1.00  0.00     0.029 A 
ATOM     35  C   UNL A   1      42.723  28.483  32.745  1.00  0.00     0.049 A 
ATOM     36  H   UNL A   1      41.052  29.670  32.244  1.00  0.00     0.167 HD
ATOM     37  C   UNL A   1      42.365  29.885  34.756  1.00  0.00     0.074 A 
ATOM     38  C   UNL A   1      42.668  30.293  36.113  1.00  0.00     0.031 C 
ATOM     39  C   UNL A   1      43.004  28.891  34.096  1.00  0.00     0.037 A 
BRANCH  26  40
ATOM     40  C   UNL A   1      40.829  27.730  28.454  1.00  0.00     0.057 A 
ATOM     41  C   UNL A   1      41.585  28.154  27.354  1.00  0.00     0.134 A 
ATOM     42  C   UNL A   1      40.082  26.554  28.314  1.00  0.00     0.134 A 
ATOM     43  F   UNL A   1      42.315  29.278  27.422  1.00  0.00    -0.206 F 
ATOM     44  C   UNL A   1      41.580  27.449  26.150  1.00  0.00     0.040 A 
ATOM     45  C   UNL A   1      40.082  25.830  27.119  1.00  0.00     0.040 A 
ATOM     46  F   UNL A   1      39.341  26.093  29.333  1.00  0.00    -0.206 F 
ATOM     47  C   UNL A   1      40.823  26.284  26.029  1.00  0.00     0.006 A 
ENDBRANCH  26  40
BRANCH  27  48
ATOM     48  C   UNL A   1      39.799  33.356  36.631  1.00  0.00     0.057 A 
ATOM     49  C   UNL A   1      40.551  34.516  36.863  1.00  0.00     0.134 A 
ATOM     50  C   UNL A   1      38.897  32.962  37.623  1.00  0.00     0.134 A 
ATOM     51  F   UNL A   1      41.439  34.939  35.951  1.00  0.00    -0.206 F 
ATOM     52  C   UNL A   1      40.429  35.242  38.046  1.00  0.00     0.040 A 
ATOM     53  C   UNL A   1      38.747  33.692  38.803  1.00  0.00     0.040 A 
ATOM     54  F   UNL A   1      38.140  31.869  37.451  1.00  0.00    -0.206 F 
ATOM     55  C   UNL A   1      39.522  34.831  39.021  1.00  0.00     0.006 A 
ENDBRANCH  27  48
BRANCH  39  56
ATOM     56  C   UNL A   1      44.089  28.163  34.827  1.00  0.00     0.057 A 
ATOM     57  C   UNL A   1      45.418  28.598  34.757  1.00  0.00     0.134 A 
ATOM     58  C   UNL A   1      43.825  26.982  35.531  1.00  0.00     0.134 A 
ATOM     59  F   UNL A   1      45.734  29.718  34.089  1.00  0.00    -0.206 F 
ATOM     60  C   UNL A   1      46.452  27.871  35.347  1.00  0.00     0.040 A 
ATOM     61  C   UNL A   1      44.849  26.257  36.141  1.00  0.00     0.040 A 
ATOM     62  F   UNL A   1      42.569  26.523  35.642  1.00  0.00    -0.206 F 
ATOM     63  C   UNL A   1      46.168  26.697  36.041  1.00  0.00     0.006 A 
ENDBRANCH  39  56
ENDBRANCH  13  14
ENDBRANCH   6   8
ENDBRANCH   3   4
ENDBRANCH   2   3
ENDBRANCH   1   2
BRANCH   1  64
ATOM     64  C   UNL A   1      31.771  29.347  27.102  1.00  0.00     0.002 C 
BRANCH  64  65
ATOM     65  C   UNL A   1      33.049  28.508  26.987  1.00  0.00     0.021 C 
BRANCH  65  66
ATOM     66  C   UNL A   1      32.841  27.091  26.460  1.00  0.00     0.116 C 
BRANCH  66  67
ATOM     67  N   UNL A   1      31.460  26.657  26.587  1.00  0.00    -0.356 N 
ATOM     68  C   UNL A   1      30.938  25.409  26.334  1.00  0.00     0.225 C 
ATOM     69  H   UNL A   1      30.819  27.338  26.892  1.00  0.00     0.163 HD
ATOM     70  O   UNL A   1      29.732  25.235  26.520  1.00  0.00    -0.275 OA
BRANCH  68  71
ATOM     71  C   UNL A   1      31.904  24.328  25.849  1.00  0.00     0.109 C 
ATOM     72  C   UNL A   1      32.252  23.128  26.752  1.00  0.00     0.117 C 
ATOM     73  C   UNL A   1      31.327  23.242  24.914  1.00  0.00     0.117 C 
ATOM     74  N   UNL A   1      32.295  22.250  25.510  1.00  0.00    -0.196 NA
BRANCH  74  75
ATOM     75  S   UNL A   1      33.799  21.909  24.742  1.00  0.00     0.243 S 
ATOM     76  O   UNL A   1      33.841  22.648  23.497  1.00  0.00    -0.207 OA
ATOM     77  O   UNL A   1      34.838  22.053  25.739  1.00  0.00    -0.207 OA
BRANCH  75  78
ATOM     78  C   UNL A   1      33.658  20.187  24.329  1.00  0.00     0.082 A 
ATOM     79  C   UNL A   1      34.672  19.298  24.706  1.00  0.00     0.025 A 
ATOM     80  C   UNL A   1      32.500  19.721  23.697  1.00  0.00     0.025 A 
ATOM     81  C   UNL A   1      34.531  17.937  24.431  1.00  0.00     0.040 A 
ATOM     82  C   UNL A   1      32.361  18.357  23.436  1.00  0.00     0.040 A 
ATOM     83  C   UNL A   1      33.377  17.480  23.801  1.00  0.00     0.123 A 
ATOM     84  F   UNL A   1      33.238  16.170  23.555  1.00  0.00    -0.207 F 
ENDBRANCH  75  78
ENDBRANCH  74  75
ENDBRANCH  68  71
ENDBRANCH  66  67
ENDBRANCH  65  66
ENDBRANCH  64  65
ENDBRANCH   1  64
TORSDOF 15
ENDMDL
