MODEL 1
REMARK VINA RESULT:     -10.9      0.000      0.000
REMARK SMILES CC[C@@](C)(NC(=O)[C@@H](C)NC(=O)c1ccco1)C(=O)NCCCCCCNC(=O)c1ccc(-c2c3nc(c(-c4c(F)cccc4F)c4ccc([nH]4)c(-c4c(F)cccc4F)c4nc(c(-c5c(F)cccc5F)c5ccc2[nH]5)C=C4)C=C3)cc1
REMARK SMILES IDX 22 1 21 2 20 3 18 4 19 5 3 7 4 8 2 9 1 10 5 11 6 12 7 14
REMARK SMILES IDX 8 15 9 16 10 17 11 18 12 20 13 21 14 22 17 23 15 24 16 25
REMARK SMILES IDX 23 26 24 27 25 28 26 29 27 30 28 31 29 33 30 34 31 35 83 36
REMARK SMILES IDX 32 37 82 38 33 39 34 40 35 41 76 42 36 43 81 44 75 45 77 46
REMARK SMILES IDX 37 47 80 48 74 49 73 50 38 52 64 53 47 54 63 55 48 56 51 57
REMARK SMILES IDX 62 58 78 59 49 60 50 61 61 63 79 64 52 65 39 66 40 67 45 68
REMARK SMILES IDX 41 69 42 70 44 71 46 72 43 73 65 74 66 75 71 76 67 77 68 78
REMARK SMILES IDX 70 79 72 80 69 81 53 82 54 83 59 84 55 85 56 86 58 87 60 88
REMARK SMILES IDX 57 89
REMARK H PARENT 20 6 5 13 10 19 27 32 77 51 51 62
REMARK Flexibility Score: inf
ROOT
ATOM      1  C   UNL A   1      31.065  28.819  23.186  1.00  0.00     0.021 C 
ENDROOT
BRANCH   1   2
ATOM      2  C   UNL A   1      30.628  27.445  22.684  1.00  0.00     0.116 C 
BRANCH   2   3
ATOM      3  N   UNL A   1      31.515  26.907  21.663  1.00  0.00    -0.354 N 
ATOM      4  C   UNL A   1      32.432  25.899  21.682  1.00  0.00     0.245 C 
ATOM      5  O   UNL A   1      33.191  25.828  20.710  1.00  0.00    -0.272 OA
ATOM      6  H   UNL A   1      31.439  27.358  20.792  1.00  0.00     0.163 HD
BRANCH   4   7
ATOM      7  C   UNL A   1      32.581  24.929  22.877  1.00  0.00     0.116 C 
ATOM      8  C   UNL A   1      34.089  24.747  23.192  1.00  0.00     0.045 C 
BRANCH   7   9
ATOM      9  C   UNL A   1      31.914  25.436  24.186  1.00  0.00     0.035 C 
ATOM     10  C   UNL A   1      32.808  25.555  25.419  1.00  0.00     0.007 C 
ENDBRANCH   7   9
BRANCH   7  11
ATOM     11  N   UNL A   1      31.988  23.619  22.518  1.00  0.00    -0.340 N 
ATOM     12  C   UNL A   1      32.070  22.353  23.002  1.00  0.00     0.243 C 
ATOM     13  H   UNL A   1      31.389  23.682  21.738  1.00  0.00     0.164 HD
ATOM     14  O   UNL A   1      31.758  21.483  22.172  1.00  0.00    -0.273 OA
BRANCH  12  15
ATOM     15  C   UNL A   1      32.598  21.876  24.393  1.00  0.00     0.168 C 
ATOM     16  C   UNL A   1      31.509  21.890  25.460  1.00  0.00     0.041 C 
BRANCH  15  17
ATOM     17  N   UNL A   1      33.370  20.647  24.531  1.00  0.00    -0.338 N 
ATOM     18  C   UNL A   1      34.717  20.467  24.772  1.00  0.00     0.287 C 
ATOM     19  H   UNL A   1      32.850  19.816  24.439  1.00  0.00     0.164 HD
ATOM     20  O   UNL A   1      35.121  19.306  24.840  1.00  0.00    -0.266 OA
BRANCH  18  21
ATOM     21  C   UNL A   1      35.603  21.605  24.909  1.00  0.00     0.191 A 
ATOM     22  C   UNL A   1      36.584  22.154  24.102  1.00  0.00     0.056 A 
ATOM     23  O   UNL A   1      35.453  22.400  26.020  1.00  0.00    -0.459 OA
ATOM     24  C   UNL A   1      37.071  23.309  24.766  1.00  0.00     0.043 A 
ATOM     25  C   UNL A   1      36.353  23.410  25.932  1.00  0.00     0.196 A 
ENDBRANCH  18  21
ENDBRANCH  15  17
ENDBRANCH  12  15
ENDBRANCH   7  11
ENDBRANCH   4   7
ENDBRANCH   2   3
ENDBRANCH   1   2
BRANCH   1  26
ATOM     26  C   UNL A   1      31.060  28.963  24.707  1.00  0.00     0.002 C 
BRANCH  26  27
ATOM     27  C   UNL A   1      32.301  29.592  25.328  1.00  0.00     0.002 C 
BRANCH  27  28
ATOM     28  C   UNL A   1      32.107  30.122  26.744  1.00  0.00     0.021 C 
BRANCH  28  29
ATOM     29  C   UNL A   1      33.131  31.160  27.187  1.00  0.00     0.116 C 
BRANCH  29  30
ATOM     30  N   UNL A   1      32.564  32.491  27.361  1.00  0.00    -0.352 N 
ATOM     31  C   UNL A   1      33.056  33.555  28.087  1.00  0.00     0.251 C 
ATOM     32  H   UNL A   1      31.711  32.654  26.896  1.00  0.00     0.163 HD
ATOM     33  O   UNL A   1      32.421  34.583  28.234  1.00  0.00    -0.269 OA
BRANCH  31  34
ATOM     34  C   UNL A   1      34.380  33.399  28.722  1.00  0.00     0.039 A 
ATOM     35  C   UNL A   1      34.472  32.730  29.942  1.00  0.00     0.014 A 
ATOM     36  C   UNL A   1      35.526  33.807  28.036  1.00  0.00     0.014 A 
ATOM     37  C   UNL A   1      35.731  32.377  30.431  1.00  0.00     0.010 A 
ATOM     38  C   UNL A   1      36.770  33.379  28.481  1.00  0.00     0.010 A 
ATOM     39  C   UNL A   1      36.883  32.647  29.674  1.00  0.00    -0.014 A 
BRANCH  39  40
ATOM     40  C   UNL A   1      38.219  32.155  30.093  1.00  0.00     0.031 A 
ATOM     41  C   UNL A   1      38.743  30.857  29.547  1.00  0.00     0.074 A 
ATOM     42  C   UNL A   1      38.912  32.819  31.038  1.00  0.00     0.049 A 
ATOM     43  N   UNL A   1      39.828  30.201  29.871  1.00  0.00    -0.248 NA
ATOM     44  C   UNL A   1      37.916  30.189  28.530  1.00  0.00     0.031 C 
ATOM     45  C   UNL A   1      38.479  34.052  31.701  1.00  0.00     0.029 A 
ATOM     46  N   UNL A   1      40.123  32.539  31.622  1.00  0.00    -0.354 N 
ATOM     47  C   UNL A   1      39.798  29.034  29.120  1.00  0.00     0.074 A 
ATOM     48  C   UNL A   1      38.562  29.046  28.366  1.00  0.00     0.031 C 
ATOM     49  C   UNL A   1      39.417  34.431  32.585  1.00  0.00     0.029 A 
ATOM     50  C   UNL A   1      40.500  33.453  32.577  1.00  0.00     0.049 A 
ATOM     51  H   UNL A   1      40.669  31.757  31.379  1.00  0.00     0.167 HD
ATOM     52  C   UNL A   1      40.726  28.052  29.045  1.00  0.00     0.037 A 
ATOM     53  C   UNL A   1      41.593  33.494  33.361  1.00  0.00     0.037 A 
ATOM     54  C   UNL A   1      41.972  28.063  29.763  1.00  0.00     0.049 A 
ATOM     55  C   UNL A   1      42.629  32.412  33.234  1.00  0.00     0.074 A 
ATOM     56  C   UNL A   1      43.017  27.159  29.692  1.00  0.00     0.029 A 
ATOM     57  N   UNL A   1      42.342  29.033  30.682  1.00  0.00    -0.354 N 
ATOM     58  N   UNL A   1      42.625  31.352  32.462  1.00  0.00    -0.248 NA
ATOM     59  C   UNL A   1      43.823  32.533  34.083  1.00  0.00     0.031 C 
ATOM     60  C   UNL A   1      44.006  27.565  30.595  1.00  0.00     0.029 A 
ATOM     61  C   UNL A   1      43.593  28.740  31.200  1.00  0.00     0.049 A 
ATOM     62  H   UNL A   1      41.795  29.813  30.932  1.00  0.00     0.167 HD
ATOM     63  C   UNL A   1      43.819  30.692  32.716  1.00  0.00     0.074 A 
ATOM     64  C   UNL A   1      44.531  31.477  33.703  1.00  0.00     0.031 C 
ATOM     65  C   UNL A   1      44.285  29.538  32.180  1.00  0.00     0.037 A 
BRANCH  52  66
ATOM     66  C   UNL A   1      40.426  26.892  28.142  1.00  0.00     0.057 A 
ATOM     67  C   UNL A   1      39.572  25.853  28.537  1.00  0.00     0.134 A 
ATOM     68  C   UNL A   1      40.991  26.815  26.864  1.00  0.00     0.134 A 
ATOM     69  F   UNL A   1      39.010  25.861  29.756  1.00  0.00    -0.206 F 
ATOM     70  C   UNL A   1      39.319  24.761  27.706  1.00  0.00     0.040 A 
ATOM     71  C   UNL A   1      40.724  25.741  26.013  1.00  0.00     0.040 A 
ATOM     72  F   UNL A   1      41.813  27.779  26.422  1.00  0.00    -0.206 F 
ATOM     73  C   UNL A   1      39.893  24.706  26.437  1.00  0.00     0.006 A 
ENDBRANCH  52  66
BRANCH  53  74
ATOM     74  C   UNL A   1      41.778  34.613  34.319  1.00  0.00     0.057 A 
ATOM     75  C   UNL A   1      41.373  34.492  35.653  1.00  0.00     0.134 A 
ATOM     76  C   UNL A   1      42.365  35.821  33.928  1.00  0.00     0.134 A 
ATOM     77  F   UNL A   1      40.787  33.364  36.080  1.00  0.00    -0.206 F 
ATOM     78  C   UNL A   1      41.531  35.540  36.562  1.00  0.00     0.040 A 
ATOM     79  C   UNL A   1      42.549  36.869  34.832  1.00  0.00     0.040 A 
ATOM     80  F   UNL A   1      42.782  35.995  32.665  1.00  0.00    -0.206 F 
ATOM     81  C   UNL A   1      42.125  36.731  36.152  1.00  0.00     0.006 A 
ENDBRANCH  53  74
BRANCH  65  82
ATOM     82  C   UNL A   1      45.633  29.066  32.634  1.00  0.00     0.057 A 
ATOM     83  C   UNL A   1      45.778  28.190  33.717  1.00  0.00     0.134 A 
ATOM     84  C   UNL A   1      46.792  29.454  31.951  1.00  0.00     0.134 A 
ATOM     85  F   UNL A   1      44.707  27.793  34.420  1.00  0.00    -0.206 F 
ATOM     86  C   UNL A   1      47.034  27.726  34.114  1.00  0.00     0.040 A 
ATOM     87  C   UNL A   1      48.050  28.979  32.324  1.00  0.00     0.040 A 
ATOM     88  F   UNL A   1      46.718  30.285  30.901  1.00  0.00    -0.206 F 
ATOM     89  C   UNL A   1      48.173  28.116  33.411  1.00  0.00     0.006 A 
ENDBRANCH  65  82
ENDBRANCH  39  40
ENDBRANCH  31  34
ENDBRANCH  29  30
ENDBRANCH  28  29
ENDBRANCH  27  28
ENDBRANCH  26  27
ENDBRANCH   1  26
TORSDOF 18
ENDMDL
MODEL 2
REMARK VINA RESULT:     -10.8      3.081      8.537
REMARK SMILES CC[C@@](C)(NC(=O)[C@@H](C)NC(=O)c1ccco1)C(=O)NCCCCCCNC(=O)c1ccc(-c2c3nc(c(-c4c(F)cccc4F)c4ccc([nH]4)c(-c4c(F)cccc4F)c4nc(c(-c5c(F)cccc5F)c5ccc2[nH]5)C=C4)C=C3)cc1
REMARK SMILES IDX 22 1 21 2 20 3 18 4 19 5 3 7 4 8 2 9 1 10 5 11 6 12 7 14
REMARK SMILES IDX 8 15 9 16 10 17 11 18 12 20 13 21 14 22 17 23 15 24 16 25
REMARK SMILES IDX 23 26 24 27 25 28 26 29 27 30 28 31 29 33 30 34 31 35 83 36
REMARK SMILES IDX 32 37 82 38 33 39 34 40 35 41 76 42 36 43 81 44 75 45 77 46
REMARK SMILES IDX 37 47 80 48 74 49 73 50 38 52 64 53 47 54 63 55 48 56 51 57
REMARK SMILES IDX 62 58 78 59 49 60 50 61 61 63 79 64 52 65 39 66 40 67 45 68
REMARK SMILES IDX 41 69 42 70 44 71 46 72 43 73 65 74 66 75 71 76 67 77 68 78
REMARK SMILES IDX 70 79 72 80 69 81 53 82 54 83 59 84 55 85 56 86 58 87 60 88
REMARK SMILES IDX 57 89
REMARK H PARENT 20 6 5 13 10 19 27 32 77 51 51 62
REMARK Flexibility Score: inf
ROOT
ATOM      1  C   UNL A   1      35.809  23.074  23.485  1.00  0.00     0.021 C 
ENDROOT
BRANCH   1   2
ATOM      2  C   UNL A   1      34.453  22.377  23.428  1.00  0.00     0.116 C 
BRANCH   2   3
ATOM      3  N   UNL A   1      33.380  23.262  22.999  1.00  0.00    -0.354 N 
ATOM      4  C   UNL A   1      32.241  23.690  23.614  1.00  0.00     0.245 C 
ATOM      5  O   UNL A   1      31.414  24.266  22.901  1.00  0.00    -0.272 OA
ATOM      6  H   UNL A   1      33.497  23.618  22.089  1.00  0.00     0.163 HD
BRANCH   4   7
ATOM      7  C   UNL A   1      31.947  23.419  25.108  1.00  0.00     0.116 C 
ATOM      8  C   UNL A   1      31.767  21.893  25.317  1.00  0.00     0.045 C 
BRANCH   7   9
ATOM      9  C   UNL A   1      33.090  23.864  26.063  1.00  0.00     0.035 C 
ATOM     10  C   UNL A   1      33.503  22.879  27.156  1.00  0.00     0.007 C 
ENDBRANCH   7   9
BRANCH   7  11
ATOM     11  N   UNL A   1      30.702  24.124  25.495  1.00  0.00    -0.340 N 
ATOM     12  C   UNL A   1      30.370  25.403  25.805  1.00  0.00     0.243 C 
ATOM     13  H   UNL A   1      29.928  23.517  25.539  1.00  0.00     0.164 HD
ATOM     14  O   UNL A   1      29.329  25.498  26.475  1.00  0.00    -0.273 OA
BRANCH  12  15
ATOM     15  C   UNL A   1      31.174  26.713  25.523  1.00  0.00     0.168 C 
ATOM     16  C   UNL A   1      31.966  27.178  26.739  1.00  0.00     0.041 C 
BRANCH  15  17
ATOM     17  N   UNL A   1      32.016  26.847  24.340  1.00  0.00    -0.338 N 
ATOM     18  C   UNL A   1      31.904  27.702  23.263  1.00  0.00     0.287 C 
ATOM     19  H   UNL A   1      32.784  26.232  24.304  1.00  0.00     0.164 HD
ATOM     20  O   UNL A   1      32.759  27.605  22.382  1.00  0.00    -0.266 OA
BRANCH  18  21
ATOM     21  C   UNL A   1      30.807  28.645  23.177  1.00  0.00     0.191 A 
ATOM     22  C   UNL A   1      30.356  29.663  24.001  1.00  0.00     0.056 A 
ATOM     23  O   UNL A   1      30.047  28.638  22.033  1.00  0.00    -0.459 OA
ATOM     24  C   UNL A   1      29.258  30.273  23.344  1.00  0.00     0.043 A 
ATOM     25  C   UNL A   1      29.107  29.607  22.152  1.00  0.00     0.196 A 
ENDBRANCH  18  21
ENDBRANCH  15  17
ENDBRANCH  12  15
ENDBRANCH   7  11
ENDBRANCH   4   7
ENDBRANCH   2   3
ENDBRANCH   1   2
BRANCH   1  26
ATOM     26  C   UNL A   1      36.532  22.933  24.823  1.00  0.00     0.002 C 
BRANCH  26  27
ATOM     27  C   UNL A   1      36.642  21.520  25.384  1.00  0.00     0.002 C 
BRANCH  27  28
ATOM     28  C   UNL A   1      37.890  20.758  24.952  1.00  0.00     0.021 C 
BRANCH  28  29
ATOM     29  C   UNL A   1      39.068  20.857  25.915  1.00  0.00     0.116 C 
BRANCH  29  30
ATOM     30  N   UNL A   1      40.005  19.747  25.795  1.00  0.00    -0.352 N 
ATOM     31  C   UNL A   1      41.366  19.733  26.021  1.00  0.00     0.251 C 
ATOM     32  H   UNL A   1      39.614  18.888  25.513  1.00  0.00     0.163 HD
ATOM     33  O   UNL A   1      42.048  18.756  25.778  1.00  0.00    -0.269 OA
BRANCH  31  34
ATOM     34  C   UNL A   1      41.987  20.967  26.541  1.00  0.00     0.039 A 
ATOM     35  C   UNL A   1      42.450  21.926  25.639  1.00  0.00     0.014 A 
ATOM     36  C   UNL A   1      41.988  21.212  27.915  1.00  0.00     0.014 A 
ATOM     37  C   UNL A   1      42.823  23.183  26.115  1.00  0.00     0.010 A 
ATOM     38  C   UNL A   1      42.277  22.491  28.375  1.00  0.00     0.010 A 
ATOM     39  C   UNL A   1      42.683  23.492  27.478  1.00  0.00    -0.014 A 
BRANCH  39  40
ATOM     40  C   UNL A   1      42.930  24.862  27.993  1.00  0.00     0.031 A 
ATOM     41  C   UNL A   1      44.309  25.256  28.439  1.00  0.00     0.074 A 
ATOM     42  C   UNL A   1      41.898  25.712  28.156  1.00  0.00     0.049 A 
ATOM     43  N   UNL A   1      44.707  26.358  29.021  1.00  0.00    -0.248 NA
ATOM     44  C   UNL A   1      45.375  24.262  28.240  1.00  0.00     0.031 C 
ATOM     45  C   UNL A   1      40.499  25.424  27.830  1.00  0.00     0.029 A 
ATOM     46  N   UNL A   1      41.863  26.990  28.657  1.00  0.00    -0.354 N 
ATOM     47  C   UNL A   1      46.059  26.178  29.281  1.00  0.00     0.074 A 
ATOM     48  C   UNL A   1      46.400  24.841  28.844  1.00  0.00     0.031 C 
ATOM     49  C   UNL A   1      39.748  26.498  28.122  1.00  0.00     0.029 A 
ATOM     50  C   UNL A   1      40.603  27.538  28.685  1.00  0.00     0.049 A 
ATOM     51  H   UNL A   1      42.665  27.469  28.966  1.00  0.00     0.167 HD
ATOM     52  C   UNL A   1      46.942  27.054  29.813  1.00  0.00     0.037 A 
ATOM     53  C   UNL A   1      40.184  28.740  29.121  1.00  0.00     0.037 A 
ATOM     54  C   UNL A   1      46.609  28.396  30.208  1.00  0.00     0.049 A 
ATOM     55  C   UNL A   1      41.189  29.711  29.675  1.00  0.00     0.074 A 
ATOM     56  C   UNL A   1      47.448  29.391  30.679  1.00  0.00     0.029 A 
ATOM     57  N   UNL A   1      45.331  28.933  30.173  1.00  0.00    -0.354 N 
ATOM     58  N   UNL A   1      42.480  29.557  29.843  1.00  0.00    -0.248 NA
ATOM     59  C   UNL A   1      40.681  31.026  30.093  1.00  0.00     0.031 C 
ATOM     60  C   UNL A   1      46.671  30.519  30.961  1.00  0.00     0.029 A 
ATOM     61  C   UNL A   1      45.355  30.240  30.631  1.00  0.00     0.049 A 
ATOM     62  H   UNL A   1      44.525  28.455  29.870  1.00  0.00     0.167 HD
ATOM     63  C   UNL A   1      42.942  30.756  30.367  1.00  0.00     0.074 A 
ATOM     64  C   UNL A   1      41.796  31.635  30.476  1.00  0.00     0.031 C 
ATOM     65  C   UNL A   1      44.203  31.099  30.728  1.00  0.00     0.037 A 
BRANCH  52  66
ATOM     66  C   UNL A   1      48.356  26.583  29.984  1.00  0.00     0.057 A 
ATOM     67  C   UNL A   1      48.772  25.901  31.135  1.00  0.00     0.134 A 
ATOM     68  C   UNL A   1      49.312  26.810  28.986  1.00  0.00     0.134 A 
ATOM     69  F   UNL A   1      47.908  25.666  32.135  1.00  0.00    -0.206 F 
ATOM     70  C   UNL A   1      50.095  25.491  31.304  1.00  0.00     0.040 A 
ATOM     71  C   UNL A   1      50.631  26.381  29.130  1.00  0.00     0.040 A 
ATOM     72  F   UNL A   1      48.979  27.453  27.856  1.00  0.00    -0.206 F 
ATOM     73  C   UNL A   1      51.029  25.728  30.296  1.00  0.00     0.006 A 
ENDBRANCH  52  66
BRANCH  53  74
ATOM     74  C   UNL A   1      38.748  29.104  29.029  1.00  0.00     0.057 A 
ATOM     75  C   UNL A   1      38.200  29.569  27.829  1.00  0.00     0.134 A 
ATOM     76  C   UNL A   1      37.893  28.993  30.131  1.00  0.00     0.134 A 
ATOM     77  F   UNL A   1      38.974  29.714  26.744  1.00  0.00    -0.206 F 
ATOM     78  C   UNL A   1      36.853  29.925  27.730  1.00  0.00     0.040 A 
ATOM     79  C   UNL A   1      36.540  29.326  30.041  1.00  0.00     0.040 A 
ATOM     80  F   UNL A   1      38.357  28.546  31.307  1.00  0.00    -0.206 F 
ATOM     81  C   UNL A   1      36.018  29.799  28.838  1.00  0.00     0.006 A 
ENDBRANCH  53  74
BRANCH  65  82
ATOM     82  C   UNL A   1      44.412  32.487  31.254  1.00  0.00     0.057 A 
ATOM     83  C   UNL A   1      44.341  32.772  32.623  1.00  0.00     0.134 A 
ATOM     84  C   UNL A   1      44.735  33.537  30.386  1.00  0.00     0.134 A 
ATOM     85  F   UNL A   1      44.021  31.811  33.503  1.00  0.00    -0.206 F 
ATOM     86  C   UNL A   1      44.571  34.061  33.109  1.00  0.00     0.040 A 
ATOM     87  C   UNL A   1      44.990  34.823  30.863  1.00  0.00     0.040 A 
ATOM     88  F   UNL A   1      44.826  33.326  29.064  1.00  0.00    -0.206 F 
ATOM     89  C   UNL A   1      44.904  35.088  32.228  1.00  0.00     0.006 A 
ENDBRANCH  65  82
ENDBRANCH  39  40
ENDBRANCH  31  34
ENDBRANCH  29  30
ENDBRANCH  28  29
ENDBRANCH  27  28
ENDBRANCH  26  27
ENDBRANCH   1  26
TORSDOF 18
ENDMDL
MODEL 3
REMARK VINA RESULT:     -10.7      3.096      8.356
REMARK SMILES CC[C@@](C)(NC(=O)[C@@H](C)NC(=O)c1ccco1)C(=O)NCCCCCCNC(=O)c1ccc(-c2c3nc(c(-c4c(F)cccc4F)c4ccc([nH]4)c(-c4c(F)cccc4F)c4nc(c(-c5c(F)cccc5F)c5ccc2[nH]5)C=C4)C=C3)cc1
REMARK SMILES IDX 22 1 21 2 20 3 18 4 19 5 3 7 4 8 2 9 1 10 5 11 6 12 7 14
REMARK SMILES IDX 8 15 9 16 10 17 11 18 12 20 13 21 14 22 17 23 15 24 16 25
REMARK SMILES IDX 23 26 24 27 25 28 26 29 27 30 28 31 29 33 30 34 31 35 83 36
REMARK SMILES IDX 32 37 82 38 33 39 34 40 35 41 76 42 36 43 81 44 75 45 77 46
REMARK SMILES IDX 37 47 80 48 74 49 73 50 38 52 64 53 47 54 63 55 48 56 51 57
REMARK SMILES IDX 62 58 78 59 49 60 50 61 61 63 79 64 52 65 39 66 40 67 45 68
REMARK SMILES IDX 41 69 42 70 44 71 46 72 43 73 65 74 66 75 71 76 67 77 68 78
REMARK SMILES IDX 70 79 72 80 69 81 53 82 54 83 59 84 55 85 56 86 58 87 60 88
REMARK SMILES IDX 57 89
REMARK H PARENT 20 6 5 13 10 19 27 32 77 51 51 62
REMARK Flexibility Score: inf
ROOT
ATOM      1  C   UNL A   1      34.888  23.637  23.460  1.00  0.00     0.021 C 
ENDROOT
BRANCH   1   2
ATOM      2  C   UNL A   1      33.738  22.638  23.371  1.00  0.00     0.116 C 
BRANCH   2   3
ATOM      3  N   UNL A   1      32.435  23.282  23.274  1.00  0.00    -0.354 N 
ATOM      4  C   UNL A   1      31.527  23.663  24.216  1.00  0.00     0.245 C 
ATOM      5  O   UNL A   1      30.409  23.986  23.802  1.00  0.00    -0.272 OA
ATOM      6  H   UNL A   1      32.157  23.478  22.351  1.00  0.00     0.163 HD
BRANCH   4   7
ATOM      7  C   UNL A   1      31.834  23.635  25.731  1.00  0.00     0.116 C 
ATOM      8  C   UNL A   1      30.509  23.826  26.516  1.00  0.00     0.045 C 
BRANCH   7   9
ATOM      9  C   UNL A   1      32.449  22.295  26.222  1.00  0.00     0.035 C 
ATOM     10  C   UNL A   1      33.373  22.359  27.436  1.00  0.00     0.007 C 
ENDBRANCH   7   9
BRANCH   7  11
ATOM     11  N   UNL A   1      32.769  24.737  26.060  1.00  0.00    -0.340 N 
ATOM     12  C   UNL A   1      32.681  26.088  26.147  1.00  0.00     0.243 C 
ATOM     13  H   UNL A   1      33.675  24.408  26.264  1.00  0.00     0.164 HD
ATOM     14  O   UNL A   1      33.774  26.666  26.036  1.00  0.00    -0.273 OA
BRANCH  12  15
ATOM     15  C   UNL A   1      31.398  26.974  26.256  1.00  0.00     0.168 C 
ATOM     16  C   UNL A   1      31.717  28.401  26.688  1.00  0.00     0.041 C 
BRANCH  15  17
ATOM     17  N   UNL A   1      30.414  27.022  25.180  1.00  0.00    -0.338 N 
ATOM     18  C   UNL A   1      30.581  27.281  23.836  1.00  0.00     0.287 C 
ATOM     19  H   UNL A   1      29.487  26.840  25.457  1.00  0.00     0.164 HD
ATOM     20  O   UNL A   1      29.568  27.264  23.135  1.00  0.00    -0.266 OA
BRANCH  18  21
ATOM     21  C   UNL A   1      31.891  27.585  23.296  1.00  0.00     0.191 A 
ATOM     22  C   UNL A   1      32.662  28.733  23.251  1.00  0.00     0.056 A 
ATOM     23  O   UNL A   1      32.615  26.548  22.759  1.00  0.00    -0.459 OA
ATOM     24  C   UNL A   1      33.889  28.385  22.630  1.00  0.00     0.043 A 
ATOM     25  C   UNL A   1      33.806  27.045  22.344  1.00  0.00     0.196 A 
ENDBRANCH  18  21
ENDBRANCH  15  17
ENDBRANCH  12  15
ENDBRANCH   7  11
ENDBRANCH   4   7
ENDBRANCH   2   3
ENDBRANCH   1   2
BRANCH   1  26
ATOM     26  C   UNL A   1      35.796  23.442  24.673  1.00  0.00     0.002 C 
BRANCH  26  27
ATOM     27  C   UNL A   1      36.111  22.001  25.055  1.00  0.00     0.002 C 
BRANCH  27  28
ATOM     28  C   UNL A   1      37.480  21.506  24.603  1.00  0.00     0.021 C 
BRANCH  28  29
ATOM     29  C   UNL A   1      38.516  21.379  25.714  1.00  0.00     0.116 C 
BRANCH  29  30
ATOM     30  N   UNL A   1      39.298  20.152  25.635  1.00  0.00    -0.352 N 
ATOM     31  C   UNL A   1      40.620  19.944  25.968  1.00  0.00     0.251 C 
ATOM     32  H   UNL A   1      38.817  19.362  25.297  1.00  0.00     0.163 HD
ATOM     33  O   UNL A   1      41.180  18.886  25.751  1.00  0.00    -0.269 OA
BRANCH  31  34
ATOM     34  C   UNL A   1      41.360  21.069  26.574  1.00  0.00     0.039 A 
ATOM     35  C   UNL A   1      41.970  22.007  25.740  1.00  0.00     0.014 A 
ATOM     36  C   UNL A   1      41.332  21.248  27.958  1.00  0.00     0.014 A 
ATOM     37  C   UNL A   1      42.468  23.187  26.294  1.00  0.00     0.010 A 
ATOM     38  C   UNL A   1      41.749  22.459  28.493  1.00  0.00     0.010 A 
ATOM     39  C   UNL A   1      42.308  23.446  27.665  1.00  0.00    -0.014 A 
BRANCH  39  40
ATOM     40  C   UNL A   1      42.692  24.751  28.258  1.00  0.00     0.031 A 
ATOM     41  C   UNL A   1      41.650  25.814  28.464  1.00  0.00     0.074 A 
ATOM     42  C   UNL A   1      43.988  25.016  28.512  1.00  0.00     0.049 A 
ATOM     43  N   UNL A   1      41.800  27.052  28.858  1.00  0.00    -0.248 NA
ATOM     44  C   UNL A   1      40.262  25.446  28.146  1.00  0.00     0.031 C 
ATOM     45  C   UNL A   1      45.105  24.095  28.286  1.00  0.00     0.029 A 
ATOM     46  N   UNL A   1      44.590  26.150  28.999  1.00  0.00    -0.354 N 
ATOM     47  C   UNL A   1      40.532  27.617  28.809  1.00  0.00     0.074 A 
ATOM     48  C   UNL A   1      39.636  26.603  28.295  1.00  0.00     0.031 C 
ATOM     49  C   UNL A   1      46.250  24.693  28.651  1.00  0.00     0.029 A 
ATOM     50  C   UNL A   1      45.956  26.048  29.104  1.00  0.00     0.049 A 
ATOM     51  H   UNL A   1      44.089  26.959  29.250  1.00  0.00     0.167 HD
ATOM     52  C   UNL A   1      40.144  28.858  29.181  1.00  0.00     0.037 A 
ATOM     53  C   UNL A   1      46.869  26.948  29.515  1.00  0.00     0.037 A 
ATOM     54  C   UNL A   1      41.028  29.849  29.731  1.00  0.00     0.049 A 
ATOM     55  C   UNL A   1      46.410  28.309  29.958  1.00  0.00     0.074 A 
ATOM     56  C   UNL A   1      40.719  31.107  30.218  1.00  0.00     0.029 A 
ATOM     57  N   UNL A   1      42.398  29.691  29.871  1.00  0.00    -0.354 N 
ATOM     58  N   UNL A   1      45.196  28.804  29.980  1.00  0.00    -0.248 NA
ATOM     59  C   UNL A   1      47.446  29.235  30.439  1.00  0.00     0.031 C 
ATOM     60  C   UNL A   1      41.909  31.723  30.621  1.00  0.00     0.029 A 
ATOM     61  C   UNL A   1      42.953  30.835  30.420  1.00  0.00     0.049 A 
ATOM     62  H   UNL A   1      42.903  28.885  29.615  1.00  0.00     0.167 HD
ATOM     63  C   UNL A   1      45.318  30.088  30.494  1.00  0.00     0.074 A 
ATOM     64  C   UNL A   1      46.722  30.292  30.784  1.00  0.00     0.031 C 
ATOM     65  C   UNL A   1      44.353  31.016  30.705  1.00  0.00     0.037 A 
BRANCH  52  66
ATOM     66  C   UNL A   1      38.693  29.201  29.014  1.00  0.00     0.057 A 
ATOM     67  C   UNL A   1      38.165  29.587  27.774  1.00  0.00     0.134 A 
ATOM     68  C   UNL A   1      37.812  29.140  30.101  1.00  0.00     0.134 A 
ATOM     69  F   UNL A   1      38.959  29.680  26.697  1.00  0.00    -0.206 F 
ATOM     70  C   UNL A   1      36.821  29.935  27.629  1.00  0.00     0.040 A 
ATOM     71  C   UNL A   1      36.461  29.459  29.963  1.00  0.00     0.040 A 
ATOM     72  F   UNL A   1      38.252  28.773  31.314  1.00  0.00    -0.206 F 
ATOM     73  C   UNL A   1      35.964  29.867  28.726  1.00  0.00     0.006 A 
ENDBRANCH  52  66
BRANCH  53  74
ATOM     74  C   UNL A   1      48.307  26.584  29.550  1.00  0.00     0.057 A 
ATOM     75  C   UNL A   1      49.155  26.897  28.482  1.00  0.00     0.134 A 
ATOM     76  C   UNL A   1      48.868  25.921  30.648  1.00  0.00     0.134 A 
ATOM     77  F   UNL A   1      48.671  27.515  27.395  1.00  0.00    -0.206 F 
ATOM     78  C   UNL A   1      50.508  26.551  28.497  1.00  0.00     0.040 A 
ATOM     79  C   UNL A   1      50.223  25.588  30.685  1.00  0.00     0.040 A 
ATOM     80  F   UNL A   1      48.109  25.601  31.706  1.00  0.00    -0.206 F 
ATOM     81  C   UNL A   1      51.046  25.898  29.603  1.00  0.00     0.006 A 
ENDBRANCH  53  74
BRANCH  65  82
ATOM     82  C   UNL A   1      44.780  32.326  31.295  1.00  0.00     0.057 A 
ATOM     83  C   UNL A   1      44.848  32.521  32.680  1.00  0.00     0.134 A 
ATOM     84  C   UNL A   1      45.172  33.386  30.468  1.00  0.00     0.134 A 
ATOM     85  F   UNL A   1      44.471  31.548  33.523  1.00  0.00    -0.206 F 
ATOM     86  C   UNL A   1      45.279  33.733  33.223  1.00  0.00     0.040 A 
ATOM     87  C   UNL A   1      45.627  34.594  31.000  1.00  0.00     0.040 A 
ATOM     88  F   UNL A   1      45.138  33.259  29.133  1.00  0.00    -0.206 F 
ATOM     89  C   UNL A   1      45.677  34.770  32.381  1.00  0.00     0.006 A 
ENDBRANCH  65  82
ENDBRANCH  39  40
ENDBRANCH  31  34
ENDBRANCH  29  30
ENDBRANCH  28  29
ENDBRANCH  27  28
ENDBRANCH  26  27
ENDBRANCH   1  26
TORSDOF 18
ENDMDL
