MODEL 1
REMARK VINA RESULT:     -10.7      0.000      0.000
REMARK SMILES C#CCNC(=O)[C@H](C)S(=O)(=O)c1ccc(C(=O)NCCCCCCNC(=O)c2ccc(-c3c4nc(c(-c5c(F)cccc5F)c5ccc([nH]5)c(-c5c(F)cccc5F)c5nc(c(-c6c(F)cccc6F)c6ccc3[nH]6)C=C5)C=C4)cc2)cc1F
REMARK SMILES IDX 20 1 19 2 18 3 16 4 17 5 15 7 12 8 13 9 83 10 14 11 82 12
REMARK SMILES IDX 84 13 9 14 10 15 11 16 7 17 8 18 5 19 4 20 6 22 3 23 2 24
REMARK SMILES IDX 1 25 21 26 22 27 23 28 24 29 25 30 26 31 27 33 28 34 29 35
REMARK SMILES IDX 81 36 30 37 80 38 31 39 32 40 33 41 74 42 34 43 79 44 73 45
REMARK SMILES IDX 75 46 35 47 78 48 72 49 71 50 36 52 62 53 45 54 61 55 46 56
REMARK SMILES IDX 49 57 60 58 76 59 47 60 48 61 59 63 77 64 50 65 37 66 38 67
REMARK SMILES IDX 43 68 39 69 40 70 42 71 44 72 41 73 63 74 64 75 69 76 65 77
REMARK SMILES IDX 66 78 68 79 70 80 67 81 51 82 52 83 57 84 53 85 54 86 56 87
REMARK SMILES IDX 58 88 55 89
REMARK H PARENT 18 6 4 21 25 32 75 51 49 62
REMARK Flexibility Score: inf
ROOT
ATOM      1  C   UNL A   1      39.257  21.182  25.876  1.00  0.00     0.021 C 
ENDROOT
BRANCH   1   2
ATOM      2  C   UNL A   1      38.156  22.226  25.682  1.00  0.00     0.116 C 
BRANCH   2   3
ATOM      3  N   UNL A   1      36.888  21.709  26.161  1.00  0.00    -0.352 N 
ATOM      4  C   UNL A   1      35.581  22.044  25.918  1.00  0.00     0.251 C 
ATOM      5  O   UNL A   1      34.722  21.453  26.573  1.00  0.00    -0.269 OA
ATOM      6  H   UNL A   1      36.988  20.962  26.794  1.00  0.00     0.163 HD
BRANCH   4   7
ATOM      7  C   UNL A   1      35.144  22.981  24.843  1.00  0.00     0.042 A 
ATOM      8  C   UNL A   1      33.821  24.825  23.195  1.00  0.00     0.103 A 
ATOM      9  C   UNL A   1      34.418  25.268  24.375  1.00  0.00     0.024 A 
ATOM     10  C   UNL A   1      34.077  23.538  22.745  1.00  0.00     0.142 A 
ATOM     11  C   UNL A   1      35.069  24.341  25.197  1.00  0.00     0.015 A 
ATOM     12  C   UNL A   1      34.736  22.615  23.561  1.00  0.00     0.054 A 
ATOM     13  F   UNL A   1      33.606  23.108  21.569  1.00  0.00    -0.206 F 
BRANCH   8  14
ATOM     14  S   UNL A   1      32.663  25.857  22.347  1.00  0.00     0.192 S 
ATOM     15  O   UNL A   1      31.403  25.141  22.379  1.00  0.00    -0.223 OA
ATOM     16  O   UNL A   1      33.266  26.169  21.062  1.00  0.00    -0.223 OA
BRANCH  14  17
ATOM     17  C   UNL A   1      32.461  27.375  23.231  1.00  0.00     0.199 C 
ATOM     18  C   UNL A   1      33.230  28.587  22.746  1.00  0.00     0.036 C 
BRANCH  17  19
ATOM     19  C   UNL A   1      31.046  27.715  23.624  1.00  0.00     0.239 C 
ATOM     20  N   UNL A   1      30.328  27.063  24.572  1.00  0.00    -0.344 N 
ATOM     21  H   UNL A   1      29.355  27.114  24.426  1.00  0.00     0.164 HD
ATOM     22  O   UNL A   1      30.408  28.533  22.950  1.00  0.00    -0.274 OA
BRANCH  20  23
ATOM     23  C   UNL A   1      30.686  26.308  25.757  1.00  0.00     0.206 C 
BRANCH  23  24
ATOM     24  C   UNL A   1      31.277  27.328  26.715  1.00  0.00    -0.085 C 
ATOM     25  C   UNL A   1      31.784  28.203  27.537  1.00  0.00     0.006 C 
ENDBRANCH  23  24
ENDBRANCH  20  23
ENDBRANCH  17  19
ENDBRANCH  14  17
ENDBRANCH   8  14
ENDBRANCH   4   7
ENDBRANCH   2   3
ENDBRANCH   1   2
BRANCH   1  26
ATOM     26  C   UNL A   1      40.569  21.766  26.417  1.00  0.00     0.002 C 
BRANCH  26  27
ATOM     27  C   UNL A   1      41.599  20.733  26.886  1.00  0.00     0.002 C 
BRANCH  27  28
ATOM     28  C   UNL A   1      41.769  19.508  25.983  1.00  0.00     0.021 C 
BRANCH  28  29
ATOM     29  C   UNL A   1      43.035  18.688  26.224  1.00  0.00     0.116 C 
BRANCH  29  30
ATOM     30  N   UNL A   1      43.845  18.559  25.028  1.00  0.00    -0.352 N 
ATOM     31  C   UNL A   1      44.513  19.527  24.321  1.00  0.00     0.251 C 
ATOM     32  H   UNL A   1      43.929  17.645  24.673  1.00  0.00     0.163 HD
ATOM     33  O   UNL A   1      45.018  19.248  23.237  1.00  0.00    -0.269 OA
BRANCH  31  34
ATOM     34  C   UNL A   1      44.620  20.910  24.841  1.00  0.00     0.039 A 
ATOM     35  C   UNL A   1      44.116  21.955  24.060  1.00  0.00     0.014 A 
ATOM     36  C   UNL A   1      45.273  21.194  26.045  1.00  0.00     0.014 A 
ATOM     37  C   UNL A   1      44.245  23.277  24.491  1.00  0.00     0.010 A 
ATOM     38  C   UNL A   1      45.360  22.511  26.500  1.00  0.00     0.010 A 
ATOM     39  C   UNL A   1      44.864  23.565  25.717  1.00  0.00    -0.014 A 
BRANCH  39  40
ATOM     40  C   UNL A   1      45.056  24.969  26.158  1.00  0.00     0.031 A 
ATOM     41  C   UNL A   1      46.403  25.623  26.017  1.00  0.00     0.074 A 
ATOM     42  C   UNL A   1      44.030  25.651  26.701  1.00  0.00     0.049 A 
ATOM     43  N   UNL A   1      46.781  26.822  26.380  1.00  0.00    -0.248 NA
ATOM     44  C   UNL A   1      47.468  24.815  25.403  1.00  0.00     0.031 C 
ATOM     45  C   UNL A   1      42.681  25.126  26.913  1.00  0.00     0.029 A 
ATOM     46  N   UNL A   1      43.966  26.938  27.173  1.00  0.00    -0.354 N 
ATOM     47  C   UNL A   1      48.130  26.904  26.059  1.00  0.00     0.074 A 
ATOM     48  C   UNL A   1      48.512  25.625  25.500  1.00  0.00     0.031 C 
ATOM     49  C   UNL A   1      41.916  26.090  27.451  1.00  0.00     0.029 A 
ATOM     50  C   UNL A   1      42.724  27.292  27.640  1.00  0.00     0.049 A 
ATOM     51  H   UNL A   1      44.737  27.550  27.176  1.00  0.00     0.167 HD
ATOM     52  C   UNL A   1      48.971  27.956  26.199  1.00  0.00     0.037 A 
ATOM     53  C   UNL A   1      42.286  28.456  28.155  1.00  0.00     0.037 A 
ATOM     54  C   UNL A   1      48.587  29.240  26.718  1.00  0.00     0.049 A 
ATOM     55  C   UNL A   1      43.228  29.620  28.267  1.00  0.00     0.074 A 
ATOM     56  C   UNL A   1      49.365  30.375  26.877  1.00  0.00     0.029 A 
ATOM     57  N   UNL A   1      47.311  29.566  27.149  1.00  0.00    -0.354 N 
ATOM     58  N   UNL A   1      44.495  29.689  27.944  1.00  0.00    -0.248 NA
ATOM     59  C   UNL A   1      42.676  30.872  28.809  1.00  0.00     0.031 C 
ATOM     60  C   UNL A   1      48.561  31.384  27.417  1.00  0.00     0.029 A 
ATOM     61  C   UNL A   1      47.278  30.884  27.569  1.00  0.00     0.049 A 
ATOM     62  H   UNL A   1      46.542  28.951  27.155  1.00  0.00     0.167 HD
ATOM     63  C   UNL A   1      44.889  30.991  28.217  1.00  0.00     0.074 A 
ATOM     64  C   UNL A   1      43.724  31.683  28.730  1.00  0.00     0.031 C 
ATOM     65  C   UNL A   1      46.106  31.562  28.058  1.00  0.00     0.037 A 
BRANCH  52  66
ATOM     66  C   UNL A   1      50.395  27.761  25.776  1.00  0.00     0.057 A 
ATOM     67  C   UNL A   1      51.396  27.518  26.724  1.00  0.00     0.134 A 
ATOM     68  C   UNL A   1      50.779  27.849  24.433  1.00  0.00     0.134 A 
ATOM     69  F   UNL A   1      51.093  27.426  28.027  1.00  0.00    -0.206 F 
ATOM     70  C   UNL A   1      52.733  27.374  26.349  1.00  0.00     0.040 A 
ATOM     71  C   UNL A   1      52.109  27.687  24.044  1.00  0.00     0.040 A 
ATOM     72  F   UNL A   1      49.862  28.066  23.477  1.00  0.00    -0.206 F 
ATOM     73  C   UNL A   1      53.092  27.455  25.005  1.00  0.00     0.006 A 
ENDBRANCH  52  66
BRANCH  53  74
ATOM     74  C   UNL A   1      40.866  28.589  28.559  1.00  0.00     0.057 A 
ATOM     75  C   UNL A   1      40.443  28.287  29.857  1.00  0.00     0.134 A 
ATOM     76  C   UNL A   1      39.897  29.007  27.641  1.00  0.00     0.134 A 
ATOM     77  F   UNL A   1      41.325  27.875  30.779  1.00  0.00    -0.206 F 
ATOM     78  C   UNL A   1      39.100  28.387  30.227  1.00  0.00     0.040 A 
ATOM     79  C   UNL A   1      38.554  29.127  28.001  1.00  0.00     0.040 A 
ATOM     80  F   UNL A   1      40.249  29.325  26.386  1.00  0.00    -0.206 F 
ATOM     81  C   UNL A   1      38.152  28.811  29.298  1.00  0.00     0.006 A 
ENDBRANCH  53  74
BRANCH  65  82
ATOM     82  C   UNL A   1      46.241  33.012  28.406  1.00  0.00     0.057 A 
ATOM     83  C   UNL A   1      46.558  33.404  29.712  1.00  0.00     0.134 A 
ATOM     84  C   UNL A   1      45.988  34.018  27.466  1.00  0.00     0.134 A 
ATOM     85  F   UNL A   1      46.804  32.485  30.657  1.00  0.00    -0.206 F 
ATOM     86  C   UNL A   1      46.612  34.750  30.074  1.00  0.00     0.040 A 
ATOM     87  C   UNL A   1      46.054  35.368  27.813  1.00  0.00     0.040 A 
ATOM     88  F   UNL A   1      45.687  33.703  26.197  1.00  0.00    -0.206 F 
ATOM     89  C   UNL A   1      46.359  35.737  29.122  1.00  0.00     0.006 A 
ENDBRANCH  65  82
ENDBRANCH  39  40
ENDBRANCH  31  34
ENDBRANCH  29  30
ENDBRANCH  28  29
ENDBRANCH  27  28
ENDBRANCH  26  27
ENDBRANCH   1  26
TORSDOF 18
ENDMDL
MODEL 2
REMARK VINA RESULT:     -10.6      6.729     11.686
REMARK SMILES C#CCNC(=O)[C@H](C)S(=O)(=O)c1ccc(C(=O)NCCCCCCNC(=O)c2ccc(-c3c4nc(c(-c5c(F)cccc5F)c5ccc([nH]5)c(-c5c(F)cccc5F)c5nc(c(-c6c(F)cccc6F)c6ccc3[nH]6)C=C5)C=C4)cc2)cc1F
REMARK SMILES IDX 20 1 19 2 18 3 16 4 17 5 15 7 12 8 13 9 83 10 14 11 82 12
REMARK SMILES IDX 84 13 9 14 10 15 11 16 7 17 8 18 5 19 4 20 6 22 3 23 2 24
REMARK SMILES IDX 1 25 21 26 22 27 23 28 24 29 25 30 26 31 27 33 28 34 29 35
REMARK SMILES IDX 81 36 30 37 80 38 31 39 32 40 33 41 74 42 34 43 79 44 73 45
REMARK SMILES IDX 75 46 35 47 78 48 72 49 71 50 36 52 62 53 45 54 61 55 46 56
REMARK SMILES IDX 49 57 60 58 76 59 47 60 48 61 59 63 77 64 50 65 37 66 38 67
REMARK SMILES IDX 43 68 39 69 40 70 42 71 44 72 41 73 63 74 64 75 69 76 65 77
REMARK SMILES IDX 66 78 68 79 70 80 67 81 51 82 52 83 57 84 53 85 54 86 56 87
REMARK SMILES IDX 58 88 55 89
REMARK H PARENT 18 6 4 21 25 32 75 51 49 62
REMARK Flexibility Score: inf
ROOT
ATOM      1  C   UNL A   1      35.407  31.369  28.406  1.00  0.00     0.021 C 
ENDROOT
BRANCH   1   2
ATOM      2  C   UNL A   1      34.716  30.128  27.837  1.00  0.00     0.116 C 
BRANCH   2   3
ATOM      3  N   UNL A   1      33.534  30.514  27.090  1.00  0.00    -0.352 N 
ATOM      4  C   UNL A   1      32.620  29.814  26.345  1.00  0.00     0.251 C 
ATOM      5  O   UNL A   1      31.764  30.470  25.750  1.00  0.00    -0.269 OA
ATOM      6  H   UNL A   1      33.351  31.480  27.124  1.00  0.00     0.163 HD
BRANCH   4   7
ATOM      7  C   UNL A   1      32.533  28.325  26.311  1.00  0.00     0.042 A 
ATOM      8  C   UNL A   1      32.439  25.607  25.625  1.00  0.00     0.103 A 
ATOM      9  C   UNL A   1      33.655  26.287  25.560  1.00  0.00     0.024 A 
ATOM     10  C   UNL A   1      31.351  26.217  26.232  1.00  0.00     0.142 A 
ATOM     11  C   UNL A   1      33.693  27.645  25.895  1.00  0.00     0.015 A 
ATOM     12  C   UNL A   1      31.392  27.570  26.577  1.00  0.00     0.054 A 
ATOM     13  F   UNL A   1      30.196  25.563  26.405  1.00  0.00    -0.206 F 
BRANCH   8  14
ATOM     14  S   UNL A   1      32.260  24.034  24.838  1.00  0.00     0.192 S 
ATOM     15  O   UNL A   1      31.034  24.117  24.069  1.00  0.00    -0.223 OA
ATOM     16  O   UNL A   1      32.367  23.041  25.894  1.00  0.00    -0.223 OA
BRANCH  14  17
ATOM     17  C   UNL A   1      33.602  23.775  23.716  1.00  0.00     0.199 C 
ATOM     18  C   UNL A   1      34.512  22.588  23.958  1.00  0.00     0.036 C 
BRANCH  17  19
ATOM     19  C   UNL A   1      33.273  23.955  22.256  1.00  0.00     0.239 C 
ATOM     20  N   UNL A   1      32.901  25.128  21.685  1.00  0.00    -0.344 N 
ATOM     21  H   UNL A   1      32.346  25.008  20.881  1.00  0.00     0.164 HD
ATOM     22  O   UNL A   1      33.170  22.959  21.530  1.00  0.00    -0.274 OA
BRANCH  20  23
ATOM     23  C   UNL A   1      33.147  26.520  22.006  1.00  0.00     0.206 C 
BRANCH  23  24
ATOM     24  C   UNL A   1      31.792  27.083  22.399  1.00  0.00    -0.085 C 
ATOM     25  C   UNL A   1      30.629  27.566  22.737  1.00  0.00     0.006 C 
ENDBRANCH  23  24
ENDBRANCH  20  23
ENDBRANCH  17  19
ENDBRANCH  14  17
ENDBRANCH   8  14
ENDBRANCH   4   7
ENDBRANCH   2   3
ENDBRANCH   1   2
BRANCH   1  26
ATOM     26  C   UNL A   1      34.750  32.688  27.978  1.00  0.00     0.002 C 
BRANCH  26  27
ATOM     27  C   UNL A   1      34.531  33.704  29.104  1.00  0.00     0.002 C 
BRANCH  27  28
ATOM     28  C   UNL A   1      33.278  34.576  28.977  1.00  0.00     0.021 C 
BRANCH  28  29
ATOM     29  C   UNL A   1      33.393  35.977  29.574  1.00  0.00     0.116 C 
BRANCH  29  30
ATOM     30  N   UNL A   1      32.453  36.195  30.657  1.00  0.00    -0.352 N 
ATOM     31  C   UNL A   1      32.492  35.735  31.949  1.00  0.00     0.251 C 
ATOM     32  H   UNL A   1      31.675  36.754  30.433  1.00  0.00     0.163 HD
ATOM     33  O   UNL A   1      31.519  35.893  32.680  1.00  0.00    -0.269 OA
BRANCH  31  34
ATOM     34  C   UNL A   1      33.690  35.035  32.469  1.00  0.00     0.039 A 
ATOM     35  C   UNL A   1      34.916  35.708  32.444  1.00  0.00     0.014 A 
ATOM     36  C   UNL A   1      33.633  33.708  32.908  1.00  0.00     0.014 A 
ATOM     37  C   UNL A   1      36.078  35.063  32.876  1.00  0.00     0.010 A 
ATOM     38  C   UNL A   1      34.785  33.079  33.384  1.00  0.00     0.010 A 
ATOM     39  C   UNL A   1      36.021  33.745  33.353  1.00  0.00    -0.014 A 
BRANCH  39  40
ATOM     40  C   UNL A   1      37.256  33.033  33.763  1.00  0.00     0.031 A 
ATOM     41  C   UNL A   1      37.855  31.989  32.860  1.00  0.00     0.074 A 
ATOM     42  C   UNL A   1      37.831  33.306  34.949  1.00  0.00     0.049 A 
ATOM     43  N   UNL A   1      38.903  31.230  33.056  1.00  0.00    -0.248 NA
ATOM     44  C   UNL A   1      37.174  31.757  31.576  1.00  0.00     0.031 C 
ATOM     45  C   UNL A   1      37.339  34.279  35.924  1.00  0.00     0.029 A 
ATOM     46  N   UNL A   1      38.959  32.787  35.533  1.00  0.00    -0.354 N 
ATOM     47  C   UNL A   1      38.994  30.418  31.933  1.00  0.00     0.074 A 
ATOM     48  C   UNL A   1      37.880  30.755  31.074  1.00  0.00     0.031 C 
ATOM     49  C   UNL A   1      38.174  34.305  36.976  1.00  0.00     0.029 A 
ATOM     50  C   UNL A   1      39.247  33.338  36.758  1.00  0.00     0.049 A 
ATOM     51  H   UNL A   1      39.510  32.088  35.115  1.00  0.00     0.167 HD
ATOM     52  C   UNL A   1      39.933  29.488  31.634  1.00  0.00     0.037 A 
ATOM     53  C   UNL A   1      40.264  33.094  37.606  1.00  0.00     0.037 A 
ATOM     54  C   UNL A   1      41.063  29.177  32.467  1.00  0.00     0.049 A 
ATOM     55  C   UNL A   1      41.313  32.084  37.237  1.00  0.00     0.074 A 
ATOM     56  C   UNL A   1      42.079  28.266  32.236  1.00  0.00     0.029 A 
ATOM     57  N   UNL A   1      41.334  29.782  33.684  1.00  0.00    -0.354 N 
ATOM     58  N   UNL A   1      41.396  31.337  36.164  1.00  0.00    -0.248 NA
ATOM     59  C   UNL A   1      42.414  31.891  38.192  1.00  0.00     0.031 C 
ATOM     60  C   UNL A   1      42.959  28.310  33.323  1.00  0.00     0.029 A 
ATOM     61  C   UNL A   1      42.504  29.267  34.215  1.00  0.00     0.049 A 
ATOM     62  H   UNL A   1      40.778  30.475  34.107  1.00  0.00     0.167 HD
ATOM     63  C   UNL A   1      42.566  30.603  36.301  1.00  0.00     0.074 A 
ATOM     64  C   UNL A   1      43.165  30.997  37.560  1.00  0.00     0.031 C 
ATOM     65  C   UNL A   1      43.096  29.684  35.459  1.00  0.00     0.037 A 
BRANCH  52  66
ATOM     66  C   UNL A   1      39.778  28.742  30.344  1.00  0.00     0.057 A 
ATOM     67  C   UNL A   1      39.089  27.525  30.300  1.00  0.00     0.134 A 
ATOM     68  C   UNL A   1      40.342  29.214  29.153  1.00  0.00     0.134 A 
ATOM     69  F   UNL A   1      38.529  27.018  31.408  1.00  0.00    -0.206 F 
ATOM     70  C   UNL A   1      38.971  26.798  29.114  1.00  0.00     0.040 A 
ATOM     71  C   UNL A   1      40.213  28.508  27.957  1.00  0.00     0.040 A 
ATOM     72  F   UNL A   1      41.001  30.382  29.130  1.00  0.00    -0.206 F 
ATOM     73  C   UNL A   1      39.531  27.292  27.937  1.00  0.00     0.006 A 
ENDBRANCH  52  66
BRANCH  53  74
ATOM     74  C   UNL A   1      40.363  33.862  38.870  1.00  0.00     0.057 A 
ATOM     75  C   UNL A   1      41.130  35.029  38.959  1.00  0.00     0.134 A 
ATOM     76  C   UNL A   1      39.702  33.430  40.024  1.00  0.00     0.134 A 
ATOM     77  F   UNL A   1      41.791  35.488  37.887  1.00  0.00    -0.206 F 
ATOM     78  C   UNL A   1      41.244  35.735  40.158  1.00  0.00     0.040 A 
ATOM     79  C   UNL A   1      39.794  34.135  41.225  1.00  0.00     0.040 A 
ATOM     80  F   UNL A   1      38.940  32.327  39.991  1.00  0.00    -0.206 F 
ATOM     81  C   UNL A   1      40.572  35.289  41.294  1.00  0.00     0.006 A 
ENDBRANCH  53  74
BRANCH  65  82
ATOM     82  C   UNL A   1      44.402  29.064  35.845  1.00  0.00     0.057 A 
ATOM     83  C   UNL A   1      45.611  29.642  35.439  1.00  0.00     0.134 A 
ATOM     84  C   UNL A   1      44.461  27.861  36.558  1.00  0.00     0.134 A 
ATOM     85  F   UNL A   1      45.618  30.791  34.747  1.00  0.00    -0.206 F 
ATOM     86  C   UNL A   1      46.836  29.039  35.722  1.00  0.00     0.040 A 
ATOM     87  C   UNL A   1      45.682  27.257  36.861  1.00  0.00     0.040 A 
ATOM     88  F   UNL A   1      43.336  27.266  36.980  1.00  0.00    -0.206 F 
ATOM     89  C   UNL A   1      46.874  27.842  36.436  1.00  0.00     0.006 A 
ENDBRANCH  65  82
ENDBRANCH  39  40
ENDBRANCH  31  34
ENDBRANCH  29  30
ENDBRANCH  28  29
ENDBRANCH  27  28
ENDBRANCH  26  27
ENDBRANCH   1  26
TORSDOF 18
ENDMDL
MODEL 3
REMARK VINA RESULT:     -10.5      6.407     11.857
REMARK SMILES C#CCNC(=O)[C@H](C)S(=O)(=O)c1ccc(C(=O)NCCCCCCNC(=O)c2ccc(-c3c4nc(c(-c5c(F)cccc5F)c5ccc([nH]5)c(-c5c(F)cccc5F)c5nc(c(-c6c(F)cccc6F)c6ccc3[nH]6)C=C5)C=C4)cc2)cc1F
REMARK SMILES IDX 20 1 19 2 18 3 16 4 17 5 15 7 12 8 13 9 83 10 14 11 82 12
REMARK SMILES IDX 84 13 9 14 10 15 11 16 7 17 8 18 5 19 4 20 6 22 3 23 2 24
REMARK SMILES IDX 1 25 21 26 22 27 23 28 24 29 25 30 26 31 27 33 28 34 29 35
REMARK SMILES IDX 81 36 30 37 80 38 31 39 32 40 33 41 74 42 34 43 79 44 73 45
REMARK SMILES IDX 75 46 35 47 78 48 72 49 71 50 36 52 62 53 45 54 61 55 46 56
REMARK SMILES IDX 49 57 60 58 76 59 47 60 48 61 59 63 77 64 50 65 37 66 38 67
REMARK SMILES IDX 43 68 39 69 40 70 42 71 44 72 41 73 63 74 64 75 69 76 65 77
REMARK SMILES IDX 66 78 68 79 70 80 67 81 51 82 52 83 57 84 53 85 54 86 56 87
REMARK SMILES IDX 58 88 55 89
REMARK H PARENT 18 6 4 21 25 32 75 51 49 62
REMARK Flexibility Score: inf
ROOT
ATOM      1  C   UNL A   1      34.785  31.301  28.451  1.00  0.00     0.021 C 
ENDROOT
BRANCH   1   2
ATOM      2  C   UNL A   1      34.625  30.071  27.555  1.00  0.00     0.116 C 
BRANCH   2   3
ATOM      3  N   UNL A   1      33.648  30.333  26.516  1.00  0.00    -0.352 N 
ATOM      4  C   UNL A   1      32.865  29.525  25.732  1.00  0.00     0.251 C 
ATOM      5  O   UNL A   1      32.193  30.075  24.859  1.00  0.00    -0.269 OA
ATOM      6  H   UNL A   1      33.522  31.292  26.335  1.00  0.00     0.163 HD
BRANCH   4   7
ATOM      7  C   UNL A   1      32.695  28.059  25.950  1.00  0.00     0.042 A 
ATOM      8  C   UNL A   1      32.430  25.276  25.732  1.00  0.00     0.103 A 
ATOM      9  C   UNL A   1      33.679  25.862  25.528  1.00  0.00     0.024 A 
ATOM     10  C   UNL A   1      31.397  26.042  26.252  1.00  0.00     0.142 A 
ATOM     11  C   UNL A   1      33.803  27.252  25.630  1.00  0.00     0.015 A 
ATOM     12  C   UNL A   1      31.523  27.428  26.364  1.00  0.00     0.054 A 
ATOM     13  F   UNL A   1      30.214  25.496  26.556  1.00  0.00    -0.206 F 
BRANCH   8  14
ATOM     14  S   UNL A   1      32.141  23.607  25.225  1.00  0.00     0.192 S 
ATOM     15  O   UNL A   1      30.842  23.612  24.581  1.00  0.00    -0.223 OA
ATOM     16  O   UNL A   1      32.340  22.786  26.407  1.00  0.00    -0.223 OA
BRANCH  14  17
ATOM     17  C   UNL A   1      33.352  23.132  24.028  1.00  0.00     0.199 C 
ATOM     18  C   UNL A   1      34.261  21.966  24.361  1.00  0.00     0.036 C 
BRANCH  17  19
ATOM     19  C   UNL A   1      32.874  23.094  22.599  1.00  0.00     0.239 C 
ATOM     20  N   UNL A   1      32.572  24.187  21.854  1.00  0.00    -0.344 N 
ATOM     21  H   UNL A   1      31.915  24.003  21.144  1.00  0.00     0.164 HD
ATOM     22  O   UNL A   1      32.572  22.009  22.088  1.00  0.00    -0.274 OA
BRANCH  20  23
ATOM     23  C   UNL A   1      33.012  25.568  21.879  1.00  0.00     0.206 C 
BRANCH  23  24
ATOM     24  C   UNL A   1      31.797  26.365  22.321  1.00  0.00    -0.085 C 
ATOM     25  C   UNL A   1      30.753  27.048  22.700  1.00  0.00     0.006 C 
ENDBRANCH  23  24
ENDBRANCH  20  23
ENDBRANCH  17  19
ENDBRANCH  14  17
ENDBRANCH   8  14
ENDBRANCH   4   7
ENDBRANCH   2   3
ENDBRANCH   1   2
BRANCH   1  26
ATOM     26  C   UNL A   1      34.108  32.559  27.891  1.00  0.00     0.002 C 
BRANCH  26  27
ATOM     27  C   UNL A   1      34.230  33.811  28.768  1.00  0.00     0.002 C 
BRANCH  27  28
ATOM     28  C   UNL A   1      32.926  34.577  29.015  1.00  0.00     0.021 C 
BRANCH  28  29
ATOM     29  C   UNL A   1      33.096  36.015  29.499  1.00  0.00     0.116 C 
BRANCH  29  30
ATOM     30  N   UNL A   1      32.417  36.258  30.758  1.00  0.00    -0.352 N 
ATOM     31  C   UNL A   1      32.707  35.778  32.010  1.00  0.00     0.251 C 
ATOM     32  H   UNL A   1      31.634  36.853  30.706  1.00  0.00     0.163 HD
ATOM     33  O   UNL A   1      31.919  35.967  32.932  1.00  0.00    -0.269 OA
BRANCH  31  34
ATOM     34  C   UNL A   1      33.956  35.021  32.261  1.00  0.00     0.039 A 
ATOM     35  C   UNL A   1      33.852  33.693  32.689  1.00  0.00     0.014 A 
ATOM     36  C   UNL A   1      35.214  35.621  32.155  1.00  0.00     0.014 A 
ATOM     37  C   UNL A   1      35.005  32.962  32.988  1.00  0.00     0.010 A 
ATOM     38  C   UNL A   1      36.368  34.877  32.407  1.00  0.00     0.010 A 
ATOM     39  C   UNL A   1      36.272  33.547  32.845  1.00  0.00    -0.014 A 
BRANCH  39  40
ATOM     40  C   UNL A   1      37.499  32.797  33.212  1.00  0.00     0.031 A 
ATOM     41  C   UNL A   1      38.185  33.077  34.521  1.00  0.00     0.074 A 
ATOM     42  C   UNL A   1      38.008  31.882  32.367  1.00  0.00     0.049 A 
ATOM     43  N   UNL A   1      39.287  32.560  35.003  1.00  0.00    -0.248 NA
ATOM     44  C   UNL A   1      37.559  34.083  35.393  1.00  0.00     0.031 C 
ATOM     45  C   UNL A   1      37.451  31.533  31.060  1.00  0.00     0.029 A 
ATOM     46  N   UNL A   1      39.112  31.076  32.486  1.00  0.00    -0.354 N 
ATOM     47  C   UNL A   1      39.496  33.191  36.222  1.00  0.00     0.074 A 
ATOM     48  C   UNL A   1      38.427  34.151  36.393  1.00  0.00     0.031 C 
ATOM     49  C   UNL A   1      38.202  30.566  30.508  1.00  0.00     0.029 A 
ATOM     50  C   UNL A   1      39.304  30.242  31.412  1.00  0.00     0.049 A 
ATOM     51  H   UNL A   1      39.710  31.092  33.268  1.00  0.00     0.167 HD
ATOM     52  C   UNL A   1      40.482  32.979  37.127  1.00  0.00     0.037 A 
ATOM     53  C   UNL A   1      40.255  29.317  31.185  1.00  0.00     0.037 A 
ATOM     54  C   UNL A   1      41.524  32.000  36.980  1.00  0.00     0.049 A 
ATOM     55  C   UNL A   1      41.316  29.074  32.220  1.00  0.00     0.074 A 
ATOM     56  C   UNL A   1      42.553  31.697  37.855  1.00  0.00     0.029 A 
ATOM     57  N   UNL A   1      41.661  31.155  35.890  1.00  0.00    -0.354 N 
ATOM     58  N   UNL A   1      41.492  29.666  33.375  1.00  0.00    -0.248 NA
ATOM     59  C   UNL A   1      42.306  28.027  31.923  1.00  0.00     0.031 C 
ATOM     60  C   UNL A   1      43.322  30.675  37.288  1.00  0.00     0.029 A 
ATOM     61  C   UNL A   1      42.755  30.326  36.073  1.00  0.00     0.049 A 
ATOM     62  H   UNL A   1      41.069  31.144  35.104  1.00  0.00     0.167 HD
ATOM     63  C   UNL A   1      42.593  29.052  33.954  1.00  0.00     0.074 A 
ATOM     64  C   UNL A   1      43.045  28.035  33.026  1.00  0.00     0.031 C 
ATOM     65  C   UNL A   1      43.179  29.308  35.148  1.00  0.00     0.037 A 
BRANCH  52  66
ATOM     66  C   UNL A   1      40.471  33.821  38.366  1.00  0.00     0.057 A 
ATOM     67  C   UNL A   1      39.701  33.452  39.475  1.00  0.00     0.134 A 
ATOM     68  C   UNL A   1      41.197  35.015  38.446  1.00  0.00     0.134 A 
ATOM     69  F   UNL A   1      38.981  32.321  39.459  1.00  0.00    -0.206 F 
ATOM     70  C   UNL A   1      39.649  34.247  40.622  1.00  0.00     0.040 A 
ATOM     71  C   UNL A   1      41.169  35.809  39.594  1.00  0.00     0.040 A 
ATOM     72  F   UNL A   1      41.965  35.414  37.421  1.00  0.00    -0.206 F 
ATOM     73  C   UNL A   1      40.387  35.428  40.684  1.00  0.00     0.006 A 
ENDBRANCH  52  66
BRANCH  53  74
ATOM     74  C   UNL A   1      40.214  28.516  29.938  1.00  0.00     0.057 A 
ATOM     75  C   UNL A   1      40.942  28.890  28.804  1.00  0.00     0.134 A 
ATOM     76  C   UNL A   1      39.428  27.363  29.854  1.00  0.00     0.134 A 
ATOM     77  F   UNL A   1      41.710  29.989  28.823  1.00  0.00    -0.206 F 
ATOM     78  C   UNL A   1      40.881  28.149  27.623  1.00  0.00     0.040 A 
ATOM     79  C   UNL A   1      39.369  26.604  28.685  1.00  0.00     0.040 A 
ATOM     80  F   UNL A   1      38.721  26.949  30.917  1.00  0.00    -0.206 F 
ATOM     81  C   UNL A   1      40.094  26.999  27.563  1.00  0.00     0.006 A 
ENDBRANCH  53  74
BRANCH  65  82
ATOM     82  C   UNL A   1      44.346  28.459  35.542  1.00  0.00     0.057 A 
ATOM     83  C   UNL A   1      45.642  28.799  35.138  1.00  0.00     0.134 A 
ATOM     84  C   UNL A   1      44.179  27.269  36.261  1.00  0.00     0.134 A 
ATOM     85  F   UNL A   1      45.864  29.925  34.442  1.00  0.00    -0.206 F 
ATOM     86  C   UNL A   1      46.734  27.981  35.429  1.00  0.00     0.040 A 
ATOM     87  C   UNL A   1      45.266  26.449  36.570  1.00  0.00     0.040 A 
ATOM     88  F   UNL A   1      42.962  26.894  36.681  1.00  0.00    -0.206 F 
ATOM     89  C   UNL A   1      46.547  26.801  36.147  1.00  0.00     0.006 A 
ENDBRANCH  65  82
ENDBRANCH  39  40
ENDBRANCH  31  34
ENDBRANCH  29  30
ENDBRANCH  28  29
ENDBRANCH  27  28
ENDBRANCH  26  27
ENDBRANCH   1  26
TORSDOF 18
ENDMDL
