MODEL 1
REMARK VINA RESULT:     -10.8      0.000      0.000
REMARK SMILES CCC(CC)(NC(=O)NCCc1nccs1)C(=O)NCCCCCCNC(=O)c1ccc(-c2c3nc(c(-c4c(F)cccc4F)c4ccc([nH]4)c(-c4c(F)cccc4F)c4nc(c(-c5c(F)cccc5F)c5ccc2[nH]5)C=C4)C=C3)cc1
REMARK SMILES IDX 21 1 20 2 19 3 17 4 18 5 3 7 2 8 1 9 4 10 5 11 6 12 7 13
REMARK SMILES IDX 8 15 9 16 10 18 11 19 12 20 13 21 16 22 14 23 15 24 22 25
REMARK SMILES IDX 23 26 24 27 25 28 26 29 27 30 28 32 29 33 30 34 82 35 31 36
REMARK SMILES IDX 81 37 32 38 33 39 34 40 75 41 35 42 80 43 74 44 76 45 36 46
REMARK SMILES IDX 79 47 73 48 72 49 37 51 63 52 46 53 62 54 47 55 50 56 61 57
REMARK SMILES IDX 77 58 48 59 49 60 60 62 78 63 51 64 38 65 39 66 44 67 40 68
REMARK SMILES IDX 41 69 43 70 45 71 42 72 64 73 65 74 70 75 66 76 67 77 69 78
REMARK SMILES IDX 71 79 68 80 52 81 53 82 58 83 54 84 55 85 57 86 59 87 56 88
REMARK H PARENT 19 6 6 14 9 17 26 31 76 50 50 61
REMARK Flexibility Score: inf
ROOT
ATOM      1  C   UNL A   1      32.375  28.504  27.616  1.00  0.00     0.021 C 
ENDROOT
BRANCH   1   2
ATOM      2  C   UNL A   1      32.868  27.412  26.663  1.00  0.00     0.116 C 
BRANCH   2   3
ATOM      3  N   UNL A   1      33.548  27.856  25.448  1.00  0.00    -0.354 N 
ATOM      4  C   UNL A   1      33.776  27.264  24.229  1.00  0.00     0.245 C 
ATOM      5  O   UNL A   1      34.198  27.997  23.329  1.00  0.00    -0.272 OA
ATOM      6  H   UNL A   1      33.918  28.765  25.517  1.00  0.00     0.163 HD
BRANCH   4   7
ATOM      7  C   UNL A   1      33.385  25.786  23.953  1.00  0.00     0.120 C 
BRANCH   7   8
ATOM      8  C   UNL A   1      31.978  25.318  24.421  1.00  0.00     0.035 C 
ATOM      9  C   UNL A   1      31.600  23.860  24.194  1.00  0.00     0.007 C 
ENDBRANCH   7   8
BRANCH   7  10
ATOM     10  C   UNL A   1      34.484  24.968  24.725  1.00  0.00     0.035 C 
ATOM     11  C   UNL A   1      35.251  23.911  23.943  1.00  0.00     0.007 C 
ENDBRANCH   7  10
BRANCH   7  12
ATOM     12  N   UNL A   1      33.454  25.582  22.491  1.00  0.00    -0.324 N 
ATOM     13  C   UNL A   1      32.718  25.953  21.436  1.00  0.00     0.315 C 
ATOM     14  H   UNL A   1      34.232  25.038  22.229  1.00  0.00     0.166 HD
ATOM     15  O   UNL A   1      33.043  25.464  20.348  1.00  0.00    -0.249 OA
ATOM     16  N   UNL A   1      31.740  26.865  21.415  1.00  0.00    -0.338 N 
ATOM     17  H   UNL A   1      31.648  27.264  20.519  1.00  0.00     0.165 HD
BRANCH  16  18
ATOM     18  C   UNL A   1      30.770  27.439  22.346  1.00  0.00     0.125 C 
BRANCH  18  19
ATOM     19  C   UNL A   1      30.882  28.930  22.689  1.00  0.00     0.089 C 
BRANCH  19  20
ATOM     20  C   UNL A   1      29.730  29.854  22.418  1.00  0.00     0.094 A 
ATOM     21  N   UNL A   1      29.133  29.876  21.240  1.00  0.00    -0.250 NA
ATOM     22  S   UNL A   1      29.109  30.975  23.559  1.00  0.00    -0.127 S 
ATOM     23  C   UNL A   1      28.119  30.808  21.230  1.00  0.00     0.123 A 
ATOM     24  C   UNL A   1      27.950  31.501  22.407  1.00  0.00     0.087 A 
ENDBRANCH  19  20
ENDBRANCH  18  19
ENDBRANCH  16  18
ENDBRANCH   7  12
ENDBRANCH   4   7
ENDBRANCH   2   3
ENDBRANCH   1   2
BRANCH   1  25
ATOM     25  C   UNL A   1      32.582  29.944  27.167  1.00  0.00     0.002 C 
BRANCH  25  26
ATOM     26  C   UNL A   1      31.331  30.686  26.702  1.00  0.00     0.002 C 
BRANCH  26  27
ATOM     27  C   UNL A   1      31.530  32.181  26.479  1.00  0.00     0.021 C 
BRANCH  27  28
ATOM     28  C   UNL A   1      32.661  32.790  27.295  1.00  0.00     0.116 C 
BRANCH  28  29
ATOM     29  N   UNL A   1      32.420  34.185  27.632  1.00  0.00    -0.352 N 
ATOM     30  C   UNL A   1      33.048  34.940  28.596  1.00  0.00     0.251 C 
ATOM     31  H   UNL A   1      31.724  34.644  27.107  1.00  0.00     0.163 HD
ATOM     32  O   UNL A   1      32.666  36.066  28.874  1.00  0.00    -0.269 OA
BRANCH  30  33
ATOM     33  C   UNL A   1      34.187  34.334  29.315  1.00  0.00     0.039 A 
ATOM     34  C   UNL A   1      33.943  33.557  30.448  1.00  0.00     0.014 A 
ATOM     35  C   UNL A   1      35.482  34.469  28.805  1.00  0.00     0.014 A 
ATOM     36  C   UNL A   1      34.996  32.854  31.036  1.00  0.00     0.010 A 
ATOM     37  C   UNL A   1      36.513  33.714  29.350  1.00  0.00     0.010 A 
ATOM     38  C   UNL A   1      36.281  32.898  30.470  1.00  0.00    -0.014 A 
BRANCH  38  39
ATOM     39  C   UNL A   1      37.404  32.106  31.031  1.00  0.00     0.031 A 
ATOM     40  C   UNL A   1      37.928  32.430  32.403  1.00  0.00     0.074 A 
ATOM     41  C   UNL A   1      38.005  31.162  30.281  1.00  0.00     0.049 A 
ATOM     42  N   UNL A   1      38.965  31.936  33.030  1.00  0.00    -0.248 NA
ATOM     43  C   UNL A   1      37.210  33.470  33.158  1.00  0.00     0.031 C 
ATOM     44  C   UNL A   1      37.621  30.788  28.918  1.00  0.00     0.029 A 
ATOM     45  N   UNL A   1      39.081  30.356  30.553  1.00  0.00    -0.354 N 
ATOM     46  C   UNL A   1      39.041  32.625  34.233  1.00  0.00     0.074 A 
ATOM     47  C   UNL A   1      37.969  33.597  34.236  1.00  0.00     0.031 C 
ATOM     48  C   UNL A   1      38.439  29.816  28.481  1.00  0.00     0.029 A 
ATOM     49  C   UNL A   1      39.427  29.524  29.515  1.00  0.00     0.049 A 
ATOM     50  H   UNL A   1      39.562  30.371  31.413  1.00  0.00     0.167 HD
ATOM     51  C   UNL A   1      39.913  32.450  35.253  1.00  0.00     0.037 A 
ATOM     52  C   UNL A   1      40.434  28.636  29.408  1.00  0.00     0.037 A 
ATOM     53  C   UNL A   1      40.944  31.446  35.270  1.00  0.00     0.049 A 
ATOM     54  C   UNL A   1      41.380  28.453  30.564  1.00  0.00     0.074 A 
ATOM     55  C   UNL A   1      41.815  31.128  36.297  1.00  0.00     0.029 A 
ATOM     56  N   UNL A   1      41.238  30.599  34.214  1.00  0.00    -0.354 N 
ATOM     57  N   UNL A   1      41.386  29.052  31.730  1.00  0.00    -0.248 NA
ATOM     58  C   UNL A   1      42.457  27.468  30.391  1.00  0.00     0.031 C 
ATOM     59  C   UNL A   1      42.665  30.114  35.846  1.00  0.00     0.029 A 
ATOM     60  C   UNL A   1      42.294  29.773  34.556  1.00  0.00     0.049 A 
ATOM     61  H   UNL A   1      40.766  30.587  33.350  1.00  0.00     0.167 HD
ATOM     62  C   UNL A   1      42.440  28.491  32.440  1.00  0.00     0.074 A 
ATOM     63  C   UNL A   1      43.046  27.499  31.578  1.00  0.00     0.031 C 
ATOM     64  C   UNL A   1      42.867  28.772  33.695  1.00  0.00     0.037 A 
BRANCH  51  65
ATOM     65  C   UNL A   1      39.792  33.356  36.441  1.00  0.00     0.057 A 
ATOM     66  C   UNL A   1      40.505  34.558  36.529  1.00  0.00     0.134 A 
ATOM     67  C   UNL A   1      38.904  33.052  37.480  1.00  0.00     0.134 A 
ATOM     68  F   UNL A   1      41.380  34.901  35.572  1.00  0.00    -0.206 F 
ATOM     69  C   UNL A   1      40.351  35.418  37.617  1.00  0.00     0.040 A 
ATOM     70  C   UNL A   1      38.723  33.915  38.560  1.00  0.00     0.040 A 
ATOM     71  F   UNL A   1      38.187  31.918  37.454  1.00  0.00    -0.206 F 
ATOM     72  C   UNL A   1      39.450  35.102  38.632  1.00  0.00     0.006 A 
ENDBRANCH  51  65
BRANCH  52  73
ATOM     73  C   UNL A   1      40.604  27.833  28.169  1.00  0.00     0.057 A 
ATOM     74  C   UNL A   1      40.026  26.563  28.049  1.00  0.00     0.134 A 
ATOM     75  C   UNL A   1      41.380  28.290  27.098  1.00  0.00     0.134 A 
ATOM     76  F   UNL A   1      39.288  26.061  29.050  1.00  0.00    -0.206 F 
ATOM     77  C   UNL A   1      40.238  25.765  26.924  1.00  0.00     0.040 A 
ATOM     78  C   UNL A   1      41.579  27.513  25.956  1.00  0.00     0.040 A 
ATOM     79  F   UNL A   1      41.956  29.501  27.147  1.00  0.00    -0.206 F 
ATOM     80  C   UNL A   1      41.017  26.241  25.872  1.00  0.00     0.006 A 
ENDBRANCH  52  73
BRANCH  64  81
ATOM     81  C   UNL A   1      44.010  27.964  34.231  1.00  0.00     0.057 A 
ATOM     82  C   UNL A   1      45.340  28.379  34.092  1.00  0.00     0.134 A 
ATOM     83  C   UNL A   1      43.771  26.782  34.944  1.00  0.00     0.134 A 
ATOM     84  F   UNL A   1      45.635  29.496  33.410  1.00  0.00    -0.206 F 
ATOM     85  C   UNL A   1      46.394  27.638  34.628  1.00  0.00     0.040 A 
ATOM     86  C   UNL A   1      44.813  26.045  35.506  1.00  0.00     0.040 A 
ATOM     87  F   UNL A   1      42.517  26.336  35.120  1.00  0.00    -0.206 F 
ATOM     88  C   UNL A   1      46.130  26.472  35.345  1.00  0.00     0.006 A 
ENDBRANCH  64  81
ENDBRANCH  38  39
ENDBRANCH  30  33
ENDBRANCH  28  29
ENDBRANCH  27  28
ENDBRANCH  26  27
ENDBRANCH  25  26
ENDBRANCH   1  25
TORSDOF 19
ENDMDL
MODEL 2
REMARK VINA RESULT:     -10.6      1.925      3.391
REMARK SMILES CCC(CC)(NC(=O)NCCc1nccs1)C(=O)NCCCCCCNC(=O)c1ccc(-c2c3nc(c(-c4c(F)cccc4F)c4ccc([nH]4)c(-c4c(F)cccc4F)c4nc(c(-c5c(F)cccc5F)c5ccc2[nH]5)C=C4)C=C3)cc1
REMARK SMILES IDX 21 1 20 2 19 3 17 4 18 5 3 7 2 8 1 9 4 10 5 11 6 12 7 13
REMARK SMILES IDX 8 15 9 16 10 18 11 19 12 20 13 21 16 22 14 23 15 24 22 25
REMARK SMILES IDX 23 26 24 27 25 28 26 29 27 30 28 32 29 33 30 34 82 35 31 36
REMARK SMILES IDX 81 37 32 38 33 39 34 40 75 41 35 42 80 43 74 44 76 45 36 46
REMARK SMILES IDX 79 47 73 48 72 49 37 51 63 52 46 53 62 54 47 55 50 56 61 57
REMARK SMILES IDX 77 58 48 59 49 60 60 62 78 63 51 64 38 65 39 66 44 67 40 68
REMARK SMILES IDX 41 69 43 70 45 71 42 72 64 73 65 74 70 75 66 76 67 77 69 78
REMARK SMILES IDX 71 79 68 80 52 81 53 82 58 83 54 84 55 85 57 86 59 87 56 88
REMARK H PARENT 19 6 6 14 9 17 26 31 76 50 50 61
REMARK Flexibility Score: inf
ROOT
ATOM      1  C   UNL A   1      31.481  28.402  27.470  1.00  0.00     0.021 C 
ENDROOT
BRANCH   1   2
ATOM      2  C   UNL A   1      31.462  27.047  26.757  1.00  0.00     0.116 C 
BRANCH   2   3
ATOM      3  N   UNL A   1      31.017  27.042  25.365  1.00  0.00    -0.354 N 
ATOM      4  C   UNL A   1      31.644  26.739  24.179  1.00  0.00     0.245 C 
ATOM      5  O   UNL A   1      30.920  26.624  23.185  1.00  0.00    -0.272 OA
ATOM      6  H   UNL A   1      30.077  27.310  25.253  1.00  0.00     0.163 HD
BRANCH   4   7
ATOM      7  C   UNL A   1      33.162  26.414  24.117  1.00  0.00     0.120 C 
BRANCH   7   8
ATOM      8  C   UNL A   1      33.798  25.731  25.360  1.00  0.00     0.035 C 
ATOM      9  C   UNL A   1      35.011  24.836  25.139  1.00  0.00     0.007 C 
ENDBRANCH   7   8
BRANCH   7  10
ATOM     10  C   UNL A   1      33.828  27.822  23.905  1.00  0.00     0.035 C 
ATOM     11  C   UNL A   1      34.016  28.301  22.473  1.00  0.00     0.007 C 
ENDBRANCH   7  10
BRANCH   7  12
ATOM     12  N   UNL A   1      33.368  25.513  22.964  1.00  0.00    -0.324 N 
ATOM     13  C   UNL A   1      32.963  24.283  22.625  1.00  0.00     0.315 C 
ATOM     14  H   UNL A   1      33.947  25.917  22.277  1.00  0.00     0.166 HD
ATOM     15  O   UNL A   1      33.467  23.810  21.599  1.00  0.00    -0.249 OA
ATOM     16  N   UNL A   1      32.006  23.557  23.213  1.00  0.00    -0.338 N 
ATOM     17  H   UNL A   1      31.603  22.922  22.578  1.00  0.00     0.165 HD
BRANCH  16  18
ATOM     18  C   UNL A   1      31.388  23.442  24.533  1.00  0.00     0.125 C 
BRANCH  18  19
ATOM     19  C   UNL A   1      32.101  22.603  25.601  1.00  0.00     0.089 C 
BRANCH  19  20
ATOM     20  C   UNL A   1      32.702  21.276  25.239  1.00  0.00     0.094 A 
ATOM     21  N   UNL A   1      31.939  20.233  24.959  1.00  0.00    -0.250 NA
ATOM     22  S   UNL A   1      34.388  20.965  25.190  1.00  0.00    -0.127 S 
ATOM     23  C   UNL A   1      32.714  19.132  24.671  1.00  0.00     0.123 A 
ATOM     24  C   UNL A   1      34.073  19.339  24.738  1.00  0.00     0.087 A 
ENDBRANCH  19  20
ENDBRANCH  18  19
ENDBRANCH  16  18
ENDBRANCH   7  12
ENDBRANCH   4   7
ENDBRANCH   2   3
ENDBRANCH   1   2
BRANCH   1  25
ATOM     25  C   UNL A   1      32.422  29.456  26.904  1.00  0.00     0.002 C 
BRANCH  25  26
ATOM     26  C   UNL A   1      31.784  30.505  25.997  1.00  0.00     0.002 C 
BRANCH  26  27
ATOM     27  C   UNL A   1      31.490  31.836  26.681  1.00  0.00     0.021 C 
BRANCH  27  28
ATOM     28  C   UNL A   1      32.713  32.519  27.274  1.00  0.00     0.116 C 
BRANCH  28  29
ATOM     29  N   UNL A   1      32.467  33.913  27.613  1.00  0.00    -0.352 N 
ATOM     30  C   UNL A   1      33.096  34.670  28.574  1.00  0.00     0.251 C 
ATOM     31  H   UNL A   1      31.766  34.368  27.092  1.00  0.00     0.163 HD
ATOM     32  O   UNL A   1      32.710  35.794  28.855  1.00  0.00    -0.269 OA
BRANCH  30  33
ATOM     33  C   UNL A   1      34.242  34.069  29.287  1.00  0.00     0.039 A 
ATOM     34  C   UNL A   1      34.002  33.219  30.368  1.00  0.00     0.014 A 
ATOM     35  C   UNL A   1      35.542  34.284  28.820  1.00  0.00     0.014 A 
ATOM     36  C   UNL A   1      35.068  32.525  30.943  1.00  0.00     0.010 A 
ATOM     37  C   UNL A   1      36.590  33.541  29.349  1.00  0.00     0.010 A 
ATOM     38  C   UNL A   1      36.364  32.653  30.414  1.00  0.00    -0.014 A 
BRANCH  38  39
ATOM     39  C   UNL A   1      37.505  31.875  30.959  1.00  0.00     0.031 A 
ATOM     40  C   UNL A   1      38.037  32.199  32.329  1.00  0.00     0.074 A 
ATOM     41  C   UNL A   1      38.113  30.946  30.197  1.00  0.00     0.049 A 
ATOM     42  N   UNL A   1      39.088  31.716  32.942  1.00  0.00    -0.248 NA
ATOM     43  C   UNL A   1      37.310  33.222  33.097  1.00  0.00     0.031 C 
ATOM     44  C   UNL A   1      37.722  30.574  28.835  1.00  0.00     0.029 A 
ATOM     45  N   UNL A   1      39.204  30.155  30.454  1.00  0.00    -0.354 N 
ATOM     46  C   UNL A   1      39.164  32.399  34.149  1.00  0.00     0.074 A 
ATOM     47  C   UNL A   1      38.078  33.353  34.168  1.00  0.00     0.031 C 
ATOM     48  C   UNL A   1      38.551  29.618  28.384  1.00  0.00     0.029 A 
ATOM     49  C   UNL A   1      39.553  29.336  29.406  1.00  0.00     0.049 A 
ATOM     50  H   UNL A   1      39.693  30.172  31.309  1.00  0.00     0.167 HD
ATOM     51  C   UNL A   1      40.049  32.230  35.159  1.00  0.00     0.037 A 
ATOM     52  C   UNL A   1      40.572  28.463  29.283  1.00  0.00     0.037 A 
ATOM     53  C   UNL A   1      41.095  31.243  35.160  1.00  0.00     0.049 A 
ATOM     54  C   UNL A   1      41.532  28.288  30.429  1.00  0.00     0.074 A 
ATOM     55  C   UNL A   1      41.982  30.932  36.175  1.00  0.00     0.029 A 
ATOM     56  N   UNL A   1      41.392  30.407  34.095  1.00  0.00    -0.354 N 
ATOM     57  N   UNL A   1      41.540  28.880  31.599  1.00  0.00    -0.248 NA
ATOM     58  C   UNL A   1      42.623  27.321  30.240  1.00  0.00     0.031 C 
ATOM     59  C   UNL A   1      42.844  29.934  35.710  1.00  0.00     0.029 A 
ATOM     60  C   UNL A   1      42.465  29.596  34.421  1.00  0.00     0.049 A 
ATOM     61  H   UNL A   1      40.912  30.394  33.235  1.00  0.00     0.167 HD
ATOM     62  C   UNL A   1      42.610  28.330  32.295  1.00  0.00     0.074 A 
ATOM     63  C   UNL A   1      43.223  27.353  31.421  1.00  0.00     0.031 C 
ATOM     64  C   UNL A   1      43.045  28.610  33.548  1.00  0.00     0.037 A 
BRANCH  51  65
ATOM     65  C   UNL A   1      39.926  33.126  36.354  1.00  0.00     0.057 A 
ATOM     66  C   UNL A   1      39.072  32.821  37.421  1.00  0.00     0.134 A 
ATOM     67  C   UNL A   1      40.717  34.276  36.467  1.00  0.00     0.134 A 
ATOM     68  F   UNL A   1      38.279  31.740  37.370  1.00  0.00    -0.206 F 
ATOM     69  C   UNL A   1      38.998  33.637  38.552  1.00  0.00     0.040 A 
ATOM     70  C   UNL A   1      40.671  35.085  37.602  1.00  0.00     0.040 A 
ATOM     71  F   UNL A   1      41.561  34.622  35.482  1.00  0.00    -0.206 F 
ATOM     72  C   UNL A   1      39.807  34.768  38.648  1.00  0.00     0.006 A 
ENDBRANCH  51  65
BRANCH  52  73
ATOM     73  C   UNL A   1      40.743  27.672  28.038  1.00  0.00     0.057 A 
ATOM     74  C   UNL A   1      40.177  26.397  27.912  1.00  0.00     0.134 A 
ATOM     75  C   UNL A   1      41.507  28.145  26.965  1.00  0.00     0.134 A 
ATOM     76  F   UNL A   1      39.451  25.880  28.914  1.00  0.00    -0.206 F 
ATOM     77  C   UNL A   1      40.390  25.609  26.780  1.00  0.00     0.040 A 
ATOM     78  C   UNL A   1      41.708  27.378  25.816  1.00  0.00     0.040 A 
ATOM     79  F   UNL A   1      42.072  29.361  27.019  1.00  0.00    -0.206 F 
ATOM     80  C   UNL A   1      41.158  26.101  25.726  1.00  0.00     0.006 A 
ENDBRANCH  52  73
BRANCH  64  81
ATOM     81  C   UNL A   1      44.206  27.817  34.068  1.00  0.00     0.057 A 
ATOM     82  C   UNL A   1      45.522  28.283  33.975  1.00  0.00     0.134 A 
ATOM     83  C   UNL A   1      43.995  26.594  34.717  1.00  0.00     0.134 A 
ATOM     84  F   UNL A   1      45.790  29.441  33.353  1.00  0.00    -0.206 F 
ATOM     85  C   UNL A   1      46.592  27.553  34.496  1.00  0.00     0.040 A 
ATOM     86  C   UNL A   1      45.052  25.867  35.265  1.00  0.00     0.040 A 
ATOM     87  F   UNL A   1      42.755  26.097  34.848  1.00  0.00    -0.206 F 
ATOM     88  C   UNL A   1      46.356  26.346  35.150  1.00  0.00     0.006 A 
ENDBRANCH  64  81
ENDBRANCH  38  39
ENDBRANCH  30  33
ENDBRANCH  28  29
ENDBRANCH  27  28
ENDBRANCH  26  27
ENDBRANCH  25  26
ENDBRANCH   1  25
TORSDOF 19
ENDMDL
MODEL 3
REMARK VINA RESULT:     -10.6      1.812      6.873
REMARK SMILES CCC(CC)(NC(=O)NCCc1nccs1)C(=O)NCCCCCCNC(=O)c1ccc(-c2c3nc(c(-c4c(F)cccc4F)c4ccc([nH]4)c(-c4c(F)cccc4F)c4nc(c(-c5c(F)cccc5F)c5ccc2[nH]5)C=C4)C=C3)cc1
REMARK SMILES IDX 21 1 20 2 19 3 17 4 18 5 3 7 2 8 1 9 4 10 5 11 6 12 7 13
REMARK SMILES IDX 8 15 9 16 10 18 11 19 12 20 13 21 16 22 14 23 15 24 22 25
REMARK SMILES IDX 23 26 24 27 25 28 26 29 27 30 28 32 29 33 30 34 82 35 31 36
REMARK SMILES IDX 81 37 32 38 33 39 34 40 75 41 35 42 80 43 74 44 76 45 36 46
REMARK SMILES IDX 79 47 73 48 72 49 37 51 63 52 46 53 62 54 47 55 50 56 61 57
REMARK SMILES IDX 77 58 48 59 49 60 60 62 78 63 51 64 38 65 39 66 44 67 40 68
REMARK SMILES IDX 41 69 43 70 45 71 42 72 64 73 65 74 70 75 66 76 67 77 69 78
REMARK SMILES IDX 71 79 68 80 52 81 53 82 58 83 54 84 55 85 57 86 59 87 56 88
REMARK H PARENT 19 6 6 14 9 17 26 31 76 50 50 61
REMARK Flexibility Score: inf
ROOT
ATOM      1  C   UNL A   1      31.736  28.082  27.163  1.00  0.00     0.021 C 
ENDROOT
BRANCH   1   2
ATOM      2  C   UNL A   1      32.329  26.993  26.264  1.00  0.00     0.116 C 
BRANCH   2   3
ATOM      3  N   UNL A   1      31.393  26.259  25.415  1.00  0.00    -0.354 N 
ATOM      4  C   UNL A   1      31.147  26.265  24.063  1.00  0.00     0.245 C 
ATOM      5  O   UNL A   1      30.431  25.358  23.627  1.00  0.00    -0.272 OA
ATOM      6  H   UNL A   1      30.821  25.631  25.913  1.00  0.00     0.163 HD
BRANCH   4   7
ATOM      7  C   UNL A   1      31.849  27.271  23.110  1.00  0.00     0.120 C 
BRANCH   7   8
ATOM      8  C   UNL A   1      33.354  27.565  23.363  1.00  0.00     0.035 C 
ATOM      9  C   UNL A   1      33.867  28.968  23.063  1.00  0.00     0.007 C 
ENDBRANCH   7   8
BRANCH   7  10
ATOM     10  C   UNL A   1      31.025  28.596  23.305  1.00  0.00     0.035 C 
ATOM     11  C   UNL A   1      29.514  28.514  23.140  1.00  0.00     0.007 C 
ENDBRANCH   7  10
BRANCH   7  12
ATOM     12  N   UNL A   1      31.729  26.731  21.739  1.00  0.00    -0.324 N 
ATOM     13  C   UNL A   1      32.230  25.681  21.077  1.00  0.00     0.315 C 
ATOM     14  H   UNL A   1      31.137  27.278  21.175  1.00  0.00     0.166 HD
ATOM     15  O   UNL A   1      31.984  25.636  19.866  1.00  0.00    -0.249 OA
ATOM     16  N   UNL A   1      32.877  24.631  21.597  1.00  0.00    -0.338 N 
ATOM     17  H   UNL A   1      32.770  23.834  21.029  1.00  0.00     0.165 HD
BRANCH  16  18
ATOM     18  C   UNL A   1      33.695  24.333  22.771  1.00  0.00     0.125 C 
BRANCH  18  19
ATOM     19  C   UNL A   1      33.731  22.890  23.287  1.00  0.00     0.089 C 
BRANCH  19  20
ATOM     20  C   UNL A   1      33.539  22.608  24.750  1.00  0.00     0.094 A 
ATOM     21  N   UNL A   1      32.809  23.405  25.510  1.00  0.00    -0.250 NA
ATOM     22  S   UNL A   1      34.257  21.287  25.576  1.00  0.00    -0.127 S 
ATOM     23  C   UNL A   1      32.791  22.949  26.809  1.00  0.00     0.123 A 
ATOM     24  C   UNL A   1      33.517  21.803  27.037  1.00  0.00     0.087 A 
ENDBRANCH  19  20
ENDBRANCH  18  19
ENDBRANCH  16  18
ENDBRANCH   7  12
ENDBRANCH   4   7
ENDBRANCH   2   3
ENDBRANCH   1   2
BRANCH   1  25
ATOM     25  C   UNL A   1      32.506  29.393  27.242  1.00  0.00     0.002 C 
BRANCH  25  26
ATOM     26  C   UNL A   1      32.101  30.468  26.236  1.00  0.00     0.002 C 
BRANCH  26  27
ATOM     27  C   UNL A   1      31.654  31.783  26.863  1.00  0.00     0.021 C 
BRANCH  27  28
ATOM     28  C   UNL A   1      32.794  32.656  27.365  1.00  0.00     0.116 C 
BRANCH  28  29
ATOM     29  N   UNL A   1      32.388  34.036  27.586  1.00  0.00    -0.352 N 
ATOM     30  C   UNL A   1      32.923  34.941  28.474  1.00  0.00     0.251 C 
ATOM     31  H   UNL A   1      31.641  34.362  27.034  1.00  0.00     0.163 HD
ATOM     32  O   UNL A   1      32.410  36.032  28.662  1.00  0.00    -0.269 OA
BRANCH  30  33
ATOM     33  C   UNL A   1      34.130  34.539  29.227  1.00  0.00     0.039 A 
ATOM     34  C   UNL A   1      33.985  33.975  30.495  1.00  0.00     0.014 A 
ATOM     35  C   UNL A   1      35.389  34.643  28.629  1.00  0.00     0.014 A 
ATOM     36  C   UNL A   1      35.105  33.449  31.142  1.00  0.00     0.010 A 
ATOM     37  C   UNL A   1      36.489  34.058  29.245  1.00  0.00     0.010 A 
ATOM     38  C   UNL A   1      36.358  33.453  30.506  1.00  0.00    -0.014 A 
BRANCH  38  39
ATOM     39  C   UNL A   1      37.552  32.840  31.139  1.00  0.00     0.031 A 
ATOM     40  C   UNL A   1      38.194  31.637  30.503  1.00  0.00     0.074 A 
ATOM     41  C   UNL A   1      38.002  33.304  32.321  1.00  0.00     0.049 A 
ATOM     42  N   UNL A   1      39.171  30.890  30.949  1.00  0.00    -0.248 NA
ATOM     43  C   UNL A   1      37.645  31.199  29.210  1.00  0.00     0.031 C 
ATOM     44  C   UNL A   1      37.436  34.433  33.063  1.00  0.00     0.029 A 
ATOM     45  N   UNL A   1      39.033  32.871  33.117  1.00  0.00    -0.354 N 
ATOM     46  C   UNL A   1      39.330  29.879  30.010  1.00  0.00     0.074 A 
ATOM     47  C   UNL A   1      38.327  30.086  28.989  1.00  0.00     0.031 C 
ATOM     48  C   UNL A   1      38.136  34.611  34.195  1.00  0.00     0.029 A 
ATOM     49  C   UNL A   1      39.174  33.589  34.280  1.00  0.00     0.049 A 
ATOM     50  H   UNL A   1      39.617  32.115  32.877  1.00  0.00     0.167 HD
ATOM     51  C   UNL A   1      40.243  28.880  29.991  1.00  0.00     0.037 A 
ATOM     52  C   UNL A   1      40.037  33.433  35.303  1.00  0.00     0.037 A 
ATOM     53  C   UNL A   1      41.273  28.709  30.980  1.00  0.00     0.049 A 
ATOM     54  C   UNL A   1      41.050  32.322  35.246  1.00  0.00     0.074 A 
ATOM     55  C   UNL A   1      42.303  27.785  30.996  1.00  0.00     0.029 A 
ATOM     56  N   UNL A   1      41.405  29.480  32.123  1.00  0.00    -0.354 N 
ATOM     57  N   UNL A   1      41.243  31.425  34.309  1.00  0.00    -0.248 NA
ATOM     58  C   UNL A   1      41.968  32.201  36.388  1.00  0.00     0.031 C 
ATOM     59  C   UNL A   1      43.035  27.971  32.173  1.00  0.00     0.029 A 
ATOM     60  C   UNL A   1      42.486  29.038  32.866  1.00  0.00     0.049 A 
ATOM     61  H   UNL A   1      40.818  30.231  32.371  1.00  0.00     0.167 HD
ATOM     62  C   UNL A   1      42.325  30.662  34.730  1.00  0.00     0.074 A 
ATOM     63  C   UNL A   1      42.751  31.203  36.003  1.00  0.00     0.031 C 
ATOM     64  C   UNL A   1      42.913  29.606  34.117  1.00  0.00     0.037 A 
BRANCH  51  65
ATOM     65  C   UNL A   1      40.178  27.894  28.864  1.00  0.00     0.057 A 
ATOM     66  C   UNL A   1      40.863  28.101  27.660  1.00  0.00     0.134 A 
ATOM     67  C   UNL A   1      39.472  26.693  29.008  1.00  0.00     0.134 A 
ATOM     68  F   UNL A   1      41.549  29.237  27.455  1.00  0.00    -0.206 F 
ATOM     69  C   UNL A   1      40.836  27.156  26.634  1.00  0.00     0.040 A 
ATOM     70  C   UNL A   1      39.457  25.731  27.999  1.00  0.00     0.040 A 
ATOM     71  F   UNL A   1      38.798  26.431  30.138  1.00  0.00    -0.206 F 
ATOM     72  C   UNL A   1      40.138  25.962  26.806  1.00  0.00     0.006 A 
ENDBRANCH  51  65
BRANCH  52  73
ATOM     73  C   UNL A   1      40.003  34.354  36.468  1.00  0.00     0.057 A 
ATOM     74  C   UNL A   1      39.236  34.053  37.600  1.00  0.00     0.134 A 
ATOM     75  C   UNL A   1      40.695  35.570  36.464  1.00  0.00     0.134 A 
ATOM     76  F   UNL A   1      38.534  32.912  37.656  1.00  0.00    -0.206 F 
ATOM     77  C   UNL A   1      39.133  34.942  38.672  1.00  0.00     0.040 A 
ATOM     78  C   UNL A   1      40.621  36.457  37.540  1.00  0.00     0.040 A 
ATOM     79  F   UNL A   1      41.453  35.916  35.413  1.00  0.00    -0.206 F 
ATOM     80  C   UNL A   1      39.828  36.148  38.643  1.00  0.00     0.006 A 
ENDBRANCH  52  73
BRANCH  64  81
ATOM     81  C   UNL A   1      44.110  29.000  34.785  1.00  0.00     0.057 A 
ATOM     82  C   UNL A   1      43.997  27.912  35.659  1.00  0.00     0.134 A 
ATOM     83  C   UNL A   1      45.396  29.478  34.507  1.00  0.00     0.134 A 
ATOM     84  F   UNL A   1      42.792  27.415  35.975  1.00  0.00    -0.206 F 
ATOM     85  C   UNL A   1      45.122  27.331  36.246  1.00  0.00     0.040 A 
ATOM     86  C   UNL A   1      46.530  28.891  35.067  1.00  0.00     0.040 A 
ATOM     87  F   UNL A   1      45.571  30.513  33.670  1.00  0.00    -0.206 F 
ATOM     88  C   UNL A   1      46.394  27.816  35.943  1.00  0.00     0.006 A 
ENDBRANCH  64  81
ENDBRANCH  38  39
ENDBRANCH  30  33
ENDBRANCH  28  29
ENDBRANCH  27  28
ENDBRANCH  26  27
ENDBRANCH  25  26
ENDBRANCH   1  25
TORSDOF 19
ENDMDL
