MODEL 1
REMARK VINA RESULT:     -12.6      0.000      0.000
REMARK SMILES NS(=O)(=O)c1ccc(-n2ccnc2-c2ccc(O)c(C(=O)NCCCCCCNC(=O)c3ccc(-c4c5nc(c(-c6c(F)cccc6F)c6ccc([nH]6)c(-c6c(F)cccc6F)c6nc(c(-c7c(F)cccc7F)c7ccc4[nH]7)C=C6)C=C5)cc3)c2)cc1
REMARK SMILES IDX 24 1 23 2 22 3 20 4 21 5 19 7 14 8 15 9 86 10 16 11 17 12
REMARK SMILES IDX 13 13 9 14 10 15 11 16 12 17 8 18 5 19 6 20 88 21 7 22 87 23
REMARK SMILES IDX 2 24 3 25 4 26 1 27 18 30 25 32 26 33 27 34 28 35 29 36
REMARK SMILES IDX 30 37 31 39 32 40 33 41 85 42 34 43 84 44 35 45 36 46 37 47
REMARK SMILES IDX 78 48 38 49 83 50 77 51 79 52 39 53 82 54 76 55 75 56 40 58
REMARK SMILES IDX 66 59 49 60 65 61 50 62 53 63 64 64 80 65 51 66 52 67 63 69
REMARK SMILES IDX 81 70 54 71 41 72 42 73 47 74 43 75 44 76 46 77 48 78 45 79
REMARK SMILES IDX 67 80 68 81 73 82 69 83 70 84 72 85 74 86 71 87 55 88 56 89
REMARK SMILES IDX 61 90 57 91 58 92 60 93 62 94 59 95
REMARK H PARENT 22 6 1 28 1 29 18 31 29 38 79 57 53 68
REMARK Flexibility Score: inf
ROOT
ATOM      1  C   UNL A   1      32.135  27.857  26.954  1.00  0.00     0.021 C 
ENDROOT
BRANCH   1   2
ATOM      2  C   UNL A   1      31.194  27.066  26.057  1.00  0.00     0.116 C 
BRANCH   2   3
ATOM      3  N   UNL A   1      30.629  25.864  26.650  1.00  0.00    -0.352 N 
ATOM      4  C   UNL A   1      30.806  24.523  26.371  1.00  0.00     0.255 C 
ATOM      5  O   UNL A   1      30.173  23.698  27.034  1.00  0.00    -0.269 OA
ATOM      6  H   UNL A   1      30.004  26.038  27.391  1.00  0.00     0.163 HD
BRANCH   4   7
ATOM      7  C   UNL A   1      31.671  24.009  25.269  1.00  0.00     0.082 A 
ATOM      8  C   UNL A   1      33.879  23.283  24.477  1.00  0.00     0.019 A 
ATOM      9  C   UNL A   1      33.418  23.347  23.161  1.00  0.00     0.016 A 
ATOM     10  C   UNL A   1      32.962  23.544  25.506  1.00  0.00     0.029 A 
ATOM     11  C   UNL A   1      32.079  23.657  22.900  1.00  0.00     0.048 A 
ATOM     12  C   UNL A   1      31.217  24.002  23.945  1.00  0.00     0.128 A 
BRANCH   8  13
ATOM     13  C   UNL A   1      35.317  23.126  24.786  1.00  0.00     0.144 A 
ATOM     14  N   UNL A   1      35.944  21.947  25.210  1.00  0.00    -0.300 N 
ATOM     15  C   UNL A   1      37.105  22.324  25.844  1.00  0.00     0.113 A 
ATOM     16  C   UNL A   1      37.226  23.673  25.624  1.00  0.00     0.132 A 
ATOM     17  N   UNL A   1      36.139  24.152  24.947  1.00  0.00    -0.236 NA
BRANCH  14  18
ATOM     18  C   UNL A   1      35.445  20.623  25.117  1.00  0.00     0.047 A 
ATOM     19  C   UNL A   1      34.470  18.078  24.574  1.00  0.00     0.082 A 
ATOM     20  C   UNL A   1      35.851  18.292  24.627  1.00  0.00     0.024 A 
ATOM     21  C   UNL A   1      33.573  19.123  24.820  1.00  0.00     0.024 A 
ATOM     22  C   UNL A   1      36.341  19.568  24.895  1.00  0.00     0.028 A 
ATOM     23  C   UNL A   1      34.061  20.399  25.116  1.00  0.00     0.028 A 
BRANCH  19  24
ATOM     24  S   UNL A   1      33.917  16.439  24.211  1.00  0.00     0.238 S 
ATOM     25  O   UNL A   1      34.131  16.190  22.811  1.00  0.00    -0.207 OA
ATOM     26  O   UNL A   1      32.640  16.244  24.866  1.00  0.00    -0.207 OA
BRANCH  24  27
ATOM     27  N   UNL A   1      34.994  15.432  25.019  1.00  0.00    -0.225 NA
ATOM     28  H   UNL A   1      34.580  14.506  25.127  1.00  0.00     0.137 HD
ATOM     29  H   UNL A   1      35.197  15.821  25.940  1.00  0.00     0.137 HD
ENDBRANCH  24  27
ENDBRANCH  19  24
ENDBRANCH  14  18
ENDBRANCH   8  13
BRANCH  12  30
ATOM     30  O   UNL A   1      29.936  24.332  23.596  1.00  0.00    -0.507 OA
ATOM     31  H   UNL A   1      29.781  25.002  22.960  1.00  0.00     0.293 HD
ENDBRANCH  12  30
ENDBRANCH   4   7
ENDBRANCH   2   3
ENDBRANCH   1   2
BRANCH   1  32
ATOM     32  C   UNL A   1      33.597  27.938  26.523  1.00  0.00     0.002 C 
BRANCH  32  33
ATOM     33  C   UNL A   1      34.424  29.127  27.035  1.00  0.00     0.002 C 
BRANCH  33  34
ATOM     34  C   UNL A   1      33.691  30.437  27.359  1.00  0.00     0.021 C 
BRANCH  34  35
ATOM     35  C   UNL A   1      34.597  31.626  27.617  1.00  0.00     0.116 C 
BRANCH  35  36
ATOM     36  N   UNL A   1      34.458  32.220  28.954  1.00  0.00    -0.352 N 
ATOM     37  C   UNL A   1      35.221  31.966  30.090  1.00  0.00     0.251 C 
ATOM     38  H   UNL A   1      33.736  32.879  29.058  1.00  0.00     0.163 HD
ATOM     39  O   UNL A   1      34.807  32.232  31.212  1.00  0.00    -0.269 OA
BRANCH  37  40
ATOM     40  C   UNL A   1      36.563  31.382  29.908  1.00  0.00     0.039 A 
ATOM     41  C   UNL A   1      37.742  32.117  29.763  1.00  0.00     0.014 A 
ATOM     42  C   UNL A   1      36.610  30.002  29.970  1.00  0.00     0.014 A 
ATOM     43  C   UNL A   1      38.943  31.410  29.706  1.00  0.00     0.010 A 
ATOM     44  C   UNL A   1      37.760  29.418  30.377  1.00  0.00     0.010 A 
ATOM     45  C   UNL A   1      38.926  30.040  30.008  1.00  0.00    -0.014 A 
BRANCH  45  46
ATOM     46  C   UNL A   1      40.087  29.172  29.994  1.00  0.00     0.031 A 
ATOM     47  C   UNL A   1      40.652  28.924  31.330  1.00  0.00     0.074 A 
ATOM     48  C   UNL A   1      40.490  28.491  28.895  1.00  0.00     0.049 A 
ATOM     49  N   UNL A   1      41.698  29.485  31.829  1.00  0.00    -0.248 NA
ATOM     50  C   UNL A   1      39.881  28.120  32.286  1.00  0.00     0.031 C 
ATOM     51  C   UNL A   1      39.881  28.393  27.558  1.00  0.00     0.029 A 
ATOM     52  N   UNL A   1      41.575  27.680  28.777  1.00  0.00    -0.354 N 
ATOM     53  C   UNL A   1      41.852  28.938  33.092  1.00  0.00     0.074 A 
ATOM     54  C   UNL A   1      40.614  28.266  33.393  1.00  0.00     0.031 C 
ATOM     55  C   UNL A   1      40.498  27.424  26.839  1.00  0.00     0.029 A 
ATOM     56  C   UNL A   1      41.646  26.956  27.591  1.00  0.00     0.049 A 
ATOM     57  H   UNL A   1      42.259  27.610  29.480  1.00  0.00     0.167 HD
ATOM     58  C   UNL A   1      43.082  28.885  33.671  1.00  0.00     0.037 A 
ATOM     59  C   UNL A   1      42.604  26.051  27.263  1.00  0.00     0.037 A 
ATOM     60  C   UNL A   1      44.031  29.698  32.946  1.00  0.00     0.049 A 
ATOM     61  C   UNL A   1      43.791  26.368  28.099  1.00  0.00     0.074 A 
ATOM     62  C   UNL A   1      44.131  31.046  32.657  1.00  0.00     0.029 A 
ATOM     63  N   UNL A   1      44.835  29.061  32.030  1.00  0.00    -0.354 N 
ATOM     64  N   UNL A   1      44.484  27.466  27.962  1.00  0.00    -0.248 NA
ATOM     65  C   UNL A   1      43.882  25.732  29.406  1.00  0.00     0.031 C 
ATOM     66  C   UNL A   1      44.582  31.101  31.304  1.00  0.00     0.029 A 
ATOM     67  C   UNL A   1      44.808  29.793  30.869  1.00  0.00     0.049 A 
ATOM     68  H   UNL A   1      45.340  28.228  32.180  1.00  0.00     0.167 HD
ATOM     69  C   UNL A   1      44.743  27.890  29.257  1.00  0.00     0.074 A 
ATOM     70  C   UNL A   1      44.403  26.746  30.105  1.00  0.00     0.031 C 
ATOM     71  C   UNL A   1      44.918  29.214  29.549  1.00  0.00     0.037 A 
BRANCH  58  72
ATOM     72  C   UNL A   1      43.527  27.824  34.637  1.00  0.00     0.057 A 
ATOM     73  C   UNL A   1      43.600  26.493  34.193  1.00  0.00     0.134 A 
ATOM     74  C   UNL A   1      43.593  28.003  36.032  1.00  0.00     0.134 A 
ATOM     75  F   UNL A   1      43.545  26.198  32.886  1.00  0.00    -0.206 F 
ATOM     76  C   UNL A   1      43.649  25.412  35.081  1.00  0.00     0.040 A 
ATOM     77  C   UNL A   1      43.691  26.934  36.925  1.00  0.00     0.040 A 
ATOM     78  F   UNL A   1      43.462  29.203  36.610  1.00  0.00    -0.206 F 
ATOM     79  C   UNL A   1      43.683  25.631  36.452  1.00  0.00     0.006 A 
ENDBRANCH  58  72
BRANCH  59  80
ATOM     80  C   UNL A   1      42.445  24.762  26.550  1.00  0.00     0.057 A 
ATOM     81  C   UNL A   1      43.197  24.454  25.406  1.00  0.00     0.134 A 
ATOM     82  C   UNL A   1      41.764  23.684  27.145  1.00  0.00     0.134 A 
ATOM     83  F   UNL A   1      43.915  25.404  24.790  1.00  0.00    -0.206 F 
ATOM     84  C   UNL A   1      43.288  23.149  24.899  1.00  0.00     0.040 A 
ATOM     85  C   UNL A   1      41.847  22.377  26.650  1.00  0.00     0.040 A 
ATOM     86  F   UNL A   1      41.071  23.850  28.281  1.00  0.00    -0.206 F 
ATOM     87  C   UNL A   1      42.621  22.102  25.531  1.00  0.00     0.006 A 
ENDBRANCH  59  80
BRANCH  71  88
ATOM     88  C   UNL A   1      45.010  30.174  28.390  1.00  0.00     0.057 A 
ATOM     89  C   UNL A   1      43.914  30.871  27.857  1.00  0.00     0.134 A 
ATOM     90  C   UNL A   1      46.269  30.515  27.891  1.00  0.00     0.134 A 
ATOM     91  F   UNL A   1      42.681  30.692  28.339  1.00  0.00    -0.206 F 
ATOM     92  C   UNL A   1      44.059  31.827  26.846  1.00  0.00     0.040 A 
ATOM     93  C   UNL A   1      46.433  31.488  26.901  1.00  0.00     0.040 A 
ATOM     94  F   UNL A   1      47.372  29.938  28.394  1.00  0.00    -0.206 F 
ATOM     95  C   UNL A   1      45.324  32.141  26.367  1.00  0.00     0.006 A 
ENDBRANCH  71  88
ENDBRANCH  45  46
ENDBRANCH  37  40
ENDBRANCH  35  36
ENDBRANCH  34  35
ENDBRANCH  33  34
ENDBRANCH  32  33
ENDBRANCH   1  32
TORSDOF 18
ENDMDL
MODEL 2
REMARK VINA RESULT:     -12.6      3.082      8.077
REMARK SMILES NS(=O)(=O)c1ccc(-n2ccnc2-c2ccc(O)c(C(=O)NCCCCCCNC(=O)c3ccc(-c4c5nc(c(-c6c(F)cccc6F)c6ccc([nH]6)c(-c6c(F)cccc6F)c6nc(c(-c7c(F)cccc7F)c7ccc4[nH]7)C=C6)C=C5)cc3)c2)cc1
REMARK SMILES IDX 24 1 23 2 22 3 20 4 21 5 19 7 14 8 15 9 86 10 16 11 17 12
REMARK SMILES IDX 13 13 9 14 10 15 11 16 12 17 8 18 5 19 6 20 88 21 7 22 87 23
REMARK SMILES IDX 2 24 3 25 4 26 1 27 18 30 25 32 26 33 27 34 28 35 29 36
REMARK SMILES IDX 30 37 31 39 32 40 33 41 85 42 34 43 84 44 35 45 36 46 37 47
REMARK SMILES IDX 78 48 38 49 83 50 77 51 79 52 39 53 82 54 76 55 75 56 40 58
REMARK SMILES IDX 66 59 49 60 65 61 50 62 53 63 64 64 80 65 51 66 52 67 63 69
REMARK SMILES IDX 81 70 54 71 41 72 42 73 47 74 43 75 44 76 46 77 48 78 45 79
REMARK SMILES IDX 67 80 68 81 73 82 69 83 70 84 72 85 74 86 71 87 55 88 56 89
REMARK SMILES IDX 61 90 57 91 58 92 60 93 62 94 59 95
REMARK H PARENT 22 6 1 28 1 29 18 31 29 38 79 57 53 68
REMARK Flexibility Score: inf
ROOT
ATOM      1  C   UNL A   1      40.412  21.712  26.767  1.00  0.00     0.021 C 
ENDROOT
BRANCH   1   2
ATOM      2  C   UNL A   1      39.104  22.043  26.062  1.00  0.00     0.116 C 
BRANCH   2   3
ATOM      3  N   UNL A   1      38.367  20.900  25.544  1.00  0.00    -0.352 N 
ATOM      4  C   UNL A   1      37.124  20.791  24.953  1.00  0.00     0.255 C 
ATOM      5  O   UNL A   1      36.730  19.671  24.619  1.00  0.00    -0.269 OA
ATOM      6  H   UNL A   1      38.845  20.043  25.631  1.00  0.00     0.163 HD
BRANCH   4   7
ATOM      7  C   UNL A   1      36.195  21.942  24.748  1.00  0.00     0.082 A 
ATOM      8  C   UNL A   1      34.036  23.023  25.195  1.00  0.00     0.019 A 
ATOM      9  C   UNL A   1      34.279  23.918  24.152  1.00  0.00     0.016 A 
ATOM     10  C   UNL A   1      35.044  22.100  25.515  1.00  0.00     0.029 A 
ATOM     11  C   UNL A   1      35.498  23.883  23.466  1.00  0.00     0.048 A 
ATOM     12  C   UNL A   1      36.441  22.892  23.751  1.00  0.00     0.128 A 
BRANCH   8  13
ATOM     13  C   UNL A   1      32.704  22.915  25.828  1.00  0.00     0.144 A 
ATOM     14  N   UNL A   1      31.839  21.816  25.746  1.00  0.00    -0.300 N 
ATOM     15  C   UNL A   1      30.576  22.287  26.022  1.00  0.00     0.113 A 
ATOM     16  C   UNL A   1      30.747  23.585  26.432  1.00  0.00     0.132 A 
ATOM     17  N   UNL A   1      32.060  23.954  26.339  1.00  0.00    -0.236 NA
BRANCH  14  18
ATOM     18  C   UNL A   1      32.160  20.494  25.348  1.00  0.00     0.047 A 
ATOM     19  C   UNL A   1      33.133  18.016  24.551  1.00  0.00     0.082 A 
ATOM     20  C   UNL A   1      33.079  18.332  25.912  1.00  0.00     0.024 A 
ATOM     21  C   UNL A   1      32.674  18.920  23.587  1.00  0.00     0.024 A 
ATOM     22  C   UNL A   1      32.596  19.575  26.312  1.00  0.00     0.028 A 
ATOM     23  C   UNL A   1      32.164  20.158  23.987  1.00  0.00     0.028 A 
BRANCH  19  24
ATOM     24  S   UNL A   1      33.774  16.428  24.112  1.00  0.00     0.238 S 
ATOM     25  O   UNL A   1      34.192  16.475  22.737  1.00  0.00    -0.207 OA
ATOM     26  O   UNL A   1      32.871  15.423  24.634  1.00  0.00    -0.207 OA
BRANCH  24  27
ATOM     27  N   UNL A   1      35.187  16.271  25.009  1.00  0.00    -0.225 NA
ATOM     28  H   UNL A   1      34.953  16.133  25.992  1.00  0.00     0.137 HD
ATOM     29  H   UNL A   1      35.749  17.116  24.909  1.00  0.00     0.137 HD
ENDBRANCH  24  27
ENDBRANCH  19  24
ENDBRANCH  14  18
ENDBRANCH   8  13
BRANCH  12  30
ATOM     30  O   UNL A   1      37.588  22.907  23.004  1.00  0.00    -0.507 OA
ATOM     31  H   UNL A   1      38.257  23.538  23.185  1.00  0.00     0.293 HD
ENDBRANCH  12  30
ENDBRANCH   4   7
ENDBRANCH   2   3
ENDBRANCH   1   2
BRANCH   1  32
ATOM     32  C   UNL A   1      40.657  20.249  27.119  1.00  0.00     0.002 C 
BRANCH  32  33
ATOM     33  C   UNL A   1      42.112  19.755  27.132  1.00  0.00     0.002 C 
BRANCH  33  34
ATOM     34  C   UNL A   1      42.512  18.645  26.148  1.00  0.00     0.021 C 
BRANCH  34  35
ATOM     35  C   UNL A   1      44.006  18.488  25.939  1.00  0.00     0.116 C 
BRANCH  35  36
ATOM     36  N   UNL A   1      44.478  18.871  24.601  1.00  0.00    -0.352 N 
ATOM     37  C   UNL A   1      44.551  20.146  24.048  1.00  0.00     0.251 C 
ATOM     38  H   UNL A   1      44.780  18.133  24.024  1.00  0.00     0.163 HD
ATOM     39  O   UNL A   1      44.613  20.316  22.836  1.00  0.00    -0.269 OA
BRANCH  37  40
ATOM     40  C   UNL A   1      44.574  21.299  24.966  1.00  0.00     0.039 A 
ATOM     41  C   UNL A   1      45.668  21.677  25.748  1.00  0.00     0.014 A 
ATOM     42  C   UNL A   1      43.430  22.074  24.955  1.00  0.00     0.014 A 
ATOM     43  C   UNL A   1      45.562  22.857  26.485  1.00  0.00     0.010 A 
ATOM     44  C   UNL A   1      43.539  23.383  25.280  1.00  0.00     0.010 A 
ATOM     45  C   UNL A   1      44.466  23.700  26.241  1.00  0.00    -0.014 A 
BRANCH  45  46
ATOM     46  C   UNL A   1      44.217  24.955  26.920  1.00  0.00     0.031 A 
ATOM     47  C   UNL A   1      45.243  25.978  26.663  1.00  0.00     0.074 A 
ATOM     48  C   UNL A   1      43.057  25.234  27.561  1.00  0.00     0.049 A 
ATOM     49  N   UNL A   1      46.200  26.312  27.458  1.00  0.00    -0.248 NA
ATOM     50  C   UNL A   1      45.342  26.558  25.318  1.00  0.00     0.031 C 
ATOM     51  C   UNL A   1      41.817  24.447  27.672  1.00  0.00     0.029 A 
ATOM     52  N   UNL A   1      42.742  26.365  28.246  1.00  0.00    -0.354 N 
ATOM     53  C   UNL A   1      46.901  27.312  26.803  1.00  0.00     0.074 A 
ATOM     54  C   UNL A   1      46.460  27.281  25.432  1.00  0.00     0.031 C 
ATOM     55  C   UNL A   1      40.834  25.206  28.212  1.00  0.00     0.029 A 
ATOM     56  C   UNL A   1      41.411  26.465  28.641  1.00  0.00     0.049 A 
ATOM     57  H   UNL A   1      43.406  27.062  28.446  1.00  0.00     0.167 HD
ATOM     58  C   UNL A   1      47.605  28.233  27.515  1.00  0.00     0.037 A 
ATOM     59  C   UNL A   1      40.849  27.514  29.294  1.00  0.00     0.037 A 
ATOM     60  C   UNL A   1      47.732  27.834  28.898  1.00  0.00     0.049 A 
ATOM     61  C   UNL A   1      41.958  28.242  29.965  1.00  0.00     0.074 A 
ATOM     62  C   UNL A   1      48.315  26.762  29.547  1.00  0.00     0.029 A 
ATOM     63  N   UNL A   1      46.832  28.365  29.791  1.00  0.00    -0.354 N 
ATOM     64  N   UNL A   1      42.650  27.731  30.947  1.00  0.00    -0.248 NA
ATOM     65  C   UNL A   1      42.627  29.292  29.210  1.00  0.00     0.031 C 
ATOM     66  C   UNL A   1      47.396  26.413  30.582  1.00  0.00     0.029 A 
ATOM     67  C   UNL A   1      46.347  27.335  30.559  1.00  0.00     0.049 A 
ATOM     68  H   UNL A   1      46.579  29.314  29.867  1.00  0.00     0.167 HD
ATOM     69  C   UNL A   1      43.967  28.073  30.673  1.00  0.00     0.074 A 
ATOM     70  C   UNL A   1      43.883  29.091  29.624  1.00  0.00     0.031 C 
ATOM     71  C   UNL A   1      45.006  27.293  31.097  1.00  0.00     0.037 A 
BRANCH  58  72
ATOM     72  C   UNL A   1      47.841  29.650  27.078  1.00  0.00     0.057 A 
ATOM     73  C   UNL A   1      49.141  30.177  27.159  1.00  0.00     0.134 A 
ATOM     74  C   UNL A   1      46.816  30.594  26.870  1.00  0.00     0.134 A 
ATOM     75  F   UNL A   1      50.198  29.375  27.358  1.00  0.00    -0.206 F 
ATOM     76  C   UNL A   1      49.393  31.553  27.123  1.00  0.00     0.040 A 
ATOM     77  C   UNL A   1      47.062  31.966  26.783  1.00  0.00     0.040 A 
ATOM     78  F   UNL A   1      45.522  30.256  26.844  1.00  0.00    -0.206 F 
ATOM     79  C   UNL A   1      48.349  32.453  26.946  1.00  0.00     0.006 A 
ENDBRANCH  58  72
BRANCH  59  80
ATOM     80  C   UNL A   1      39.505  28.107  29.095  1.00  0.00     0.057 A 
ATOM     81  C   UNL A   1      38.575  28.192  30.142  1.00  0.00     0.134 A 
ATOM     82  C   UNL A   1      39.211  28.869  27.950  1.00  0.00     0.134 A 
ATOM     83  F   UNL A   1      38.785  27.536  31.292  1.00  0.00    -0.206 F 
ATOM     84  C   UNL A   1      37.434  29.006  30.065  1.00  0.00     0.040 A 
ATOM     85  C   UNL A   1      38.078  29.686  27.860  1.00  0.00     0.040 A 
ATOM     86  F   UNL A   1      40.065  28.917  26.917  1.00  0.00    -0.206 F 
ATOM     87  C   UNL A   1      37.191  29.768  28.925  1.00  0.00     0.006 A 
ENDBRANCH  59  80
BRANCH  71  88
ATOM     88  C   UNL A   1      44.684  26.157  32.034  1.00  0.00     0.057 A 
ATOM     89  C   UNL A   1      44.507  24.826  31.624  1.00  0.00     0.134 A 
ATOM     90  C   UNL A   1      44.696  26.389  33.411  1.00  0.00     0.134 A 
ATOM     91  F   UNL A   1      44.582  24.484  30.335  1.00  0.00    -0.206 F 
ATOM     92  C   UNL A   1      44.307  23.784  32.537  1.00  0.00     0.040 A 
ATOM     93  C   UNL A   1      44.525  25.355  34.337  1.00  0.00     0.040 A 
ATOM     94  F   UNL A   1      44.922  27.625  33.884  1.00  0.00    -0.206 F 
ATOM     95  C   UNL A   1      44.319  24.048  33.901  1.00  0.00     0.006 A 
ENDBRANCH  71  88
ENDBRANCH  45  46
ENDBRANCH  37  40
ENDBRANCH  35  36
ENDBRANCH  34  35
ENDBRANCH  33  34
ENDBRANCH  32  33
ENDBRANCH   1  32
TORSDOF 18
ENDMDL
MODEL 3
REMARK VINA RESULT:     -12.5      1.239      2.145
REMARK SMILES NS(=O)(=O)c1ccc(-n2ccnc2-c2ccc(O)c(C(=O)NCCCCCCNC(=O)c3ccc(-c4c5nc(c(-c6c(F)cccc6F)c6ccc([nH]6)c(-c6c(F)cccc6F)c6nc(c(-c7c(F)cccc7F)c7ccc4[nH]7)C=C6)C=C5)cc3)c2)cc1
REMARK SMILES IDX 24 1 23 2 22 3 20 4 21 5 19 7 14 8 15 9 86 10 16 11 17 12
REMARK SMILES IDX 13 13 9 14 10 15 11 16 12 17 8 18 5 19 6 20 88 21 7 22 87 23
REMARK SMILES IDX 2 24 3 25 4 26 1 27 18 30 25 32 26 33 27 34 28 35 29 36
REMARK SMILES IDX 30 37 31 39 32 40 33 41 85 42 34 43 84 44 35 45 36 46 37 47
REMARK SMILES IDX 78 48 38 49 83 50 77 51 79 52 39 53 82 54 76 55 75 56 40 58
REMARK SMILES IDX 66 59 49 60 65 61 50 62 53 63 64 64 80 65 51 66 52 67 63 69
REMARK SMILES IDX 81 70 54 71 41 72 42 73 47 74 43 75 44 76 46 77 48 78 45 79
REMARK SMILES IDX 67 80 68 81 73 82 69 83 70 84 72 85 74 86 71 87 55 88 56 89
REMARK SMILES IDX 61 90 57 91 58 92 60 93 62 94 59 95
REMARK H PARENT 22 6 1 28 1 29 18 31 29 38 79 57 53 68
REMARK Flexibility Score: inf
ROOT
ATOM      1  C   UNL A   1      30.944  27.061  26.147  1.00  0.00     0.021 C 
ENDROOT
BRANCH   1   2
ATOM      2  C   UNL A   1      31.382  26.740  24.724  1.00  0.00     0.116 C 
BRANCH   2   3
ATOM      3  N   UNL A   1      30.924  25.462  24.203  1.00  0.00    -0.352 N 
ATOM      4  C   UNL A   1      31.220  24.159  24.554  1.00  0.00     0.255 C 
ATOM      5  O   UNL A   1      30.689  23.246  23.916  1.00  0.00    -0.269 OA
ATOM      6  H   UNL A   1      30.282  25.539  23.460  1.00  0.00     0.163 HD
BRANCH   4   7
ATOM      7  C   UNL A   1      32.194  23.785  25.621  1.00  0.00     0.082 A 
ATOM      8  C   UNL A   1      34.498  23.266  26.294  1.00  0.00     0.019 A 
ATOM      9  C   UNL A   1      34.022  22.774  27.510  1.00  0.00     0.016 A 
ATOM     10  C   UNL A   1      33.569  23.833  25.408  1.00  0.00     0.029 A 
ATOM     11  C   UNL A   1      32.659  22.858  27.817  1.00  0.00     0.048 A 
ATOM     12  C   UNL A   1      31.751  23.345  26.873  1.00  0.00     0.128 A 
BRANCH   8  13
ATOM     13  C   UNL A   1      35.894  23.044  25.862  1.00  0.00     0.144 A 
ATOM     14  N   UNL A   1      36.435  21.831  25.415  1.00  0.00    -0.300 N 
ATOM     15  C   UNL A   1      37.797  21.917  25.591  1.00  0.00     0.113 A 
ATOM     16  C   UNL A   1      38.040  23.216  25.959  1.00  0.00     0.132 A 
ATOM     17  N   UNL A   1      36.870  23.909  26.093  1.00  0.00    -0.236 NA
BRANCH  14  18
ATOM     18  C   UNL A   1      35.730  20.685  24.969  1.00  0.00     0.047 A 
ATOM     19  C   UNL A   1      34.275  18.376  24.444  1.00  0.00     0.082 A 
ATOM     20  C   UNL A   1      33.617  19.608  24.508  1.00  0.00     0.024 A 
ATOM     21  C   UNL A   1      35.662  18.295  24.610  1.00  0.00     0.024 A 
ATOM     22  C   UNL A   1      34.344  20.765  24.775  1.00  0.00     0.028 A 
ATOM     23  C   UNL A   1      36.399  19.458  24.852  1.00  0.00     0.028 A 
BRANCH  19  24
ATOM     24  S   UNL A   1      33.289  16.945  24.120  1.00  0.00     0.238 S 
ATOM     25  O   UNL A   1      32.295  16.839  25.152  1.00  0.00    -0.207 OA
ATOM     26  O   UNL A   1      34.181  15.861  23.760  1.00  0.00    -0.207 OA
BRANCH  24  27
ATOM     27  N   UNL A   1      32.444  17.314  22.714  1.00  0.00    -0.225 NA
ATOM     28  H   UNL A   1      31.984  16.475  22.362  1.00  0.00     0.137 HD
ATOM     29  H   UNL A   1      33.092  17.666  22.009  1.00  0.00     0.137 HD
ENDBRANCH  24  27
ENDBRANCH  19  24
ENDBRANCH  14  18
ENDBRANCH   8  13
BRANCH  12  30
ATOM     30  O   UNL A   1      30.433  23.353  27.241  1.00  0.00    -0.507 OA
ATOM     31  H   UNL A   1      29.805  22.865  26.746  1.00  0.00     0.293 HD
ENDBRANCH  12  30
ENDBRANCH   4   7
ENDBRANCH   2   3
ENDBRANCH   1   2
BRANCH   1  32
ATOM     32  C   UNL A   1      31.986  27.692  27.065  1.00  0.00     0.002 C 
BRANCH  32  33
ATOM     33  C   UNL A   1      33.215  28.338  26.408  1.00  0.00     0.002 C 
BRANCH  33  34
ATOM     34  C   UNL A   1      33.294  29.871  26.365  1.00  0.00     0.021 C 
BRANCH  34  35
ATOM     35  C   UNL A   1      33.615  30.529  27.694  1.00  0.00     0.116 C 
BRANCH  35  36
ATOM     36  N   UNL A   1      34.241  31.853  27.584  1.00  0.00    -0.352 N 
ATOM     37  C   UNL A   1      35.494  32.252  28.041  1.00  0.00     0.251 C 
ATOM     38  H   UNL A   1      33.708  32.544  27.129  1.00  0.00     0.163 HD
ATOM     39  O   UNL A   1      35.765  33.434  28.217  1.00  0.00    -0.269 OA
BRANCH  37  40
ATOM     40  C   UNL A   1      36.505  31.208  28.291  1.00  0.00     0.039 A 
ATOM     41  C   UNL A   1      36.510  29.943  27.700  1.00  0.00     0.014 A 
ATOM     42  C   UNL A   1      37.544  31.592  29.119  1.00  0.00     0.014 A 
ATOM     43  C   UNL A   1      37.599  29.110  27.962  1.00  0.00     0.010 A 
ATOM     44  C   UNL A   1      38.742  30.982  28.967  1.00  0.00     0.010 A 
ATOM     45  C   UNL A   1      38.713  29.655  28.619  1.00  0.00    -0.014 A 
BRANCH  45  46
ATOM     46  C   UNL A   1      39.916  28.923  28.959  1.00  0.00     0.031 A 
ATOM     47  C   UNL A   1      40.098  28.729  30.407  1.00  0.00     0.074 A 
ATOM     48  C   UNL A   1      40.690  28.299  28.040  1.00  0.00     0.049 A 
ATOM     49  N   UNL A   1      40.889  29.399  31.170  1.00  0.00    -0.248 NA
ATOM     50  C   UNL A   1      39.176  27.837  31.122  1.00  0.00     0.031 C 
ATOM     51  C   UNL A   1      40.505  28.142  26.587  1.00  0.00     0.029 A 
ATOM     52  N   UNL A   1      41.844  27.614  28.258  1.00  0.00    -0.354 N 
ATOM     53  C   UNL A   1      40.732  28.864  32.439  1.00  0.00     0.074 A 
ATOM     54  C   UNL A   1      39.539  28.057  32.389  1.00  0.00     0.031 C 
ATOM     55  C   UNL A   1      41.404  27.254  26.099  1.00  0.00     0.029 A 
ATOM     56  C   UNL A   1      42.331  26.911  27.160  1.00  0.00     0.049 A 
ATOM     57  H   UNL A   1      42.301  27.615  29.129  1.00  0.00     0.167 HD
ATOM     58  C   UNL A   1      41.742  28.944  33.347  1.00  0.00     0.037 A 
ATOM     59  C   UNL A   1      43.435  26.121  27.143  1.00  0.00     0.037 A 
ATOM     60  C   UNL A   1      42.765  29.863  32.903  1.00  0.00     0.049 A 
ATOM     61  C   UNL A   1      44.291  26.562  28.276  1.00  0.00     0.074 A 
ATOM     62  C   UNL A   1      42.797  31.216  32.621  1.00  0.00     0.029 A 
ATOM     63  N   UNL A   1      43.862  29.326  32.272  1.00  0.00    -0.354 N 
ATOM     64  N   UNL A   1      44.870  27.731  28.315  1.00  0.00    -0.248 NA
ATOM     65  C   UNL A   1      44.071  25.931  29.570  1.00  0.00     0.031 C 
ATOM     66  C   UNL A   1      43.608  31.330  31.453  1.00  0.00     0.029 A 
ATOM     67  C   UNL A   1      44.090  30.059  31.134  1.00  0.00     0.049 A 
ATOM     68  H   UNL A   1      44.390  28.553  32.581  1.00  0.00     0.167 HD
ATOM     69  C   UNL A   1      44.698  28.172  29.619  1.00  0.00     0.074 A 
ATOM     70  C   UNL A   1      44.255  26.991  30.363  1.00  0.00     0.031 C 
ATOM     71  C   UNL A   1      44.637  29.505  29.915  1.00  0.00     0.037 A 
BRANCH  58  72
ATOM     72  C   UNL A   1      42.003  27.933  34.425  1.00  0.00     0.057 A 
ATOM     73  C   UNL A   1      41.770  28.293  35.763  1.00  0.00     0.134 A 
ATOM     74  C   UNL A   1      42.742  26.749  34.236  1.00  0.00     0.134 A 
ATOM     75  F   UNL A   1      41.078  29.402  36.067  1.00  0.00    -0.206 F 
ATOM     76  C   UNL A   1      42.309  27.573  36.835  1.00  0.00     0.040 A 
ATOM     77  C   UNL A   1      43.244  25.996  35.299  1.00  0.00     0.040 A 
ATOM     78  F   UNL A   1      43.108  26.316  33.024  1.00  0.00    -0.206 F 
ATOM     79  C   UNL A   1      43.059  26.427  36.604  1.00  0.00     0.006 A 
ENDBRANCH  58  72
BRANCH  59  80
ATOM     80  C   UNL A   1      43.629  24.827  26.447  1.00  0.00     0.057 A 
ATOM     81  C   UNL A   1      42.809  23.719  26.711  1.00  0.00     0.134 A 
ATOM     82  C   UNL A   1      44.434  24.735  25.298  1.00  0.00     0.134 A 
ATOM     83  F   UNL A   1      41.974  23.726  27.760  1.00  0.00    -0.206 F 
ATOM     84  C   UNL A   1      42.772  22.598  25.867  1.00  0.00     0.040 A 
ATOM     85  C   UNL A   1      44.406  23.623  24.448  1.00  0.00     0.040 A 
ATOM     86  F   UNL A   1      45.205  25.762  24.913  1.00  0.00    -0.206 F 
ATOM     87  C   UNL A   1      43.563  22.554  24.723  1.00  0.00     0.006 A 
ENDBRANCH  59  80
BRANCH  71  88
ATOM     88  C   UNL A   1      44.954  30.478  28.808  1.00  0.00     0.057 A 
ATOM     89  C   UNL A   1      43.992  31.026  27.945  1.00  0.00     0.134 A 
ATOM     90  C   UNL A   1      46.250  30.987  28.702  1.00  0.00     0.134 A 
ATOM     91  F   UNL A   1      42.705  30.682  28.036  1.00  0.00    -0.206 F 
ATOM     92  C   UNL A   1      44.313  32.001  26.994  1.00  0.00     0.040 A 
ATOM     93  C   UNL A   1      46.580  31.981  27.777  1.00  0.00     0.040 A 
ATOM     94  F   UNL A   1      47.212  30.558  29.535  1.00  0.00    -0.206 F 
ATOM     95  C   UNL A   1      45.613  32.484  26.910  1.00  0.00     0.006 A 
ENDBRANCH  71  88
ENDBRANCH  45  46
ENDBRANCH  37  40
ENDBRANCH  35  36
ENDBRANCH  34  35
ENDBRANCH  33  34
ENDBRANCH  32  33
ENDBRANCH   1  32
TORSDOF 18
ENDMDL
