MODEL 1
REMARK VINA RESULT:     -13.9      0.000      0.000
REMARK SMILES CN1C(=O)C[C@@H](C(=O)NCCCCCCNC(=O)c2ccc(-c3c4nc(c(-c5c(F)cccc5F)c5ccc([nH]5)c(-c5c(F)cccc5F)c5nc(c(-c6c(F)cccc6F)c6ccc3[nH]6)C=C5)C=C4)cc2)C12CCN(C(=O)c1cccc3ccccc13)CC2
REMARK SMILES IDX 13 1 12 2 11 3 10 4 9 5 7 6 8 7 6 9 1 10 2 11 3 12 73 13
REMARK SMILES IDX 4 14 5 15 74 16 90 17 75 18 89 19 76 20 77 21 78 22 79 23
REMARK SMILES IDX 80 24 88 25 81 26 83 27 87 28 82 29 84 30 86 31 85 32 14 33
REMARK SMILES IDX 15 34 16 35 17 36 18 38 19 39 20 40 72 41 21 42 71 43 22 44
REMARK SMILES IDX 23 45 24 46 65 47 25 48 70 49 64 50 66 51 26 52 69 53 63 54
REMARK SMILES IDX 62 55 27 57 53 58 36 59 52 60 37 61 40 62 51 63 67 64 38 65
REMARK SMILES IDX 39 66 50 68 68 69 41 70 28 71 29 72 34 73 30 74 31 75 33 76
REMARK SMILES IDX 35 77 32 78 54 79 55 80 60 81 56 82 57 83 59 84 61 85 58 86
REMARK SMILES IDX 42 87 43 88 48 89 44 90 45 91 47 92 49 93 46 94
REMARK H PARENT 9 8 16 37 66 56 40 67
REMARK Flexibility Score: inf
ROOT
ATOM      1  C   UNL A   1      40.293  21.421  26.893  1.00  0.00     0.002 C 
ENDROOT
BRANCH   1   2
ATOM      2  C   UNL A   1      39.164  22.076  26.103  1.00  0.00     0.002 C 
BRANCH   2   3
ATOM      3  C   UNL A   1      38.895  23.529  26.488  1.00  0.00     0.021 C 
BRANCH   3   4
ATOM      4  C   UNL A   1      37.510  24.052  26.084  1.00  0.00     0.116 C 
BRANCH   4   5
ATOM      5  N   UNL A   1      37.067  23.578  24.785  1.00  0.00    -0.356 N 
ATOM      6  C   UNL A   1      36.162  22.645  24.395  1.00  0.00     0.226 C 
ATOM      7  O   UNL A   1      36.007  22.520  23.174  1.00  0.00    -0.275 OA
ATOM      8  H   UNL A   1      37.515  24.025  24.032  1.00  0.00     0.163 HD
BRANCH   6   9
ATOM      9  C   UNL A   1      35.353  21.737  25.332  1.00  0.00     0.113 C 
ATOM     10  C   UNL A   1      32.516  19.784  23.832  1.00  0.00     0.147 C 
ATOM     11  N   UNL A   1      33.718  20.304  24.458  1.00  0.00    -0.339 N 
ATOM     12  C   UNL A   1      34.841  19.503  24.640  1.00  0.00     0.223 C 
ATOM     13  C   UNL A   1      33.825  21.622  25.111  1.00  0.00     0.058 C 
ATOM     14  O   UNL A   1      34.979  18.351  24.276  1.00  0.00    -0.275 OA
ATOM     15  C   UNL A   1      35.894  20.309  25.346  1.00  0.00     0.116 C 
ATOM     16  C   UNL A   1      33.253  22.776  24.272  1.00  0.00     0.051 C 
ATOM     17  C   UNL A   1      33.026  21.585  26.449  1.00  0.00     0.051 C 
ATOM     18  C   UNL A   1      33.285  24.116  24.999  1.00  0.00     0.122 C 
ATOM     19  C   UNL A   1      32.844  22.963  27.103  1.00  0.00     0.122 C 
ATOM     20  N   UNL A   1      32.412  23.978  26.139  1.00  0.00    -0.338 N 
ATOM     21  C   UNL A   1      31.177  24.604  26.275  1.00  0.00     0.254 C 
ATOM     22  O   UNL A   1      30.361  24.254  27.130  1.00  0.00    -0.269 OA
BRANCH  21  23
ATOM     23  C   UNL A   1      30.826  25.828  25.497  1.00  0.00     0.047 A 
ATOM     24  C   UNL A   1      30.239  25.544  24.252  1.00  0.00     0.014 A 
ATOM     25  C   UNL A   1      31.239  27.161  25.811  1.00  0.00    -0.006 A 
ATOM     26  C   UNL A   1      30.125  26.532  23.280  1.00  0.00     0.001 A 
ATOM     27  C   UNL A   1      31.158  28.139  24.785  1.00  0.00    -0.018 A 
ATOM     28  C   UNL A   1      31.716  27.607  27.065  1.00  0.00     0.009 A 
ATOM     29  C   UNL A   1      30.624  27.805  23.532  1.00  0.00     0.009 A 
ATOM     30  C   UNL A   1      31.609  29.450  25.009  1.00  0.00     0.009 A 
ATOM     31  C   UNL A   1      32.046  28.946  27.311  1.00  0.00     0.001 A 
ATOM     32  C   UNL A   1      32.026  29.861  26.271  1.00  0.00     0.001 A 
ENDBRANCH  21  23
ENDBRANCH   6   9
ENDBRANCH   4   5
ENDBRANCH   3   4
ENDBRANCH   2   3
ENDBRANCH   1   2
BRANCH   1  33
ATOM     33  C   UNL A   1      41.601  21.262  26.114  1.00  0.00     0.021 C 
BRANCH  33  34
ATOM     34  C   UNL A   1      42.794  21.974  26.742  1.00  0.00     0.116 C 
BRANCH  34  35
ATOM     35  N   UNL A   1      43.637  22.601  25.737  1.00  0.00    -0.352 N 
ATOM     36  C   UNL A   1      43.782  23.939  25.467  1.00  0.00     0.251 C 
ATOM     37  H   UNL A   1      44.171  21.989  25.181  1.00  0.00     0.163 HD
ATOM     38  O   UNL A   1      44.351  24.321  24.452  1.00  0.00    -0.269 OA
BRANCH  36  39
ATOM     39  C   UNL A   1      43.222  24.911  26.423  1.00  0.00     0.039 A 
ATOM     40  C   UNL A   1      42.210  24.509  27.297  1.00  0.00     0.014 A 
ATOM     41  C   UNL A   1      43.744  26.207  26.480  1.00  0.00     0.014 A 
ATOM     42  C   UNL A   1      41.758  25.396  28.274  1.00  0.00     0.010 A 
ATOM     43  C   UNL A   1      43.347  27.059  27.501  1.00  0.00     0.010 A 
ATOM     44  C   UNL A   1      42.346  26.666  28.404  1.00  0.00    -0.014 A 
BRANCH  44  45
ATOM     45  C   UNL A   1      41.926  27.620  29.460  1.00  0.00     0.031 A 
ATOM     46  C   UNL A   1      42.622  27.596  30.793  1.00  0.00     0.074 A 
ATOM     47  C   UNL A   1      40.869  28.430  29.259  1.00  0.00     0.049 A 
ATOM     48  N   UNL A   1      42.319  28.228  31.897  1.00  0.00    -0.248 NA
ATOM     49  C   UNL A   1      43.800  26.720  30.907  1.00  0.00     0.031 C 
ATOM     50  C   UNL A   1      40.096  28.526  28.018  1.00  0.00     0.029 A 
ATOM     51  N   UNL A   1      40.247  29.313  30.105  1.00  0.00    -0.354 N 
ATOM     52  C   UNL A   1      43.245  27.802  32.841  1.00  0.00     0.074 A 
ATOM     53  C   UNL A   1      44.096  26.829  32.194  1.00  0.00     0.031 C 
ATOM     54  C   UNL A   1      39.114  29.429  28.180  1.00  0.00     0.029 A 
ATOM     55  C   UNL A   1      39.154  29.935  29.550  1.00  0.00     0.049 A 
ATOM     56  H   UNL A   1      40.555  29.486  31.024  1.00  0.00     0.167 HD
ATOM     57  C   UNL A   1      43.379  28.198  34.127  1.00  0.00     0.037 A 
ATOM     58  C   UNL A   1      38.272  30.797  30.092  1.00  0.00     0.037 A 
ATOM     59  C   UNL A   1      42.554  29.197  34.752  1.00  0.00     0.049 A 
ATOM     60  C   UNL A   1      38.432  31.199  31.534  1.00  0.00     0.074 A 
ATOM     61  C   UNL A   1      42.659  29.723  36.027  1.00  0.00     0.029 A 
ATOM     62  N   UNL A   1      41.470  29.816  34.149  1.00  0.00    -0.354 N 
ATOM     63  N   UNL A   1      39.354  30.841  32.396  1.00  0.00    -0.248 NA
ATOM     64  C   UNL A   1      37.429  32.124  32.082  1.00  0.00     0.031 C 
ATOM     65  C   UNL A   1      41.602  30.617  36.217  1.00  0.00     0.029 A 
ATOM     66  C   UNL A   1      40.879  30.696  35.038  1.00  0.00     0.049 A 
ATOM     67  H   UNL A   1      41.165  29.653  33.227  1.00  0.00     0.167 HD
ATOM     68  C   UNL A   1      39.069  31.534  33.567  1.00  0.00     0.074 A 
ATOM     69  C   UNL A   1      37.891  32.333  33.306  1.00  0.00     0.031 C 
ATOM     70  C   UNL A   1      39.727  31.512  34.752  1.00  0.00     0.037 A 
BRANCH  57  71
ATOM     71  C   UNL A   1      44.451  27.553  34.955  1.00  0.00     0.057 A 
ATOM     72  C   UNL A   1      45.742  28.088  35.048  1.00  0.00     0.134 A 
ATOM     73  C   UNL A   1      44.167  26.415  35.720  1.00  0.00     0.134 A 
ATOM     74  F   UNL A   1      46.084  29.169  34.332  1.00  0.00    -0.206 F 
ATOM     75  C   UNL A   1      46.717  27.505  35.861  1.00  0.00     0.040 A 
ATOM     76  C   UNL A   1      45.123  25.840  36.558  1.00  0.00     0.040 A 
ATOM     77  F   UNL A   1      42.948  25.854  35.682  1.00  0.00    -0.206 F 
ATOM     78  C   UNL A   1      46.404  26.384  36.627  1.00  0.00     0.006 A 
ENDBRANCH  57  71
BRANCH  58  79
ATOM     79  C   UNL A   1      37.155  31.349  29.281  1.00  0.00     0.057 A 
ATOM     80  C   UNL A   1      37.207  32.654  28.777  1.00  0.00     0.134 A 
ATOM     81  C   UNL A   1      35.991  30.612  29.031  1.00  0.00     0.134 A 
ATOM     82  F   UNL A   1      38.287  33.419  28.998  1.00  0.00    -0.206 F 
ATOM     83  C   UNL A   1      36.134  33.219  28.087  1.00  0.00     0.040 A 
ATOM     84  C   UNL A   1      34.921  31.152  28.316  1.00  0.00     0.040 A 
ATOM     85  F   UNL A   1      35.877  29.352  29.479  1.00  0.00    -0.206 F 
ATOM     86  C   UNL A   1      34.985  32.465  27.853  1.00  0.00     0.006 A 
ENDBRANCH  58  79
BRANCH  70  87
ATOM     87  C   UNL A   1      39.241  32.426  35.837  1.00  0.00     0.057 A 
ATOM     88  C   UNL A   1      38.340  32.004  36.821  1.00  0.00     0.134 A 
ATOM     89  C   UNL A   1      39.745  33.731  35.937  1.00  0.00     0.134 A 
ATOM     90  F   UNL A   1      37.811  30.772  36.775  1.00  0.00    -0.206 F 
ATOM     91  C   UNL A   1      37.946  32.851  37.859  1.00  0.00     0.040 A 
ATOM     92  C   UNL A   1      39.383  34.574  36.987  1.00  0.00     0.040 A 
ATOM     93  F   UNL A   1      40.621  34.194  35.032  1.00  0.00    -0.206 F 
ATOM     94  C   UNL A   1      38.478  34.136  37.950  1.00  0.00     0.006 A 
ENDBRANCH  70  87
ENDBRANCH  44  45
ENDBRANCH  36  39
ENDBRANCH  34  35
ENDBRANCH  33  34
ENDBRANCH   1  33
TORSDOF 14
ENDMDL
MODEL 2
REMARK VINA RESULT:     -13.5      4.288      6.482
REMARK SMILES CN1C(=O)C[C@@H](C(=O)NCCCCCCNC(=O)c2ccc(-c3c4nc(c(-c5c(F)cccc5F)c5ccc([nH]5)c(-c5c(F)cccc5F)c5nc(c(-c6c(F)cccc6F)c6ccc3[nH]6)C=C5)C=C4)cc2)C12CCN(C(=O)c1cccc3ccccc13)CC2
REMARK SMILES IDX 13 1 12 2 11 3 10 4 9 5 7 6 8 7 6 9 1 10 2 11 3 12 73 13
REMARK SMILES IDX 4 14 5 15 74 16 90 17 75 18 89 19 76 20 77 21 78 22 79 23
REMARK SMILES IDX 80 24 88 25 81 26 83 27 87 28 82 29 84 30 86 31 85 32 14 33
REMARK SMILES IDX 15 34 16 35 17 36 18 38 19 39 20 40 72 41 21 42 71 43 22 44
REMARK SMILES IDX 23 45 24 46 65 47 25 48 70 49 64 50 66 51 26 52 69 53 63 54
REMARK SMILES IDX 62 55 27 57 53 58 36 59 52 60 37 61 40 62 51 63 67 64 38 65
REMARK SMILES IDX 39 66 50 68 68 69 41 70 28 71 29 72 34 73 30 74 31 75 33 76
REMARK SMILES IDX 35 77 32 78 54 79 55 80 60 81 56 82 57 83 59 84 61 85 58 86
REMARK SMILES IDX 42 87 43 88 48 89 44 90 45 91 47 92 49 93 46 94
REMARK H PARENT 9 8 16 37 66 56 40 67
REMARK Flexibility Score: inf
ROOT
ATOM      1  C   UNL A   1      40.951  21.424  26.147  1.00  0.00     0.002 C 
ENDROOT
BRANCH   1   2
ATOM      2  C   UNL A   1      39.488  21.859  26.151  1.00  0.00     0.002 C 
BRANCH   2   3
ATOM      3  C   UNL A   1      39.282  23.353  26.385  1.00  0.00     0.021 C 
BRANCH   3   4
ATOM      4  C   UNL A   1      37.839  23.837  26.193  1.00  0.00     0.116 C 
BRANCH   4   5
ATOM      5  N   UNL A   1      37.281  23.500  24.895  1.00  0.00    -0.356 N 
ATOM      6  C   UNL A   1      36.286  22.668  24.498  1.00  0.00     0.226 C 
ATOM      7  O   UNL A   1      36.047  22.652  23.284  1.00  0.00    -0.275 OA
ATOM      8  H   UNL A   1      37.715  23.974  24.149  1.00  0.00     0.163 HD
BRANCH   6   9
ATOM      9  C   UNL A   1      35.470  21.748  25.416  1.00  0.00     0.113 C 
ATOM     10  C   UNL A   1      32.670  19.785  23.861  1.00  0.00     0.147 C 
ATOM     11  N   UNL A   1      33.859  20.309  24.508  1.00  0.00    -0.339 N 
ATOM     12  C   UNL A   1      34.984  19.515  24.702  1.00  0.00     0.223 C 
ATOM     13  C   UNL A   1      33.946  21.624  25.172  1.00  0.00     0.058 C 
ATOM     14  O   UNL A   1      35.136  18.367  24.331  1.00  0.00    -0.275 OA
ATOM     15  C   UNL A   1      36.022  20.323  25.428  1.00  0.00     0.116 C 
ATOM     16  C   UNL A   1      33.378  22.779  24.333  1.00  0.00     0.051 C 
ATOM     17  C   UNL A   1      33.129  21.571  26.498  1.00  0.00     0.051 C 
ATOM     18  C   UNL A   1      33.390  24.115  25.069  1.00  0.00     0.122 C 
ATOM     19  C   UNL A   1      32.926  22.943  27.159  1.00  0.00     0.122 C 
ATOM     20  N   UNL A   1      32.501  23.962  26.195  1.00  0.00    -0.338 N 
ATOM     21  C   UNL A   1      31.260  24.578  26.317  1.00  0.00     0.254 C 
ATOM     22  O   UNL A   1      30.434  24.217  27.157  1.00  0.00    -0.269 OA
BRANCH  21  23
ATOM     23  C   UNL A   1      30.912  25.805  25.542  1.00  0.00     0.047 A 
ATOM     24  C   UNL A   1      30.320  25.525  24.298  1.00  0.00     0.014 A 
ATOM     25  C   UNL A   1      31.330  27.135  25.858  1.00  0.00    -0.006 A 
ATOM     26  C   UNL A   1      30.207  26.516  23.329  1.00  0.00     0.001 A 
ATOM     27  C   UNL A   1      31.250  28.116  24.834  1.00  0.00    -0.018 A 
ATOM     28  C   UNL A   1      31.813  27.578  27.111  1.00  0.00     0.009 A 
ATOM     29  C   UNL A   1      30.712  27.787  23.582  1.00  0.00     0.009 A 
ATOM     30  C   UNL A   1      31.707  29.425  25.059  1.00  0.00     0.009 A 
ATOM     31  C   UNL A   1      32.148  28.915  27.359  1.00  0.00     0.001 A 
ATOM     32  C   UNL A   1      32.129  29.832  26.321  1.00  0.00     0.001 A 
ENDBRANCH  21  23
ENDBRANCH   6   9
ENDBRANCH   4   5
ENDBRANCH   3   4
ENDBRANCH   2   3
ENDBRANCH   1   2
BRANCH   1  33
ATOM     33  C   UNL A   1      41.166  19.929  25.897  1.00  0.00     0.021 C 
BRANCH  33  34
ATOM     34  C   UNL A   1      42.438  19.367  26.521  1.00  0.00     0.116 C 
BRANCH  34  35
ATOM     35  N   UNL A   1      43.328  18.807  25.517  1.00  0.00    -0.352 N 
ATOM     36  C   UNL A   1      44.199  19.471  24.690  1.00  0.00     0.251 C 
ATOM     37  H   UNL A   1      43.304  17.828  25.419  1.00  0.00     0.163 HD
ATOM     38  O   UNL A   1      44.725  18.905  23.740  1.00  0.00    -0.269 OA
BRANCH  36  39
ATOM     39  C   UNL A   1      44.476  20.893  24.962  1.00  0.00     0.039 A 
ATOM     40  C   UNL A   1      44.020  21.864  24.069  1.00  0.00     0.014 A 
ATOM     41  C   UNL A   1      45.145  21.257  26.135  1.00  0.00     0.014 A 
ATOM     42  C   UNL A   1      44.187  23.214  24.382  1.00  0.00     0.010 A 
ATOM     43  C   UNL A   1      45.240  22.598  26.480  1.00  0.00     0.010 A 
ATOM     44  C   UNL A   1      44.768  23.590  25.604  1.00  0.00    -0.014 A 
BRANCH  44  45
ATOM     45  C   UNL A   1      44.919  25.013  25.995  1.00  0.00     0.031 A 
ATOM     46  C   UNL A   1      46.279  25.654  25.933  1.00  0.00     0.074 A 
ATOM     47  C   UNL A   1      43.869  25.694  26.493  1.00  0.00     0.049 A 
ATOM     48  N   UNL A   1      46.663  26.825  26.369  1.00  0.00    -0.248 NA
ATOM     49  C   UNL A   1      47.358  24.856  25.326  1.00  0.00     0.031 C 
ATOM     50  C   UNL A   1      42.506  25.174  26.627  1.00  0.00     0.029 A 
ATOM     51  N   UNL A   1      43.788  26.966  27.000  1.00  0.00    -0.354 N 
ATOM     52  C   UNL A   1      48.028  26.890  26.120  1.00  0.00     0.074 A 
ATOM     53  C   UNL A   1      48.414  25.628  25.531  1.00  0.00     0.031 C 
ATOM     54  C   UNL A   1      41.723  26.124  27.166  1.00  0.00     0.029 A 
ATOM     55  C   UNL A   1      42.538  27.299  27.464  1.00  0.00     0.049 A 
ATOM     56  H   UNL A   1      44.555  27.584  27.029  1.00  0.00     0.167 HD
ATOM     57  C   UNL A   1      48.878  27.917  26.350  1.00  0.00     0.037 A 
ATOM     58  C   UNL A   1      42.105  28.415  28.081  1.00  0.00     0.037 A 
ATOM     59  C   UNL A   1      48.478  29.185  26.898  1.00  0.00     0.049 A 
ATOM     60  C   UNL A   1      43.081  29.531  28.347  1.00  0.00     0.074 A 
ATOM     61  C   UNL A   1      49.249  30.316  27.097  1.00  0.00     0.029 A 
ATOM     62  N   UNL A   1      47.199  29.488  27.337  1.00  0.00    -0.354 N 
ATOM     63  N   UNL A   1      44.354  29.607  28.043  1.00  0.00    -0.248 NA
ATOM     64  C   UNL A   1      42.561  30.717  29.043  1.00  0.00     0.031 C 
ATOM     65  C   UNL A   1      48.452  31.284  27.713  1.00  0.00     0.029 A 
ATOM     66  C   UNL A   1      47.168  30.778  27.836  1.00  0.00     0.049 A 
ATOM     67  H   UNL A   1      46.428  28.877  27.301  1.00  0.00     0.167 HD
ATOM     68  C   UNL A   1      44.772  30.864  28.466  1.00  0.00     0.074 A 
ATOM     69  C   UNL A   1      43.618  31.516  29.046  1.00  0.00     0.031 C 
ATOM     70  C   UNL A   1      46.001  31.427  28.378  1.00  0.00     0.037 A 
BRANCH  57  71
ATOM     71  C   UNL A   1      50.328  27.720  26.017  1.00  0.00     0.057 A 
ATOM     72  C   UNL A   1      50.821  27.882  24.717  1.00  0.00     0.134 A 
ATOM     73  C   UNL A   1      51.252  27.426  27.027  1.00  0.00     0.134 A 
ATOM     74  F   UNL A   1      49.988  28.152  23.701  1.00  0.00    -0.206 F 
ATOM     75  C   UNL A   1      52.181  27.743  24.429  1.00  0.00     0.040 A 
ATOM     76  C   UNL A   1      52.617  27.314  26.758  1.00  0.00     0.040 A 
ATOM     77  F   UNL A   1      50.848  27.263  28.296  1.00  0.00    -0.206 F 
ATOM     78  C   UNL A   1      53.084  27.469  25.454  1.00  0.00     0.006 A 
ENDBRANCH  57  71
BRANCH  58  79
ATOM     79  C   UNL A   1      40.683  28.551  28.494  1.00  0.00     0.057 A 
ATOM     80  C   UNL A   1      39.716  29.029  27.601  1.00  0.00     0.134 A 
ATOM     81  C   UNL A   1      40.262  28.257  29.796  1.00  0.00     0.134 A 
ATOM     82  F   UNL A   1      40.060  29.347  26.343  1.00  0.00    -0.206 F 
ATOM     83  C   UNL A   1      38.395  29.244  27.994  1.00  0.00     0.040 A 
ATOM     84  C   UNL A   1      38.937  28.437  30.197  1.00  0.00     0.040 A 
ATOM     85  F   UNL A   1      41.135  27.788  30.701  1.00  0.00    -0.206 F 
ATOM     86  C   UNL A   1      38.002  28.945  29.297  1.00  0.00     0.006 A 
ENDBRANCH  58  79
BRANCH  70  87
ATOM     87  C   UNL A   1      46.156  32.842  28.851  1.00  0.00     0.057 A 
ATOM     88  C   UNL A   1      46.591  33.153  30.144  1.00  0.00     0.134 A 
ATOM     89  C   UNL A   1      45.935  33.908  27.968  1.00  0.00     0.134 A 
ATOM     90  F   UNL A   1      46.808  32.180  31.042  1.00  0.00    -0.206 F 
ATOM     91  C   UNL A   1      46.788  34.476  30.548  1.00  0.00     0.040 A 
ATOM     92  C   UNL A   1      46.158  35.231  28.350  1.00  0.00     0.040 A 
ATOM     93  F   UNL A   1      45.527  33.678  26.711  1.00  0.00    -0.206 F 
ATOM     94  C   UNL A   1      46.582  35.518  29.645  1.00  0.00     0.006 A 
ENDBRANCH  70  87
ENDBRANCH  44  45
ENDBRANCH  36  39
ENDBRANCH  34  35
ENDBRANCH  33  34
ENDBRANCH   1  33
TORSDOF 14
ENDMDL
MODEL 3
REMARK VINA RESULT:     -13.4      0.434      1.645
REMARK SMILES CN1C(=O)C[C@@H](C(=O)NCCCCCCNC(=O)c2ccc(-c3c4nc(c(-c5c(F)cccc5F)c5ccc([nH]5)c(-c5c(F)cccc5F)c5nc(c(-c6c(F)cccc6F)c6ccc3[nH]6)C=C5)C=C4)cc2)C12CCN(C(=O)c1cccc3ccccc13)CC2
REMARK SMILES IDX 13 1 12 2 11 3 10 4 9 5 7 6 8 7 6 9 1 10 2 11 3 12 73 13
REMARK SMILES IDX 4 14 5 15 74 16 90 17 75 18 89 19 76 20 77 21 78 22 79 23
REMARK SMILES IDX 80 24 88 25 81 26 83 27 87 28 82 29 84 30 86 31 85 32 14 33
REMARK SMILES IDX 15 34 16 35 17 36 18 38 19 39 20 40 72 41 21 42 71 43 22 44
REMARK SMILES IDX 23 45 24 46 65 47 25 48 70 49 64 50 66 51 26 52 69 53 63 54
REMARK SMILES IDX 62 55 27 57 53 58 36 59 52 60 37 61 40 62 51 63 67 64 38 65
REMARK SMILES IDX 39 66 50 68 68 69 41 70 28 71 29 72 34 73 30 74 31 75 33 76
REMARK SMILES IDX 35 77 32 78 54 79 55 80 60 81 56 82 57 83 59 84 61 85 58 86
REMARK SMILES IDX 42 87 43 88 48 89 44 90 45 91 47 92 49 93 46 94
REMARK H PARENT 9 8 16 37 66 56 40 67
REMARK Flexibility Score: inf
ROOT
ATOM      1  C   UNL A   1      39.600  21.827  26.051  1.00  0.00     0.002 C 
ENDROOT
BRANCH   1   2
ATOM      2  C   UNL A   1      39.442  22.990  27.027  1.00  0.00     0.002 C 
BRANCH   2   3
ATOM      3  C   UNL A   1      38.821  24.241  26.411  1.00  0.00     0.021 C 
BRANCH   3   4
ATOM      4  C   UNL A   1      37.305  24.160  26.192  1.00  0.00     0.116 C 
BRANCH   4   5
ATOM      5  N   UNL A   1      36.934  23.669  24.876  1.00  0.00    -0.356 N 
ATOM      6  C   UNL A   1      36.071  22.713  24.450  1.00  0.00     0.226 C 
ATOM      7  O   UNL A   1      35.976  22.579  23.223  1.00  0.00    -0.275 OA
ATOM      8  H   UNL A   1      37.405  24.124  24.143  1.00  0.00     0.163 HD
BRANCH   6   9
ATOM      9  C   UNL A   1      35.242  21.789  25.353  1.00  0.00     0.113 C 
ATOM     10  C   UNL A   1      32.469  19.827  23.749  1.00  0.00     0.147 C 
ATOM     11  N   UNL A   1      33.647  20.351  24.416  1.00  0.00    -0.339 N 
ATOM     12  C   UNL A   1      34.770  19.557  24.625  1.00  0.00     0.223 C 
ATOM     13  C   UNL A   1      33.723  21.664  25.084  1.00  0.00     0.058 C 
ATOM     14  O   UNL A   1      34.929  18.411  24.254  1.00  0.00    -0.275 OA
ATOM     15  C   UNL A   1      35.795  20.365  25.370  1.00  0.00     0.116 C 
ATOM     16  C   UNL A   1      33.166  22.821  24.239  1.00  0.00     0.051 C 
ATOM     17  C   UNL A   1      32.884  21.607  26.397  1.00  0.00     0.051 C 
ATOM     18  C   UNL A   1      33.164  24.154  24.980  1.00  0.00     0.122 C 
ATOM     19  C   UNL A   1      32.670  22.976  27.059  1.00  0.00     0.122 C 
ATOM     20  N   UNL A   1      32.258  23.998  26.091  1.00  0.00    -0.338 N 
ATOM     21  C   UNL A   1      31.015  24.611  26.195  1.00  0.00     0.254 C 
ATOM     22  O   UNL A   1      30.176  24.247  27.022  1.00  0.00    -0.269 OA
BRANCH  21  23
ATOM     23  C   UNL A   1      30.677  25.841  25.418  1.00  0.00     0.047 A 
ATOM     24  C   UNL A   1      30.098  25.563  24.168  1.00  0.00     0.014 A 
ATOM     25  C   UNL A   1      31.096  27.169  25.739  1.00  0.00    -0.006 A 
ATOM     26  C   UNL A   1      29.996  26.556  23.199  1.00  0.00     0.001 A 
ATOM     27  C   UNL A   1      31.028  28.151  24.716  1.00  0.00    -0.018 A 
ATOM     28  C   UNL A   1      31.567  27.609  26.998  1.00  0.00     0.009 A 
ATOM     29  C   UNL A   1      30.502  27.824  23.458  1.00  0.00     0.009 A 
ATOM     30  C   UNL A   1      31.486  29.459  24.948  1.00  0.00     0.009 A 
ATOM     31  C   UNL A   1      31.903  28.945  27.251  1.00  0.00     0.001 A 
ATOM     32  C   UNL A   1      31.897  29.863  26.214  1.00  0.00     0.001 A 
ENDBRANCH  21  23
ENDBRANCH   6   9
ENDBRANCH   4   5
ENDBRANCH   3   4
ENDBRANCH   2   3
ENDBRANCH   1   2
BRANCH   1  33
ATOM     33  C   UNL A   1      40.706  20.835  26.422  1.00  0.00     0.021 C 
BRANCH  33  34
ATOM     34  C   UNL A   1      42.008  21.489  26.870  1.00  0.00     0.116 C 
BRANCH  34  35
ATOM     35  N   UNL A   1      42.773  21.996  25.742  1.00  0.00    -0.352 N 
ATOM     36  C   UNL A   1      43.116  23.295  25.466  1.00  0.00     0.251 C 
ATOM     37  H   UNL A   1      43.084  21.321  25.097  1.00  0.00     0.163 HD
ATOM     38  O   UNL A   1      43.568  23.611  24.373  1.00  0.00    -0.269 OA
BRANCH  36  39
ATOM     39  C   UNL A   1      42.912  24.312  26.514  1.00  0.00     0.039 A 
ATOM     40  C   UNL A   1      43.001  25.665  26.184  1.00  0.00     0.014 A 
ATOM     41  C   UNL A   1      42.582  23.912  27.813  1.00  0.00     0.014 A 
ATOM     42  C   UNL A   1      42.700  26.626  27.150  1.00  0.00     0.010 A 
ATOM     43  C   UNL A   1      42.209  24.867  28.748  1.00  0.00     0.010 A 
ATOM     44  C   UNL A   1      42.270  26.234  28.429  1.00  0.00    -0.014 A 
BRANCH  44  45
ATOM     45  C   UNL A   1      41.896  27.224  29.468  1.00  0.00     0.031 A 
ATOM     46  C   UNL A   1      42.638  27.235  30.776  1.00  0.00     0.074 A 
ATOM     47  C   UNL A   1      40.839  28.038  29.277  1.00  0.00     0.049 A 
ATOM     48  N   UNL A   1      42.378  27.904  31.870  1.00  0.00    -0.248 NA
ATOM     49  C   UNL A   1      43.812  26.352  30.877  1.00  0.00     0.031 C 
ATOM     50  C   UNL A   1      40.025  28.103  28.062  1.00  0.00     0.029 A 
ATOM     51  N   UNL A   1      40.254  28.953  30.117  1.00  0.00    -0.354 N 
ATOM     52  C   UNL A   1      43.332  27.499  32.794  1.00  0.00     0.074 A 
ATOM     53  C   UNL A   1      44.153  26.499  32.148  1.00  0.00     0.031 C 
ATOM     54  C   UNL A   1      39.056  29.019  28.230  1.00  0.00     0.029 A 
ATOM     55  C   UNL A   1      39.148  29.567  29.580  1.00  0.00     0.049 A 
ATOM     56  H   UNL A   1      40.596  29.151  31.018  1.00  0.00     0.167 HD
ATOM     57  C   UNL A   1      43.515  27.933  34.062  1.00  0.00     0.037 A 
ATOM     58  C   UNL A   1      38.293  30.453  30.125  1.00  0.00     0.037 A 
ATOM     59  C   UNL A   1      42.720  28.959  34.683  1.00  0.00     0.049 A 
ATOM     60  C   UNL A   1      38.506  30.899  31.548  1.00  0.00     0.074 A 
ATOM     61  C   UNL A   1      42.874  29.524  35.936  1.00  0.00     0.029 A 
ATOM     62  N   UNL A   1      41.621  29.569  34.098  1.00  0.00    -0.354 N 
ATOM     63  N   UNL A   1      39.454  30.559  32.388  1.00  0.00    -0.248 NA
ATOM     64  C   UNL A   1      37.530  31.850  32.100  1.00  0.00     0.031 C 
ATOM     65  C   UNL A   1      41.832  30.433  36.135  1.00  0.00     0.029 A 
ATOM     66  C   UNL A   1      41.069  30.482  34.980  1.00  0.00     0.049 A 
ATOM     67  H   UNL A   1      41.283  29.381  33.193  1.00  0.00     0.167 HD
ATOM     68  C   UNL A   1      39.215  31.291  33.546  1.00  0.00     0.074 A 
ATOM     69  C   UNL A   1      38.036  32.092  33.301  1.00  0.00     0.031 C 
ATOM     70  C   UNL A   1      39.914  31.299  34.707  1.00  0.00     0.037 A 
BRANCH  57  71
ATOM     71  C   UNL A   1      44.610  27.304  34.872  1.00  0.00     0.057 A 
ATOM     72  C   UNL A   1      44.397  26.156  35.645  1.00  0.00     0.134 A 
ATOM     73  C   UNL A   1      45.911  27.819  34.824  1.00  0.00     0.134 A 
ATOM     74  F   UNL A   1      43.172  25.619  35.744  1.00  0.00    -0.206 F 
ATOM     75  C   UNL A   1      45.437  25.552  36.355  1.00  0.00     0.040 A 
ATOM     76  C   UNL A   1      46.964  27.208  35.505  1.00  0.00     0.040 A 
ATOM     77  F   UNL A   1      46.185  28.914  34.098  1.00  0.00    -0.206 F 
ATOM     78  C   UNL A   1      46.727  26.072  36.277  1.00  0.00     0.006 A 
ENDBRANCH  57  71
BRANCH  58  79
ATOM     79  C   UNL A   1      37.153  30.991  29.336  1.00  0.00     0.057 A 
ATOM     80  C   UNL A   1      36.024  30.204  29.072  1.00  0.00     0.134 A 
ATOM     81  C   UNL A   1      37.179  32.278  28.785  1.00  0.00     0.134 A 
ATOM     82  F   UNL A   1      35.946  28.955  29.557  1.00  0.00    -0.206 F 
ATOM     83  C   UNL A   1      34.983  30.660  28.263  1.00  0.00     0.040 A 
ATOM     84  C   UNL A   1      36.132  32.760  27.998  1.00  0.00     0.040 A 
ATOM     85  F   UNL A   1      38.227  33.087  29.003  1.00  0.00    -0.206 F 
ATOM     86  C   UNL A   1      35.035  31.945  27.724  1.00  0.00     0.006 A 
ENDBRANCH  58  79
BRANCH  70  87
ATOM     87  C   UNL A   1      39.474  32.252  35.779  1.00  0.00     0.057 A 
ATOM     88  C   UNL A   1      39.988  33.549  35.881  1.00  0.00     0.134 A 
ATOM     89  C   UNL A   1      38.462  31.883  36.677  1.00  0.00     0.134 A 
ATOM     90  F   UNL A   1      40.966  33.960  35.061  1.00  0.00    -0.206 F 
ATOM     91  C   UNL A   1      39.521  34.443  36.847  1.00  0.00     0.040 A 
ATOM     92  C   UNL A   1      37.966  32.778  37.625  1.00  0.00     0.040 A 
ATOM     93  F   UNL A   1      37.919  30.657  36.626  1.00  0.00    -0.206 F 
ATOM     94  C   UNL A   1      38.499  34.061  37.715  1.00  0.00     0.006 A 
ENDBRANCH  70  87
ENDBRANCH  44  45
ENDBRANCH  36  39
ENDBRANCH  34  35
ENDBRANCH  33  34
ENDBRANCH   1  33
TORSDOF 14
ENDMDL
