MODEL 1
REMARK VINA RESULT:     -12.8      0.000      0.000
REMARK SMILES CCn1ncc(NC(=O)[C@@H]2CCCC[C@@H]2C(=O)NCCCCCCNC(=O)c2ccc(-c3c4nc(c(-c5c(F)cccc5F)c5ccc([nH]5)c(-c5c(F)cccc5F)c5nc(c(-c6c(F)cccc6F)c6ccc3[nH]6)C=C5)C=C4)cc2)c1C(=O)Nc1cnn(C)c1C
REMARK SMILES IDX 20 1 19 2 18 3 16 4 17 5 15 7 10 8 11 9 12 10 14 11 13 12
REMARK SMILES IDX 8 13 7 14 9 16 6 17 3 18 4 19 82 20 5 21 2 22 1 23 83 24
REMARK SMILES IDX 84 25 85 26 86 28 87 29 91 30 88 31 89 32 92 33 90 34 21 35
REMARK SMILES IDX 22 36 23 37 24 38 25 39 26 40 27 42 28 43 29 44 81 45 30 46
REMARK SMILES IDX 80 47 31 48 32 49 33 50 74 51 34 52 79 53 73 54 75 55 35 56
REMARK SMILES IDX 78 57 72 58 71 59 36 61 62 62 45 63 61 64 46 65 49 66 60 67
REMARK SMILES IDX 76 68 47 69 48 70 59 72 77 73 50 74 37 75 38 76 43 77 39 78
REMARK SMILES IDX 40 79 42 80 44 81 41 82 63 83 64 84 69 85 65 86 66 87 68 88
REMARK SMILES IDX 70 89 67 90 51 91 52 92 57 93 53 94 54 95 56 96 58 97 55 98
REMARK H PARENT 18 6 7 15 85 27 25 41 75 60 49 71
REMARK Flexibility Score: inf
ROOT
ATOM      1  C   UNL A   1      31.236  26.889  26.992  1.00  0.00     0.021 C 
ENDROOT
BRANCH   1   2
ATOM      2  C   UNL A   1      32.333  25.971  26.478  1.00  0.00     0.116 C 
BRANCH   2   3
ATOM      3  N   UNL A   1      31.954  24.599  26.702  1.00  0.00    -0.356 N 
ATOM      4  C   UNL A   1      32.131  23.576  25.829  1.00  0.00     0.223 C 
ATOM      5  O   UNL A   1      31.306  22.665  25.854  1.00  0.00    -0.275 OA
ATOM      6  H   UNL A   1      31.528  24.385  27.564  1.00  0.00     0.163 HD
BRANCH   4   7
ATOM      7  C   UNL A   1      33.377  23.604  24.930  1.00  0.00     0.091 C 
ATOM      8  C   UNL A   1      33.445  22.321  24.048  1.00  0.00     0.091 C 
ATOM      9  C   UNL A   1      33.547  21.137  25.001  1.00  0.00     0.014 C 
ATOM     10  C   UNL A   1      34.788  21.217  25.870  1.00  0.00     0.001 C 
ATOM     11  C   UNL A   1      34.660  23.692  25.799  1.00  0.00     0.014 C 
ATOM     12  C   UNL A   1      34.826  22.475  26.700  1.00  0.00     0.001 C 
BRANCH   8  13
ATOM     13  C   UNL A   1      32.341  22.330  22.987  1.00  0.00     0.228 C 
ATOM     14  N   UNL A   1      31.848  23.425  22.348  1.00  0.00    -0.322 N 
ATOM     15  H   UNL A   1      31.041  23.225  21.820  1.00  0.00     0.170 HD
ATOM     16  O   UNL A   1      31.790  21.256  22.686  1.00  0.00    -0.274 OA
BRANCH  14  17
ATOM     17  C   UNL A   1      32.222  24.756  22.270  1.00  0.00     0.092 A 
ATOM     18  N   UNL A   1      32.865  26.778  22.689  1.00  0.00    -0.258 N 
ATOM     19  N   UNL A   1      33.662  26.403  21.663  1.00  0.00    -0.178 NA
ATOM     20  C   UNL A   1      31.754  25.957  22.836  1.00  0.00     0.150 A 
ATOM     21  C   UNL A   1      33.303  25.146  21.448  1.00  0.00     0.162 A 
BRANCH  18  22
ATOM     22  C   UNL A   1      33.411  27.820  23.534  1.00  0.00     0.142 C 
ATOM     23  C   UNL A   1      34.290  28.812  22.789  1.00  0.00     0.029 C 
ENDBRANCH  18  22
BRANCH  20  24
ATOM     24  C   UNL A   1      30.445  26.182  23.471  1.00  0.00     0.276 C 
ATOM     25  O   UNL A   1      29.852  25.256  24.033  1.00  0.00    -0.267 OA
ATOM     26  N   UNL A   1      29.997  27.459  23.769  1.00  0.00    -0.318 N 
ATOM     27  H   UNL A   1      29.924  27.664  24.729  1.00  0.00     0.170 HD
BRANCH  26  28
ATOM     28  C   UNL A   1      29.637  28.482  22.922  1.00  0.00     0.082 A 
ATOM     29  C   UNL A   1      30.427  29.220  22.021  1.00  0.00     0.161 A 
ATOM     30  C   UNL A   1      28.349  28.962  22.739  1.00  0.00     0.059 A 
ATOM     31  N   UNL A   1      29.744  30.218  21.458  1.00  0.00    -0.179 NA
ATOM     32  N   UNL A   1      28.510  30.102  21.985  1.00  0.00    -0.271 N 
ATOM     33  C   UNL A   1      27.029  28.577  23.300  1.00  0.00     0.068 C 
ATOM     34  C   UNL A   1      27.600  31.220  21.868  1.00  0.00     0.174 C 
ENDBRANCH  26  28
ENDBRANCH  20  24
ENDBRANCH  14  17
ENDBRANCH   8  13
ENDBRANCH   4   7
ENDBRANCH   2   3
ENDBRANCH   1   2
BRANCH   1  35
ATOM     35  C   UNL A   1      31.758  28.216  27.550  1.00  0.00     0.002 C 
BRANCH  35  36
ATOM     36  C   UNL A   1      31.791  29.393  26.561  1.00  0.00     0.002 C 
BRANCH  36  37
ATOM     37  C   UNL A   1      33.126  30.136  26.411  1.00  0.00     0.021 C 
BRANCH  37  38
ATOM     38  C   UNL A   1      33.684  30.656  27.718  1.00  0.00     0.116 C 
BRANCH  38  39
ATOM     39  N   UNL A   1      34.233  32.005  27.594  1.00  0.00    -0.352 N 
ATOM     40  C   UNL A   1      35.433  32.481  28.090  1.00  0.00     0.251 C 
ATOM     41  H   UNL A   1      33.681  32.653  27.097  1.00  0.00     0.163 HD
ATOM     42  O   UNL A   1      35.626  33.672  28.263  1.00  0.00    -0.269 OA
BRANCH  40  43
ATOM     43  C   UNL A   1      36.482  31.494  28.393  1.00  0.00     0.039 A 
ATOM     44  C   UNL A   1      36.568  30.267  27.736  1.00  0.00     0.014 A 
ATOM     45  C   UNL A   1      37.438  31.873  29.324  1.00  0.00     0.014 A 
ATOM     46  C   UNL A   1      37.674  29.459  27.994  1.00  0.00     0.010 A 
ATOM     47  C   UNL A   1      38.630  31.214  29.367  1.00  0.00     0.010 A 
ATOM     48  C   UNL A   1      38.709  29.951  28.806  1.00  0.00    -0.014 A 
BRANCH  48  49
ATOM     49  C   UNL A   1      39.913  29.181  29.075  1.00  0.00     0.031 A 
ATOM     50  C   UNL A   1      40.146  28.860  30.506  1.00  0.00     0.074 A 
ATOM     51  C   UNL A   1      40.671  28.650  28.088  1.00  0.00     0.049 A 
ATOM     52  N   UNL A   1      41.066  29.334  31.276  1.00  0.00    -0.248 NA
ATOM     53  C   UNL A   1      39.157  28.023  31.204  1.00  0.00     0.031 C 
ATOM     54  C   UNL A   1      40.429  28.605  26.637  1.00  0.00     0.029 A 
ATOM     55  N   UNL A   1      41.827  27.948  28.207  1.00  0.00    -0.354 N 
ATOM     56  C   UNL A   1      40.895  28.719  32.513  1.00  0.00     0.074 A 
ATOM     57  C   UNL A   1      39.621  28.050  32.456  1.00  0.00     0.031 C 
ATOM     58  C   UNL A   1      41.270  27.721  26.057  1.00  0.00     0.029 A 
ATOM     59  C   UNL A   1      42.235  27.297  27.049  1.00  0.00     0.049 A 
ATOM     60  H   UNL A   1      42.338  27.904  29.048  1.00  0.00     0.167 HD
ATOM     61  C   UNL A   1      41.918  28.649  33.410  1.00  0.00     0.037 A 
ATOM     62  C   UNL A   1      43.295  26.462  26.930  1.00  0.00     0.037 A 
ATOM     63  C   UNL A   1      42.981  29.556  33.053  1.00  0.00     0.049 A 
ATOM     64  C   UNL A   1      44.198  26.747  28.073  1.00  0.00     0.074 A 
ATOM     65  C   UNL A   1      43.085  30.927  32.937  1.00  0.00     0.029 A 
ATOM     66  N   UNL A   1      44.050  29.038  32.362  1.00  0.00    -0.354 N 
ATOM     67  N   UNL A   1      44.844  27.873  28.217  1.00  0.00    -0.248 NA
ATOM     68  C   UNL A   1      43.992  25.983  29.294  1.00  0.00     0.031 C 
ATOM     69  C   UNL A   1      43.902  31.135  31.787  1.00  0.00     0.029 A 
ATOM     70  C   UNL A   1      44.307  29.886  31.315  1.00  0.00     0.049 A 
ATOM     71  H   UNL A   1      44.540  28.213  32.579  1.00  0.00     0.167 HD
ATOM     72  C   UNL A   1      44.756  28.163  29.572  1.00  0.00     0.074 A 
ATOM     73  C   UNL A   1      44.280  26.928  30.194  1.00  0.00     0.031 C 
ATOM     74  C   UNL A   1      44.798  29.450  30.026  1.00  0.00     0.037 A 
BRANCH  61  75
ATOM     75  C   UNL A   1      42.127  27.536  34.402  1.00  0.00     0.057 A 
ATOM     76  C   UNL A   1      41.779  27.744  35.751  1.00  0.00     0.134 A 
ATOM     77  C   UNL A   1      42.918  26.396  34.155  1.00  0.00     0.134 A 
ATOM     78  F   UNL A   1      41.031  28.796  36.116  1.00  0.00    -0.206 F 
ATOM     79  C   UNL A   1      42.257  26.928  36.783  1.00  0.00     0.040 A 
ATOM     80  C   UNL A   1      43.358  25.547  35.174  1.00  0.00     0.040 A 
ATOM     81  F   UNL A   1      43.389  26.100  32.940  1.00  0.00    -0.206 F 
ATOM     82  C   UNL A   1      43.058  25.831  36.497  1.00  0.00     0.006 A 
ENDBRANCH  61  75
BRANCH  62  83
ATOM     83  C   UNL A   1      43.396  25.229  26.119  1.00  0.00     0.057 A 
ATOM     84  C   UNL A   1      44.443  25.042  25.208  1.00  0.00     0.134 A 
ATOM     85  C   UNL A   1      42.633  24.088  26.429  1.00  0.00     0.134 A 
ATOM     86  F   UNL A   1      45.250  26.063  24.883  1.00  0.00    -0.206 F 
ATOM     87  C   UNL A   1      44.736  23.787  24.657  1.00  0.00     0.040 A 
ATOM     88  C   UNL A   1      42.912  22.830  25.884  1.00  0.00     0.040 A 
ATOM     89  F   UNL A   1      41.652  24.140  27.342  1.00  0.00    -0.206 F 
ATOM     90  C   UNL A   1      43.977  22.673  25.006  1.00  0.00     0.006 A 
ENDBRANCH  62  83
BRANCH  74  91
ATOM     91  C   UNL A   1      45.154  30.538  29.048  1.00  0.00     0.057 A 
ATOM     92  C   UNL A   1      44.214  31.263  28.299  1.00  0.00     0.134 A 
ATOM     93  C   UNL A   1      46.475  30.995  29.009  1.00  0.00     0.134 A 
ATOM     94  F   UNL A   1      42.911  30.961  28.343  1.00  0.00    -0.206 F 
ATOM     95  C   UNL A   1      44.576  32.375  27.532  1.00  0.00     0.040 A 
ATOM     96  C   UNL A   1      46.846  32.122  28.271  1.00  0.00     0.040 A 
ATOM     97  F   UNL A   1      47.420  30.386  29.742  1.00  0.00    -0.206 F 
ATOM     98  C   UNL A   1      45.896  32.814  27.525  1.00  0.00     0.006 A 
ENDBRANCH  74  91
ENDBRANCH  48  49
ENDBRANCH  40  43
ENDBRANCH  38  39
ENDBRANCH  37  38
ENDBRANCH  36  37
ENDBRANCH  35  36
ENDBRANCH   1  35
TORSDOF 18
ENDMDL
MODEL 2
REMARK VINA RESULT:     -12.5      1.894      5.637
REMARK SMILES CCn1ncc(NC(=O)[C@@H]2CCCC[C@@H]2C(=O)NCCCCCCNC(=O)c2ccc(-c3c4nc(c(-c5c(F)cccc5F)c5ccc([nH]5)c(-c5c(F)cccc5F)c5nc(c(-c6c(F)cccc6F)c6ccc3[nH]6)C=C5)C=C4)cc2)c1C(=O)Nc1cnn(C)c1C
REMARK SMILES IDX 20 1 19 2 18 3 16 4 17 5 15 7 10 8 11 9 12 10 14 11 13 12
REMARK SMILES IDX 8 13 7 14 9 16 6 17 3 18 4 19 82 20 5 21 2 22 1 23 83 24
REMARK SMILES IDX 84 25 85 26 86 28 87 29 91 30 88 31 89 32 92 33 90 34 21 35
REMARK SMILES IDX 22 36 23 37 24 38 25 39 26 40 27 42 28 43 29 44 81 45 30 46
REMARK SMILES IDX 80 47 31 48 32 49 33 50 74 51 34 52 79 53 73 54 75 55 35 56
REMARK SMILES IDX 78 57 72 58 71 59 36 61 62 62 45 63 61 64 46 65 49 66 60 67
REMARK SMILES IDX 76 68 47 69 48 70 59 72 77 73 50 74 37 75 38 76 43 77 39 78
REMARK SMILES IDX 40 79 42 80 44 81 41 82 63 83 64 84 69 85 65 86 66 87 68 88
REMARK SMILES IDX 70 89 67 90 51 91 52 92 57 93 53 94 54 95 56 96 58 97 55 98
REMARK H PARENT 18 6 7 15 85 27 25 41 75 60 49 71
REMARK Flexibility Score: inf
ROOT
ATOM      1  C   UNL A   1      31.868  26.507  26.808  1.00  0.00     0.021 C 
ENDROOT
BRANCH   1   2
ATOM      2  C   UNL A   1      33.019  25.625  26.350  1.00  0.00     0.116 C 
BRANCH   2   3
ATOM      3  N   UNL A   1      32.702  24.245  26.619  1.00  0.00    -0.356 N 
ATOM      4  C   UNL A   1      32.728  23.237  25.714  1.00  0.00     0.223 C 
ATOM      5  O   UNL A   1      31.932  22.314  25.876  1.00  0.00    -0.275 OA
ATOM      6  H   UNL A   1      32.444  24.016  27.542  1.00  0.00     0.163 HD
BRANCH   4   7
ATOM      7  C   UNL A   1      33.789  23.292  24.603  1.00  0.00     0.091 C 
ATOM      8  C   UNL A   1      33.669  22.050  23.669  1.00  0.00     0.091 C 
ATOM      9  C   UNL A   1      33.921  20.822  24.535  1.00  0.00     0.014 C 
ATOM     10  C   UNL A   1      35.302  20.848  25.163  1.00  0.00     0.001 C 
ATOM     11  C   UNL A   1      35.211  23.326  25.224  1.00  0.00     0.014 C 
ATOM     12  C   UNL A   1      35.515  22.067  26.025  1.00  0.00     0.001 C 
BRANCH   8  13
ATOM     13  C   UNL A   1      32.389  22.120  22.831  1.00  0.00     0.228 C 
ATOM     14  N   UNL A   1      31.819  23.247  22.325  1.00  0.00    -0.322 N 
ATOM     15  H   UNL A   1      30.923  23.084  21.950  1.00  0.00     0.170 HD
ATOM     16  O   UNL A   1      31.761  21.071  22.606  1.00  0.00    -0.274 OA
BRANCH  14  17
ATOM     17  C   UNL A   1      32.211  24.572  22.218  1.00  0.00     0.092 A 
ATOM     18  N   UNL A   1      32.911  26.584  22.587  1.00  0.00    -0.258 N 
ATOM     19  N   UNL A   1      33.643  26.189  21.521  1.00  0.00    -0.178 NA
ATOM     20  C   UNL A   1      31.796  25.783  22.800  1.00  0.00     0.150 A 
ATOM     21  C   UNL A   1      33.251  24.937  21.335  1.00  0.00     0.162 A 
BRANCH  18  22
ATOM     22  C   UNL A   1      33.521  27.621  23.393  1.00  0.00     0.142 C 
ATOM     23  C   UNL A   1      34.124  28.754  22.577  1.00  0.00     0.029 C 
ENDBRANCH  18  22
BRANCH  20  24
ATOM     24  C   UNL A   1      30.528  26.035  23.505  1.00  0.00     0.276 C 
ATOM     25  O   UNL A   1      29.956  25.125  24.113  1.00  0.00    -0.267 OA
ATOM     26  N   UNL A   1      30.114  27.322  23.810  1.00  0.00    -0.318 N 
ATOM     27  H   UNL A   1      30.099  27.541  24.770  1.00  0.00     0.170 HD
BRANCH  26  28
ATOM     28  C   UNL A   1      29.720  28.339  22.971  1.00  0.00     0.082 A 
ATOM     29  C   UNL A   1      30.478  29.084  22.048  1.00  0.00     0.161 A 
ATOM     30  C   UNL A   1      28.422  28.803  22.820  1.00  0.00     0.059 A 
ATOM     31  N   UNL A   1      29.769  30.072  21.501  1.00  0.00    -0.179 NA
ATOM     32  N   UNL A   1      28.550  29.943  22.060  1.00  0.00    -0.271 N 
ATOM     33  C   UNL A   1      27.122  28.404  23.416  1.00  0.00     0.068 C 
ATOM     34  C   UNL A   1      27.624  31.049  21.965  1.00  0.00     0.174 C 
ENDBRANCH  26  28
ENDBRANCH  20  24
ENDBRANCH  14  17
ENDBRANCH   8  13
ENDBRANCH   4   7
ENDBRANCH   2   3
ENDBRANCH   1   2
BRANCH   1  35
ATOM     35  C   UNL A   1      32.232  27.992  26.899  1.00  0.00     0.002 C 
BRANCH  35  36
ATOM     36  C   UNL A   1      33.719  28.332  26.705  1.00  0.00     0.002 C 
BRANCH  36  37
ATOM     37  C   UNL A   1      34.221  29.637  27.337  1.00  0.00     0.021 C 
BRANCH  37  38
ATOM     38  C   UNL A   1      35.617  29.539  27.912  1.00  0.00     0.116 C 
BRANCH  38  39
ATOM     39  N   UNL A   1      35.649  29.798  29.349  1.00  0.00    -0.352 N 
ATOM     40  C   UNL A   1      36.625  29.426  30.257  1.00  0.00     0.251 C 
ATOM     41  H   UNL A   1      34.884  30.297  29.716  1.00  0.00     0.163 HD
ATOM     42  O   UNL A   1      36.394  29.352  31.451  1.00  0.00    -0.269 OA
BRANCH  40  43
ATOM     43  C   UNL A   1      37.967  29.132  29.728  1.00  0.00     0.039 A 
ATOM     44  C   UNL A   1      38.685  30.044  28.955  1.00  0.00     0.014 A 
ATOM     45  C   UNL A   1      38.526  27.917  30.098  1.00  0.00     0.014 A 
ATOM     46  C   UNL A   1      39.999  29.731  28.616  1.00  0.00     0.010 A 
ATOM     47  C   UNL A   1      39.873  27.741  29.996  1.00  0.00     0.010 A 
ATOM     48  C   UNL A   1      40.589  28.576  29.156  1.00  0.00    -0.014 A 
BRANCH  48  49
ATOM     49  C   UNL A   1      41.972  28.215  28.885  1.00  0.00     0.031 A 
ATOM     50  C   UNL A   1      42.152  26.975  28.088  1.00  0.00     0.074 A 
ATOM     51  C   UNL A   1      43.007  29.033  29.184  1.00  0.00     0.049 A 
ATOM     52  N   UNL A   1      42.624  25.844  28.493  1.00  0.00    -0.248 NA
ATOM     53  C   UNL A   1      41.615  26.940  26.718  1.00  0.00     0.031 C 
ATOM     54  C   UNL A   1      42.999  30.414  29.689  1.00  0.00     0.029 A 
ATOM     55  N   UNL A   1      44.334  28.798  29.015  1.00  0.00    -0.354 N 
ATOM     56  C   UNL A   1      42.621  25.000  27.386  1.00  0.00     0.074 A 
ATOM     57  C   UNL A   1      41.850  25.671  26.372  1.00  0.00     0.031 C 
ATOM     58  C   UNL A   1      44.227  30.961  29.556  1.00  0.00     0.029 A 
ATOM     59  C   UNL A   1      45.146  29.917  29.154  1.00  0.00     0.049 A 
ATOM     60  H   UNL A   1      44.693  27.904  28.810  1.00  0.00     0.167 HD
ATOM     61  C   UNL A   1      43.429  23.906  27.336  1.00  0.00     0.037 A 
ATOM     62  C   UNL A   1      46.483  29.969  28.945  1.00  0.00     0.037 A 
ATOM     63  C   UNL A   1      43.955  23.591  28.641  1.00  0.00     0.049 A 
ATOM     64  C   UNL A   1      46.986  28.574  29.027  1.00  0.00     0.074 A 
ATOM     65  C   UNL A   1      43.395  23.206  29.843  1.00  0.00     0.029 A 
ATOM     66  N   UNL A   1      45.216  24.043  28.943  1.00  0.00    -0.354 N 
ATOM     67  N   UNL A   1      46.981  27.871  30.127  1.00  0.00    -0.248 NA
ATOM     68  C   UNL A   1      47.027  27.805  27.793  1.00  0.00     0.031 C 
ATOM     69  C   UNL A   1      44.143  23.907  30.834  1.00  0.00     0.029 A 
ATOM     70  C   UNL A   1      45.158  24.614  30.188  1.00  0.00     0.049 A 
ATOM     71  H   UNL A   1      46.015  23.970  28.371  1.00  0.00     0.167 HD
ATOM     72  C   UNL A   1      46.597  26.596  29.734  1.00  0.00     0.074 A 
ATOM     73  C   UNL A   1      46.707  26.600  28.276  1.00  0.00     0.031 C 
ATOM     74  C   UNL A   1      45.954  25.752  30.593  1.00  0.00     0.037 A 
BRANCH  61  75
ATOM     75  C   UNL A   1      44.028  23.327  26.081  1.00  0.00     0.057 A 
ATOM     76  C   UNL A   1      43.843  21.959  25.801  1.00  0.00     0.134 A 
ATOM     77  C   UNL A   1      45.011  23.970  25.304  1.00  0.00     0.134 A 
ATOM     78  F   UNL A   1      42.939  21.232  26.475  1.00  0.00    -0.206 F 
ATOM     79  C   UNL A   1      44.639  21.267  24.880  1.00  0.00     0.040 A 
ATOM     80  C   UNL A   1      45.776  23.299  24.346  1.00  0.00     0.040 A 
ATOM     81  F   UNL A   1      45.354  25.248  25.498  1.00  0.00    -0.206 F 
ATOM     82  C   UNL A   1      45.616  21.936  24.156  1.00  0.00     0.006 A 
ENDBRANCH  61  75
BRANCH  62  83
ATOM     83  C   UNL A   1      47.268  31.067  28.342  1.00  0.00     0.057 A 
ATOM     84  C   UNL A   1      46.987  31.540  27.054  1.00  0.00     0.134 A 
ATOM     85  C   UNL A   1      48.120  31.868  29.124  1.00  0.00     0.134 A 
ATOM     86  F   UNL A   1      46.152  30.865  26.250  1.00  0.00    -0.206 F 
ATOM     87  C   UNL A   1      47.499  32.755  26.578  1.00  0.00     0.040 A 
ATOM     88  C   UNL A   1      48.641  33.081  28.661  1.00  0.00     0.040 A 
ATOM     89  F   UNL A   1      48.398  31.545  30.395  1.00  0.00    -0.206 F 
ATOM     90  C   UNL A   1      48.319  33.537  27.388  1.00  0.00     0.006 A 
ENDBRANCH  62  83
BRANCH  74  91
ATOM     91  C   UNL A   1      45.855  26.151  32.041  1.00  0.00     0.057 A 
ATOM     92  C   UNL A   1      44.733  26.769  32.614  1.00  0.00     0.134 A 
ATOM     93  C   UNL A   1      46.853  25.720  32.922  1.00  0.00     0.134 A 
ATOM     94  F   UNL A   1      43.685  27.134  31.866  1.00  0.00    -0.206 F 
ATOM     95  C   UNL A   1      44.620  26.967  33.995  1.00  0.00     0.040 A 
ATOM     96  C   UNL A   1      46.740  25.885  34.305  1.00  0.00     0.040 A 
ATOM     97  F   UNL A   1      47.931  25.072  32.453  1.00  0.00    -0.206 F 
ATOM     98  C   UNL A   1      45.622  26.514  34.845  1.00  0.00     0.006 A 
ENDBRANCH  74  91
ENDBRANCH  48  49
ENDBRANCH  40  43
ENDBRANCH  38  39
ENDBRANCH  37  38
ENDBRANCH  36  37
ENDBRANCH  35  36
ENDBRANCH   1  35
TORSDOF 18
ENDMDL
MODEL 3
REMARK VINA RESULT:     -11.8      2.348      4.975
REMARK SMILES CCn1ncc(NC(=O)[C@@H]2CCCC[C@@H]2C(=O)NCCCCCCNC(=O)c2ccc(-c3c4nc(c(-c5c(F)cccc5F)c5ccc([nH]5)c(-c5c(F)cccc5F)c5nc(c(-c6c(F)cccc6F)c6ccc3[nH]6)C=C5)C=C4)cc2)c1C(=O)Nc1cnn(C)c1C
REMARK SMILES IDX 20 1 19 2 18 3 16 4 17 5 15 7 10 8 11 9 12 10 14 11 13 12
REMARK SMILES IDX 8 13 7 14 9 16 6 17 3 18 4 19 82 20 5 21 2 22 1 23 83 24
REMARK SMILES IDX 84 25 85 26 86 28 87 29 91 30 88 31 89 32 92 33 90 34 21 35
REMARK SMILES IDX 22 36 23 37 24 38 25 39 26 40 27 42 28 43 29 44 81 45 30 46
REMARK SMILES IDX 80 47 31 48 32 49 33 50 74 51 34 52 79 53 73 54 75 55 35 56
REMARK SMILES IDX 78 57 72 58 71 59 36 61 62 62 45 63 61 64 46 65 49 66 60 67
REMARK SMILES IDX 76 68 47 69 48 70 59 72 77 73 50 74 37 75 38 76 43 77 39 78
REMARK SMILES IDX 40 79 42 80 44 81 41 82 63 83 64 84 69 85 65 86 66 87 68 88
REMARK SMILES IDX 70 89 67 90 51 91 52 92 57 93 53 94 54 95 56 96 58 97 55 98
REMARK H PARENT 18 6 7 15 85 27 25 41 75 60 49 71
REMARK Flexibility Score: inf
ROOT
ATOM      1  C   UNL A   1      32.059  29.724  26.935  1.00  0.00     0.021 C 
ENDROOT
BRANCH   1   2
ATOM      2  C   UNL A   1      31.782  28.279  27.318  1.00  0.00     0.116 C 
BRANCH   2   3
ATOM      3  N   UNL A   1      32.774  27.425  26.714  1.00  0.00    -0.356 N 
ATOM      4  C   UNL A   1      32.545  26.197  26.186  1.00  0.00     0.223 C 
ATOM      5  O   UNL A   1      33.460  25.378  26.248  1.00  0.00    -0.275 OA
ATOM      6  H   UNL A   1      33.698  27.764  26.682  1.00  0.00     0.163 HD
BRANCH   4   7
ATOM      7  C   UNL A   1      31.193  25.949  25.498  1.00  0.00     0.091 C 
ATOM      8  C   UNL A   1      31.040  24.445  25.119  1.00  0.00     0.091 C 
ATOM      9  C   UNL A   1      32.162  24.121  24.141  1.00  0.00     0.014 C 
ATOM     10  C   UNL A   1      32.079  24.967  22.885  1.00  0.00     0.001 C 
ATOM     11  C   UNL A   1      31.083  26.811  24.212  1.00  0.00     0.014 C 
ATOM     12  C   UNL A   1      32.146  26.443  23.184  1.00  0.00     0.001 C 
BRANCH   8  13
ATOM     13  C   UNL A   1      30.873  23.582  26.373  1.00  0.00     0.228 C 
ATOM     14  N   UNL A   1      31.682  22.559  26.761  1.00  0.00    -0.322 N 
ATOM     15  H   UNL A   1      31.308  22.043  27.511  1.00  0.00     0.170 HD
ATOM     16  O   UNL A   1      29.891  23.780  27.110  1.00  0.00    -0.274 OA
BRANCH  14  17
ATOM     17  C   UNL A   1      32.912  22.079  26.341  1.00  0.00     0.092 A 
ATOM     18  N   UNL A   1      34.735  21.657  25.258  1.00  0.00    -0.258 N 
ATOM     19  N   UNL A   1      35.170  21.930  26.509  1.00  0.00    -0.178 NA
ATOM     20  C   UNL A   1      33.375  21.382  25.210  1.00  0.00     0.150 A 
ATOM     21  C   UNL A   1      34.056  22.243  27.153  1.00  0.00     0.162 A 
BRANCH  18  22
ATOM     22  C   UNL A   1      35.709  21.889  24.211  1.00  0.00     0.142 C 
ATOM     23  C   UNL A   1      35.709  23.315  23.682  1.00  0.00     0.029 C 
ENDBRANCH  18  22
BRANCH  20  24
ATOM     24  C   UNL A   1      32.557  20.643  24.233  1.00  0.00     0.276 C 
ATOM     25  O   UNL A   1      31.692  21.223  23.571  1.00  0.00    -0.267 OA
ATOM     26  N   UNL A   1      32.939  19.394  23.770  1.00  0.00    -0.318 N 
ATOM     27  H   UNL A   1      33.189  19.358  22.818  1.00  0.00     0.170 HD
BRANCH  26  28
ATOM     28  C   UNL A   1      33.019  18.195  24.442  1.00  0.00     0.082 A 
ATOM     29  C   UNL A   1      32.486  17.832  25.693  1.00  0.00     0.161 A 
ATOM     30  C   UNL A   1      33.616  17.040  23.961  1.00  0.00     0.059 A 
ATOM     31  N   UNL A   1      32.878  16.613  26.068  1.00  0.00    -0.179 NA
ATOM     32  N   UNL A   1      33.645  16.191  25.044  1.00  0.00    -0.271 N 
ATOM     33  C   UNL A   1      34.285  16.695  22.681  1.00  0.00     0.068 C 
ATOM     34  C   UNL A   1      34.517  15.057  25.254  1.00  0.00     0.174 C 
ENDBRANCH  26  28
ENDBRANCH  20  24
ENDBRANCH  14  17
ENDBRANCH   8  13
ENDBRANCH   4   7
ENDBRANCH   2   3
ENDBRANCH   1   2
BRANCH   1  35
ATOM     35  C   UNL A   1      33.458  29.947  26.352  1.00  0.00     0.002 C 
BRANCH  35  36
ATOM     36  C   UNL A   1      34.459  30.670  27.267  1.00  0.00     0.002 C 
BRANCH  36  37
ATOM     37  C   UNL A   1      33.954  31.922  27.997  1.00  0.00     0.021 C 
BRANCH  37  38
ATOM     38  C   UNL A   1      35.061  32.804  28.532  1.00  0.00     0.116 C 
BRANCH  38  39
ATOM     39  N   UNL A   1      34.935  33.051  29.966  1.00  0.00    -0.352 N 
ATOM     40  C   UNL A   1      35.529  32.353  31.003  1.00  0.00     0.251 C 
ATOM     41  H   UNL A   1      34.357  33.805  30.227  1.00  0.00     0.163 HD
ATOM     42  O   UNL A   1      35.082  32.386  32.136  1.00  0.00    -0.269 OA
BRANCH  40  43
ATOM     43  C   UNL A   1      36.737  31.572  30.690  1.00  0.00     0.039 A 
ATOM     44  C   UNL A   1      37.984  32.165  30.497  1.00  0.00     0.014 A 
ATOM     45  C   UNL A   1      36.592  30.192  30.666  1.00  0.00     0.014 A 
ATOM     46  C   UNL A   1      39.092  31.334  30.342  1.00  0.00     0.010 A 
ATOM     47  C   UNL A   1      37.696  29.401  30.784  1.00  0.00     0.010 A 
ATOM     48  C   UNL A   1      38.936  29.947  30.501  1.00  0.00    -0.014 A 
BRANCH  48  49
ATOM     49  C   UNL A   1      40.058  29.026  30.402  1.00  0.00     0.031 A 
ATOM     50  C   UNL A   1      40.781  28.778  31.675  1.00  0.00     0.074 A 
ATOM     51  C   UNL A   1      40.317  28.318  29.278  1.00  0.00     0.049 A 
ATOM     52  N   UNL A   1      41.972  29.163  31.988  1.00  0.00    -0.248 NA
ATOM     53  C   UNL A   1      40.046  28.151  32.785  1.00  0.00     0.031 C 
ATOM     54  C   UNL A   1      39.538  28.205  28.036  1.00  0.00     0.029 A 
ATOM     55  N   UNL A   1      41.346  27.461  29.050  1.00  0.00    -0.354 N 
ATOM     56  C   UNL A   1      42.218  28.671  33.266  1.00  0.00     0.074 A 
ATOM     57  C   UNL A   1      40.952  28.198  33.765  1.00  0.00     0.031 C 
ATOM     58  C   UNL A   1      39.989  27.165  27.301  1.00  0.00     0.029 A 
ATOM     59  C   UNL A   1      41.206  26.674  27.913  1.00  0.00     0.049 A 
ATOM     60  H   UNL A   1      42.130  27.402  29.642  1.00  0.00     0.167 HD
ATOM     61  C   UNL A   1      43.490  28.514  33.726  1.00  0.00     0.037 A 
ATOM     62  C   UNL A   1      42.040  25.683  27.516  1.00  0.00     0.037 A 
ATOM     63  C   UNL A   1      44.431  29.223  32.894  1.00  0.00     0.049 A 
ATOM     64  C   UNL A   1      43.337  25.912  28.202  1.00  0.00     0.074 A 
ATOM     65  C   UNL A   1      44.635  30.551  32.580  1.00  0.00     0.029 A 
ATOM     66  N   UNL A   1      45.091  28.503  31.928  1.00  0.00    -0.354 N 
ATOM     67  N   UNL A   1      44.109  26.936  27.958  1.00  0.00    -0.248 NA
ATOM     68  C   UNL A   1      43.528  25.277  29.497  1.00  0.00     0.031 C 
ATOM     69  C   UNL A   1      44.969  30.550  31.193  1.00  0.00     0.029 A 
ATOM     70  C   UNL A   1      45.022  29.224  30.763  1.00  0.00     0.049 A 
ATOM     71  H   UNL A   1      45.531  27.631  32.049  1.00  0.00     0.167 HD
ATOM     72  C   UNL A   1      44.578  27.333  29.203  1.00  0.00     0.074 A 
ATOM     73  C   UNL A   1      44.241  26.231  30.105  1.00  0.00     0.031 C 
ATOM     74  C   UNL A   1      44.933  28.628  29.448  1.00  0.00     0.037 A 
BRANCH  61  75
ATOM     75  C   UNL A   1      43.936  27.456  34.700  1.00  0.00     0.057 A 
ATOM     76  C   UNL A   1      44.541  27.849  35.909  1.00  0.00     0.134 A 
ATOM     77  C   UNL A   1      44.068  26.091  34.379  1.00  0.00     0.134 A 
ATOM     78  F   UNL A   1      44.489  29.123  36.326  1.00  0.00    -0.206 F 
ATOM     79  C   UNL A   1      45.295  26.966  36.693  1.00  0.00     0.040 A 
ATOM     80  C   UNL A   1      44.777  25.192  35.180  1.00  0.00     0.040 A 
ATOM     81  F   UNL A   1      43.611  25.577  33.232  1.00  0.00    -0.206 F 
ATOM     82  C   UNL A   1      45.423  25.635  36.323  1.00  0.00     0.006 A 
ENDBRANCH  61  75
BRANCH  62  83
ATOM     83  C   UNL A   1      41.687  24.394  26.884  1.00  0.00     0.057 A 
ATOM     84  C   UNL A   1      42.586  23.727  26.042  1.00  0.00     0.134 A 
ATOM     85  C   UNL A   1      40.575  23.649  27.319  1.00  0.00     0.134 A 
ATOM     86  F   UNL A   1      43.695  24.343  25.609  1.00  0.00    -0.206 F 
ATOM     87  C   UNL A   1      42.408  22.386  25.676  1.00  0.00     0.040 A 
ATOM     88  C   UNL A   1      40.384  22.311  26.959  1.00  0.00     0.040 A 
ATOM     89  F   UNL A   1      39.691  24.168  28.183  1.00  0.00    -0.206 F 
ATOM     90  C   UNL A   1      41.310  21.669  26.146  1.00  0.00     0.006 A 
ENDBRANCH  62  83
BRANCH  74  91
ATOM     91  C   UNL A   1      45.008  29.577  28.282  1.00  0.00     0.057 A 
ATOM     92  C   UNL A   1      43.947  30.393  27.860  1.00  0.00     0.134 A 
ATOM     93  C   UNL A   1      46.254  29.811  27.691  1.00  0.00     0.134 A 
ATOM     94  F   UNL A   1      42.739  30.309  28.429  1.00  0.00    -0.206 F 
ATOM     95  C   UNL A   1      44.114  31.379  26.881  1.00  0.00     0.040 A 
ATOM     96  C   UNL A   1      46.442  30.812  26.734  1.00  0.00     0.040 A 
ATOM     97  F   UNL A   1      47.328  29.108  28.082  1.00  0.00    -0.206 F 
ATOM     98  C   UNL A   1      45.369  31.597  26.323  1.00  0.00     0.006 A 
ENDBRANCH  74  91
ENDBRANCH  48  49
ENDBRANCH  40  43
ENDBRANCH  38  39
ENDBRANCH  37  38
ENDBRANCH  36  37
ENDBRANCH  35  36
ENDBRANCH   1  35
TORSDOF 18
ENDMDL
