MODEL 1
REMARK VINA RESULT:     -11.2      0.000      0.000
REMARK SMILES COC(=O)c1sc(SCC(=O)NCCCCCCNC(=O)c2ccc(-c3c4nc(c(-c5c(F)cccc5F)c5ccc([nH]5)c(-c5c(F)cccc5F)c5nc(c(-c6c(F)cccc6F)c6ccc3[nH]6)C=C5)C=C4)cc2)c(NC(=O)c2ccccc2)c1O
REMARK SMILES IDX 14 1 13 2 12 3 10 4 11 5 9 7 8 8 7 9 5 10 6 11 86 12 76 13
REMARK SMILES IDX 3 14 4 15 2 16 1 17 87 18 77 20 78 21 79 23 80 24 81 25
REMARK SMILES IDX 85 26 82 27 84 28 83 29 15 30 16 31 17 32 18 33 19 34 20 35
REMARK SMILES IDX 21 37 22 38 23 39 75 40 24 41 74 42 25 43 26 44 27 45 68 46
REMARK SMILES IDX 28 47 73 48 67 49 69 50 29 51 72 52 66 53 65 54 30 56 56 57
REMARK SMILES IDX 39 58 55 59 40 60 43 61 54 62 70 63 41 64 42 65 53 67 71 68
REMARK SMILES IDX 44 69 31 70 32 71 37 72 33 73 34 74 36 75 38 76 35 77 57 78
REMARK SMILES IDX 58 79 63 80 59 81 60 82 62 83 64 84 61 85 45 86 46 87 51 88
REMARK SMILES IDX 47 89 48 90 50 91 52 92 49 93
REMARK H PARENT 12 6 87 19 77 22 19 36 69 55 43 66
REMARK Flexibility Score: inf
ROOT
ATOM      1  C   UNL A   1      41.901  22.939  26.564  1.00  0.00     0.021 C 
ENDROOT
BRANCH   1   2
ATOM      2  C   UNL A   1      40.396  23.196  26.630  1.00  0.00     0.116 C 
BRANCH   2   3
ATOM      3  N   UNL A   1      39.636  22.134  26.025  1.00  0.00    -0.355 N 
ATOM      4  C   UNL A   1      38.308  22.070  25.697  1.00  0.00     0.230 C 
ATOM      5  O   UNL A   1      37.980  21.095  25.013  1.00  0.00    -0.274 OA
ATOM      6  H   UNL A   1      40.154  21.325  25.811  1.00  0.00     0.163 HD
BRANCH   4   7
ATOM      7  C   UNL A   1      37.219  23.365  26.127  1.00  0.00     0.175 C 
BRANCH   7   8
ATOM      8  S   UNL A   1      34.643  23.330  26.364  1.00  0.00    -0.103 SA
BRANCH   8   9
ATOM      9  C   UNL A   1      33.596  23.569  24.842  1.00  0.00     0.089 A 
ATOM     10  C   UNL A   1      32.920  24.133  22.493  1.00  0.00     0.157 A 
ATOM     11  S   UNL A   1      34.394  24.020  23.369  1.00  0.00    -0.116 S 
ATOM     12  C   UNL A   1      31.859  23.780  23.295  1.00  0.00     0.166 A 
ATOM     13  C   UNL A   1      32.225  23.420  24.620  1.00  0.00     0.109 A 
BRANCH  10  14
ATOM     14  C   UNL A   1      32.925  24.545  21.103  1.00  0.00     0.352 C 
ATOM     15  O   UNL A   1      33.298  23.892  20.137  1.00  0.00    -0.245 OA
BRANCH  14  16
ATOM     16  O   UNL A   1      32.420  25.819  21.020  1.00  0.00    -0.465 OA
ATOM     17  C   UNL A   1      33.188  26.841  21.660  1.00  0.00     0.282 C 
ENDBRANCH  14  16
ENDBRANCH  10  14
BRANCH  12  18
ATOM     18  O   UNL A   1      30.564  23.793  22.896  1.00  0.00    -0.504 OA
ATOM     19  H   UNL A   1      30.230  24.522  22.411  1.00  0.00     0.293 HD
ENDBRANCH  12  18
BRANCH  13  20
ATOM     20  N   UNL A   1      31.229  23.036  25.513  1.00  0.00    -0.317 N 
ATOM     21  C   UNL A   1      30.581  23.851  26.387  1.00  0.00     0.255 C 
ATOM     22  H   UNL A   1      30.968  22.086  25.511  1.00  0.00     0.170 HD
ATOM     23  O   UNL A   1      29.952  23.459  27.357  1.00  0.00    -0.269 OA
BRANCH  21  24
ATOM     24  C   UNL A   1      30.735  25.270  26.093  1.00  0.00     0.040 A 
ATOM     25  C   UNL A   1      32.228  26.069  26.678  1.00  0.00     0.014 A 
ATOM     26  C   UNL A   1      29.705  26.066  24.790  1.00  0.00     0.014 A 
ATOM     27  C   UNL A   1      32.702  27.652  25.978  1.00  0.00     0.001 A 
ATOM     28  C   UNL A   1      30.236  27.639  24.091  1.00  0.00     0.001 A 
ATOM     29  C   UNL A   1      31.738  28.418  24.685  1.00  0.00     0.000 A 
ENDBRANCH  21  24
ENDBRANCH  13  20
ENDBRANCH   8   9
ENDBRANCH   7   8
ENDBRANCH   4   7
ENDBRANCH   2   3
ENDBRANCH   1   2
BRANCH   1  30
ATOM     30  C   UNL A   1      42.647  23.809  25.554  1.00  0.00     0.002 C 
BRANCH  30  31
ATOM     31  C   UNL A   1      44.150  23.954  25.812  1.00  0.00     0.002 C 
BRANCH  31  32
ATOM     32  C   UNL A   1      44.665  25.391  25.999  1.00  0.00     0.021 C 
BRANCH  32  33
ATOM     33  C   UNL A   1      45.264  25.639  27.368  1.00  0.00     0.116 C 
BRANCH  33  34
ATOM     34  N   UNL A   1      44.881  24.598  28.308  1.00  0.00    -0.352 N 
ATOM     35  C   UNL A   1      44.280  24.745  29.535  1.00  0.00     0.251 C 
ATOM     36  H   UNL A   1      45.075  23.675  28.031  1.00  0.00     0.163 HD
ATOM     37  O   UNL A   1      44.382  23.869  30.386  1.00  0.00    -0.269 OA
BRANCH  35  38
ATOM     38  C   UNL A   1      43.498  25.963  29.807  1.00  0.00     0.039 A 
ATOM     39  C   UNL A   1      43.855  26.811  30.856  1.00  0.00     0.014 A 
ATOM     40  C   UNL A   1      42.376  26.234  29.021  1.00  0.00     0.014 A 
ATOM     41  C   UNL A   1      43.089  27.948  31.084  1.00  0.00     0.010 A 
ATOM     42  C   UNL A   1      41.712  27.426  29.148  1.00  0.00     0.010 A 
ATOM     43  C   UNL A   1      42.022  28.250  30.218  1.00  0.00    -0.014 A 
BRANCH  43  44
ATOM     44  C   UNL A   1      41.332  29.528  30.314  1.00  0.00     0.031 A 
ATOM     45  C   UNL A   1      42.223  30.668  29.991  1.00  0.00     0.074 A 
ATOM     46  C   UNL A   1      39.998  29.655  30.489  1.00  0.00     0.049 A 
ATOM     47  N   UNL A   1      42.719  31.513  30.830  1.00  0.00    -0.248 NA
ATOM     48  C   UNL A   1      42.814  30.755  28.644  1.00  0.00     0.031 C 
ATOM     49  C   UNL A   1      38.980  28.603  30.531  1.00  0.00     0.029 A 
ATOM     50  N   UNL A   1      39.249  30.792  30.581  1.00  0.00    -0.354 N 
ATOM     51  C   UNL A   1      43.470  32.401  30.072  1.00  0.00     0.074 A 
ATOM     52  C   UNL A   1      43.682  31.758  28.803  1.00  0.00     0.031 C 
ATOM     53  C   UNL A   1      37.750  29.151  30.402  1.00  0.00     0.029 A 
ATOM     54  C   UNL A   1      37.875  30.597  30.419  1.00  0.00     0.049 A 
ATOM     55  H   UNL A   1      39.645  31.677  30.748  1.00  0.00     0.167 HD
ATOM     56  C   UNL A   1      43.575  33.701  30.462  1.00  0.00     0.037 A 
ATOM     57  C   UNL A   1      36.934  31.570  30.272  1.00  0.00     0.037 A 
ATOM     58  C   UNL A   1      43.180  33.844  31.847  1.00  0.00     0.049 A 
ATOM     59  C   UNL A   1      37.524  32.835  30.791  1.00  0.00     0.074 A 
ATOM     60  C   UNL A   1      43.586  33.261  33.034  1.00  0.00     0.029 A 
ATOM     61  N   UNL A   1      41.934  34.370  32.097  1.00  0.00    -0.354 N 
ATOM     62  N   UNL A   1      37.775  33.040  32.055  1.00  0.00    -0.248 NA
ATOM     63  C   UNL A   1      38.306  33.631  29.858  1.00  0.00     0.031 C 
ATOM     64  C   UNL A   1      42.379  33.022  33.756  1.00  0.00     0.029 A 
ATOM     65  C   UNL A   1      41.323  33.577  33.032  1.00  0.00     0.049 A 
ATOM     66  H   UNL A   1      41.549  35.173  31.678  1.00  0.00     0.167 HD
ATOM     67  C   UNL A   1      39.041  33.606  32.065  1.00  0.00     0.074 A 
ATOM     68  C   UNL A   1      39.294  34.001  30.678  1.00  0.00     0.031 C 
ATOM     69  C   UNL A   1      39.892  33.415  33.117  1.00  0.00     0.037 A 
BRANCH  56  70
ATOM     70  C   UNL A   1      43.581  34.878  29.512  1.00  0.00     0.057 A 
ATOM     71  C   UNL A   1      44.637  35.805  29.602  1.00  0.00     0.134 A 
ATOM     72  C   UNL A   1      42.473  35.313  28.757  1.00  0.00     0.134 A 
ATOM     73  F   UNL A   1      45.753  35.512  30.287  1.00  0.00    -0.206 F 
ATOM     74  C   UNL A   1      44.547  37.100  29.083  1.00  0.00     0.040 A 
ATOM     75  C   UNL A   1      42.394  36.588  28.191  1.00  0.00     0.040 A 
ATOM     76  F   UNL A   1      41.365  34.582  28.599  1.00  0.00    -0.206 F 
ATOM     77  C   UNL A   1      43.415  37.501  28.387  1.00  0.00     0.006 A 
ENDBRANCH  56  70
BRANCH  57  78
ATOM     78  C   UNL A   1      35.690  31.571  29.459  1.00  0.00     0.057 A 
ATOM     79  C   UNL A   1      34.670  32.513  29.680  1.00  0.00     0.134 A 
ATOM     80  C   UNL A   1      35.594  30.840  28.262  1.00  0.00     0.134 A 
ATOM     81  F   UNL A   1      34.687  33.294  30.770  1.00  0.00    -0.206 F 
ATOM     82  C   UNL A   1      33.640  32.735  28.754  1.00  0.00     0.040 A 
ATOM     83  C   UNL A   1      34.568  31.048  27.332  1.00  0.00     0.040 A 
ATOM     84  F   UNL A   1      36.545  29.964  27.909  1.00  0.00    -0.206 F 
ATOM     85  C   UNL A   1      33.593  32.009  27.568  1.00  0.00     0.006 A 
ENDBRANCH  57  78
BRANCH  69  86
ATOM     86  C   UNL A   1      39.351  32.811  34.384  1.00  0.00     0.057 A 
ATOM     87  C   UNL A   1      38.694  33.523  35.400  1.00  0.00     0.134 A 
ATOM     88  C   UNL A   1      39.370  31.416  34.504  1.00  0.00     0.134 A 
ATOM     89  F   UNL A   1      38.526  34.850  35.326  1.00  0.00    -0.206 F 
ATOM     90  C   UNL A   1      38.129  32.876  36.505  1.00  0.00     0.040 A 
ATOM     91  C   UNL A   1      38.777  30.756  35.580  1.00  0.00     0.040 A 
ATOM     92  F   UNL A   1      39.931  30.663  33.545  1.00  0.00    -0.206 F 
ATOM     93  C   UNL A   1      38.166  31.487  36.594  1.00  0.00     0.006 A 
ENDBRANCH  69  86
ENDBRANCH  43  44
ENDBRANCH  35  38
ENDBRANCH  33  34
ENDBRANCH  32  33
ENDBRANCH  31  32
ENDBRANCH  30  31
ENDBRANCH   1  30
TORSDOF 20
ENDMDL
MODEL 2
REMARK VINA RESULT:     -11.1      3.258      7.885
REMARK SMILES COC(=O)c1sc(SCC(=O)NCCCCCCNC(=O)c2ccc(-c3c4nc(c(-c5c(F)cccc5F)c5ccc([nH]5)c(-c5c(F)cccc5F)c5nc(c(-c6c(F)cccc6F)c6ccc3[nH]6)C=C5)C=C4)cc2)c(NC(=O)c2ccccc2)c1O
REMARK SMILES IDX 14 1 13 2 12 3 10 4 11 5 9 7 8 8 7 9 5 10 6 11 86 12 76 13
REMARK SMILES IDX 3 14 4 15 2 16 1 17 87 18 77 20 78 21 79 23 80 24 81 25
REMARK SMILES IDX 85 26 82 27 84 28 83 29 15 30 16 31 17 32 18 33 19 34 20 35
REMARK SMILES IDX 21 37 22 38 23 39 75 40 24 41 74 42 25 43 26 44 27 45 68 46
REMARK SMILES IDX 28 47 73 48 67 49 69 50 29 51 72 52 66 53 65 54 30 56 56 57
REMARK SMILES IDX 39 58 55 59 40 60 43 61 54 62 70 63 41 64 42 65 53 67 71 68
REMARK SMILES IDX 44 69 31 70 32 71 37 72 33 73 34 74 36 75 38 76 35 77 57 78
REMARK SMILES IDX 58 79 63 80 59 81 60 82 62 83 64 84 61 85 45 86 46 87 51 88
REMARK SMILES IDX 47 89 48 90 50 91 52 92 49 93
REMARK H PARENT 12 6 87 19 77 22 19 36 69 55 43 66
REMARK Flexibility Score: inf
ROOT
ATOM      1  C   UNL A   1      34.059  33.205  28.385  1.00  0.00     0.021 C 
ENDROOT
BRANCH   1   2
ATOM      2  C   UNL A   1      35.508  32.904  27.999  1.00  0.00     0.116 C 
BRANCH   2   3
ATOM      3  N   UNL A   1      36.011  31.727  28.656  1.00  0.00    -0.355 N 
ATOM      4  C   UNL A   1      35.739  30.403  28.434  1.00  0.00     0.230 C 
ATOM      5  O   UNL A   1      36.469  29.607  29.033  1.00  0.00    -0.274 OA
ATOM      6  H   UNL A   1      36.654  31.900  29.381  1.00  0.00     0.163 HD
BRANCH   4   7
ATOM      7  C   UNL A   1      34.523  29.924  27.276  1.00  0.00     0.175 C 
BRANCH   7   8
ATOM      8  S   UNL A   1      33.951  27.564  26.382  1.00  0.00    -0.103 SA
BRANCH   8   9
ATOM      9  C   UNL A   1      32.291  27.281  25.586  1.00  0.00     0.089 A 
ATOM     10  C   UNL A   1      30.288  27.584  24.107  1.00  0.00     0.157 A 
ATOM     11  S   UNL A   1      31.835  28.313  24.267  1.00  0.00    -0.116 S 
ATOM     12  C   UNL A   1      30.153  26.546  25.001  1.00  0.00     0.166 A 
ATOM     13  C   UNL A   1      31.293  26.334  25.822  1.00  0.00     0.109 A 
BRANCH  10  14
ATOM     14  C   UNL A   1      29.345  28.077  23.122  1.00  0.00     0.352 C 
ATOM     15  O   UNL A   1      28.125  27.987  23.155  1.00  0.00    -0.245 OA
BRANCH  14  16
ATOM     16  O   UNL A   1      30.043  28.695  22.114  1.00  0.00    -0.465 OA
ATOM     17  C   UNL A   1      29.581  29.994  21.735  1.00  0.00     0.282 C 
ENDBRANCH  14  16
ENDBRANCH  10  14
BRANCH  12  18
ATOM     18  O   UNL A   1      29.035  25.793  25.132  1.00  0.00    -0.504 OA
ATOM     19  H   UNL A   1      29.085  24.861  25.047  1.00  0.00     0.293 HD
ENDBRANCH  12  18
BRANCH  13  20
ATOM     20  N   UNL A   1      31.267  25.301  26.755  1.00  0.00    -0.317 N 
ATOM     21  C   UNL A   1      31.848  24.080  26.613  1.00  0.00     0.255 C 
ATOM     22  H   UNL A   1      30.784  25.470  27.596  1.00  0.00     0.170 HD
ATOM     23  O   UNL A   1      31.562  23.099  27.281  1.00  0.00    -0.269 OA
BRANCH  21  24
ATOM     24  C   UNL A   1      32.837  24.020  25.544  1.00  0.00     0.040 A 
ATOM     25  C   UNL A   1      34.563  24.028  26.025  1.00  0.00     0.014 A 
ATOM     26  C   UNL A   1      32.347  23.473  23.855  1.00  0.00     0.014 A 
ATOM     27  C   UNL A   1      35.802  23.502  24.840  1.00  0.00     0.001 A 
ATOM     28  C   UNL A   1      33.620  22.921  22.707  1.00  0.00     0.001 A 
ATOM     29  C   UNL A   1      35.342  22.931  23.212  1.00  0.00     0.000 A 
ENDBRANCH  21  24
ENDBRANCH  13  20
ENDBRANCH   8   9
ENDBRANCH   7   8
ENDBRANCH   4   7
ENDBRANCH   2   3
ENDBRANCH   1   2
BRANCH   1  30
ATOM     30  C   UNL A   1      33.858  33.555  29.857  1.00  0.00     0.002 C 
BRANCH  30  31
ATOM     31  C   UNL A   1      34.929  34.473  30.455  1.00  0.00     0.002 C 
BRANCH  31  32
ATOM     32  C   UNL A   1      34.699  34.916  31.910  1.00  0.00     0.021 C 
BRANCH  32  33
ATOM     33  C   UNL A   1      34.587  33.757  32.878  1.00  0.00     0.116 C 
BRANCH  33  34
ATOM     34  N   UNL A   1      34.794  34.193  34.250  1.00  0.00    -0.352 N 
ATOM     35  C   UNL A   1      35.815  33.848  35.103  1.00  0.00     0.251 C 
ATOM     36  H   UNL A   1      34.120  34.812  34.612  1.00  0.00     0.163 HD
ATOM     37  O   UNL A   1      35.668  33.938  36.316  1.00  0.00    -0.269 OA
BRANCH  35  38
ATOM     38  C   UNL A   1      37.094  33.386  34.538  1.00  0.00     0.039 A 
ATOM     39  C   UNL A   1      37.403  32.025  34.514  1.00  0.00     0.014 A 
ATOM     40  C   UNL A   1      38.001  34.332  34.058  1.00  0.00     0.014 A 
ATOM     41  C   UNL A   1      38.622  31.629  33.976  1.00  0.00     0.010 A 
ATOM     42  C   UNL A   1      39.133  33.934  33.394  1.00  0.00     0.010 A 
ATOM     43  C   UNL A   1      39.477  32.592  33.412  1.00  0.00    -0.014 A 
BRANCH  43  44
ATOM     44  C   UNL A   1      40.662  32.186  32.671  1.00  0.00     0.031 A 
ATOM     45  C   UNL A   1      41.884  32.226  33.511  1.00  0.00     0.074 A 
ATOM     46  C   UNL A   1      40.633  31.654  31.429  1.00  0.00     0.049 A 
ATOM     47  N   UNL A   1      42.830  33.099  33.441  1.00  0.00    -0.248 NA
ATOM     48  C   UNL A   1      41.966  31.356  34.697  1.00  0.00     0.031 C 
ATOM     49  C   UNL A   1      39.466  31.299  30.618  1.00  0.00     0.029 A 
ATOM     50  N   UNL A   1      41.670  31.229  30.652  1.00  0.00    -0.354 N 
ATOM     51  C   UNL A   1      43.761  32.725  34.402  1.00  0.00     0.074 A 
ATOM     52  C   UNL A   1      43.078  31.814  35.281  1.00  0.00     0.031 C 
ATOM     53  C   UNL A   1      39.849  30.510  29.587  1.00  0.00     0.029 A 
ATOM     54  C   UNL A   1      41.298  30.425  29.572  1.00  0.00     0.049 A 
ATOM     55  H   UNL A   1      42.607  31.472  30.838  1.00  0.00     0.167 HD
ATOM     56  C   UNL A   1      45.083  32.966  34.192  1.00  0.00     0.037 A 
ATOM     57  C   UNL A   1      42.136  29.718  28.765  1.00  0.00     0.037 A 
ATOM     58  C   UNL A   1      45.255  33.941  33.136  1.00  0.00     0.049 A 
ATOM     59  C   UNL A   1      43.492  30.317  28.907  1.00  0.00     0.074 A 
ATOM     60  C   UNL A   1      44.796  35.229  32.924  1.00  0.00     0.029 A 
ATOM     61  N   UNL A   1      45.635  33.473  31.901  1.00  0.00    -0.354 N 
ATOM     62  N   UNL A   1      43.799  31.504  28.462  1.00  0.00    -0.248 NA
ATOM     63  C   UNL A   1      44.324  29.818  29.991  1.00  0.00     0.031 C 
ATOM     64  C   UNL A   1      44.451  35.271  31.541  1.00  0.00     0.029 A 
ATOM     65  C   UNL A   1      44.827  34.059  30.962  1.00  0.00     0.049 A 
ATOM     66  H   UNL A   1      46.360  32.830  31.722  1.00  0.00     0.167 HD
ATOM     67  C   UNL A   1      44.517  32.083  29.498  1.00  0.00     0.074 A 
ATOM     68  C   UNL A   1      44.861  30.975  30.391  1.00  0.00     0.031 C 
ATOM     69  C   UNL A   1      44.494  33.433  29.705  1.00  0.00     0.037 A 
BRANCH  56  70
ATOM     70  C   UNL A   1      46.195  32.021  34.589  1.00  0.00     0.057 A 
ATOM     71  C   UNL A   1      46.088  30.667  34.216  1.00  0.00     0.134 A 
ATOM     72  C   UNL A   1      47.177  32.291  35.564  1.00  0.00     0.134 A 
ATOM     73  F   UNL A   1      45.195  30.277  33.292  1.00  0.00    -0.206 F 
ATOM     74  C   UNL A   1      46.814  29.653  34.847  1.00  0.00     0.040 A 
ATOM     75  C   UNL A   1      47.944  31.289  36.165  1.00  0.00     0.040 A 
ATOM     76  F   UNL A   1      47.391  33.511  36.066  1.00  0.00    -0.206 F 
ATOM     77  C   UNL A   1      47.736  29.961  35.837  1.00  0.00     0.006 A 
ENDBRANCH  56  70
BRANCH  57  78
ATOM     78  C   UNL A   1      41.935  28.397  28.115  1.00  0.00     0.057 A 
ATOM     79  C   UNL A   1      41.857  27.213  28.869  1.00  0.00     0.134 A 
ATOM     80  C   UNL A   1      41.526  28.293  26.774  1.00  0.00     0.134 A 
ATOM     81  F   UNL A   1      42.184  27.209  30.169  1.00  0.00    -0.206 F 
ATOM     82  C   UNL A   1      41.373  26.011  28.331  1.00  0.00     0.040 A 
ATOM     83  C   UNL A   1      41.045  27.099  26.224  1.00  0.00     0.040 A 
ATOM     84  F   UNL A   1      41.489  29.370  25.977  1.00  0.00    -0.206 F 
ATOM     85  C   UNL A   1      40.952  25.954  27.006  1.00  0.00     0.006 A 
ENDBRANCH  57  78
BRANCH  69  86
ATOM     86  C   UNL A   1      43.901  34.318  28.643  1.00  0.00     0.057 A 
ATOM     87  C   UNL A   1      44.546  34.694  27.454  1.00  0.00     0.134 A 
ATOM     88  C   UNL A   1      42.555  34.682  28.771  1.00  0.00     0.134 A 
ATOM     89  F   UNL A   1      45.799  34.303  27.186  1.00  0.00    -0.206 F 
ATOM     90  C   UNL A   1      43.892  35.439  26.466  1.00  0.00     0.040 A 
ATOM     91  C   UNL A   1      41.881  35.391  27.776  1.00  0.00     0.040 A 
ATOM     92  F   UNL A   1      41.855  34.311  29.854  1.00  0.00    -0.206 F 
ATOM     93  C   UNL A   1      42.553  35.785  26.624  1.00  0.00     0.006 A 
ENDBRANCH  69  86
ENDBRANCH  43  44
ENDBRANCH  35  38
ENDBRANCH  33  34
ENDBRANCH  32  33
ENDBRANCH  31  32
ENDBRANCH  30  31
ENDBRANCH   1  30
TORSDOF 20
ENDMDL
MODEL 3
REMARK VINA RESULT:     -11.0      5.076      9.955
REMARK SMILES COC(=O)c1sc(SCC(=O)NCCCCCCNC(=O)c2ccc(-c3c4nc(c(-c5c(F)cccc5F)c5ccc([nH]5)c(-c5c(F)cccc5F)c5nc(c(-c6c(F)cccc6F)c6ccc3[nH]6)C=C5)C=C4)cc2)c(NC(=O)c2ccccc2)c1O
REMARK SMILES IDX 14 1 13 2 12 3 10 4 11 5 9 7 8 8 7 9 5 10 6 11 86 12 76 13
REMARK SMILES IDX 3 14 4 15 2 16 1 17 87 18 77 20 78 21 79 23 80 24 81 25
REMARK SMILES IDX 85 26 82 27 84 28 83 29 15 30 16 31 17 32 18 33 19 34 20 35
REMARK SMILES IDX 21 37 22 38 23 39 75 40 24 41 74 42 25 43 26 44 27 45 68 46
REMARK SMILES IDX 28 47 73 48 67 49 69 50 29 51 72 52 66 53 65 54 30 56 56 57
REMARK SMILES IDX 39 58 55 59 40 60 43 61 54 62 70 63 41 64 42 65 53 67 71 68
REMARK SMILES IDX 44 69 31 70 32 71 37 72 33 73 34 74 36 75 38 76 35 77 57 78
REMARK SMILES IDX 58 79 63 80 59 81 60 82 62 83 64 84 61 85 45 86 46 87 51 88
REMARK SMILES IDX 47 89 48 90 50 91 52 92 49 93
REMARK H PARENT 12 6 87 19 77 22 19 36 69 55 43 66
REMARK Flexibility Score: inf
ROOT
ATOM      1  C   UNL A   1      44.826  26.234  27.332  1.00  0.00     0.021 C 
ENDROOT
BRANCH   1   2
ATOM      2  C   UNL A   1      45.235  26.138  28.801  1.00  0.00     0.116 C 
BRANCH   2   3
ATOM      3  N   UNL A   1      46.470  26.829  29.067  1.00  0.00    -0.355 N 
ATOM      4  C   UNL A   1      47.297  26.777  30.158  1.00  0.00     0.230 C 
ATOM      5  O   UNL A   1      48.386  27.342  30.019  1.00  0.00    -0.274 OA
ATOM      6  H   UNL A   1      46.767  27.436  28.352  1.00  0.00     0.163 HD
BRANCH   4   7
ATOM      7  C   UNL A   1      46.853  25.854  31.572  1.00  0.00     0.175 C 
BRANCH   7   8
ATOM      8  S   UNL A   1      44.592  25.764  32.826  1.00  0.00    -0.103 SA
BRANCH   8   9
ATOM      9  C   UNL A   1      44.594  25.795  34.688  1.00  0.00     0.089 A 
ATOM     10  C   UNL A   1      44.876  26.602  37.046  1.00  0.00     0.157 A 
ATOM     11  S   UNL A   1      44.981  27.291  35.476  1.00  0.00    -0.116 S 
ATOM     12  C   UNL A   1      44.500  25.280  36.964  1.00  0.00     0.166 A 
ATOM     13  C   UNL A   1      44.298  24.814  35.637  1.00  0.00     0.109 A 
BRANCH  10  14
ATOM     14  C   UNL A   1      45.160  27.406  38.219  1.00  0.00     0.352 C 
ATOM     15  O   UNL A   1      44.667  28.487  38.512  1.00  0.00    -0.245 OA
BRANCH  14  16
ATOM     16  O   UNL A   1      46.088  26.750  38.989  1.00  0.00    -0.465 OA
ATOM     17  C   UNL A   1      46.025  27.000  40.396  1.00  0.00     0.282 C 
ENDBRANCH  14  16
ENDBRANCH  10  14
BRANCH  12  18
ATOM     18  O   UNL A   1      44.356  24.461  38.033  1.00  0.00    -0.504 OA
ATOM     19  H   UNL A   1      44.689  23.585  38.001  1.00  0.00     0.293 HD
ENDBRANCH  12  18
BRANCH  13  20
ATOM     20  N   UNL A   1      43.905  23.493  35.441  1.00  0.00    -0.317 N 
ATOM     21  C   UNL A   1      44.734  22.433  35.245  1.00  0.00     0.255 C 
ATOM     22  H   UNL A   1      42.937  23.309  35.443  1.00  0.00     0.170 HD
ATOM     23  O   UNL A   1      44.383  21.364  34.773  1.00  0.00    -0.269 OA
BRANCH  21  24
ATOM     24  C   UNL A   1      46.119  22.694  35.614  1.00  0.00     0.040 A 
ATOM     25  C   UNL A   1      46.708  21.969  37.143  1.00  0.00     0.014 A 
ATOM     26  C   UNL A   1      47.316  23.308  34.356  1.00  0.00     0.014 A 
ATOM     27  C   UNL A   1      48.475  21.853  37.430  1.00  0.00     0.001 A 
ATOM     28  C   UNL A   1      49.082  23.141  34.669  1.00  0.00     0.001 A 
ATOM     29  C   UNL A   1      49.650  22.406  36.204  1.00  0.00     0.000 A 
ENDBRANCH  21  24
ENDBRANCH  13  20
ENDBRANCH   8   9
ENDBRANCH   7   8
ENDBRANCH   4   7
ENDBRANCH   2   3
ENDBRANCH   1   2
BRANCH   1  30
ATOM     30  C   UNL A   1      44.804  24.897  26.594  1.00  0.00     0.002 C 
BRANCH  30  31
ATOM     31  C   UNL A   1      44.289  24.964  25.152  1.00  0.00     0.002 C 
BRANCH  31  32
ATOM     32  C   UNL A   1      43.666  23.670  24.600  1.00  0.00     0.021 C 
BRANCH  32  33
ATOM     33  C   UNL A   1      43.332  22.660  25.678  1.00  0.00     0.116 C 
BRANCH  33  34
ATOM     34  N   UNL A   1      41.931  22.273  25.622  1.00  0.00    -0.352 N 
ATOM     35  C   UNL A   1      40.881  22.788  26.344  1.00  0.00     0.251 C 
ATOM     36  H   UNL A   1      41.708  21.554  24.989  1.00  0.00     0.163 HD
ATOM     37  O   UNL A   1      39.862  22.129  26.514  1.00  0.00    -0.269 OA
BRANCH  35  38
ATOM     38  C   UNL A   1      40.992  24.149  26.895  1.00  0.00     0.039 A 
ATOM     39  C   UNL A   1      40.546  25.246  26.157  1.00  0.00     0.014 A 
ATOM     40  C   UNL A   1      41.578  24.324  28.149  1.00  0.00     0.014 A 
ATOM     41  C   UNL A   1      40.672  26.515  26.710  1.00  0.00     0.010 A 
ATOM     42  C   UNL A   1      41.566  25.553  28.756  1.00  0.00     0.010 A 
ATOM     43  C   UNL A   1      41.177  26.657  28.015  1.00  0.00    -0.014 A 
BRANCH  43  44
ATOM     44  C   UNL A   1      41.136  27.947  28.687  1.00  0.00     0.031 A 
ATOM     45  C   UNL A   1      42.274  28.815  28.296  1.00  0.00     0.074 A 
ATOM     46  C   UNL A   1      40.094  28.380  29.429  1.00  0.00     0.049 A 
ATOM     47  N   UNL A   1      43.300  29.102  29.022  1.00  0.00    -0.248 NA
ATOM     48  C   UNL A   1      42.412  29.222  26.887  1.00  0.00     0.031 C 
ATOM     49  C   UNL A   1      38.798  27.732  29.647  1.00  0.00     0.029 A 
ATOM     50  N   UNL A   1      39.943  29.565  30.089  1.00  0.00    -0.354 N 
ATOM     51  C   UNL A   1      44.082  29.951  28.249  1.00  0.00     0.074 A 
ATOM     52  C   UNL A   1      43.619  29.796  26.897  1.00  0.00     0.031 C 
ATOM     53  C   UNL A   1      37.926  28.620  30.178  1.00  0.00     0.029 A 
ATOM     54  C   UNL A   1      38.632  29.852  30.478  1.00  0.00     0.049 A 
ATOM     55  H   UNL A   1      40.699  30.169  30.276  1.00  0.00     0.167 HD
ATOM     56  C   UNL A   1      44.825  30.920  28.851  1.00  0.00     0.037 A 
ATOM     57  C   UNL A   1      38.178  31.037  30.971  1.00  0.00     0.037 A 
ATOM     58  C   UNL A   1      44.961  30.644  30.265  1.00  0.00     0.049 A 
ATOM     59  C   UNL A   1      39.362  31.787  31.474  1.00  0.00     0.074 A 
ATOM     60  C   UNL A   1      45.430  29.569  31.000  1.00  0.00     0.029 A 
ATOM     61  N   UNL A   1      44.181  31.375  31.129  1.00  0.00    -0.354 N 
ATOM     62  N   UNL A   1      40.043  31.424  32.525  1.00  0.00    -0.248 NA
ATOM     63  C   UNL A   1      40.080  32.610  30.513  1.00  0.00     0.031 C 
ATOM     64  C   UNL A   1      44.511  29.439  32.084  1.00  0.00     0.029 A 
ATOM     65  C   UNL A   1      43.612  30.504  32.020  1.00  0.00     0.049 A 
ATOM     66  H   UNL A   1      44.053  32.351  31.110  1.00  0.00     0.167 HD
ATOM     67  C   UNL A   1      41.368  31.552  32.136  1.00  0.00     0.074 A 
ATOM     68  C   UNL A   1      41.330  32.344  30.905  1.00  0.00     0.031 C 
ATOM     69  C   UNL A   1      42.339  30.744  32.657  1.00  0.00     0.037 A 
BRANCH  56  70
ATOM     70  C   UNL A   1      45.026  32.310  28.290  1.00  0.00     0.057 A 
ATOM     71  C   UNL A   1      46.335  32.721  27.976  1.00  0.00     0.134 A 
ATOM     72  C   UNL A   1      44.075  33.349  28.343  1.00  0.00     0.134 A 
ATOM     73  F   UNL A   1      47.334  31.830  27.888  1.00  0.00    -0.206 F 
ATOM     74  C   UNL A   1      46.690  34.068  27.843  1.00  0.00     0.040 A 
ATOM     75  C   UNL A   1      44.410  34.693  28.162  1.00  0.00     0.040 A 
ATOM     76  F   UNL A   1      42.793  33.150  28.666  1.00  0.00    -0.206 F 
ATOM     77  C   UNL A   1      45.727  35.061  27.951  1.00  0.00     0.006 A 
ENDBRANCH  56  70
BRANCH  57  78
ATOM     78  C   UNL A   1      36.863  31.701  30.779  1.00  0.00     0.057 A 
ATOM     79  C   UNL A   1      35.979  31.902  31.854  1.00  0.00     0.134 A 
ATOM     80  C   UNL A   1      36.563  32.413  29.604  1.00  0.00     0.134 A 
ATOM     81  F   UNL A   1      36.194  31.304  33.035  1.00  0.00    -0.206 F 
ATOM     82  C   UNL A   1      34.886  32.778  31.774  1.00  0.00     0.040 A 
ATOM     83  C   UNL A   1      35.473  33.286  29.510  1.00  0.00     0.040 A 
ATOM     84  F   UNL A   1      37.372  32.357  28.537  1.00  0.00    -0.206 F 
ATOM     85  C   UNL A   1      34.637  33.485  30.602  1.00  0.00     0.006 A 
ENDBRANCH  57  78
BRANCH  69  86
ATOM     86  C   UNL A   1      42.008  29.897  33.855  1.00  0.00     0.057 A 
ATOM     87  C   UNL A   1      41.543  28.573  33.802  1.00  0.00     0.134 A 
ATOM     88  C   UNL A   1      42.319  30.405  35.122  1.00  0.00     0.134 A 
ATOM     89  F   UNL A   1      41.319  27.958  32.634  1.00  0.00    -0.206 F 
ATOM     90  C   UNL A   1      41.352  27.814  34.963  1.00  0.00     0.040 A 
ATOM     91  C   UNL A   1      42.170  29.645  36.282  1.00  0.00     0.040 A 
ATOM     92  F   UNL A   1      42.821  31.643  35.249  1.00  0.00    -0.206 F 
ATOM     93  C   UNL A   1      41.671  28.349  36.207  1.00  0.00     0.006 A 
ENDBRANCH  69  86
ENDBRANCH  43  44
ENDBRANCH  35  38
ENDBRANCH  33  34
ENDBRANCH  32  33
ENDBRANCH  31  32
ENDBRANCH  30  31
ENDBRANCH   1  30
TORSDOF 20
ENDMDL
