MODEL 1
REMARK VINA RESULT:     -11.3      0.000      0.000
REMARK SMILES CC1(C)CCN(C(=O)CC(C)(C)C(=O)NCCCCCCNC(=O)c2ccc(-c3c4nc(c(-c5c(F)cccc5F)c5ccc([nH]5)c(-c5c(F)cccc5F)c5nc(c(-c6c(F)cccc6F)c6ccc3[nH]6)C=C5)C=C4)cc2)C1
REMARK SMILES IDX 18 1 17 2 16 3 15 4 13 5 14 6 10 8 11 9 12 10 9 11 7 12 8 13
REMARK SMILES IDX 6 14 1 15 2 16 3 17 4 18 79 19 5 20 19 21 20 22 21 23 22 24
REMARK SMILES IDX 23 25 24 27 25 28 26 29 78 30 27 31 77 32 28 33 29 34 30 35
REMARK SMILES IDX 71 36 31 37 76 38 70 39 72 40 32 41 75 42 69 43 68 44 33 46
REMARK SMILES IDX 59 47 42 48 58 49 43 50 46 51 57 52 73 53 44 54 45 55 56 57
REMARK SMILES IDX 74 58 47 59 34 60 35 61 40 62 36 63 37 64 39 65 41 66 38 67
REMARK SMILES IDX 60 68 61 69 66 70 62 71 63 72 65 73 67 74 64 75 48 76 49 77
REMARK SMILES IDX 54 78 50 79 51 80 53 81 55 82 52 83
REMARK H PARENT 15 7 22 26 72 45 46 56
REMARK Flexibility Score: inf
ROOT
ATOM      1  C   UNL A   1      32.637  29.895  26.852  1.00  0.00     0.002 C 
ENDROOT
BRANCH   1   2
ATOM      2  C   UNL A   1      32.166  28.564  27.433  1.00  0.00     0.021 C 
BRANCH   2   3
ATOM      3  C   UNL A   1      32.221  27.380  26.478  1.00  0.00     0.116 C 
BRANCH   3   4
ATOM      4  N   UNL A   1      31.176  26.411  26.727  1.00  0.00    -0.356 N 
ATOM      5  C   UNL A   1      30.184  25.910  25.943  1.00  0.00     0.226 C 
ATOM      6  O   UNL A   1      29.412  25.137  26.511  1.00  0.00    -0.274 OA
ATOM      7  H   UNL A   1      31.185  26.045  27.641  1.00  0.00     0.163 HD
BRANCH   5   8
ATOM      8  C   UNL A   1      29.975  26.346  24.477  1.00  0.00     0.052 C 
ATOM      9  C   UNL A   1      28.505  26.286  24.049  1.00  0.00     0.022 C 
ATOM     10  C   UNL A   1      30.778  25.385  23.572  1.00  0.00     0.022 C 
BRANCH   8  11
ATOM     11  C   UNL A   1      30.535  27.790  24.221  1.00  0.00     0.116 C 
BRANCH  11  12
ATOM     12  C   UNL A   1      30.033  28.630  23.041  1.00  0.00     0.223 C 
ATOM     13  O   UNL A   1      30.193  28.225  21.886  1.00  0.00    -0.275 OA
BRANCH  12  14
ATOM     14  N   UNL A   1      29.325  29.789  23.265  1.00  0.00    -0.342 N 
ATOM     15  C   UNL A   1      28.435  31.689  21.161  1.00  0.00     0.013 C 
ATOM     16  C   UNL A   1      28.572  31.916  22.682  1.00  0.00    -0.016 C 
ATOM     17  C   UNL A   1      28.660  33.415  22.948  1.00  0.00     0.013 C 
ATOM     18  C   UNL A   1      27.423  31.206  23.421  1.00  0.00     0.030 C 
ATOM     19  C   UNL A   1      29.762  31.167  23.296  1.00  0.00     0.126 C 
ATOM     20  C   UNL A   1      27.878  29.739  23.466  1.00  0.00     0.120 C 
ENDBRANCH  12  14
ENDBRANCH  11  12
ENDBRANCH   8  11
ENDBRANCH   5   8
ENDBRANCH   3   4
ENDBRANCH   2   3
ENDBRANCH   1   2
BRANCH   1  21
ATOM     21  C   UNL A   1      31.562  30.724  26.142  1.00  0.00     0.002 C 
BRANCH  21  22
ATOM     22  C   UNL A   1      31.352  32.143  26.675  1.00  0.00     0.021 C 
BRANCH  22  23
ATOM     23  C   UNL A   1      32.606  32.843  27.188  1.00  0.00     0.116 C 
BRANCH  23  24
ATOM     24  N   UNL A   1      32.349  34.206  27.612  1.00  0.00    -0.352 N 
ATOM     25  C   UNL A   1      32.981  34.954  28.572  1.00  0.00     0.251 C 
ATOM     26  H   UNL A   1      31.613  34.661  27.143  1.00  0.00     0.163 HD
ATOM     27  O   UNL A   1      32.522  36.040  28.908  1.00  0.00    -0.269 OA
BRANCH  25  28
ATOM     28  C   UNL A   1      34.205  34.439  29.224  1.00  0.00     0.039 A 
ATOM     29  C   UNL A   1      34.082  33.783  30.452  1.00  0.00     0.014 A 
ATOM     30  C   UNL A   1      35.464  34.608  28.641  1.00  0.00     0.014 A 
ATOM     31  C   UNL A   1      35.215  33.250  31.067  1.00  0.00     0.010 A 
ATOM     32  C   UNL A   1      36.583  34.013  29.221  1.00  0.00     0.010 A 
ATOM     33  C   UNL A   1      36.470  33.331  30.442  1.00  0.00    -0.014 A 
BRANCH  33  34
ATOM     34  C   UNL A   1      37.667  32.698  31.052  1.00  0.00     0.031 A 
ATOM     35  C   UNL A   1      38.285  31.478  30.426  1.00  0.00     0.074 A 
ATOM     36  C   UNL A   1      38.163  33.192  32.204  1.00  0.00     0.049 A 
ATOM     37  N   UNL A   1      39.305  30.767  30.835  1.00  0.00    -0.248 NA
ATOM     38  C   UNL A   1      37.663  30.975  29.190  1.00  0.00     0.031 C 
ATOM     39  C   UNL A   1      37.617  34.334  32.939  1.00  0.00     0.029 A 
ATOM     40  N   UNL A   1      39.231  32.788  32.966  1.00  0.00    -0.354 N 
ATOM     41  C   UNL A   1      39.434  29.727  29.923  1.00  0.00     0.074 A 
ATOM     42  C   UNL A   1      38.363  29.873  28.962  1.00  0.00     0.031 C 
ATOM     43  C   UNL A   1      38.363  34.550  34.034  1.00  0.00     0.029 A 
ATOM     44  C   UNL A   1      39.416  33.542  34.099  1.00  0.00     0.049 A 
ATOM     45  H   UNL A   1      39.809  32.029  32.722  1.00  0.00     0.167 HD
ATOM     46  C   UNL A   1      40.372  28.751  29.882  1.00  0.00     0.037 A 
ATOM     47  C   UNL A   1      40.326  33.428  35.085  1.00  0.00     0.037 A 
ATOM     48  C   UNL A   1      41.457  28.631  30.820  1.00  0.00     0.049 A 
ATOM     49  C   UNL A   1      41.362  32.341  35.004  1.00  0.00     0.074 A 
ATOM     50  C   UNL A   1      42.507  27.730  30.809  1.00  0.00     0.029 A 
ATOM     51  N   UNL A   1      41.626  29.429  31.940  1.00  0.00    -0.354 N 
ATOM     52  N   UNL A   1      41.528  31.424  34.084  1.00  0.00    -0.248 NA
ATOM     53  C   UNL A   1      42.345  32.280  36.095  1.00  0.00     0.031 C 
ATOM     54  C   UNL A   1      43.283  27.948  31.952  1.00  0.00     0.029 A 
ATOM     55  C   UNL A   1      42.746  29.021  32.645  1.00  0.00     0.049 A 
ATOM     56  H   UNL A   1      41.039  30.177  32.196  1.00  0.00     0.167 HD
ATOM     57  C   UNL A   1      42.646  30.695  34.469  1.00  0.00     0.074 A 
ATOM     58  C   UNL A   1      43.130  31.290  35.697  1.00  0.00     0.031 C 
ATOM     59  C   UNL A   1      43.220  29.627  33.863  1.00  0.00     0.037 A 
BRANCH  46  60
ATOM     60  C   UNL A   1      40.272  27.729  28.787  1.00  0.00     0.057 A 
ATOM     61  C   UNL A   1      40.949  27.876  27.569  1.00  0.00     0.134 A 
ATOM     62  C   UNL A   1      39.543  26.548  28.980  1.00  0.00     0.134 A 
ATOM     63  F   UNL A   1      41.658  28.987  27.316  1.00  0.00    -0.206 F 
ATOM     64  C   UNL A   1      40.890  26.895  26.578  1.00  0.00     0.040 A 
ATOM     65  C   UNL A   1      39.499  25.548  28.007  1.00  0.00     0.040 A 
ATOM     66  F   UNL A   1      38.876  26.339  30.126  1.00  0.00    -0.206 F 
ATOM     67  C   UNL A   1      40.172  25.722  26.800  1.00  0.00     0.006 A 
ENDBRANCH  46  60
BRANCH  47  68
ATOM     68  C   UNL A   1      40.306  34.369  36.235  1.00  0.00     0.057 A 
ATOM     69  C   UNL A   1      39.529  34.112  37.370  1.00  0.00     0.134 A 
ATOM     70  C   UNL A   1      41.040  35.562  36.214  1.00  0.00     0.134 A 
ATOM     71  F   UNL A   1      38.790  32.995  37.444  1.00  0.00    -0.206 F 
ATOM     72  C   UNL A   1      39.458  35.018  38.429  1.00  0.00     0.040 A 
ATOM     73  C   UNL A   1      41.000  36.464  37.278  1.00  0.00     0.040 A 
ATOM     74  F   UNL A   1      41.812  35.865  35.160  1.00  0.00    -0.206 F 
ATOM     75  C   UNL A   1      40.198  36.198  38.386  1.00  0.00     0.006 A 
ENDBRANCH  47  68
BRANCH  59  76
ATOM     76  C   UNL A   1      44.454  29.057  34.500  1.00  0.00     0.057 A 
ATOM     77  C   UNL A   1      45.734  29.535  34.193  1.00  0.00     0.134 A 
ATOM     78  C   UNL A   1      44.356  28.040  35.457  1.00  0.00     0.134 A 
ATOM     79  F   UNL A   1      45.898  30.499  33.274  1.00  0.00    -0.206 F 
ATOM     80  C   UNL A   1      46.875  29.003  34.796  1.00  0.00     0.040 A 
ATOM     81  C   UNL A   1      45.487  27.521  36.090  1.00  0.00     0.040 A 
ATOM     82  F   UNL A   1      43.159  27.544  35.806  1.00  0.00    -0.206 F 
ATOM     83  C   UNL A   1      46.752  27.998  35.753  1.00  0.00     0.006 A 
ENDBRANCH  59  76
ENDBRANCH  33  34
ENDBRANCH  25  28
ENDBRANCH  23  24
ENDBRANCH  22  23
ENDBRANCH  21  22
ENDBRANCH   1  21
TORSDOF 16
ENDMDL
MODEL 2
REMARK VINA RESULT:     -11.2      0.885      6.259
REMARK SMILES CC1(C)CCN(C(=O)CC(C)(C)C(=O)NCCCCCCNC(=O)c2ccc(-c3c4nc(c(-c5c(F)cccc5F)c5ccc([nH]5)c(-c5c(F)cccc5F)c5nc(c(-c6c(F)cccc6F)c6ccc3[nH]6)C=C5)C=C4)cc2)C1
REMARK SMILES IDX 18 1 17 2 16 3 15 4 13 5 14 6 10 8 11 9 12 10 9 11 7 12 8 13
REMARK SMILES IDX 6 14 1 15 2 16 3 17 4 18 79 19 5 20 19 21 20 22 21 23 22 24
REMARK SMILES IDX 23 25 24 27 25 28 26 29 78 30 27 31 77 32 28 33 29 34 30 35
REMARK SMILES IDX 71 36 31 37 76 38 70 39 72 40 32 41 75 42 69 43 68 44 33 46
REMARK SMILES IDX 59 47 42 48 58 49 43 50 46 51 57 52 73 53 44 54 45 55 56 57
REMARK SMILES IDX 74 58 47 59 34 60 35 61 40 62 36 63 37 64 39 65 41 66 38 67
REMARK SMILES IDX 60 68 61 69 66 70 62 71 63 72 65 73 67 74 64 75 48 76 49 77
REMARK SMILES IDX 54 78 50 79 51 80 53 81 55 82 52 83
REMARK H PARENT 15 7 22 26 72 45 46 56
REMARK Flexibility Score: inf
ROOT
ATOM      1  C   UNL A   1      32.390  29.910  27.186  1.00  0.00     0.002 C 
ENDROOT
BRANCH   1   2
ATOM      2  C   UNL A   1      31.820  28.554  27.598  1.00  0.00     0.021 C 
BRANCH   2   3
ATOM      3  C   UNL A   1      31.982  27.441  26.574  1.00  0.00     0.116 C 
BRANCH   3   4
ATOM      4  N   UNL A   1      31.030  26.367  26.759  1.00  0.00    -0.356 N 
ATOM      5  C   UNL A   1      30.103  25.810  25.934  1.00  0.00     0.226 C 
ATOM      6  O   UNL A   1      29.399  24.943  26.452  1.00  0.00    -0.274 OA
ATOM      7  H   UNL A   1      31.058  25.963  27.657  1.00  0.00     0.163 HD
BRANCH   5   8
ATOM      8  C   UNL A   1      29.878  26.288  24.483  1.00  0.00     0.052 C 
ATOM      9  C   UNL A   1      28.404  26.244  24.071  1.00  0.00     0.022 C 
ATOM     10  C   UNL A   1      30.670  25.354  23.542  1.00  0.00     0.022 C 
BRANCH   8  11
ATOM     11  C   UNL A   1      30.438  27.738  24.264  1.00  0.00     0.116 C 
BRANCH  11  12
ATOM     12  C   UNL A   1      29.977  28.587  23.072  1.00  0.00     0.223 C 
ATOM     13  O   UNL A   1      30.156  28.179  21.921  1.00  0.00    -0.275 OA
BRANCH  12  14
ATOM     14  N   UNL A   1      29.285  29.758  23.281  1.00  0.00    -0.342 N 
ATOM     15  C   UNL A   1      28.575  31.729  21.174  1.00  0.00     0.013 C 
ATOM     16  C   UNL A   1      28.622  31.917  22.705  1.00  0.00    -0.016 C 
ATOM     17  C   UNL A   1      28.729  33.406  23.013  1.00  0.00     0.013 C 
ATOM     18  C   UNL A   1      27.412  31.220  23.353  1.00  0.00     0.030 C 
ATOM     19  C   UNL A   1      29.752  31.123  23.373  1.00  0.00     0.126 C 
ATOM     20  C   UNL A   1      27.828  29.741  23.390  1.00  0.00     0.120 C 
ENDBRANCH  12  14
ENDBRANCH  11  12
ENDBRANCH   8  11
ENDBRANCH   5   8
ENDBRANCH   3   4
ENDBRANCH   2   3
ENDBRANCH   1   2
BRANCH   1  21
ATOM     21  C   UNL A   1      31.500  30.750  26.266  1.00  0.00     0.002 C 
BRANCH  21  22
ATOM     22  C   UNL A   1      31.405  32.239  26.607  1.00  0.00     0.021 C 
BRANCH  22  23
ATOM     23  C   UNL A   1      32.705  32.890  27.067  1.00  0.00     0.116 C 
BRANCH  23  24
ATOM     24  N   UNL A   1      32.495  34.203  27.648  1.00  0.00    -0.352 N 
ATOM     25  C   UNL A   1      33.124  34.795  28.714  1.00  0.00     0.251 C 
ATOM     26  H   UNL A   1      31.799  34.749  27.215  1.00  0.00     0.163 HD
ATOM     27  O   UNL A   1      32.702  35.853  29.167  1.00  0.00    -0.269 OA
BRANCH  25  28
ATOM     28  C   UNL A   1      34.296  34.143  29.337  1.00  0.00     0.039 A 
ATOM     29  C   UNL A   1      34.080  33.221  30.364  1.00  0.00     0.014 A 
ATOM     30  C   UNL A   1      35.598  34.442  28.924  1.00  0.00     0.014 A 
ATOM     31  C   UNL A   1      35.165  32.559  30.938  1.00  0.00     0.010 A 
ATOM     32  C   UNL A   1      36.673  33.729  29.449  1.00  0.00     0.010 A 
ATOM     33  C   UNL A   1      36.469  32.783  30.464  1.00  0.00    -0.014 A 
BRANCH  33  34
ATOM     34  C   UNL A   1      37.620  32.025  31.016  1.00  0.00     0.031 A 
ATOM     35  C   UNL A   1      38.146  32.333  32.391  1.00  0.00     0.074 A 
ATOM     36  C   UNL A   1      38.228  31.095  30.253  1.00  0.00     0.049 A 
ATOM     37  N   UNL A   1      39.164  31.807  33.023  1.00  0.00    -0.248 NA
ATOM     38  C   UNL A   1      37.454  33.390  33.148  1.00  0.00     0.031 C 
ATOM     39  C   UNL A   1      37.848  30.745  28.883  1.00  0.00     0.029 A 
ATOM     40  N   UNL A   1      39.301  30.281  30.517  1.00  0.00    -0.354 N 
ATOM     41  C   UNL A   1      39.246  32.476  34.237  1.00  0.00     0.074 A 
ATOM     42  C   UNL A   1      38.203  33.478  34.238  1.00  0.00     0.031 C 
ATOM     43  C   UNL A   1      38.663  29.777  28.434  1.00  0.00     0.029 A 
ATOM     44  C   UNL A   1      39.644  29.464  29.467  1.00  0.00     0.049 A 
ATOM     45  H   UNL A   1      39.780  30.284  31.377  1.00  0.00     0.167 HD
ATOM     46  C   UNL A   1      40.102  32.262  35.264  1.00  0.00     0.037 A 
ATOM     47  C   UNL A   1      40.643  28.568  29.347  1.00  0.00     0.037 A 
ATOM     48  C   UNL A   1      41.116  31.240  35.273  1.00  0.00     0.049 A 
ATOM     49  C   UNL A   1      41.570  28.344  30.510  1.00  0.00     0.074 A 
ATOM     50  C   UNL A   1      41.971  30.887  36.302  1.00  0.00     0.029 A 
ATOM     51  N   UNL A   1      41.416  30.414  34.202  1.00  0.00    -0.354 N 
ATOM     52  N   UNL A   1      41.574  28.920  31.687  1.00  0.00    -0.248 NA
ATOM     53  C   UNL A   1      42.626  27.338  30.331  1.00  0.00     0.031 C 
ATOM     54  C   UNL A   1      42.826  29.884  35.835  1.00  0.00     0.029 A 
ATOM     55  C   UNL A   1      42.465  29.574  34.534  1.00  0.00     0.049 A 
ATOM     56  H   UNL A   1      40.951  30.422  33.334  1.00  0.00     0.167 HD
ATOM     57  C   UNL A   1      42.611  28.329  32.397  1.00  0.00     0.074 A 
ATOM     58  C   UNL A   1      43.202  27.335  31.524  1.00  0.00     0.031 C 
ATOM     59  C   UNL A   1      43.039  28.586  33.657  1.00  0.00     0.037 A 
BRANCH  46  60
ATOM     60  C   UNL A   1      39.986  33.149  36.470  1.00  0.00     0.057 A 
ATOM     61  C   UNL A   1      40.749  34.316  36.610  1.00  0.00     0.134 A 
ATOM     62  C   UNL A   1      39.050  32.867  37.474  1.00  0.00     0.134 A 
ATOM     63  F   UNL A   1      41.669  34.640  35.690  1.00  0.00    -0.206 F 
ATOM     64  C   UNL A   1      40.597  35.160  37.711  1.00  0.00     0.040 A 
ATOM     65  C   UNL A   1      38.869  33.717  38.566  1.00  0.00     0.040 A 
ATOM     66  F   UNL A   1      38.282  31.769  37.400  1.00  0.00    -0.206 F 
ATOM     67  C   UNL A   1      39.647  34.867  38.688  1.00  0.00     0.006 A 
ENDBRANCH  46  60
BRANCH  47  68
ATOM     68  C   UNL A   1      40.822  27.811  28.082  1.00  0.00     0.057 A 
ATOM     69  C   UNL A   1      40.257  26.543  27.908  1.00  0.00     0.134 A 
ATOM     70  C   UNL A   1      41.586  28.325  27.026  1.00  0.00     0.134 A 
ATOM     71  F   UNL A   1      39.529  25.988  28.888  1.00  0.00    -0.206 F 
ATOM     72  C   UNL A   1      40.469  25.799  26.746  1.00  0.00     0.040 A 
ATOM     73  C   UNL A   1      41.783  27.605  25.847  1.00  0.00     0.040 A 
ATOM     74  F   UNL A   1      42.148  29.539  27.124  1.00  0.00    -0.206 F 
ATOM     75  C   UNL A   1      41.233  26.333  25.709  1.00  0.00     0.006 A 
ENDBRANCH  47  68
BRANCH  59  76
ATOM     76  C   UNL A   1      44.177  27.757  34.178  1.00  0.00     0.057 A 
ATOM     77  C   UNL A   1      43.969  26.517  34.795  1.00  0.00     0.134 A 
ATOM     78  C   UNL A   1      45.500  28.191  34.030  1.00  0.00     0.134 A 
ATOM     79  F   UNL A   1      42.724  26.049  34.980  1.00  0.00    -0.206 F 
ATOM     80  C   UNL A   1      45.034  25.751  35.270  1.00  0.00     0.040 A 
ATOM     81  C   UNL A   1      46.576  27.420  34.474  1.00  0.00     0.040 A 
ATOM     82  F   UNL A   1      45.771  29.364  33.439  1.00  0.00    -0.206 F 
ATOM     83  C   UNL A   1      46.343  26.199  35.103  1.00  0.00     0.006 A 
ENDBRANCH  59  76
ENDBRANCH  33  34
ENDBRANCH  25  28
ENDBRANCH  23  24
ENDBRANCH  22  23
ENDBRANCH  21  22
ENDBRANCH   1  21
TORSDOF 16
ENDMDL
MODEL 3
REMARK VINA RESULT:     -11.2      1.732      6.650
REMARK SMILES CC1(C)CCN(C(=O)CC(C)(C)C(=O)NCCCCCCNC(=O)c2ccc(-c3c4nc(c(-c5c(F)cccc5F)c5ccc([nH]5)c(-c5c(F)cccc5F)c5nc(c(-c6c(F)cccc6F)c6ccc3[nH]6)C=C5)C=C4)cc2)C1
REMARK SMILES IDX 18 1 17 2 16 3 15 4 13 5 14 6 10 8 11 9 12 10 9 11 7 12 8 13
REMARK SMILES IDX 6 14 1 15 2 16 3 17 4 18 79 19 5 20 19 21 20 22 21 23 22 24
REMARK SMILES IDX 23 25 24 27 25 28 26 29 78 30 27 31 77 32 28 33 29 34 30 35
REMARK SMILES IDX 71 36 31 37 76 38 70 39 72 40 32 41 75 42 69 43 68 44 33 46
REMARK SMILES IDX 59 47 42 48 58 49 43 50 46 51 57 52 73 53 44 54 45 55 56 57
REMARK SMILES IDX 74 58 47 59 34 60 35 61 40 62 36 63 37 64 39 65 41 66 38 67
REMARK SMILES IDX 60 68 61 69 66 70 62 71 63 72 65 73 67 74 64 75 48 76 49 77
REMARK SMILES IDX 54 78 50 79 51 80 53 81 55 82 52 83
REMARK H PARENT 15 7 22 26 72 45 46 56
REMARK Flexibility Score: inf
ROOT
ATOM      1  C   UNL A   1      34.537  32.710  27.872  1.00  0.00     0.002 C 
ENDROOT
BRANCH   1   2
ATOM      2  C   UNL A   1      34.537  31.193  28.050  1.00  0.00     0.021 C 
BRANCH   2   3
ATOM      3  C   UNL A   1      33.742  30.415  27.011  1.00  0.00     0.116 C 
BRANCH   3   4
ATOM      4  N   UNL A   1      32.683  29.622  27.596  1.00  0.00    -0.356 N 
ATOM      5  C   UNL A   1      32.066  28.477  27.195  1.00  0.00     0.226 C 
ATOM      6  O   UNL A   1      31.138  28.107  27.914  1.00  0.00    -0.274 OA
ATOM      7  H   UNL A   1      32.343  29.980  28.448  1.00  0.00     0.163 HD
BRANCH   5   8
ATOM      8  C   UNL A   1      32.431  27.743  25.887  1.00  0.00     0.052 C 
ATOM      9  C   UNL A   1      31.484  26.579  25.582  1.00  0.00     0.022 C 
ATOM     10  C   UNL A   1      33.860  27.175  26.038  1.00  0.00     0.022 C 
BRANCH   8  11
ATOM     11  C   UNL A   1      32.459  28.728  24.665  1.00  0.00     0.116 C 
BRANCH  11  12
ATOM     12  C   UNL A   1      31.530  28.515  23.463  1.00  0.00     0.223 C 
ATOM     13  O   UNL A   1      31.919  27.856  22.495  1.00  0.00    -0.275 OA
BRANCH  12  14
ATOM     14  N   UNL A   1      30.235  28.978  23.497  1.00  0.00    -0.342 N 
ATOM     15  C   UNL A   1      28.978  30.705  21.431  1.00  0.00     0.013 C 
ATOM     16  C   UNL A   1      28.531  30.447  22.886  1.00  0.00    -0.016 C 
ATOM     17  C   UNL A   1      27.609  31.579  23.324  1.00  0.00     0.013 C 
ATOM     18  C   UNL A   1      27.911  29.043  22.999  1.00  0.00     0.030 C 
ATOM     19  C   UNL A   1      29.709  30.277  23.854  1.00  0.00     0.126 C 
ATOM     20  C   UNL A   1      29.135  28.116  23.071  1.00  0.00     0.120 C 
ENDBRANCH  12  14
ENDBRANCH  11  12
ENDBRANCH   8  11
ENDBRANCH   5   8
ENDBRANCH   3   4
ENDBRANCH   2   3
ENDBRANCH   1   2
BRANCH   1  21
ATOM     21  C   UNL A   1      34.099  33.519  29.096  1.00  0.00     0.002 C 
BRANCH  21  22
ATOM     22  C   UNL A   1      33.128  34.670  28.822  1.00  0.00     0.021 C 
BRANCH  22  23
ATOM     23  C   UNL A   1      33.412  35.962  29.580  1.00  0.00     0.116 C 
BRANCH  23  24
ATOM     24  N   UNL A   1      32.515  36.158  30.704  1.00  0.00    -0.352 N 
ATOM     25  C   UNL A   1      32.615  35.692  31.990  1.00  0.00     0.251 C 
ATOM     26  H   UNL A   1      31.718  36.703  30.516  1.00  0.00     0.163 HD
ATOM     27  O   UNL A   1      31.677  35.824  32.768  1.00  0.00    -0.269 OA
BRANCH  25  28
ATOM     28  C   UNL A   1      33.848  35.005  32.434  1.00  0.00     0.039 A 
ATOM     29  C   UNL A   1      33.741  33.713  32.955  1.00  0.00     0.014 A 
ATOM     30  C   UNL A   1      35.097  35.628  32.351  1.00  0.00     0.014 A 
ATOM     31  C   UNL A   1      34.893  33.026  33.341  1.00  0.00     0.010 A 
ATOM     32  C   UNL A   1      36.250  34.915  32.669  1.00  0.00     0.010 A 
ATOM     33  C   UNL A   1      36.160  33.608  33.171  1.00  0.00    -0.014 A 
BRANCH  33  34
ATOM     34  C   UNL A   1      37.395  32.854  33.506  1.00  0.00     0.031 A 
ATOM     35  C   UNL A   1      38.157  33.161  34.766  1.00  0.00     0.074 A 
ATOM     36  C   UNL A   1      37.860  31.929  32.643  1.00  0.00     0.049 A 
ATOM     37  N   UNL A   1      39.273  32.637  35.204  1.00  0.00    -0.248 NA
ATOM     38  C   UNL A   1      37.607  34.212  35.638  1.00  0.00     0.031 C 
ATOM     39  C   UNL A   1      37.243  31.582  31.361  1.00  0.00     0.029 A 
ATOM     40  N   UNL A   1      38.967  31.120  32.707  1.00  0.00    -0.354 N 
ATOM     41  C   UNL A   1      39.569  33.304  36.386  1.00  0.00     0.074 A 
ATOM     42  C   UNL A   1      38.538  34.301  36.577  1.00  0.00     0.031 C 
ATOM     43  C   UNL A   1      37.969  30.619  30.770  1.00  0.00     0.029 A 
ATOM     44  C   UNL A   1      39.120  30.308  31.610  1.00  0.00     0.049 A 
ATOM     45  H   UNL A   1      39.592  31.122  33.468  1.00  0.00     0.167 HD
ATOM     46  C   UNL A   1      40.595  33.090  37.243  1.00  0.00     0.037 A 
ATOM     47  C   UNL A   1      40.085  29.417  31.310  1.00  0.00     0.037 A 
ATOM     48  C   UNL A   1      41.598  32.073  37.066  1.00  0.00     0.049 A 
ATOM     49  C   UNL A   1      41.206  29.194  32.288  1.00  0.00     0.074 A 
ATOM     50  C   UNL A   1      42.625  31.721  37.924  1.00  0.00     0.029 A 
ATOM     51  N   UNL A   1      41.705  31.252  35.955  1.00  0.00    -0.354 N 
ATOM     52  N   UNL A   1      41.418  29.766  33.447  1.00  0.00    -0.248 NA
ATOM     53  C   UNL A   1      42.217  28.193  31.919  1.00  0.00     0.031 C 
ATOM     54  C   UNL A   1      43.387  30.723  37.308  1.00  0.00     0.029 A 
ATOM     55  C   UNL A   1      42.801  30.415  36.091  1.00  0.00     0.049 A 
ATOM     56  H   UNL A   1      41.093  31.260  35.184  1.00  0.00     0.167 HD
ATOM     57  C   UNL A   1      42.568  29.178  33.958  1.00  0.00     0.074 A 
ATOM     58  C   UNL A   1      42.997  28.189  32.990  1.00  0.00     0.031 C 
ATOM     59  C   UNL A   1      43.212  29.433  35.122  1.00  0.00     0.037 A 
BRANCH  46  60
ATOM     60  C   UNL A   1      40.693  33.972  38.454  1.00  0.00     0.057 A 
ATOM     61  C   UNL A   1      41.409  35.177  38.438  1.00  0.00     0.134 A 
ATOM     62  C   UNL A   1      40.005  33.646  39.630  1.00  0.00     0.134 A 
ATOM     63  F   UNL A   1      42.097  35.545  37.347  1.00  0.00    -0.206 F 
ATOM     64  C   UNL A   1      41.451  36.015  39.554  1.00  0.00     0.040 A 
ATOM     65  C   UNL A   1      40.018  34.489  40.742  1.00  0.00     0.040 A 
ATOM     66  F   UNL A   1      39.294  32.510  39.710  1.00  0.00    -0.206 F 
ATOM     67  C   UNL A   1      40.746  35.676  40.707  1.00  0.00     0.006 A 
ENDBRANCH  46  60
BRANCH  47  68
ATOM     68  C   UNL A   1      40.038  28.665  30.030  1.00  0.00     0.057 A 
ATOM     69  C   UNL A   1      40.688  29.138  28.885  1.00  0.00     0.134 A 
ATOM     70  C   UNL A   1      39.317  27.469  29.913  1.00  0.00     0.134 A 
ATOM     71  F   UNL A   1      41.380  30.286  28.927  1.00  0.00    -0.206 F 
ATOM     72  C   UNL A   1      40.599  28.468  27.663  1.00  0.00     0.040 A 
ATOM     73  C   UNL A   1      39.244  26.775  28.705  1.00  0.00     0.040 A 
ATOM     74  F   UNL A   1      38.678  26.956  30.975  1.00  0.00    -0.206 F 
ATOM     75  C   UNL A   1      39.877  27.280  27.572  1.00  0.00     0.006 A 
ENDBRANCH  47  68
BRANCH  59  76
ATOM     76  C   UNL A   1      44.429  28.608  35.429  1.00  0.00     0.057 A 
ATOM     77  C   UNL A   1      45.710  28.995  35.013  1.00  0.00     0.134 A 
ATOM     78  C   UNL A   1      44.322  27.431  36.178  1.00  0.00     0.134 A 
ATOM     79  F   UNL A   1      45.881  30.106  34.279  1.00  0.00    -0.206 F 
ATOM     80  C   UNL A   1      46.836  28.226  35.309  1.00  0.00     0.040 A 
ATOM     81  C   UNL A   1      45.444  26.669  36.507  1.00  0.00     0.040 A 
ATOM     82  F   UNL A   1      43.126  27.009  36.617  1.00  0.00    -0.206 F 
ATOM     83  C   UNL A   1      46.705  27.062  36.064  1.00  0.00     0.006 A 
ENDBRANCH  59  76
ENDBRANCH  33  34
ENDBRANCH  25  28
ENDBRANCH  23  24
ENDBRANCH  22  23
ENDBRANCH  21  22
ENDBRANCH   1  21
TORSDOF 16
ENDMDL
