MODEL 1
REMARK VINA RESULT:     -12.4      0.000      0.000
REMARK SMILES CC(C)(C)c1cc2c(cc1Cl)C=C(C(=O)NCCCCCCNC(=O)c1ccc(-c3c4nc(c(-c5c(F)cccc5F)c5ccc([nH]5)c(-c5c(F)cccc5F)c5nc(c(-c6c(F)cccc6F)c6ccc3[nH]6)C=C5)C=C4)cc1)[C@H](C(F)(F)F)O2
REMARK SMILES IDX 20 1 19 2 18 3 17 4 16 5 14 6 15 7 13 9 5 10 6 11 10 12 7 13
REMARK SMILES IDX 9 14 11 15 8 16 85 17 12 18 80 19 2 20 1 21 3 22 4 23 81 24
REMARK SMILES IDX 82 25 83 26 84 27 21 28 22 29 23 30 24 31 25 33 26 34 27 35
REMARK SMILES IDX 79 36 28 37 78 38 29 39 30 40 31 41 72 42 32 43 77 44 71 45
REMARK SMILES IDX 73 46 33 47 76 48 70 49 69 50 34 52 60 53 43 54 59 55 44 56
REMARK SMILES IDX 47 57 58 58 74 59 45 60 46 61 57 63 75 64 48 65 35 66 36 67
REMARK SMILES IDX 41 68 37 69 38 70 40 71 42 72 39 73 61 74 62 75 67 76 63 77
REMARK SMILES IDX 64 78 66 79 68 80 65 81 49 82 50 83 55 84 51 85 52 86 54 87
REMARK SMILES IDX 56 88 53 89
REMARK H PARENT 16 8 23 32 73 51 47 62
REMARK Flexibility Score: inf
ROOT
ATOM      1  C   UNL A   1      31.778  30.616  26.233  1.00  0.00     0.002 C 
ENDROOT
BRANCH   1   2
ATOM      2  C   UNL A   1      32.998  29.954  26.882  1.00  0.00     0.002 C 
BRANCH   2   3
ATOM      3  C   UNL A   1      32.897  28.441  27.092  1.00  0.00     0.021 C 
BRANCH   3   4
ATOM      4  C   UNL A   1      33.979  27.628  26.384  1.00  0.00     0.116 C 
BRANCH   4   5
ATOM      5  N   UNL A   1      33.889  27.748  24.940  1.00  0.00    -0.352 N 
ATOM      6  C   UNL A   1      33.629  26.944  23.882  1.00  0.00     0.251 C 
ATOM      7  O   UNL A   1      33.634  27.510  22.784  1.00  0.00    -0.270 OA
ATOM      8  H   UNL A   1      34.065  28.673  24.648  1.00  0.00     0.163 HD
BRANCH   6   9
ATOM      9  C   UNL A   1      33.342  25.478  23.949  1.00  0.00     0.067 C 
ATOM     10  C   UNL A   1      33.761  20.421  24.373  1.00  0.00    -0.020 A 
ATOM     11  C   UNL A   1      32.741  21.332  24.028  1.00  0.00     0.053 A 
ATOM     12  C   UNL A   1      35.039  20.986  24.604  1.00  0.00     0.045 A 
ATOM     13  C   UNL A   1      32.964  22.708  23.952  1.00  0.00     0.128 A 
ATOM     14  C   UNL A   1      35.258  22.375  24.511  1.00  0.00     0.032 A 
ATOM     15  Cl  UNL A   1      36.451  20.067  25.002  1.00  0.00    -0.084 Cl
ATOM     16  C   UNL A   1      34.218  23.243  24.193  1.00  0.00     0.019 A 
ATOM     17  O   UNL A   1      31.891  23.470  23.593  1.00  0.00    -0.475 OA
ATOM     18  C   UNL A   1      34.419  24.680  24.078  1.00  0.00     0.025 C 
ATOM     19  C   UNL A   1      31.963  24.880  23.931  1.00  0.00     0.314 C 
BRANCH  10  20
ATOM     20  C   UNL A   1      33.425  18.913  24.479  1.00  0.00    -0.012 C 
ATOM     21  C   UNL A   1      32.902  18.567  25.889  1.00  0.00     0.016 C 
ATOM     22  C   UNL A   1      34.654  17.985  24.252  1.00  0.00     0.016 C 
ATOM     23  C   UNL A   1      32.403  18.496  23.398  1.00  0.00     0.016 C 
ENDBRANCH  10  20
BRANCH  19  24
ATOM     24  C   UNL A   1      31.174  25.132  25.228  1.00  0.00     0.429 C 
ATOM     25  F   UNL A   1      31.970  25.229  26.316  1.00  0.00    -0.167 F 
ATOM     26  F   UNL A   1      30.491  26.302  25.144  1.00  0.00    -0.167 F 
ATOM     27  F   UNL A   1      30.273  24.157  25.489  1.00  0.00    -0.167 F 
ENDBRANCH  19  24
ENDBRANCH   6   9
ENDBRANCH   4   5
ENDBRANCH   3   4
ENDBRANCH   2   3
ENDBRANCH   1   2
BRANCH   1  28
ATOM     28  C   UNL A   1      31.511  32.064  26.648  1.00  0.00     0.021 C 
BRANCH  28  29
ATOM     29  C   UNL A   1      32.675  32.761  27.343  1.00  0.00     0.116 C 
BRANCH  29  30
ATOM     30  N   UNL A   1      32.406  34.164  27.615  1.00  0.00    -0.352 N 
ATOM     31  C   UNL A   1      32.975  34.988  28.556  1.00  0.00     0.251 C 
ATOM     32  H   UNL A   1      31.720  34.582  27.045  1.00  0.00     0.163 HD
ATOM     33  O   UNL A   1      32.525  36.112  28.755  1.00  0.00    -0.269 OA
BRANCH  31  34
ATOM     34  C   UNL A   1      34.117  34.497  29.354  1.00  0.00     0.039 A 
ATOM     35  C   UNL A   1      35.418  34.557  28.846  1.00  0.00     0.014 A 
ATOM     36  C   UNL A   1      33.878  33.940  30.613  1.00  0.00     0.014 A 
ATOM     37  C   UNL A   1      36.450  33.917  29.523  1.00  0.00     0.010 A 
ATOM     38  C   UNL A   1      34.933  33.365  31.328  1.00  0.00     0.010 A 
ATOM     39  C   UNL A   1      36.218  33.306  30.765  1.00  0.00    -0.014 A 
BRANCH  39  40
ATOM     40  C   UNL A   1      37.330  32.594  31.447  1.00  0.00     0.031 A 
ATOM     41  C   UNL A   1      38.038  31.450  30.773  1.00  0.00     0.074 A 
ATOM     42  C   UNL A   1      37.740  33.019  32.658  1.00  0.00     0.049 A 
ATOM     43  N   UNL A   1      39.038  30.724  31.208  1.00  0.00    -0.248 NA
ATOM     44  C   UNL A   1      37.562  31.068  29.433  1.00  0.00     0.031 C 
ATOM     45  C   UNL A   1      37.142  34.124  33.410  1.00  0.00     0.029 A 
ATOM     46  N   UNL A   1      38.768  32.589  33.457  1.00  0.00    -0.354 N 
ATOM     47  C   UNL A   1      39.298  29.794  30.209  1.00  0.00     0.074 A 
ATOM     48  C   UNL A   1      38.334  30.026  29.156  1.00  0.00     0.031 C 
ATOM     49  C   UNL A   1      37.845  34.316  34.538  1.00  0.00     0.029 A 
ATOM     50  C   UNL A   1      38.900  33.314  34.616  1.00  0.00     0.049 A 
ATOM     51  H   UNL A   1      39.354  31.834  33.222  1.00  0.00     0.167 HD
ATOM     52  C   UNL A   1      40.262  28.843  30.167  1.00  0.00     0.037 A 
ATOM     53  C   UNL A   1      39.769  33.177  35.634  1.00  0.00     0.037 A 
ATOM     54  C   UNL A   1      41.233  28.621  31.207  1.00  0.00     0.049 A 
ATOM     55  C   UNL A   1      40.792  32.079  35.584  1.00  0.00     0.074 A 
ATOM     56  C   UNL A   1      42.262  27.695  31.247  1.00  0.00     0.029 A 
ATOM     57  N   UNL A   1      41.296  29.336  32.393  1.00  0.00    -0.354 N 
ATOM     58  N   UNL A   1      41.031  31.215  34.628  1.00  0.00    -0.248 NA
ATOM     59  C   UNL A   1      41.656  31.932  36.761  1.00  0.00     0.031 C 
ATOM     60  C   UNL A   1      42.923  27.827  32.474  1.00  0.00     0.029 A 
ATOM     61  C   UNL A   1      42.330  28.859  33.181  1.00  0.00     0.049 A 
ATOM     62  H   UNL A   1      40.693  30.075  32.639  1.00  0.00     0.167 HD
ATOM     63  C   UNL A   1      42.076  30.426  35.085  1.00  0.00     0.074 A 
ATOM     64  C   UNL A   1      42.445  30.934  36.391  1.00  0.00     0.031 C 
ATOM     65  C   UNL A   1      42.676  29.370  34.482  1.00  0.00     0.037 A 
BRANCH  52  66
ATOM     66  C   UNL A   1      40.303  27.955  28.957  1.00  0.00     0.057 A 
ATOM     67  C   UNL A   1      39.623  26.730  28.945  1.00  0.00     0.134 A 
ATOM     68  C   UNL A   1      41.040  28.296  27.815  1.00  0.00     0.134 A 
ATOM     69  F   UNL A   1      38.904  26.340  30.008  1.00  0.00    -0.206 F 
ATOM     70  C   UNL A   1      39.674  25.878  27.841  1.00  0.00     0.040 A 
ATOM     71  C   UNL A   1      41.080  27.461  26.697  1.00  0.00     0.040 A 
ATOM     72  F   UNL A   1      41.702  29.461  27.757  1.00  0.00    -0.206 F 
ATOM     73  C   UNL A   1      40.400  26.245  26.710  1.00  0.00     0.006 A 
ENDBRANCH  52  66
BRANCH  53  74
ATOM     74  C   UNL A   1      39.699  34.092  36.800  1.00  0.00     0.057 A 
ATOM     75  C   UNL A   1      40.309  35.351  36.776  1.00  0.00     0.134 A 
ATOM     76  C   UNL A   1      39.004  33.732  37.960  1.00  0.00     0.134 A 
ATOM     77  F   UNL A   1      40.992  35.752  35.693  1.00  0.00    -0.206 F 
ATOM     78  C   UNL A   1      40.237  36.219  37.866  1.00  0.00     0.040 A 
ATOM     79  C   UNL A   1      38.903  34.600  39.048  1.00  0.00     0.040 A 
ATOM     80  F   UNL A   1      38.382  32.546  38.034  1.00  0.00    -0.206 F 
ATOM     81  C   UNL A   1      39.524  35.846  39.004  1.00  0.00     0.006 A 
ENDBRANCH  53  74
BRANCH  65  82
ATOM     82  C   UNL A   1      43.793  28.711  35.232  1.00  0.00     0.057 A 
ATOM     83  C   UNL A   1      43.540  27.652  36.111  1.00  0.00     0.134 A 
ATOM     84  C   UNL A   1      45.123  29.128  35.083  1.00  0.00     0.134 A 
ATOM     85  F   UNL A   1      42.289  27.208  36.302  1.00  0.00    -0.206 F 
ATOM     86  C   UNL A   1      44.571  27.025  36.813  1.00  0.00     0.040 A 
ATOM     87  C   UNL A   1      46.165  28.494  35.762  1.00  0.00     0.040 A 
ATOM     88  F   UNL A   1      45.431  30.125  34.242  1.00  0.00    -0.206 F 
ATOM     89  C   UNL A   1      45.889  27.442  36.633  1.00  0.00     0.006 A 
ENDBRANCH  65  82
ENDBRANCH  39  40
ENDBRANCH  31  34
ENDBRANCH  29  30
ENDBRANCH  28  29
ENDBRANCH   1  28
TORSDOF 15
ENDMDL
MODEL 2
REMARK VINA RESULT:     -12.4      0.640      6.140
REMARK SMILES CC(C)(C)c1cc2c(cc1Cl)C=C(C(=O)NCCCCCCNC(=O)c1ccc(-c3c4nc(c(-c5c(F)cccc5F)c5ccc([nH]5)c(-c5c(F)cccc5F)c5nc(c(-c6c(F)cccc6F)c6ccc3[nH]6)C=C5)C=C4)cc1)[C@H](C(F)(F)F)O2
REMARK SMILES IDX 20 1 19 2 18 3 17 4 16 5 14 6 15 7 13 9 5 10 6 11 10 12 7 13
REMARK SMILES IDX 9 14 11 15 8 16 85 17 12 18 80 19 2 20 1 21 3 22 4 23 81 24
REMARK SMILES IDX 82 25 83 26 84 27 21 28 22 29 23 30 24 31 25 33 26 34 27 35
REMARK SMILES IDX 79 36 28 37 78 38 29 39 30 40 31 41 72 42 32 43 77 44 71 45
REMARK SMILES IDX 73 46 33 47 76 48 70 49 69 50 34 52 60 53 43 54 59 55 44 56
REMARK SMILES IDX 47 57 58 58 74 59 45 60 46 61 57 63 75 64 48 65 35 66 36 67
REMARK SMILES IDX 41 68 37 69 38 70 40 71 42 72 39 73 61 74 62 75 67 76 63 77
REMARK SMILES IDX 64 78 66 79 68 80 65 81 49 82 50 83 55 84 51 85 52 86 54 87
REMARK SMILES IDX 56 88 53 89
REMARK H PARENT 16 8 23 32 73 51 47 62
REMARK Flexibility Score: inf
ROOT
ATOM      1  C   UNL A   1      31.569  30.449  26.414  1.00  0.00     0.002 C 
ENDROOT
BRANCH   1   2
ATOM      2  C   UNL A   1      32.694  29.801  27.228  1.00  0.00     0.002 C 
BRANCH   2   3
ATOM      3  C   UNL A   1      32.721  28.270  27.218  1.00  0.00     0.021 C 
BRANCH   3   4
ATOM      4  C   UNL A   1      33.932  27.660  26.514  1.00  0.00     0.116 C 
BRANCH   4   5
ATOM      5  N   UNL A   1      33.845  27.797  25.071  1.00  0.00    -0.352 N 
ATOM      6  C   UNL A   1      33.593  27.004  24.004  1.00  0.00     0.251 C 
ATOM      7  O   UNL A   1      33.598  27.584  22.913  1.00  0.00    -0.270 OA
ATOM      8  H   UNL A   1      34.017  28.726  24.791  1.00  0.00     0.163 HD
BRANCH   6   9
ATOM      9  C   UNL A   1      33.315  25.536  24.053  1.00  0.00     0.067 C 
ATOM     10  C   UNL A   1      33.762  20.476  24.417  1.00  0.00    -0.020 A 
ATOM     11  C   UNL A   1      32.738  21.386  24.081  1.00  0.00     0.053 A 
ATOM     12  C   UNL A   1      35.037  21.046  24.658  1.00  0.00     0.045 A 
ATOM     13  C   UNL A   1      32.952  22.764  24.021  1.00  0.00     0.128 A 
ATOM     14  C   UNL A   1      35.248  22.437  24.582  1.00  0.00     0.032 A 
ATOM     15  Cl  UNL A   1      36.452  20.131  25.048  1.00  0.00    -0.084 Cl
ATOM     16  C   UNL A   1      34.203  23.303  24.272  1.00  0.00     0.019 A 
ATOM     17  O   UNL A   1      31.876  23.523  23.669  1.00  0.00    -0.475 OA
ATOM     18  C   UNL A   1      34.396  24.742  24.174  1.00  0.00     0.025 C 
ATOM     19  C   UNL A   1      31.940  24.931  24.024  1.00  0.00     0.314 C 
BRANCH  10  20
ATOM     20  C   UNL A   1      33.434  18.966  24.504  1.00  0.00    -0.012 C 
ATOM     21  C   UNL A   1      32.372  18.576  23.454  1.00  0.00     0.016 C 
ATOM     22  C   UNL A   1      32.839  18.536  25.877  1.00  0.00     0.016 C 
ATOM     23  C   UNL A   1      34.710  18.111  24.335  1.00  0.00     0.016 C 
ENDBRANCH  10  20
BRANCH  19  24
ATOM     24  C   UNL A   1      31.146  25.162  25.322  1.00  0.00     0.429 C 
ATOM     25  F   UNL A   1      30.497  26.347  25.336  1.00  0.00    -0.167 F 
ATOM     26  F   UNL A   1      30.199  24.202  25.473  1.00  0.00    -0.167 F 
ATOM     27  F   UNL A   1      31.929  25.133  26.425  1.00  0.00    -0.167 F 
ENDBRANCH  19  24
ENDBRANCH   6   9
ENDBRANCH   4   5
ENDBRANCH   3   4
ENDBRANCH   2   3
ENDBRANCH   1   2
BRANCH   1  28
ATOM     28  C   UNL A   1      31.482  31.974  26.502  1.00  0.00     0.021 C 
BRANCH  28  29
ATOM     29  C   UNL A   1      32.582  32.636  27.325  1.00  0.00     0.116 C 
BRANCH  29  30
ATOM     30  N   UNL A   1      32.300  34.033  27.615  1.00  0.00    -0.352 N 
ATOM     31  C   UNL A   1      32.929  34.877  28.499  1.00  0.00     0.251 C 
ATOM     32  H   UNL A   1      31.554  34.429  27.108  1.00  0.00     0.163 HD
ATOM     33  O   UNL A   1      32.467  35.990  28.734  1.00  0.00    -0.269 OA
BRANCH  31  34
ATOM     34  C   UNL A   1      34.150  34.422  29.193  1.00  0.00     0.039 A 
ATOM     35  C   UNL A   1      35.412  34.665  28.643  1.00  0.00     0.014 A 
ATOM     36  C   UNL A   1      34.028  33.715  30.392  1.00  0.00     0.014 A 
ATOM     37  C   UNL A   1      36.533  34.064  29.205  1.00  0.00     0.010 A 
ATOM     38  C   UNL A   1      35.168  33.177  30.998  1.00  0.00     0.010 A 
ATOM     39  C   UNL A   1      36.423  33.305  30.381  1.00  0.00    -0.014 A 
BRANCH  39  40
ATOM     40  C   UNL A   1      37.630  32.641  30.937  1.00  0.00     0.031 A 
ATOM     41  C   UNL A   1      38.234  33.106  32.235  1.00  0.00     0.074 A 
ATOM     42  C   UNL A   1      38.150  31.576  30.297  1.00  0.00     0.049 A 
ATOM     43  N   UNL A   1      39.274  32.637  32.878  1.00  0.00    -0.248 NA
ATOM     44  C   UNL A   1      37.587  34.250  32.899  1.00  0.00     0.031 C 
ATOM     45  C   UNL A   1      37.648  31.022  29.038  1.00  0.00     0.029 A 
ATOM     46  N   UNL A   1      39.198  30.756  30.628  1.00  0.00    -0.354 N 
ATOM     47  C   UNL A   1      39.416  33.434  34.008  1.00  0.00     0.074 A 
ATOM     48  C   UNL A   1      38.374  34.436  33.950  1.00  0.00     0.031 C 
ATOM     49  C   UNL A   1      38.358  29.925  28.729  1.00  0.00     0.029 A 
ATOM     50  C   UNL A   1      39.398  29.734  29.733  1.00  0.00     0.049 A 
ATOM     51  H   UNL A   1      39.753  30.888  31.430  1.00  0.00     0.167 HD
ATOM     52  C   UNL A   1      40.323  33.331  35.010  1.00  0.00     0.037 A 
ATOM     53  C   UNL A   1      40.325  28.760  29.716  1.00  0.00     0.037 A 
ATOM     54  C   UNL A   1      41.350  32.324  35.077  1.00  0.00     0.049 A 
ATOM     55  C   UNL A   1      41.351  28.704  30.811  1.00  0.00     0.074 A 
ATOM     56  C   UNL A   1      42.303  32.126  36.062  1.00  0.00     0.029 A 
ATOM     57  N   UNL A   1      41.558  31.344  34.119  1.00  0.00    -0.354 N 
ATOM     58  N   UNL A   1      41.465  29.458  31.876  1.00  0.00    -0.248 NA
ATOM     59  C   UNL A   1      42.383  27.667  30.692  1.00  0.00     0.031 C 
ATOM     60  C   UNL A   1      43.111  31.048  35.680  1.00  0.00     0.029 A 
ATOM     61  C   UNL A   1      42.637  30.552  34.477  1.00  0.00     0.049 A 
ATOM     62  H   UNL A   1      41.019  31.228  33.303  1.00  0.00     0.167 HD
ATOM     63  C   UNL A   1      42.577  28.984  32.558  1.00  0.00     0.074 A 
ATOM     64  C   UNL A   1      43.084  27.858  31.801  1.00  0.00     0.031 C 
ATOM     65  C   UNL A   1      43.134  29.442  33.705  1.00  0.00     0.037 A 
BRANCH  52  66
ATOM     66  C   UNL A   1      40.254  34.349  36.111  1.00  0.00     0.057 A 
ATOM     67  C   UNL A   1      40.978  35.545  36.026  1.00  0.00     0.134 A 
ATOM     68  C   UNL A   1      39.494  34.134  37.268  1.00  0.00     0.134 A 
ATOM     69  F   UNL A   1      41.730  35.811  34.947  1.00  0.00    -0.206 F 
ATOM     70  C   UNL A   1      40.950  36.490  37.053  1.00  0.00     0.040 A 
ATOM     71  C   UNL A   1      39.441  35.082  38.293  1.00  0.00     0.040 A 
ATOM     72  F   UNL A   1      38.766  33.016  37.406  1.00  0.00    -0.206 F 
ATOM     73  C   UNL A   1      40.175  36.262  38.189  1.00  0.00     0.006 A 
ENDBRANCH  52  66
BRANCH  53  74
ATOM     74  C   UNL A   1      40.341  27.766  28.614  1.00  0.00     0.057 A 
ATOM     75  C   UNL A   1      39.644  26.557  28.714  1.00  0.00     0.134 A 
ATOM     76  C   UNL A   1      41.041  28.014  27.428  1.00  0.00     0.134 A 
ATOM     77  F   UNL A   1      38.957  26.261  29.828  1.00  0.00    -0.206 F 
ATOM     78  C   UNL A   1      39.647  25.624  27.677  1.00  0.00     0.040 A 
ATOM     79  C   UNL A   1      41.032  27.100  26.373  1.00  0.00     0.040 A 
ATOM     80  F   UNL A   1      41.710  29.164  27.267  1.00  0.00    -0.206 F 
ATOM     81  C   UNL A   1      40.337  25.899  26.498  1.00  0.00     0.006 A 
ENDBRANCH  53  74
BRANCH  65  82
ATOM     82  C   UNL A   1      44.345  28.714  34.204  1.00  0.00     0.057 A 
ATOM     83  C   UNL A   1      44.217  27.599  35.040  1.00  0.00     0.134 A 
ATOM     84  C   UNL A   1      45.640  29.120  33.856  1.00  0.00     0.134 A 
ATOM     85  F   UNL A   1      43.005  27.162  35.414  1.00  0.00    -0.206 F 
ATOM     86  C   UNL A   1      45.335  26.908  35.509  1.00  0.00     0.040 A 
ATOM     87  C   UNL A   1      46.765  28.423  34.299  1.00  0.00     0.040 A 
ATOM     88  F   UNL A   1      45.827  30.170  33.043  1.00  0.00    -0.206 F 
ATOM     89  C   UNL A   1      46.613  27.316  35.132  1.00  0.00     0.006 A 
ENDBRANCH  65  82
ENDBRANCH  39  40
ENDBRANCH  31  34
ENDBRANCH  29  30
ENDBRANCH  28  29
ENDBRANCH   1  28
TORSDOF 15
ENDMDL
MODEL 3
REMARK VINA RESULT:     -12.3      4.784      9.585
REMARK SMILES CC(C)(C)c1cc2c(cc1Cl)C=C(C(=O)NCCCCCCNC(=O)c1ccc(-c3c4nc(c(-c5c(F)cccc5F)c5ccc([nH]5)c(-c5c(F)cccc5F)c5nc(c(-c6c(F)cccc6F)c6ccc3[nH]6)C=C5)C=C4)cc1)[C@H](C(F)(F)F)O2
REMARK SMILES IDX 20 1 19 2 18 3 17 4 16 5 14 6 15 7 13 9 5 10 6 11 10 12 7 13
REMARK SMILES IDX 9 14 11 15 8 16 85 17 12 18 80 19 2 20 1 21 3 22 4 23 81 24
REMARK SMILES IDX 82 25 83 26 84 27 21 28 22 29 23 30 24 31 25 33 26 34 27 35
REMARK SMILES IDX 79 36 28 37 78 38 29 39 30 40 31 41 72 42 32 43 77 44 71 45
REMARK SMILES IDX 73 46 33 47 76 48 70 49 69 50 34 52 60 53 43 54 59 55 44 56
REMARK SMILES IDX 47 57 58 58 74 59 45 60 46 61 57 63 75 64 48 65 35 66 36 67
REMARK SMILES IDX 41 68 37 69 38 70 40 71 42 72 39 73 61 74 62 75 67 76 63 77
REMARK SMILES IDX 64 78 66 79 68 80 65 81 49 82 50 83 55 84 51 85 52 86 54 87
REMARK SMILES IDX 56 88 53 89
REMARK H PARENT 16 8 23 32 73 51 47 62
REMARK Flexibility Score: inf
ROOT
ATOM      1  C   UNL A   1      37.156  22.178  24.162  1.00  0.00     0.002 C 
ENDROOT
BRANCH   1   2
ATOM      2  C   UNL A   1      37.106  23.228  25.277  1.00  0.00     0.002 C 
BRANCH   2   3
ATOM      3  C   UNL A   1      35.727  23.472  25.896  1.00  0.00     0.021 C 
BRANCH   3   4
ATOM      4  C   UNL A   1      34.756  22.300  25.767  1.00  0.00     0.116 C 
BRANCH   4   5
ATOM      5  N   UNL A   1      33.783  22.282  26.844  1.00  0.00    -0.352 N 
ATOM      6  C   UNL A   1      32.609  22.886  27.143  1.00  0.00     0.251 C 
ATOM      7  O   UNL A   1      32.096  22.528  28.208  1.00  0.00    -0.270 OA
ATOM      8  H   UNL A   1      34.051  21.656  27.556  1.00  0.00     0.163 HD
BRANCH   6   9
ATOM      9  C   UNL A   1      31.916  23.912  26.304  1.00  0.00     0.067 C 
ATOM     10  C   UNL A   1      30.411  28.275  24.152  1.00  0.00    -0.020 A 
ATOM     11  C   UNL A   1      29.983  26.930  24.134  1.00  0.00     0.053 A 
ATOM     12  C   UNL A   1      31.486  28.567  25.027  1.00  0.00     0.045 A 
ATOM     13  C   UNL A   1      30.599  25.941  24.902  1.00  0.00     0.128 A 
ATOM     14  C   UNL A   1      32.093  27.564  25.809  1.00  0.00     0.032 A 
ATOM     15  Cl  UNL A   1      32.156  30.147  25.249  1.00  0.00    -0.084 Cl
ATOM     16  C   UNL A   1      31.657  26.244  25.743  1.00  0.00     0.019 A 
ATOM     17  O   UNL A   1      30.073  24.687  24.797  1.00  0.00    -0.475 OA
ATOM     18  C   UNL A   1      32.257  25.191  26.549  1.00  0.00     0.025 C 
ATOM     19  C   UNL A   1      30.934  23.592  25.212  1.00  0.00     0.314 C 
BRANCH  10  20
ATOM     20  C   UNL A   1      29.703  29.306  23.240  1.00  0.00    -0.012 C 
ATOM     21  C   UNL A   1      30.547  29.590  21.979  1.00  0.00     0.016 C 
ATOM     22  C   UNL A   1      29.490  30.692  23.917  1.00  0.00     0.016 C 
ATOM     23  C   UNL A   1      28.287  28.825  22.854  1.00  0.00     0.016 C 
ENDBRANCH  10  20
BRANCH  19  24
ATOM     24  C   UNL A   1      31.589  22.964  23.969  1.00  0.00     0.429 C 
ATOM     25  F   UNL A   1      32.767  23.543  23.648  1.00  0.00    -0.167 F 
ATOM     26  F   UNL A   1      31.851  21.650  24.188  1.00  0.00    -0.167 F 
ATOM     27  F   UNL A   1      30.804  23.041  22.870  1.00  0.00    -0.167 F 
ENDBRANCH  19  24
ENDBRANCH   6   9
ENDBRANCH   4   5
ENDBRANCH   3   4
ENDBRANCH   2   3
ENDBRANCH   1   2
BRANCH   1  28
ATOM     28  C   UNL A   1      37.702  20.807  24.566  1.00  0.00     0.021 C 
BRANCH  28  29
ATOM     29  C   UNL A   1      38.616  20.811  25.786  1.00  0.00     0.116 C 
BRANCH  29  30
ATOM     30  N   UNL A   1      39.584  19.727  25.765  1.00  0.00    -0.352 N 
ATOM     31  C   UNL A   1      40.928  19.760  26.047  1.00  0.00     0.251 C 
ATOM     32  H   UNL A   1      39.225  18.844  25.512  1.00  0.00     0.163 HD
ATOM     33  O   UNL A   1      41.635  18.780  25.832  1.00  0.00    -0.269 OA
BRANCH  31  34
ATOM     34  C   UNL A   1      41.527  21.001  26.580  1.00  0.00     0.039 A 
ATOM     35  C   UNL A   1      41.530  21.254  27.955  1.00  0.00     0.014 A 
ATOM     36  C   UNL A   1      42.061  21.936  25.690  1.00  0.00     0.014 A 
ATOM     37  C   UNL A   1      41.918  22.505  28.422  1.00  0.00     0.010 A 
ATOM     38  C   UNL A   1      42.522  23.165  26.171  1.00  0.00     0.010 A 
ATOM     39  C   UNL A   1      42.408  23.478  27.535  1.00  0.00    -0.014 A 
BRANCH  39  40
ATOM     40  C   UNL A   1      42.777  24.820  28.055  1.00  0.00     0.031 A 
ATOM     41  C   UNL A   1      41.722  25.867  28.297  1.00  0.00     0.074 A 
ATOM     42  C   UNL A   1      44.062  25.076  28.364  1.00  0.00     0.049 A 
ATOM     43  N   UNL A   1      41.857  27.084  28.761  1.00  0.00    -0.248 NA
ATOM     44  C   UNL A   1      40.333  25.500  27.975  1.00  0.00     0.031 C 
ATOM     45  C   UNL A   1      45.175  24.141  28.187  1.00  0.00     0.029 A 
ATOM     46  N   UNL A   1      44.647  26.188  28.914  1.00  0.00    -0.354 N 
ATOM     47  C   UNL A   1      40.580  27.632  28.771  1.00  0.00     0.074 A 
ATOM     48  C   UNL A   1      39.686  26.626  28.239  1.00  0.00     0.031 C 
ATOM     49  C   UNL A   1      46.297  24.700  28.664  1.00  0.00     0.029 A 
ATOM     50  C   UNL A   1      45.996  26.050  29.125  1.00  0.00     0.049 A 
ATOM     51  H   UNL A   1      44.146  27.007  29.136  1.00  0.00     0.167 HD
ATOM     52  C   UNL A   1      40.186  28.856  29.198  1.00  0.00     0.037 A 
ATOM     53  C   UNL A   1      46.894  26.921  29.622  1.00  0.00     0.037 A 
ATOM     54  C   UNL A   1      41.072  29.852  29.743  1.00  0.00     0.049 A 
ATOM     55  C   UNL A   1      46.437  28.289  30.036  1.00  0.00     0.074 A 
ATOM     56  C   UNL A   1      40.765  31.114  30.221  1.00  0.00     0.029 A 
ATOM     57  N   UNL A   1      42.443  29.697  29.883  1.00  0.00    -0.354 N 
ATOM     58  N   UNL A   1      45.225  28.788  30.048  1.00  0.00    -0.248 NA
ATOM     59  C   UNL A   1      47.477  29.219  30.494  1.00  0.00     0.031 C 
ATOM     60  C   UNL A   1      41.955  31.736  30.616  1.00  0.00     0.029 A 
ATOM     61  C   UNL A   1      42.999  30.847  30.419  1.00  0.00     0.049 A 
ATOM     62  H   UNL A   1      42.947  28.887  29.637  1.00  0.00     0.167 HD
ATOM     63  C   UNL A   1      45.356  30.086  30.520  1.00  0.00     0.074 A 
ATOM     64  C   UNL A   1      46.761  30.287  30.811  1.00  0.00     0.031 C 
ATOM     65  C   UNL A   1      44.400  31.032  30.692  1.00  0.00     0.037 A 
BRANCH  52  66
ATOM     66  C   UNL A   1      38.729  29.194  29.076  1.00  0.00     0.057 A 
ATOM     67  C   UNL A   1      38.188  29.599  27.849  1.00  0.00     0.134 A 
ATOM     68  C   UNL A   1      37.865  29.147  30.179  1.00  0.00     0.134 A 
ATOM     69  F   UNL A   1      38.961  29.670  26.755  1.00  0.00    -0.206 F 
ATOM     70  C   UNL A   1      36.842  29.946  27.723  1.00  0.00     0.040 A 
ATOM     71  C   UNL A   1      36.512  29.471  30.060  1.00  0.00     0.040 A 
ATOM     72  F   UNL A   1      38.316  28.754  31.379  1.00  0.00    -0.206 F 
ATOM     73  C   UNL A   1      35.998  29.877  28.830  1.00  0.00     0.006 A 
ENDBRANCH  52  66
BRANCH  53  74
ATOM     74  C   UNL A   1      48.321  26.533  29.739  1.00  0.00     0.057 A 
ATOM     75  C   UNL A   1      49.242  26.828  28.727  1.00  0.00     0.134 A 
ATOM     76  C   UNL A   1      48.799  25.872  30.876  1.00  0.00     0.134 A 
ATOM     77  F   UNL A   1      48.844  27.459  27.612  1.00  0.00    -0.206 F 
ATOM     78  C   UNL A   1      50.587  26.475  28.838  1.00  0.00     0.040 A 
ATOM     79  C   UNL A   1      50.147  25.535  31.010  1.00  0.00     0.040 A 
ATOM     80  F   UNL A   1      47.967  25.580  31.886  1.00  0.00    -0.206 F 
ATOM     81  C   UNL A   1      51.044  25.833  29.987  1.00  0.00     0.006 A 
ENDBRANCH  53  74
BRANCH  65  82
ATOM     82  C   UNL A   1      44.852  32.357  31.227  1.00  0.00     0.057 A 
ATOM     83  C   UNL A   1      45.232  33.388  30.361  1.00  0.00     0.134 A 
ATOM     84  C   UNL A   1      44.910  32.611  32.604  1.00  0.00     0.134 A 
ATOM     85  F   UNL A   1      45.203  33.208  29.032  1.00  0.00    -0.206 F 
ATOM     86  C   UNL A   1      45.651  34.629  30.844  1.00  0.00     0.040 A 
ATOM     87  C   UNL A   1      45.305  33.854  33.099  1.00  0.00     0.040 A 
ATOM     88  F   UNL A   1      44.541  31.669  33.484  1.00  0.00    -0.206 F 
ATOM     89  C   UNL A   1      45.680  34.866  32.217  1.00  0.00     0.006 A 
ENDBRANCH  65  82
ENDBRANCH  39  40
ENDBRANCH  31  34
ENDBRANCH  29  30
ENDBRANCH  28  29
ENDBRANCH   1  28
TORSDOF 15
ENDMDL
