MODEL 1
REMARK VINA RESULT:     -12.8      0.000      0.000
REMARK SMILES Cc1cc(C(=O)NCCCCCCNC(=O)c2ccc(-c3c4nc(c(-c5c(F)cccc5F)c5ccc([nH]5)c(-c5c(F)cccc5F)c5nc(c(-c6c(F)cccc6F)c6ccc3[nH]6)C=C5)C=C4)cc2)ccc1NC(=O)N1C[C@@H](C)[C@H](C)C1
REMARK SMILES IDX 11 1 10 2 9 3 8 4 7 5 5 6 6 7 4 9 1 10 2 11 3 12 73 13 72 14
REMARK SMILES IDX 71 15 74 16 75 17 76 19 77 20 78 21 83 22 79 23 81 24 80 25
REMARK SMILES IDX 82 26 12 27 13 28 14 29 15 30 16 32 17 33 18 34 70 35 19 36
REMARK SMILES IDX 69 37 20 38 21 39 22 40 63 41 23 42 68 43 62 44 64 45 24 46
REMARK SMILES IDX 67 47 61 48 60 49 25 51 51 52 34 53 50 54 35 55 38 56 49 57
REMARK SMILES IDX 65 58 36 59 37 60 48 62 66 63 39 64 26 65 27 66 32 67 28 68
REMARK SMILES IDX 29 69 31 70 33 71 30 72 52 73 53 74 58 75 54 76 55 77 57 78
REMARK SMILES IDX 59 79 56 80 40 81 41 82 46 83 42 84 43 85 45 86 47 87 44 88
REMARK H PARENT 7 8 74 18 14 31 64 50 38 61
REMARK Flexibility Score: inf
ROOT
ATOM      1  C   UNL A   1      34.473  28.391  26.311  1.00  0.00     0.002 C 
ENDROOT
BRANCH   1   2
ATOM      2  C   UNL A   1      34.387  27.990  24.829  1.00  0.00     0.002 C 
BRANCH   2   3
ATOM      3  C   UNL A   1      33.941  29.085  23.849  1.00  0.00     0.021 C 
BRANCH   3   4
ATOM      4  C   UNL A   1      33.368  28.571  22.526  1.00  0.00     0.116 C 
BRANCH   4   5
ATOM      5  N   UNL A   1      32.115  29.228  22.191  1.00  0.00    -0.352 N 
ATOM      6  C   UNL A   1      30.859  29.108  22.741  1.00  0.00     0.251 C 
ATOM      7  O   UNL A   1      29.977  29.889  22.389  1.00  0.00    -0.269 OA
ATOM      8  H   UNL A   1      32.175  29.866  21.444  1.00  0.00     0.163 HD
BRANCH   6   9
ATOM      9  C   UNL A   1      30.565  28.103  23.793  1.00  0.00     0.040 A 
ATOM     10  C   UNL A   1      31.229  27.792  27.517  1.00  0.00     0.046 C 
ATOM     11  C   UNL A   1      30.850  27.382  26.119  1.00  0.00    -0.027 A 
ATOM     12  C   UNL A   1      30.993  28.352  25.103  1.00  0.00     0.019 A 
ATOM     13  C   UNL A   1      30.321  26.124  25.779  1.00  0.00     0.045 A 
ATOM     14  C   UNL A   1      29.750  25.956  24.510  1.00  0.00     0.027 A 
ATOM     15  C   UNL A   1      29.849  26.942  23.533  1.00  0.00     0.016 A 
BRANCH  13  16
ATOM     16  N   UNL A   1      30.319  25.063  26.708  1.00  0.00    -0.308 N 
ATOM     17  C   UNL A   1      30.905  23.831  26.617  1.00  0.00     0.321 C 
ATOM     18  H   UNL A   1      29.825  25.234  27.542  1.00  0.00     0.171 HD
ATOM     19  O   UNL A   1      30.365  22.874  27.171  1.00  0.00    -0.248 OA
ATOM     20  N   UNL A   1      32.091  23.707  25.938  1.00  0.00    -0.324 N 
ATOM     21  C   UNL A   1      32.483  22.443  25.343  1.00  0.00     0.125 C 
ATOM     22  C   UNL A   1      33.239  24.593  26.103  1.00  0.00     0.125 C 
ATOM     23  C   UNL A   1      34.008  22.486  25.259  1.00  0.00     0.010 C 
ATOM     24  C   UNL A   1      34.321  23.993  25.203  1.00  0.00     0.010 C 
ATOM     25  C   UNL A   1      34.552  21.712  24.068  1.00  0.00     0.010 C 
ATOM     26  C   UNL A   1      35.739  24.326  25.653  1.00  0.00     0.010 C 
ENDBRANCH  13  16
ENDBRANCH   6   9
ENDBRANCH   4   5
ENDBRANCH   3   4
ENDBRANCH   2   3
ENDBRANCH   1   2
BRANCH   1  27
ATOM     27  C   UNL A   1      34.289  29.879  26.617  1.00  0.00     0.021 C 
BRANCH  27  28
ATOM     28  C   UNL A   1      34.102  30.195  28.094  1.00  0.00     0.116 C 
BRANCH  28  29
ATOM     29  N   UNL A   1      34.987  31.245  28.601  1.00  0.00    -0.352 N 
ATOM     30  C   UNL A   1      36.310  31.179  28.986  1.00  0.00     0.251 C 
ATOM     31  H   UNL A   1      34.575  32.136  28.678  1.00  0.00     0.163 HD
ATOM     32  O   UNL A   1      36.876  32.163  29.410  1.00  0.00    -0.269 OA
BRANCH  30  33
ATOM     33  C   UNL A   1      37.079  29.922  28.751  1.00  0.00     0.039 A 
ATOM     34  C   UNL A   1      37.285  29.070  29.843  1.00  0.00     0.014 A 
ATOM     35  C   UNL A   1      37.736  29.684  27.547  1.00  0.00     0.014 A 
ATOM     36  C   UNL A   1      38.331  28.151  29.804  1.00  0.00     0.010 A 
ATOM     37  C   UNL A   1      38.828  28.838  27.537  1.00  0.00     0.010 A 
ATOM     38  C   UNL A   1      39.170  28.128  28.692  1.00  0.00    -0.014 A 
BRANCH  38  39
ATOM     39  C   UNL A   1      40.490  27.507  28.701  1.00  0.00     0.031 A 
ATOM     40  C   UNL A   1      40.665  26.077  28.384  1.00  0.00     0.074 A 
ATOM     41  C   UNL A   1      41.574  28.282  28.933  1.00  0.00     0.049 A 
ATOM     42  N   UNL A   1      41.697  25.379  28.720  1.00  0.00    -0.248 NA
ATOM     43  C   UNL A   1      39.651  25.305  27.676  1.00  0.00     0.031 C 
ATOM     44  C   UNL A   1      42.979  27.931  28.748  1.00  0.00     0.029 A 
ATOM     45  N   UNL A   1      41.609  29.500  29.626  1.00  0.00    -0.354 N 
ATOM     46  C   UNL A   1      41.606  24.157  28.096  1.00  0.00     0.074 A 
ATOM     47  C   UNL A   1      40.297  24.150  27.481  1.00  0.00     0.031 C 
ATOM     48  C   UNL A   1      43.723  28.707  29.552  1.00  0.00     0.029 A 
ATOM     49  C   UNL A   1      42.808  29.477  30.375  1.00  0.00     0.049 A 
ATOM     50  H   UNL A   1      40.938  30.220  29.599  1.00  0.00     0.167 HD
ATOM     51  C   UNL A   1      42.686  23.325  28.083  1.00  0.00     0.037 A 
ATOM     52  C   UNL A   1      42.774  29.471  31.739  1.00  0.00     0.037 A 
ATOM     53  C   UNL A   1      43.795  23.861  28.865  1.00  0.00     0.049 A 
ATOM     54  C   UNL A   1      43.388  28.246  32.383  1.00  0.00     0.074 A 
ATOM     55  C   UNL A   1      44.930  24.594  28.556  1.00  0.00     0.029 A 
ATOM     56  N   UNL A   1      43.666  23.916  30.240  1.00  0.00    -0.354 N 
ATOM     57  N   UNL A   1      43.828  27.208  31.725  1.00  0.00    -0.248 NA
ATOM     58  C   UNL A   1      43.461  28.056  33.834  1.00  0.00     0.031 C 
ATOM     59  C   UNL A   1      45.453  25.131  29.768  1.00  0.00     0.029 A 
ATOM     60  C   UNL A   1      44.640  24.715  30.805  1.00  0.00     0.049 A 
ATOM     61  H   UNL A   1      42.969  23.444  30.751  1.00  0.00     0.167 HD
ATOM     62  C   UNL A   1      44.173  26.227  32.613  1.00  0.00     0.074 A 
ATOM     63  C   UNL A   1      43.937  26.802  33.922  1.00  0.00     0.031 C 
ATOM     64  C   UNL A   1      44.585  24.989  32.228  1.00  0.00     0.037 A 
BRANCH  51  65
ATOM     65  C   UNL A   1      42.805  22.126  27.178  1.00  0.00     0.057 A 
ATOM     66  C   UNL A   1      41.997  20.988  27.378  1.00  0.00     0.134 A 
ATOM     67  C   UNL A   1      43.720  22.012  26.119  1.00  0.00     0.134 A 
ATOM     68  F   UNL A   1      41.013  20.974  28.285  1.00  0.00    -0.206 F 
ATOM     69  C   UNL A   1      42.168  19.798  26.659  1.00  0.00     0.040 A 
ATOM     70  C   UNL A   1      43.944  20.810  25.431  1.00  0.00     0.040 A 
ATOM     71  F   UNL A   1      44.403  23.073  25.670  1.00  0.00    -0.206 F 
ATOM     72  C   UNL A   1      43.173  19.692  25.710  1.00  0.00     0.006 A 
ENDBRANCH  51  65
BRANCH  52  73
ATOM     73  C   UNL A   1      41.623  30.230  32.296  1.00  0.00     0.057 A 
ATOM     74  C   UNL A   1      41.669  31.636  32.284  1.00  0.00     0.134 A 
ATOM     75  C   UNL A   1      40.376  29.636  32.503  1.00  0.00     0.134 A 
ATOM     76  F   UNL A   1      42.835  32.273  32.091  1.00  0.00    -0.206 F 
ATOM     77  C   UNL A   1      40.510  32.412  32.355  1.00  0.00     0.040 A 
ATOM     78  C   UNL A   1      39.211  30.404  32.596  1.00  0.00     0.040 A 
ATOM     79  F   UNL A   1      40.245  28.301  32.507  1.00  0.00    -0.206 F 
ATOM     80  C   UNL A   1      39.272  31.792  32.479  1.00  0.00     0.006 A 
ENDBRANCH  52  73
BRANCH  64  81
ATOM     81  C   UNL A   1      44.977  23.934  33.209  1.00  0.00     0.057 A 
ATOM     82  C   UNL A   1      44.071  22.959  33.643  1.00  0.00     0.134 A 
ATOM     83  C   UNL A   1      46.234  23.947  33.837  1.00  0.00     0.134 A 
ATOM     84  F   UNL A   1      42.837  22.888  33.120  1.00  0.00    -0.206 F 
ATOM     85  C   UNL A   1      44.401  22.036  34.639  1.00  0.00     0.040 A 
ATOM     86  C   UNL A   1      46.563  23.055  34.859  1.00  0.00     0.040 A 
ATOM     87  F   UNL A   1      47.188  24.815  33.466  1.00  0.00    -0.206 F 
ATOM     88  C   UNL A   1      45.645  22.092  35.261  1.00  0.00     0.006 A 
ENDBRANCH  64  81
ENDBRANCH  38  39
ENDBRANCH  30  33
ENDBRANCH  28  29
ENDBRANCH  27  28
ENDBRANCH   1  27
TORSDOF 14
ENDMDL
MODEL 2
REMARK VINA RESULT:     -12.6      1.211      1.674
REMARK SMILES Cc1cc(C(=O)NCCCCCCNC(=O)c2ccc(-c3c4nc(c(-c5c(F)cccc5F)c5ccc([nH]5)c(-c5c(F)cccc5F)c5nc(c(-c6c(F)cccc6F)c6ccc3[nH]6)C=C5)C=C4)cc2)ccc1NC(=O)N1C[C@@H](C)[C@H](C)C1
REMARK SMILES IDX 11 1 10 2 9 3 8 4 7 5 5 6 6 7 4 9 1 10 2 11 3 12 73 13 72 14
REMARK SMILES IDX 71 15 74 16 75 17 76 19 77 20 78 21 83 22 79 23 81 24 80 25
REMARK SMILES IDX 82 26 12 27 13 28 14 29 15 30 16 32 17 33 18 34 70 35 19 36
REMARK SMILES IDX 69 37 20 38 21 39 22 40 63 41 23 42 68 43 62 44 64 45 24 46
REMARK SMILES IDX 67 47 61 48 60 49 25 51 51 52 34 53 50 54 35 55 38 56 49 57
REMARK SMILES IDX 65 58 36 59 37 60 48 62 66 63 39 64 26 65 27 66 32 67 28 68
REMARK SMILES IDX 29 69 31 70 33 71 30 72 52 73 53 74 58 75 54 76 55 77 57 78
REMARK SMILES IDX 59 79 56 80 40 81 41 82 46 83 42 84 43 85 45 86 47 87 44 88
REMARK H PARENT 7 8 74 18 14 31 64 50 38 61
REMARK Flexibility Score: inf
ROOT
ATOM      1  C   UNL A   1      34.036  28.368  26.691  1.00  0.00     0.002 C 
ENDROOT
BRANCH   1   2
ATOM      2  C   UNL A   1      32.582  27.954  26.409  1.00  0.00     0.002 C 
BRANCH   2   3
ATOM      3  C   UNL A   1      31.581  29.092  26.163  1.00  0.00     0.021 C 
BRANCH   3   4
ATOM      4  C   UNL A   1      31.737  29.808  24.819  1.00  0.00     0.116 C 
BRANCH   4   5
ATOM      5  N   UNL A   1      30.479  29.870  24.093  1.00  0.00    -0.352 N 
ATOM      6  C   UNL A   1      29.730  28.879  23.501  1.00  0.00     0.251 C 
ATOM      7  O   UNL A   1      28.611  29.152  23.074  1.00  0.00    -0.269 OA
ATOM      8  H   UNL A   1      30.099  30.774  24.010  1.00  0.00     0.163 HD
BRANCH   6   9
ATOM      9  C   UNL A   1      30.217  27.478  23.426  1.00  0.00     0.040 A 
ATOM     10  C   UNL A   1      32.633  25.556  21.219  1.00  0.00     0.046 C 
ATOM     11  C   UNL A   1      31.548  25.800  22.233  1.00  0.00    -0.027 A 
ATOM     12  C   UNL A   1      31.141  27.137  22.430  1.00  0.00     0.019 A 
ATOM     13  C   UNL A   1      30.960  24.794  23.021  1.00  0.00     0.045 A 
ATOM     14  C   UNL A   1      30.171  25.173  24.116  1.00  0.00     0.027 A 
ATOM     15  C   UNL A   1      29.821  26.503  24.332  1.00  0.00     0.016 A 
BRANCH  13  16
ATOM     16  N   UNL A   1      31.196  23.430  22.751  1.00  0.00    -0.308 N 
ATOM     17  C   UNL A   1      32.368  22.729  22.798  1.00  0.00     0.321 C 
ATOM     18  H   UNL A   1      30.402  22.909  22.491  1.00  0.00     0.171 HD
ATOM     19  O   UNL A   1      32.528  21.787  22.020  1.00  0.00    -0.248 OA
ATOM     20  N   UNL A   1      33.314  23.075  23.728  1.00  0.00    -0.324 N 
ATOM     21  C   UNL A   1      34.719  22.784  23.511  1.00  0.00     0.125 C 
ATOM     22  C   UNL A   1      33.038  23.326  25.139  1.00  0.00     0.125 C 
ATOM     23  C   UNL A   1      35.342  22.708  24.905  1.00  0.00     0.010 C 
ATOM     24  C   UNL A   1      34.412  23.588  25.761  1.00  0.00     0.010 C 
ATOM     25  C   UNL A   1      36.792  23.165  24.924  1.00  0.00     0.010 C 
ATOM     26  C   UNL A   1      34.479  23.259  27.247  1.00  0.00     0.010 C 
ENDBRANCH  13  16
ENDBRANCH   6   9
ENDBRANCH   4   5
ENDBRANCH   3   4
ENDBRANCH   2   3
ENDBRANCH   1   2
BRANCH   1  27
ATOM     27  C   UNL A   1      34.243  29.348  27.850  1.00  0.00     0.021 C 
BRANCH  27  28
ATOM     28  C   UNL A   1      34.691  30.737  27.420  1.00  0.00     0.116 C 
BRANCH  28  29
ATOM     29  N   UNL A   1      35.387  31.493  28.463  1.00  0.00    -0.352 N 
ATOM     30  C   UNL A   1      36.484  31.147  29.224  1.00  0.00     0.251 C 
ATOM     31  H   UNL A   1      35.014  32.385  28.650  1.00  0.00     0.163 HD
ATOM     32  O   UNL A   1      36.908  31.904  30.070  1.00  0.00    -0.269 OA
BRANCH  30  33
ATOM     33  C   UNL A   1      37.230  29.894  28.907  1.00  0.00     0.039 A 
ATOM     34  C   UNL A   1      37.386  28.952  29.931  1.00  0.00     0.014 A 
ATOM     35  C   UNL A   1      37.913  29.737  27.704  1.00  0.00     0.014 A 
ATOM     36  C   UNL A   1      38.411  28.013  29.843  1.00  0.00     0.010 A 
ATOM     37  C   UNL A   1      38.985  28.867  27.653  1.00  0.00     0.010 A 
ATOM     38  C   UNL A   1      39.279  28.058  28.755  1.00  0.00    -0.014 A 
BRANCH  38  39
ATOM     39  C   UNL A   1      40.583  27.405  28.746  1.00  0.00     0.031 A 
ATOM     40  C   UNL A   1      40.717  25.969  28.433  1.00  0.00     0.074 A 
ATOM     41  C   UNL A   1      41.689  28.153  28.957  1.00  0.00     0.049 A 
ATOM     42  N   UNL A   1      41.737  25.247  28.757  1.00  0.00    -0.248 NA
ATOM     43  C   UNL A   1      39.674  25.219  27.745  1.00  0.00     0.031 C 
ATOM     44  C   UNL A   1      43.082  27.767  28.752  1.00  0.00     0.029 A 
ATOM     45  N   UNL A   1      41.765  29.373  29.643  1.00  0.00    -0.354 N 
ATOM     46  C   UNL A   1      41.607  24.025  28.140  1.00  0.00     0.074 A 
ATOM     47  C   UNL A   1      40.288  24.048  27.546  1.00  0.00     0.031 C 
ATOM     48  C   UNL A   1      43.858  28.528  29.541  1.00  0.00     0.029 A 
ATOM     49  C   UNL A   1      42.975  29.324  30.374  1.00  0.00     0.049 A 
ATOM     50  H   UNL A   1      41.112  30.109  29.623  1.00  0.00     0.167 HD
ATOM     51  C   UNL A   1      42.666  23.166  28.115  1.00  0.00     0.037 A 
ATOM     52  C   UNL A   1      42.962  29.325  31.738  1.00  0.00     0.037 A 
ATOM     53  C   UNL A   1      43.800  23.679  28.877  1.00  0.00     0.049 A 
ATOM     54  C   UNL A   1      43.556  28.088  32.378  1.00  0.00     0.074 A 
ATOM     55  C   UNL A   1      44.947  24.383  28.546  1.00  0.00     0.029 A 
ATOM     56  N   UNL A   1      43.694  23.743  30.253  1.00  0.00    -0.354 N 
ATOM     57  N   UNL A   1      43.959  27.037  31.719  1.00  0.00    -0.248 NA
ATOM     58  C   UNL A   1      43.647  27.903  33.829  1.00  0.00     0.031 C 
ATOM     59  C   UNL A   1      45.502  24.911  29.746  1.00  0.00     0.029 A 
ATOM     60  C   UNL A   1      44.696  24.521  30.798  1.00  0.00     0.049 A 
ATOM     61  H   UNL A   1      42.994  23.291  30.777  1.00  0.00     0.167 HD
ATOM     62  C   UNL A   1      44.295  26.052  32.606  1.00  0.00     0.074 A 
ATOM     63  C   UNL A   1      44.093  26.639  33.915  1.00  0.00     0.031 C 
ATOM     64  C   UNL A   1      44.670  24.802  32.220  1.00  0.00     0.037 A 
BRANCH  51  65
ATOM     65  C   UNL A   1      42.740  21.960  27.214  1.00  0.00     0.057 A 
ATOM     66  C   UNL A   1      41.908  20.845  27.431  1.00  0.00     0.134 A 
ATOM     67  C   UNL A   1      43.636  21.820  26.141  1.00  0.00     0.134 A 
ATOM     68  F   UNL A   1      40.938  20.860  28.353  1.00  0.00    -0.206 F 
ATOM     69  C   UNL A   1      42.039  19.648  26.716  1.00  0.00     0.040 A 
ATOM     70  C   UNL A   1      43.820  20.609  25.456  1.00  0.00     0.040 A 
ATOM     71  F   UNL A   1      44.339  22.861  25.677  1.00  0.00    -0.206 F 
ATOM     72  C   UNL A   1      43.026  19.512  25.752  1.00  0.00     0.006 A 
ENDBRANCH  51  65
BRANCH  52  73
ATOM     73  C   UNL A   1      41.839  30.115  32.309  1.00  0.00     0.057 A 
ATOM     74  C   UNL A   1      41.940  31.518  32.332  1.00  0.00     0.134 A 
ATOM     75  C   UNL A   1      40.568  29.565  32.496  1.00  0.00     0.134 A 
ATOM     76  F   UNL A   1      43.131  32.113  32.160  1.00  0.00    -0.206 F 
ATOM     77  C   UNL A   1      40.812  32.337  32.418  1.00  0.00     0.040 A 
ATOM     78  C   UNL A   1      39.435  30.377  32.604  1.00  0.00     0.040 A 
ATOM     79  F   UNL A   1      40.386  28.237  32.466  1.00  0.00    -0.206 F 
ATOM     80  C   UNL A   1      39.550  31.763  32.522  1.00  0.00     0.006 A 
ENDBRANCH  52  73
BRANCH  64  81
ATOM     81  C   UNL A   1      45.052  23.743  33.201  1.00  0.00     0.057 A 
ATOM     82  C   UNL A   1      44.123  22.806  33.672  1.00  0.00     0.134 A 
ATOM     83  C   UNL A   1      46.326  23.714  33.791  1.00  0.00     0.134 A 
ATOM     84  F   UNL A   1      42.873  22.777  33.186  1.00  0.00    -0.206 F 
ATOM     85  C   UNL A   1      44.448  21.881  34.667  1.00  0.00     0.040 A 
ATOM     86  C   UNL A   1      46.652  22.820  34.812  1.00  0.00     0.040 A 
ATOM     87  F   UNL A   1      47.300  24.542  33.384  1.00  0.00    -0.206 F 
ATOM     88  C   UNL A   1      45.712  21.896  35.251  1.00  0.00     0.006 A 
ENDBRANCH  64  81
ENDBRANCH  38  39
ENDBRANCH  30  33
ENDBRANCH  28  29
ENDBRANCH  27  28
ENDBRANCH   1  27
TORSDOF 14
ENDMDL
MODEL 3
REMARK VINA RESULT:     -12.3      3.658      9.201
REMARK SMILES Cc1cc(C(=O)NCCCCCCNC(=O)c2ccc(-c3c4nc(c(-c5c(F)cccc5F)c5ccc([nH]5)c(-c5c(F)cccc5F)c5nc(c(-c6c(F)cccc6F)c6ccc3[nH]6)C=C5)C=C4)cc2)ccc1NC(=O)N1C[C@@H](C)[C@H](C)C1
REMARK SMILES IDX 11 1 10 2 9 3 8 4 7 5 5 6 6 7 4 9 1 10 2 11 3 12 73 13 72 14
REMARK SMILES IDX 71 15 74 16 75 17 76 19 77 20 78 21 83 22 79 23 81 24 80 25
REMARK SMILES IDX 82 26 12 27 13 28 14 29 15 30 16 32 17 33 18 34 70 35 19 36
REMARK SMILES IDX 69 37 20 38 21 39 22 40 63 41 23 42 68 43 62 44 64 45 24 46
REMARK SMILES IDX 67 47 61 48 60 49 25 51 51 52 34 53 50 54 35 55 38 56 49 57
REMARK SMILES IDX 65 58 36 59 37 60 48 62 66 63 39 64 26 65 27 66 32 67 28 68
REMARK SMILES IDX 29 69 31 70 33 71 30 72 52 73 53 74 58 75 54 76 55 77 57 78
REMARK SMILES IDX 59 79 56 80 40 81 41 82 46 83 42 84 43 85 45 86 47 87 44 88
REMARK H PARENT 7 8 74 18 14 31 64 50 38 61
REMARK Flexibility Score: inf
ROOT
ATOM      1  C   UNL A   1      37.311  23.897  26.106  1.00  0.00     0.002 C 
ENDROOT
BRANCH   1   2
ATOM      2  C   UNL A   1      36.003  23.660  25.333  1.00  0.00     0.002 C 
BRANCH   2   3
ATOM      3  C   UNL A   1      35.762  22.234  24.816  1.00  0.00     0.021 C 
BRANCH   3   4
ATOM      4  C   UNL A   1      35.249  21.246  25.866  1.00  0.00     0.116 C 
BRANCH   4   5
ATOM      5  N   UNL A   1      34.492  20.162  25.261  1.00  0.00    -0.352 N 
ATOM      6  C   UNL A   1      33.338  20.177  24.512  1.00  0.00     0.251 C 
ATOM      7  O   UNL A   1      32.965  19.139  23.971  1.00  0.00    -0.269 OA
ATOM      8  H   UNL A   1      34.869  19.265  25.413  1.00  0.00     0.163 HD
BRANCH   6   9
ATOM      9  C   UNL A   1      32.573  21.430  24.291  1.00  0.00     0.040 A 
ATOM     10  C   UNL A   1      30.426  23.716  26.429  1.00  0.00     0.046 C 
ATOM     11  C   UNL A   1      31.035  23.114  25.190  1.00  0.00    -0.027 A 
ATOM     12  C   UNL A   1      31.875  21.994  25.367  1.00  0.00     0.019 A 
ATOM     13  C   UNL A   1      30.858  23.626  23.892  1.00  0.00     0.045 A 
ATOM     14  C   UNL A   1      31.690  23.156  22.866  1.00  0.00     0.027 A 
ATOM     15  C   UNL A   1      32.555  22.085  23.067  1.00  0.00     0.016 A 
BRANCH  13  16
ATOM     16  N   UNL A   1      29.899  24.626  23.631  1.00  0.00    -0.308 N 
ATOM     17  C   UNL A   1      29.890  25.937  24.018  1.00  0.00     0.321 C 
ATOM     18  H   UNL A   1      29.125  24.339  23.094  1.00  0.00     0.171 HD
ATOM     19  O   UNL A   1      28.808  26.487  24.229  1.00  0.00    -0.248 OA
ATOM     20  N   UNL A   1      31.082  26.607  24.128  1.00  0.00    -0.324 N 
ATOM     21  C   UNL A   1      31.217  27.753  25.008  1.00  0.00     0.125 C 
ATOM     22  C   UNL A   1      32.145  26.579  23.130  1.00  0.00     0.125 C 
ATOM     23  C   UNL A   1      32.367  28.579  24.431  1.00  0.00     0.010 C 
ATOM     24  C   UNL A   1      33.208  27.537  23.671  1.00  0.00     0.010 C 
ATOM     25  C   UNL A   1      33.150  29.321  25.503  1.00  0.00     0.010 C 
ATOM     26  C   UNL A   1      34.082  28.152  22.584  1.00  0.00     0.010 C 
ENDBRANCH  13  16
ENDBRANCH   6   9
ENDBRANCH   4   5
ENDBRANCH   3   4
ENDBRANCH   2   3
ENDBRANCH   1   2
BRANCH   1  27
ATOM     27  C   UNL A   1      38.527  23.098  25.629  1.00  0.00     0.021 C 
BRANCH  27  28
ATOM     28  C   UNL A   1      39.452  22.643  26.749  1.00  0.00     0.116 C 
BRANCH  28  29
ATOM     29  N   UNL A   1      40.855  23.018  26.559  1.00  0.00    -0.352 N 
ATOM     30  C   UNL A   1      41.452  24.261  26.594  1.00  0.00     0.251 C 
ATOM     31  H   UNL A   1      41.466  22.267  26.378  1.00  0.00     0.163 HD
ATOM     32  O   UNL A   1      42.639  24.378  26.383  1.00  0.00    -0.269 OA
BRANCH  30  33
ATOM     33  C   UNL A   1      40.653  25.445  27.026  1.00  0.00     0.039 A 
ATOM     34  C   UNL A   1      40.784  26.625  26.284  1.00  0.00     0.014 A 
ATOM     35  C   UNL A   1      39.949  25.449  28.226  1.00  0.00     0.014 A 
ATOM     36  C   UNL A   1      40.438  27.841  26.869  1.00  0.00     0.010 A 
ATOM     37  C   UNL A   1      39.688  26.658  28.843  1.00  0.00     0.010 A 
ATOM     38  C   UNL A   1      40.004  27.855  28.193  1.00  0.00    -0.014 A 
BRANCH  38  39
ATOM     39  C   UNL A   1      39.988  29.059  29.016  1.00  0.00     0.031 A 
ATOM     40  C   UNL A   1      38.916  30.064  28.882  1.00  0.00     0.074 A 
ATOM     41  C   UNL A   1      40.939  29.213  29.966  1.00  0.00     0.049 A 
ATOM     42  N   UNL A   1      39.013  31.289  29.277  1.00  0.00    -0.248 NA
ATOM     43  C   UNL A   1      37.637  29.761  28.251  1.00  0.00     0.031 C 
ATOM     44  C   UNL A   1      40.973  30.196  31.045  1.00  0.00     0.029 A 
ATOM     45  N   UNL A   1      42.213  28.629  29.987  1.00  0.00    -0.354 N 
ATOM     46  C   UNL A   1      37.772  31.870  29.173  1.00  0.00     0.074 A 
ATOM     47  C   UNL A   1      36.955  30.884  28.500  1.00  0.00     0.031 C 
ATOM     48  C   UNL A   1      42.250  30.380  31.415  1.00  0.00     0.029 A 
ATOM     49  C   UNL A   1      43.079  29.627  30.492  1.00  0.00     0.049 A 
ATOM     50  H   UNL A   1      42.455  27.718  29.707  1.00  0.00     0.167 HD
ATOM     51  C   UNL A   1      37.543  33.081  29.757  1.00  0.00     0.037 A 
ATOM     52  C   UNL A   1      44.067  30.150  29.708  1.00  0.00     0.037 A 
ATOM     53  C   UNL A   1      38.757  33.637  30.348  1.00  0.00     0.049 A 
ATOM     54  C   UNL A   1      43.948  31.636  29.447  1.00  0.00     0.074 A 
ATOM     55  C   UNL A   1      39.298  33.636  31.623  1.00  0.00     0.029 A 
ATOM     56  N   UNL A   1      39.763  34.066  29.503  1.00  0.00    -0.354 N 
ATOM     57  N   UNL A   1      42.942  32.375  29.828  1.00  0.00    -0.248 NA
ATOM     58  C   UNL A   1      44.914  32.387  28.641  1.00  0.00     0.031 C 
ATOM     59  C   UNL A   1      40.664  34.027  31.523  1.00  0.00     0.029 A 
ATOM     60  C   UNL A   1      40.943  34.270  30.192  1.00  0.00     0.049 A 
ATOM     61  H   UNL A   1      39.653  34.209  28.536  1.00  0.00     0.167 HD
ATOM     62  C   UNL A   1      43.079  33.628  29.299  1.00  0.00     0.074 A 
ATOM     63  C   UNL A   1      44.331  33.595  28.571  1.00  0.00     0.031 C 
ATOM     64  C   UNL A   1      42.141  34.603  29.447  1.00  0.00     0.037 A 
BRANCH  51  65
ATOM     65  C   UNL A   1      36.167  33.655  29.977  1.00  0.00     0.057 A 
ATOM     66  C   UNL A   1      35.379  34.077  28.889  1.00  0.00     0.134 A 
ATOM     67  C   UNL A   1      35.578  33.854  31.237  1.00  0.00     0.134 A 
ATOM     68  F   UNL A   1      35.758  33.869  27.622  1.00  0.00    -0.206 F 
ATOM     69  C   UNL A   1      34.159  34.747  29.048  1.00  0.00     0.040 A 
ATOM     70  C   UNL A   1      34.389  34.576  31.415  1.00  0.00     0.040 A 
ATOM     71  F   UNL A   1      36.103  33.318  32.346  1.00  0.00    -0.206 F 
ATOM     72  C   UNL A   1      33.680  35.037  30.316  1.00  0.00     0.006 A 
ENDBRANCH  51  65
BRANCH  52  73
ATOM     73  C   UNL A   1      44.629  29.165  28.746  1.00  0.00     0.057 A 
ATOM     74  C   UNL A   1      45.553  28.212  29.213  1.00  0.00     0.134 A 
ATOM     75  C   UNL A   1      44.034  28.920  27.506  1.00  0.00     0.134 A 
ATOM     76  F   UNL A   1      46.162  28.386  30.397  1.00  0.00    -0.206 F 
ATOM     77  C   UNL A   1      45.783  27.014  28.535  1.00  0.00     0.040 A 
ATOM     78  C   UNL A   1      44.273  27.732  26.808  1.00  0.00     0.040 A 
ATOM     79  F   UNL A   1      43.127  29.770  27.002  1.00  0.00    -0.206 F 
ATOM     80  C   UNL A   1      45.115  26.759  27.342  1.00  0.00     0.006 A 
ENDBRANCH  52  73
BRANCH  64  81
ATOM     81  C   UNL A   1      42.314  35.973  28.880  1.00  0.00     0.057 A 
ATOM     82  C   UNL A   1      41.843  36.307  27.604  1.00  0.00     0.134 A 
ATOM     83  C   UNL A   1      43.068  36.954  29.546  1.00  0.00     0.134 A 
ATOM     84  F   UNL A   1      41.137  35.423  26.881  1.00  0.00    -0.206 F 
ATOM     85  C   UNL A   1      42.094  37.554  27.027  1.00  0.00     0.040 A 
ATOM     86  C   UNL A   1      43.359  38.189  28.966  1.00  0.00     0.040 A 
ATOM     87  F   UNL A   1      43.532  36.749  30.788  1.00  0.00    -0.206 F 
ATOM     88  C   UNL A   1      42.867  38.494  27.702  1.00  0.00     0.006 A 
ENDBRANCH  64  81
ENDBRANCH  38  39
ENDBRANCH  30  33
ENDBRANCH  28  29
ENDBRANCH  27  28
ENDBRANCH   1  27
TORSDOF 14
ENDMDL
