MODEL 1
REMARK VINA RESULT:     -11.5      0.000      0.000
REMARK SMILES Cc1ccsc1C(=O)NNC(=O)[C@@H]1[C@@H](C(=O)NCCCCCCNC(=O)c2ccc(-c3c4nc(c(-c5c(F)cccc5F)c5ccc([nH]5)c(-c5c(F)cccc5F)c5nc(c(-c6c(F)cccc6F)c6ccc3[nH]6)C=C5)C=C4)cc2)[C@H]2C=C[C@@H]1C2
REMARK SMILES IDX 20 1 19 2 18 3 17 4 15 5 16 6 14 8 13 9 84 10 81 11 83 12
REMARK SMILES IDX 85 13 82 14 11 15 10 16 12 18 9 19 7 20 8 21 6 23 1 24 2 25
REMARK SMILES IDX 3 26 4 27 5 28 21 29 22 30 23 31 24 32 25 33 26 35 27 36
REMARK SMILES IDX 28 37 80 38 29 39 79 40 30 41 31 42 32 43 73 44 33 45 78 46
REMARK SMILES IDX 72 47 74 48 34 49 77 50 71 51 70 52 35 54 61 55 44 56 60 57
REMARK SMILES IDX 45 58 48 59 59 60 75 61 46 62 47 63 58 65 76 66 49 67 36 68
REMARK SMILES IDX 37 69 42 70 38 71 39 72 41 73 43 74 40 75 62 76 63 77 68 78
REMARK SMILES IDX 64 79 65 80 67 81 69 82 66 83 50 84 51 85 56 86 52 87 53 88
REMARK SMILES IDX 55 89 57 90 54 91
REMARK H PARENT 17 7 10 17 9 22 24 34 74 53 48 64
REMARK Flexibility Score: inf
ROOT
ATOM      1  C   UNL A   1      34.032  30.624  27.627  1.00  0.00     0.002 C 
ENDROOT
BRANCH   1   2
ATOM      2  C   UNL A   1      34.782  29.313  27.389  1.00  0.00     0.021 C 
BRANCH   2   3
ATOM      3  C   UNL A   1      34.063  28.332  26.470  1.00  0.00     0.116 C 
BRANCH   3   4
ATOM      4  N   UNL A   1      34.351  28.581  25.073  1.00  0.00    -0.356 N 
ATOM      5  C   UNL A   1      33.719  28.270  23.920  1.00  0.00     0.224 C 
ATOM      6  O   UNL A   1      34.269  28.662  22.882  1.00  0.00    -0.275 OA
ATOM      7  H   UNL A   1      35.187  29.084  24.934  1.00  0.00     0.163 HD
BRANCH   5   8
ATOM      8  C   UNL A   1      32.437  27.459  23.785  1.00  0.00     0.098 C 
ATOM      9  C   UNL A   1      31.887  27.126  22.376  1.00  0.00     0.100 C 
ATOM     10  C   UNL A   1      30.357  27.329  22.572  1.00  0.00     0.025 C 
ATOM     11  C   UNL A   1      31.205  28.045  24.527  1.00  0.00     0.025 C 
ATOM     12  C   UNL A   1      30.130  28.838  22.659  1.00  0.00    -0.027 C 
ATOM     13  C   UNL A   1      30.112  27.073  24.065  1.00  0.00     0.017 C 
ATOM     14  C   UNL A   1      30.655  29.259  23.824  1.00  0.00    -0.027 C 
BRANCH   9  15
ATOM     15  C   UNL A   1      32.476  25.851  21.769  1.00  0.00     0.242 C 
ATOM     16  N   UNL A   1      32.386  24.610  22.325  1.00  0.00    -0.267 N 
ATOM     17  H   UNL A   1      33.025  23.927  22.018  1.00  0.00     0.191 HD
ATOM     18  O   UNL A   1      33.139  25.943  20.727  1.00  0.00    -0.273 OA
BRANCH  16  19
ATOM     19  N   UNL A   1      31.478  24.240  23.276  1.00  0.00    -0.263 N 
ATOM     20  C   UNL A   1      31.667  23.314  24.288  1.00  0.00     0.280 C 
ATOM     21  O   UNL A   1      30.653  23.040  24.938  1.00  0.00    -0.266 OA
ATOM     22  H   UNL A   1      30.597  24.677  23.237  1.00  0.00     0.191 HD
BRANCH  20  23
ATOM     23  C   UNL A   1      33.000  22.818  24.635  1.00  0.00     0.096 A 
ATOM     24  C   UNL A   1      34.484  24.828  25.374  1.00  0.00     0.046 C 
ATOM     25  C   UNL A   1      34.177  23.387  25.121  1.00  0.00    -0.027 A 
ATOM     26  C   UNL A   1      35.181  22.379  25.362  1.00  0.00     0.016 A 
ATOM     27  C   UNL A   1      34.783  21.118  24.996  1.00  0.00     0.066 A 
ATOM     28  S   UNL A   1      33.202  21.112  24.383  1.00  0.00    -0.138 S 
ENDBRANCH  20  23
ENDBRANCH  16  19
ENDBRANCH   9  15
ENDBRANCH   5   8
ENDBRANCH   3   4
ENDBRANCH   2   3
ENDBRANCH   1   2
BRANCH   1  29
ATOM     29  C   UNL A   1      32.546  30.613  27.251  1.00  0.00     0.002 C 
BRANCH  29  30
ATOM     30  C   UNL A   1      31.880  31.985  27.105  1.00  0.00     0.021 C 
BRANCH  30  31
ATOM     31  C   UNL A   1      32.832  33.145  26.826  1.00  0.00     0.116 C 
BRANCH  31  32
ATOM     32  N   UNL A   1      32.528  34.313  27.632  1.00  0.00    -0.352 N 
ATOM     33  C   UNL A   1      33.053  34.713  28.833  1.00  0.00     0.251 C 
ATOM     34  H   UNL A   1      31.839  34.910  27.258  1.00  0.00     0.163 HD
ATOM     35  O   UNL A   1      32.538  35.641  29.447  1.00  0.00    -0.269 OA
BRANCH  33  36
ATOM     36  C   UNL A   1      34.229  34.021  29.400  1.00  0.00     0.039 A 
ATOM     37  C   UNL A   1      34.021  33.033  30.367  1.00  0.00     0.014 A 
ATOM     38  C   UNL A   1      35.529  34.364  29.015  1.00  0.00     0.014 A 
ATOM     39  C   UNL A   1      35.113  32.360  30.917  1.00  0.00     0.010 A 
ATOM     40  C   UNL A   1      36.613  33.647  29.516  1.00  0.00     0.010 A 
ATOM     41  C   UNL A   1      36.417  32.646  30.479  1.00  0.00    -0.014 A 
BRANCH  41  42
ATOM     42  C   UNL A   1      37.581  31.913  31.032  1.00  0.00     0.031 A 
ATOM     43  C   UNL A   1      38.089  32.227  32.412  1.00  0.00     0.074 A 
ATOM     44  C   UNL A   1      38.211  30.997  30.272  1.00  0.00     0.049 A 
ATOM     45  N   UNL A   1      39.112  31.717  33.052  1.00  0.00    -0.248 NA
ATOM     46  C   UNL A   1      37.371  33.270  33.161  1.00  0.00     0.031 C 
ATOM     47  C   UNL A   1      37.848  30.645  28.898  1.00  0.00     0.029 A 
ATOM     48  N   UNL A   1      39.296  30.204  30.544  1.00  0.00    -0.354 N 
ATOM     49  C   UNL A   1      39.168  32.386  34.268  1.00  0.00     0.074 A 
ATOM     50  C   UNL A   1      38.110  33.373  34.256  1.00  0.00     0.031 C 
ATOM     51  C   UNL A   1      38.683  29.691  28.455  1.00  0.00     0.029 A 
ATOM     52  C   UNL A   1      39.656  29.387  29.500  1.00  0.00     0.049 A 
ATOM     53  H   UNL A   1      39.773  30.218  31.405  1.00  0.00     0.167 HD
ATOM     54  C   UNL A   1      40.010  32.182  35.309  1.00  0.00     0.037 A 
ATOM     55  C   UNL A   1      40.659  28.495  29.396  1.00  0.00     0.037 A 
ATOM     56  C   UNL A   1      41.045  31.181  35.328  1.00  0.00     0.049 A 
ATOM     57  C   UNL A   1      41.568  28.272  30.571  1.00  0.00     0.074 A 
ATOM     58  C   UNL A   1      41.905  30.848  36.359  1.00  0.00     0.029 A 
ATOM     59  N   UNL A   1      41.360  30.351  34.261  1.00  0.00    -0.354 N 
ATOM     60  N   UNL A   1      41.561  28.858  31.744  1.00  0.00    -0.248 NA
ATOM     61  C   UNL A   1      42.616  27.255  30.412  1.00  0.00     0.031 C 
ATOM     62  C   UNL A   1      42.768  29.846  35.903  1.00  0.00     0.029 A 
ATOM     63  C   UNL A   1      42.415  29.522  34.603  1.00  0.00     0.049 A 
ATOM     64  H   UNL A   1      40.900  30.353  33.390  1.00  0.00     0.167 HD
ATOM     65  C   UNL A   1      42.586  28.266  32.471  1.00  0.00     0.074 A 
ATOM     66  C   UNL A   1      43.181  27.263  31.612  1.00  0.00     0.031 C 
ATOM     67  C   UNL A   1      42.997  28.529  33.735  1.00  0.00     0.037 A 
BRANCH  54  68
ATOM     68  C   UNL A   1      39.844  33.060  36.515  1.00  0.00     0.057 A 
ATOM     69  C   UNL A   1      40.594  34.232  36.686  1.00  0.00     0.134 A 
ATOM     70  C   UNL A   1      38.906  32.745  37.505  1.00  0.00     0.134 A 
ATOM     71  F   UNL A   1      41.519  34.585  35.780  1.00  0.00    -0.206 F 
ATOM     72  C   UNL A   1      40.439  35.041  37.813  1.00  0.00     0.040 A 
ATOM     73  C   UNL A   1      38.722  33.561  38.623  1.00  0.00     0.040 A 
ATOM     74  F   UNL A   1      38.150  31.642  37.402  1.00  0.00    -0.206 F 
ATOM     75  C   UNL A   1      39.495  34.709  38.783  1.00  0.00     0.006 A 
ENDBRANCH  54  68
BRANCH  55  76
ATOM     76  C   UNL A   1      40.837  27.727  28.139  1.00  0.00     0.057 A 
ATOM     77  C   UNL A   1      40.231  26.478  27.963  1.00  0.00     0.134 A 
ATOM     78  C   UNL A   1      41.612  28.223  27.083  1.00  0.00     0.134 A 
ATOM     79  F   UNL A   1      39.491  25.943  28.945  1.00  0.00    -0.206 F 
ATOM     80  C   UNL A   1      40.403  25.740  26.791  1.00  0.00     0.040 A 
ATOM     81  C   UNL A   1      41.773  27.507  25.897  1.00  0.00     0.040 A 
ATOM     82  F   UNL A   1      42.211  29.419  27.187  1.00  0.00    -0.206 F 
ATOM     83  C   UNL A   1      41.173  26.258  25.751  1.00  0.00     0.006 A 
ENDBRANCH  55  76
BRANCH  67  84
ATOM     84  C   UNL A   1      44.127  27.701  34.272  1.00  0.00     0.057 A 
ATOM     85  C   UNL A   1      45.454  28.147  34.231  1.00  0.00     0.134 A 
ATOM     86  C   UNL A   1      43.880  26.454  34.861  1.00  0.00     0.134 A 
ATOM     87  F   UNL A   1      45.758  29.327  33.669  1.00  0.00    -0.206 F 
ATOM     88  C   UNL A   1      46.499  27.371  34.734  1.00  0.00     0.040 A 
ATOM     89  C   UNL A   1      44.914  25.680  35.390  1.00  0.00     0.040 A 
ATOM     90  F   UNL A   1      42.631  25.973  34.938  1.00  0.00    -0.206 F 
ATOM     91  C   UNL A   1      46.229  26.136  35.321  1.00  0.00     0.006 A 
ENDBRANCH  67  84
ENDBRANCH  41  42
ENDBRANCH  33  36
ENDBRANCH  31  32
ENDBRANCH  30  31
ENDBRANCH  29  30
ENDBRANCH   1  29
TORSDOF 16
ENDMDL
MODEL 2
REMARK VINA RESULT:     -11.4      4.186      8.912
REMARK SMILES Cc1ccsc1C(=O)NNC(=O)[C@@H]1[C@@H](C(=O)NCCCCCCNC(=O)c2ccc(-c3c4nc(c(-c5c(F)cccc5F)c5ccc([nH]5)c(-c5c(F)cccc5F)c5nc(c(-c6c(F)cccc6F)c6ccc3[nH]6)C=C5)C=C4)cc2)[C@H]2C=C[C@@H]1C2
REMARK SMILES IDX 20 1 19 2 18 3 17 4 15 5 16 6 14 8 13 9 84 10 81 11 83 12
REMARK SMILES IDX 85 13 82 14 11 15 10 16 12 18 9 19 7 20 8 21 6 23 1 24 2 25
REMARK SMILES IDX 3 26 4 27 5 28 21 29 22 30 23 31 24 32 25 33 26 35 27 36
REMARK SMILES IDX 28 37 80 38 29 39 79 40 30 41 31 42 32 43 73 44 33 45 78 46
REMARK SMILES IDX 72 47 74 48 34 49 77 50 71 51 70 52 35 54 61 55 44 56 60 57
REMARK SMILES IDX 45 58 48 59 59 60 75 61 46 62 47 63 58 65 76 66 49 67 36 68
REMARK SMILES IDX 37 69 42 70 38 71 39 72 41 73 43 74 40 75 62 76 63 77 68 78
REMARK SMILES IDX 64 79 65 80 67 81 69 82 66 83 50 84 51 85 56 86 52 87 53 88
REMARK SMILES IDX 55 89 57 90 54 91
REMARK H PARENT 17 7 10 17 9 22 24 34 74 53 48 64
REMARK Flexibility Score: inf
ROOT
ATOM      1  C   UNL A   1      37.212  21.931  24.358  1.00  0.00     0.002 C 
ENDROOT
BRANCH   1   2
ATOM      2  C   UNL A   1      35.948  22.548  23.758  1.00  0.00     0.021 C 
BRANCH   2   3
ATOM      3  C   UNL A   1      35.552  23.890  24.362  1.00  0.00     0.116 C 
BRANCH   3   4
ATOM      4  N   UNL A   1      34.610  24.607  23.530  1.00  0.00    -0.356 N 
ATOM      5  C   UNL A   1      33.560  25.418  23.793  1.00  0.00     0.224 C 
ATOM      6  O   UNL A   1      32.970  25.872  22.803  1.00  0.00    -0.275 OA
ATOM      7  H   UNL A   1      34.768  24.478  22.566  1.00  0.00     0.163 HD
BRANCH   5   8
ATOM      8  C   UNL A   1      33.023  25.778  25.171  1.00  0.00     0.098 C 
ATOM      9  C   UNL A   1      31.500  25.702  25.443  1.00  0.00     0.100 C 
ATOM     10  C   UNL A   1      31.262  26.978  26.300  1.00  0.00     0.025 C 
ATOM     11  C   UNL A   1      33.413  27.193  25.681  1.00  0.00     0.025 C 
ATOM     12  C   UNL A   1      31.359  28.165  25.342  1.00  0.00    -0.027 C 
ATOM     13  C   UNL A   1      32.608  27.252  26.985  1.00  0.00     0.017 C 
ATOM     14  C   UNL A   1      32.646  28.275  24.965  1.00  0.00    -0.027 C 
BRANCH   9  15
ATOM     15  C   UNL A   1      31.021  24.316  25.881  1.00  0.00     0.242 C 
ATOM     16  N   UNL A   1      30.813  23.263  25.043  1.00  0.00    -0.267 N 
ATOM     17  H   UNL A   1      30.245  22.527  25.369  1.00  0.00     0.191 HD
ATOM     18  O   UNL A   1      30.737  24.138  27.074  1.00  0.00    -0.273 OA
BRANCH  16  19
ATOM     19  N   UNL A   1      31.330  23.147  23.784  1.00  0.00    -0.263 N 
ATOM     20  C   UNL A   1      32.226  22.189  23.339  1.00  0.00     0.280 C 
ATOM     21  O   UNL A   1      32.662  22.374  22.199  1.00  0.00    -0.266 OA
ATOM     22  H   UNL A   1      31.036  23.815  23.124  1.00  0.00     0.191 HD
BRANCH  20  23
ATOM     23  C   UNL A   1      32.511  20.984  24.120  1.00  0.00     0.096 A 
ATOM     24  C   UNL A   1      33.504  21.685  26.425  1.00  0.00     0.046 C 
ATOM     25  C   UNL A   1      32.997  20.721  25.401  1.00  0.00    -0.027 A 
ATOM     26  C   UNL A   1      32.994  19.305  25.677  1.00  0.00     0.016 A 
ATOM     27  C   UNL A   1      32.589  18.544  24.610  1.00  0.00     0.066 A 
ATOM     28  S   UNL A   1      32.185  19.504  23.273  1.00  0.00    -0.138 S 
ENDBRANCH  20  23
ENDBRANCH  16  19
ENDBRANCH   9  15
ENDBRANCH   5   8
ENDBRANCH   3   4
ENDBRANCH   2   3
ENDBRANCH   1   2
BRANCH   1  29
ATOM     29  C   UNL A   1      37.058  20.506  24.900  1.00  0.00     0.002 C 
BRANCH  29  30
ATOM     30  C   UNL A   1      38.312  19.628  24.845  1.00  0.00     0.021 C 
BRANCH  30  31
ATOM     31  C   UNL A   1      39.223  19.712  26.067  1.00  0.00     0.116 C 
BRANCH  31  32
ATOM     32  N   UNL A   1      40.498  19.052  25.852  1.00  0.00    -0.352 N 
ATOM     33  C   UNL A   1      41.770  19.557  25.919  1.00  0.00     0.251 C 
ATOM     34  H   UNL A   1      40.439  18.096  25.623  1.00  0.00     0.163 HD
ATOM     35  O   UNL A   1      42.717  18.883  25.528  1.00  0.00    -0.269 OA
BRANCH  33  36
ATOM     36  C   UNL A   1      42.006  20.916  26.447  1.00  0.00     0.039 A 
ATOM     37  C   UNL A   1      41.927  21.120  27.828  1.00  0.00     0.014 A 
ATOM     38  C   UNL A   1      42.265  21.993  25.593  1.00  0.00     0.014 A 
ATOM     39  C   UNL A   1      42.148  22.393  28.356  1.00  0.00     0.010 A 
ATOM     40  C   UNL A   1      42.551  23.248  26.126  1.00  0.00     0.010 A 
ATOM     41  C   UNL A   1      42.484  23.463  27.510  1.00  0.00    -0.014 A 
BRANCH  41  42
ATOM     42  C   UNL A   1      42.756  24.812  28.064  1.00  0.00     0.031 A 
ATOM     43  C   UNL A   1      44.144  25.185  28.504  1.00  0.00     0.074 A 
ATOM     44  C   UNL A   1      41.741  25.684  28.216  1.00  0.00     0.049 A 
ATOM     45  N   UNL A   1      44.569  26.300  29.042  1.00  0.00    -0.248 NA
ATOM     46  C   UNL A   1      45.188  24.160  28.344  1.00  0.00     0.031 C 
ATOM     47  C   UNL A   1      40.342  25.419  27.878  1.00  0.00     0.029 A 
ATOM     48  N   UNL A   1      41.731  26.966  28.703  1.00  0.00    -0.354 N 
ATOM     49  C   UNL A   1      45.921  26.107  29.297  1.00  0.00     0.074 A 
ATOM     50  C   UNL A   1      46.234  24.750  28.903  1.00  0.00     0.031 C 
ATOM     51  C   UNL A   1      39.611  26.513  28.150  1.00  0.00     0.029 A 
ATOM     52  C   UNL A   1      40.484  27.543  28.707  1.00  0.00     0.049 A 
ATOM     53  H   UNL A   1      42.539  27.430  29.020  1.00  0.00     0.167 HD
ATOM     54  C   UNL A   1      46.824  26.985  29.794  1.00  0.00     0.037 A 
ATOM     55  C   UNL A   1      40.089  28.762  29.115  1.00  0.00     0.037 A 
ATOM     56  C   UNL A   1      46.514  28.343  30.160  1.00  0.00     0.049 A 
ATOM     57  C   UNL A   1      41.113  29.728  29.643  1.00  0.00     0.074 A 
ATOM     58  C   UNL A   1      47.371  29.333  30.606  1.00  0.00     0.029 A 
ATOM     59  N   UNL A   1      45.245  28.901  30.121  1.00  0.00    -0.354 N 
ATOM     60  N   UNL A   1      42.402  29.556  29.807  1.00  0.00    -0.248 NA
ATOM     61  C   UNL A   1      40.628  31.058  30.033  1.00  0.00     0.031 C 
ATOM     62  C   UNL A   1      46.613  30.478  30.878  1.00  0.00     0.029 A 
ATOM     63  C   UNL A   1      45.292  30.215  30.556  1.00  0.00     0.049 A 
ATOM     64  H   UNL A   1      44.430  28.431  29.828  1.00  0.00     0.167 HD
ATOM     65  C   UNL A   1      42.887  30.763  30.295  1.00  0.00     0.074 A 
ATOM     66  C   UNL A   1      41.754  31.662  30.384  1.00  0.00     0.031 C 
ATOM     67  C   UNL A   1      44.155  31.096  30.640  1.00  0.00     0.037 A 
BRANCH  54  68
ATOM     68  C   UNL A   1      48.234  26.502  29.968  1.00  0.00     0.057 A 
ATOM     69  C   UNL A   1      48.661  25.875  31.147  1.00  0.00     0.134 A 
ATOM     70  C   UNL A   1      49.171  26.643  28.938  1.00  0.00     0.134 A 
ATOM     71  F   UNL A   1      47.817  25.720  32.179  1.00  0.00    -0.206 F 
ATOM     72  C   UNL A   1      49.977  25.434  31.305  1.00  0.00     0.040 A 
ATOM     73  C   UNL A   1      50.481  26.181  29.073  1.00  0.00     0.040 A 
ATOM     74  F   UNL A   1      48.829  27.229  27.780  1.00  0.00    -0.206 F 
ATOM     75  C   UNL A   1      50.890  25.581  30.262  1.00  0.00     0.006 A 
ENDBRANCH  54  68
BRANCH  55  76
ATOM     76  C   UNL A   1      38.660  29.149  29.013  1.00  0.00     0.057 A 
ATOM     77  C   UNL A   1      38.120  29.607  27.806  1.00  0.00     0.134 A 
ATOM     78  C   UNL A   1      37.800  29.067  30.115  1.00  0.00     0.134 A 
ATOM     79  F   UNL A   1      38.897  29.724  26.720  1.00  0.00    -0.206 F 
ATOM     80  C   UNL A   1      36.780  29.987  27.701  1.00  0.00     0.040 A 
ATOM     81  C   UNL A   1      36.454  29.420  30.019  1.00  0.00     0.040 A 
ATOM     82  F   UNL A   1      38.256  28.626  31.297  1.00  0.00    -0.206 F 
ATOM     83  C   UNL A   1      35.942  29.888  28.810  1.00  0.00     0.006 A 
ENDBRANCH  55  76
BRANCH  67  84
ATOM     84  C   UNL A   1      44.386  32.500  31.117  1.00  0.00     0.057 A 
ATOM     85  C   UNL A   1      44.339  32.834  32.477  1.00  0.00     0.134 A 
ATOM     86  C   UNL A   1      44.686  33.522  30.209  1.00  0.00     0.134 A 
ATOM     87  F   UNL A   1      44.044  31.903  33.397  1.00  0.00    -0.206 F 
ATOM     88  C   UNL A   1      44.556  34.142  32.913  1.00  0.00     0.040 A 
ATOM     89  C   UNL A   1      44.930  34.828  30.635  1.00  0.00     0.040 A 
ATOM     90  F   UNL A   1      44.754  33.266  28.894  1.00  0.00    -0.206 F 
ATOM     91  C   UNL A   1      44.859  35.142  31.990  1.00  0.00     0.006 A 
ENDBRANCH  67  84
ENDBRANCH  41  42
ENDBRANCH  33  36
ENDBRANCH  31  32
ENDBRANCH  30  31
ENDBRANCH  29  30
ENDBRANCH   1  29
TORSDOF 16
ENDMDL
MODEL 3
REMARK VINA RESULT:     -11.4      0.472      6.124
REMARK SMILES Cc1ccsc1C(=O)NNC(=O)[C@@H]1[C@@H](C(=O)NCCCCCCNC(=O)c2ccc(-c3c4nc(c(-c5c(F)cccc5F)c5ccc([nH]5)c(-c5c(F)cccc5F)c5nc(c(-c6c(F)cccc6F)c6ccc3[nH]6)C=C5)C=C4)cc2)[C@H]2C=C[C@@H]1C2
REMARK SMILES IDX 20 1 19 2 18 3 17 4 15 5 16 6 14 8 13 9 84 10 81 11 83 12
REMARK SMILES IDX 85 13 82 14 11 15 10 16 12 18 9 19 7 20 8 21 6 23 1 24 2 25
REMARK SMILES IDX 3 26 4 27 5 28 21 29 22 30 23 31 24 32 25 33 26 35 27 36
REMARK SMILES IDX 28 37 80 38 29 39 79 40 30 41 31 42 32 43 73 44 33 45 78 46
REMARK SMILES IDX 72 47 74 48 34 49 77 50 71 51 70 52 35 54 61 55 44 56 60 57
REMARK SMILES IDX 45 58 48 59 59 60 75 61 46 62 47 63 58 65 76 66 49 67 36 68
REMARK SMILES IDX 37 69 42 70 38 71 39 72 41 73 43 74 40 75 62 76 63 77 68 78
REMARK SMILES IDX 64 79 65 80 67 81 69 82 66 83 50 84 51 85 56 86 52 87 53 88
REMARK SMILES IDX 55 89 57 90 54 91
REMARK H PARENT 17 7 10 17 9 22 24 34 74 53 48 64
REMARK Flexibility Score: inf
ROOT
ATOM      1  C   UNL A   1      32.890  30.168  27.269  1.00  0.00     0.002 C 
ENDROOT
BRANCH   1   2
ATOM      2  C   UNL A   1      32.945  28.640  27.297  1.00  0.00     0.021 C 
BRANCH   2   3
ATOM      3  C   UNL A   1      34.056  28.034  26.448  1.00  0.00     0.116 C 
BRANCH   3   4
ATOM      4  N   UNL A   1      34.136  28.641  25.136  1.00  0.00    -0.356 N 
ATOM      5  C   UNL A   1      33.401  28.525  24.007  1.00  0.00     0.224 C 
ATOM      6  O   UNL A   1      33.768  29.223  23.052  1.00  0.00    -0.275 OA
ATOM      7  H   UNL A   1      34.885  29.274  25.047  1.00  0.00     0.163 HD
BRANCH   5   8
ATOM      8  C   UNL A   1      32.211  27.598  23.798  1.00  0.00     0.098 C 
ATOM      9  C   UNL A   1      31.833  27.150  22.364  1.00  0.00     0.100 C 
ATOM     10  C   UNL A   1      30.279  27.226  22.403  1.00  0.00     0.025 C 
ATOM     11  C   UNL A   1      30.866  28.108  24.386  1.00  0.00     0.025 C 
ATOM     12  C   UNL A   1      29.920  28.711  22.382  1.00  0.00    -0.027 C 
ATOM     13  C   UNL A   1      29.909  27.022  23.878  1.00  0.00     0.017 C 
ATOM     14  C   UNL A   1      30.290  29.233  23.565  1.00  0.00    -0.027 C 
BRANCH   9  15
ATOM     15  C   UNL A   1      32.584  25.904  21.889  1.00  0.00     0.242 C 
ATOM     16  N   UNL A   1      32.603  24.710  22.545  1.00  0.00    -0.267 N 
ATOM     17  H   UNL A   1      33.326  24.080  22.320  1.00  0.00     0.191 HD
ATOM     18  O   UNL A   1      33.280  25.985  20.869  1.00  0.00    -0.273 OA
BRANCH  16  19
ATOM     19  N   UNL A   1      31.698  24.318  23.490  1.00  0.00    -0.263 N 
ATOM     20  C   UNL A   1      31.854  23.302  24.418  1.00  0.00     0.280 C 
ATOM     21  O   UNL A   1      30.842  23.037  25.074  1.00  0.00    -0.266 OA
ATOM     22  H   UNL A   1      30.846  24.809  23.513  1.00  0.00     0.191 HD
BRANCH  20  23
ATOM     23  C   UNL A   1      33.162  22.699  24.683  1.00  0.00     0.096 A 
ATOM     24  C   UNL A   1      34.843  24.580  25.336  1.00  0.00     0.046 C 
ATOM     25  C   UNL A   1      34.407  23.170  25.099  1.00  0.00    -0.027 A 
ATOM     26  C   UNL A   1      35.340  22.083  25.276  1.00  0.00     0.016 A 
ATOM     27  C   UNL A   1      34.823  20.861  24.932  1.00  0.00     0.066 A 
ATOM     28  S   UNL A   1      33.213  20.985  24.416  1.00  0.00    -0.138 S 
ENDBRANCH  20  23
ENDBRANCH  16  19
ENDBRANCH   9  15
ENDBRANCH   5   8
ENDBRANCH   3   4
ENDBRANCH   2   3
ENDBRANCH   1   2
BRANCH   1  29
ATOM     29  C   UNL A   1      31.624  30.772  26.650  1.00  0.00     0.002 C 
BRANCH  29  30
ATOM     30  C   UNL A   1      31.433  32.279  26.849  1.00  0.00     0.021 C 
BRANCH  30  31
ATOM     31  C   UNL A   1      32.720  33.093  26.950  1.00  0.00     0.116 C 
BRANCH  31  32
ATOM     32  N   UNL A   1      32.524  34.353  27.643  1.00  0.00    -0.352 N 
ATOM     33  C   UNL A   1      33.115  34.829  28.784  1.00  0.00     0.251 C 
ATOM     34  H   UNL A   1      31.866  34.958  27.229  1.00  0.00     0.163 HD
ATOM     35  O   UNL A   1      32.685  35.847  29.316  1.00  0.00    -0.269 OA
BRANCH  33  36
ATOM     36  C   UNL A   1      34.258  34.113  29.386  1.00  0.00     0.039 A 
ATOM     37  C   UNL A   1      35.553  34.501  29.030  1.00  0.00     0.014 A 
ATOM     38  C   UNL A   1      34.064  33.041  30.264  1.00  0.00     0.014 A 
ATOM     39  C   UNL A   1      36.652  33.844  29.585  1.00  0.00     0.010 A 
ATOM     40  C   UNL A   1      35.161  32.431  30.868  1.00  0.00     0.010 A 
ATOM     41  C   UNL A   1      36.465  32.819  30.526  1.00  0.00    -0.014 A 
BRANCH  41  42
ATOM     42  C   UNL A   1      37.627  32.139  31.149  1.00  0.00     0.031 A 
ATOM     43  C   UNL A   1      38.363  31.061  30.403  1.00  0.00     0.074 A 
ATOM     44  C   UNL A   1      37.988  32.459  32.406  1.00  0.00     0.049 A 
ATOM     45  N   UNL A   1      39.378  30.331  30.793  1.00  0.00    -0.248 NA
ATOM     46  C   UNL A   1      37.878  30.741  29.051  1.00  0.00     0.031 C 
ATOM     47  C   UNL A   1      37.319  33.448  33.252  1.00  0.00     0.029 A 
ATOM     48  N   UNL A   1      39.003  31.978  33.193  1.00  0.00    -0.354 N 
ATOM     49  C   UNL A   1      39.642  29.460  29.744  1.00  0.00     0.074 A 
ATOM     50  C   UNL A   1      38.650  29.715  28.722  1.00  0.00     0.031 C 
ATOM     51  C   UNL A   1      37.952  33.514  34.434  1.00  0.00     0.029 A 
ATOM     52  C   UNL A   1      39.052  32.554  34.439  1.00  0.00     0.049 A 
ATOM     53  H   UNL A   1      39.636  31.285  32.895  1.00  0.00     0.167 HD
ATOM     54  C   UNL A   1      40.634  28.544  29.632  1.00  0.00     0.037 A 
ATOM     55  C   UNL A   1      39.888  32.332  35.470  1.00  0.00     0.037 A 
ATOM     56  C   UNL A   1      41.636  28.311  30.640  1.00  0.00     0.049 A 
ATOM     57  C   UNL A   1      40.994  31.326  35.315  1.00  0.00     0.074 A 
ATOM     58  C   UNL A   1      42.723  27.456  30.594  1.00  0.00     0.029 A 
ATOM     59  N   UNL A   1      41.671  28.936  31.878  1.00  0.00    -0.354 N 
ATOM     60  N   UNL A   1      41.279  30.563  34.288  1.00  0.00    -0.248 NA
ATOM     61  C   UNL A   1      41.901  31.158  36.459  1.00  0.00     0.031 C 
ATOM     62  C   UNL A   1      43.392  27.533  31.821  1.00  0.00     0.029 A 
ATOM     63  C   UNL A   1      42.748  28.470  32.613  1.00  0.00     0.049 A 
ATOM     64  H   UNL A   1      41.024  29.611  32.188  1.00  0.00     0.167 HD
ATOM     65  C   UNL A   1      42.410  29.843  34.651  1.00  0.00     0.074 A 
ATOM     66  C   UNL A   1      42.768  30.274  35.987  1.00  0.00     0.031 C 
ATOM     67  C   UNL A   1      43.090  28.909  33.942  1.00  0.00     0.037 A 
BRANCH  54  68
ATOM     68  C   UNL A   1      40.683  27.728  28.374  1.00  0.00     0.057 A 
ATOM     69  C   UNL A   1      41.396  28.154  27.244  1.00  0.00     0.134 A 
ATOM     70  C   UNL A   1      40.031  26.492  28.297  1.00  0.00     0.134 A 
ATOM     71  F   UNL A   1      42.033  29.335  27.246  1.00  0.00    -0.206 F 
ATOM     72  C   UNL A   1      41.432  27.392  26.074  1.00  0.00     0.040 A 
ATOM     73  C   UNL A   1      40.083  25.709  27.142  1.00  0.00     0.040 A 
ATOM     74  F   UNL A   1      39.336  26.021  29.343  1.00  0.00    -0.206 F 
ATOM     75  C   UNL A   1      40.779  26.162  26.023  1.00  0.00     0.006 A 
ENDBRANCH  54  68
BRANCH  55  76
ATOM     76  C   UNL A   1      39.728  33.098  36.730  1.00  0.00     0.057 A 
ATOM     77  C   UNL A   1      40.480  34.252  36.975  1.00  0.00     0.134 A 
ATOM     78  C   UNL A   1      38.817  32.700  37.717  1.00  0.00     0.134 A 
ATOM     79  F   UNL A   1      41.381  34.674  36.076  1.00  0.00    -0.206 F 
ATOM     80  C   UNL A   1      40.349  34.973  38.163  1.00  0.00     0.040 A 
ATOM     81  C   UNL A   1      38.658  33.424  38.898  1.00  0.00     0.040 A 
ATOM     82  F   UNL A   1      38.060  31.607  37.537  1.00  0.00    -0.206 F 
ATOM     83  C   UNL A   1      39.430  34.562  39.127  1.00  0.00     0.006 A 
ENDBRANCH  55  76
BRANCH  67  84
ATOM     84  C   UNL A   1      44.305  28.312  34.590  1.00  0.00     0.057 A 
ATOM     85  C   UNL A   1      44.237  27.131  35.339  1.00  0.00     0.134 A 
ATOM     86  C   UNL A   1      45.561  28.913  34.439  1.00  0.00     0.134 A 
ATOM     87  F   UNL A   1      43.062  26.514  35.531  1.00  0.00    -0.206 F 
ATOM     88  C   UNL A   1      45.373  26.581  35.937  1.00  0.00     0.040 A 
ATOM     89  C   UNL A   1      46.708  28.360  35.010  1.00  0.00     0.040 A 
ATOM     90  F   UNL A   1      45.696  30.042  33.727  1.00  0.00    -0.206 F 
ATOM     91  C   UNL A   1      46.614  27.193  35.767  1.00  0.00     0.006 A 
ENDBRANCH  67  84
ENDBRANCH  41  42
ENDBRANCH  33  36
ENDBRANCH  31  32
ENDBRANCH  30  31
ENDBRANCH  29  30
ENDBRANCH   1  29
TORSDOF 16
ENDMDL
