MODEL 1
REMARK VINA RESULT:     -11.2      0.000      0.000
REMARK SMILES O=C(CNC(=O)c1cccs1)N[C@@H]1C=C[C@H](C(=O)NCCCCCCNC(=O)c2ccc(-c3c4nc(c(-c5c(F)cccc5F)c5ccc([nH]5)c(-c5c(F)cccc5F)c5nc(c(-c6c(F)cccc6F)c6ccc3[nH]6)C=C5)C=C4)cc2)C1
REMARK SMILES IDX 21 1 20 2 19 3 17 4 18 5 16 7 13 8 14 9 83 10 15 11 12 12
REMARK SMILES IDX 1 13 2 14 3 16 4 17 5 18 6 20 7 21 8 22 11 23 9 24 10 25
REMARK SMILES IDX 22 26 23 27 24 28 25 29 26 30 27 31 28 33 29 34 30 35 82 36
REMARK SMILES IDX 31 37 81 38 32 39 33 40 34 41 75 42 35 43 80 44 74 45 76 46
REMARK SMILES IDX 36 47 79 48 73 49 72 50 37 52 63 53 46 54 62 55 47 56 50 57
REMARK SMILES IDX 61 58 77 59 48 60 49 61 60 63 78 64 51 65 38 66 39 67 44 68
REMARK SMILES IDX 40 69 41 70 43 71 45 72 42 73 64 74 65 75 70 76 66 77 67 78
REMARK SMILES IDX 69 79 71 80 68 81 52 82 53 83 58 84 54 85 55 86 57 87 59 88
REMARK SMILES IDX 56 89
REMARK H PARENT 19 6 12 15 4 19 26 32 76 51 50 62
REMARK Flexibility Score: inf
ROOT
ATOM      1  C   UNL A   1      41.009  22.425  27.474  1.00  0.00     0.021 C 
ENDROOT
BRANCH   1   2
ATOM      2  C   UNL A   1      39.667  22.785  26.838  1.00  0.00     0.116 C 
BRANCH   2   3
ATOM      3  N   UNL A   1      39.117  21.669  26.091  1.00  0.00    -0.356 N 
ATOM      4  C   UNL A   1      38.039  21.630  25.254  1.00  0.00     0.227 C 
ATOM      5  O   UNL A   1      37.714  20.543  24.776  1.00  0.00    -0.274 OA
ATOM      6  H   UNL A   1      39.593  20.814  26.203  1.00  0.00     0.163 HD
BRANCH   4   7
ATOM      7  C   UNL A   1      37.287  22.929  24.967  1.00  0.00     0.103 C 
ATOM      8  C   UNL A   1      34.828  22.970  24.755  1.00  0.00     0.106 C 
ATOM      9  C   UNL A   1      35.508  23.053  23.432  1.00  0.00    -0.006 C 
ATOM     10  C   UNL A   1      35.980  23.010  25.771  1.00  0.00     0.047 C 
ATOM     11  C   UNL A   1      36.839  23.025  23.542  1.00  0.00    -0.016 C 
BRANCH   8  12
ATOM     12  N   UNL A   1      34.087  21.731  24.784  1.00  0.00    -0.348 N 
ATOM     13  O   UNL A   1      32.292  22.558  23.623  1.00  0.00    -0.273 OA
ATOM     14  C   UNL A   1      32.870  21.610  24.149  1.00  0.00     0.239 C 
ATOM     15  H   UNL A   1      34.459  20.958  25.266  1.00  0.00     0.164 HD
BRANCH  14  16
ATOM     16  C   UNL A   1      32.174  20.260  24.317  1.00  0.00     0.216 C 
BRANCH  16  17
ATOM     17  N   UNL A   1      31.984  19.533  23.069  1.00  0.00    -0.342 N 
ATOM     18  C   UNL A   1      32.422  18.286  22.700  1.00  0.00     0.261 C 
ATOM     19  H   UNL A   1      31.462  20.011  22.385  1.00  0.00     0.164 HD
ATOM     20  O   UNL A   1      32.184  17.926  21.545  1.00  0.00    -0.268 OA
BRANCH  18  21
ATOM     21  C   UNL A   1      33.144  17.479  23.659  1.00  0.00     0.092 A 
ATOM     22  C   UNL A   1      34.431  16.974  23.604  1.00  0.00     0.025 A 
ATOM     23  S   UNL A   1      32.374  17.070  25.133  1.00  0.00    -0.139 S 
ATOM     24  C   UNL A   1      34.754  16.189  24.748  1.00  0.00     0.012 A 
ATOM     25  C   UNL A   1      33.721  16.157  25.659  1.00  0.00     0.065 A 
ENDBRANCH  18  21
ENDBRANCH  16  17
ENDBRANCH  14  16
ENDBRANCH   8  12
ENDBRANCH   4   7
ENDBRANCH   2   3
ENDBRANCH   1   2
BRANCH   1  26
ATOM     26  C   UNL A   1      41.886  21.484  26.639  1.00  0.00     0.002 C 
BRANCH  26  27
ATOM     27  C   UNL A   1      41.862  20.012  27.062  1.00  0.00     0.002 C 
BRANCH  27  28
ATOM     28  C   UNL A   1      42.319  19.016  25.994  1.00  0.00     0.021 C 
BRANCH  28  29
ATOM     29  C   UNL A   1      43.791  18.622  26.066  1.00  0.00     0.116 C 
BRANCH  29  30
ATOM     30  N   UNL A   1      44.422  18.574  24.757  1.00  0.00    -0.352 N 
ATOM     31  C   UNL A   1      44.889  19.602  23.975  1.00  0.00     0.251 C 
ATOM     32  H   UNL A   1      44.532  17.672  24.376  1.00  0.00     0.163 HD
ATOM     33  O   UNL A   1      45.253  19.385  22.823  1.00  0.00    -0.269 OA
BRANCH  31  34
ATOM     34  C   UNL A   1      44.927  20.981  24.509  1.00  0.00     0.039 A 
ATOM     35  C   UNL A   1      45.525  21.205  25.752  1.00  0.00     0.014 A 
ATOM     36  C   UNL A   1      44.373  22.047  23.796  1.00  0.00     0.014 A 
ATOM     37  C   UNL A   1      45.624  22.507  26.249  1.00  0.00     0.010 A 
ATOM     38  C   UNL A   1      44.534  23.350  24.258  1.00  0.00     0.010 A 
ATOM     39  C   UNL A   1      45.161  23.594  25.490  1.00  0.00    -0.014 A 
BRANCH  39  40
ATOM     40  C   UNL A   1      45.326  24.992  25.966  1.00  0.00     0.031 A 
ATOM     41  C   UNL A   1      46.677  25.650  25.929  1.00  0.00     0.074 A 
ATOM     42  C   UNL A   1      44.272  25.646  26.489  1.00  0.00     0.049 A 
ATOM     43  N   UNL A   1      47.033  26.833  26.362  1.00  0.00    -0.248 NA
ATOM     44  C   UNL A   1      47.779  24.864  25.353  1.00  0.00     0.031 C 
ATOM     45  C   UNL A   1      42.918  25.105  26.621  1.00  0.00     0.029 A 
ATOM     46  N   UNL A   1      44.176  26.908  27.020  1.00  0.00    -0.354 N 
ATOM     47  C   UNL A   1      48.397  26.929  26.122  1.00  0.00     0.074 A 
ATOM     48  C   UNL A   1      48.816  25.664  25.556  1.00  0.00     0.031 C 
ATOM     49  C   UNL A   1      42.123  26.038  27.169  1.00  0.00     0.029 A 
ATOM     50  C   UNL A   1      42.916  27.225  27.465  1.00  0.00     0.049 A 
ATOM     51  H   UNL A   1      44.939  27.528  27.074  1.00  0.00     0.167 HD
ATOM     52  C   UNL A   1      49.223  27.983  26.329  1.00  0.00     0.037 A 
ATOM     53  C   UNL A   1      42.455  28.345  28.053  1.00  0.00     0.037 A 
ATOM     54  C   UNL A   1      48.802  29.247  26.874  1.00  0.00     0.049 A 
ATOM     55  C   UNL A   1      43.395  29.494  28.292  1.00  0.00     0.074 A 
ATOM     56  C   UNL A   1      49.552  30.393  27.074  1.00  0.00     0.029 A 
ATOM     57  N   UNL A   1      47.515  29.531  27.307  1.00  0.00    -0.354 N 
ATOM     58  N   UNL A   1      44.669  29.593  28.002  1.00  0.00    -0.248 NA
ATOM     59  C   UNL A   1      42.831  30.688  28.936  1.00  0.00     0.031 C 
ATOM     60  C   UNL A   1      48.730  31.356  27.669  1.00  0.00     0.029 A 
ATOM     61  C   UNL A   1      47.456  30.826  27.794  1.00  0.00     0.049 A 
ATOM     62  H   UNL A   1      46.757  28.904  27.273  1.00  0.00     0.167 HD
ATOM     63  C   UNL A   1      45.052  30.868  28.400  1.00  0.00     0.074 A 
ATOM     64  C   UNL A   1      43.871  31.509  28.941  1.00  0.00     0.031 C 
ATOM     65  C   UNL A   1      46.272  31.455  28.323  1.00  0.00     0.037 A 
BRANCH  52  66
ATOM     66  C   UNL A   1      50.669  27.808  25.963  1.00  0.00     0.057 A 
ATOM     67  C   UNL A   1      51.119  27.950  24.644  1.00  0.00     0.134 A 
ATOM     68  C   UNL A   1      51.628  27.520  26.943  1.00  0.00     0.134 A 
ATOM     69  F   UNL A   1      50.250  28.214  23.654  1.00  0.00    -0.206 F 
ATOM     70  C   UNL A   1      52.462  27.781  24.306  1.00  0.00     0.040 A 
ATOM     71  C   UNL A   1      52.979  27.378  26.623  1.00  0.00     0.040 A 
ATOM     72  F   UNL A   1      51.268  27.379  28.228  1.00  0.00    -0.206 F 
ATOM     73  C   UNL A   1      53.399  27.500  25.300  1.00  0.00     0.006 A 
ENDBRANCH  52  66
BRANCH  53  74
ATOM     74  C   UNL A   1      41.023  28.449  28.435  1.00  0.00     0.057 A 
ATOM     75  C   UNL A   1      40.059  28.859  27.506  1.00  0.00     0.134 A 
ATOM     76  C   UNL A   1      40.586  28.153  29.731  1.00  0.00     0.134 A 
ATOM     77  F   UNL A   1      40.421  29.175  26.254  1.00  0.00    -0.206 F 
ATOM     78  C   UNL A   1      38.715  28.990  27.857  1.00  0.00     0.040 A 
ATOM     79  C   UNL A   1      39.240  28.255  30.089  1.00  0.00     0.040 A 
ATOM     80  F   UNL A   1      41.459  27.747  30.665  1.00  0.00    -0.206 F 
ATOM     81  C   UNL A   1      38.302  28.682  29.152  1.00  0.00     0.006 A 
ENDBRANCH  53  74
BRANCH  65  82
ATOM     82  C   UNL A   1      46.382  32.873  28.800  1.00  0.00     0.057 A 
ATOM     83  C   UNL A   1      46.726  33.185  30.122  1.00  0.00     0.134 A 
ATOM     84  C   UNL A   1      46.174  33.939  27.916  1.00  0.00     0.134 A 
ATOM     85  F   UNL A   1      46.924  32.211  31.021  1.00  0.00    -0.206 F 
ATOM     86  C   UNL A   1      46.839  34.509  30.551  1.00  0.00     0.040 A 
ATOM     87  C   UNL A   1      46.310  35.266  28.327  1.00  0.00     0.040 A 
ATOM     88  F   UNL A   1      45.850  33.709  26.635  1.00  0.00    -0.206 F 
ATOM     89  C   UNL A   1      46.637  35.553  29.651  1.00  0.00     0.006 A 
ENDBRANCH  65  82
ENDBRANCH  39  40
ENDBRANCH  31  34
ENDBRANCH  29  30
ENDBRANCH  28  29
ENDBRANCH  27  28
ENDBRANCH  26  27
ENDBRANCH   1  26
TORSDOF 17
ENDMDL
MODEL 2
REMARK VINA RESULT:     -11.1      4.396      6.264
REMARK SMILES O=C(CNC(=O)c1cccs1)N[C@@H]1C=C[C@H](C(=O)NCCCCCCNC(=O)c2ccc(-c3c4nc(c(-c5c(F)cccc5F)c5ccc([nH]5)c(-c5c(F)cccc5F)c5nc(c(-c6c(F)cccc6F)c6ccc3[nH]6)C=C5)C=C4)cc2)C1
REMARK SMILES IDX 21 1 20 2 19 3 17 4 18 5 16 7 13 8 14 9 83 10 15 11 12 12
REMARK SMILES IDX 1 13 2 14 3 16 4 17 5 18 6 20 7 21 8 22 11 23 9 24 10 25
REMARK SMILES IDX 22 26 23 27 24 28 25 29 26 30 27 31 28 33 29 34 30 35 82 36
REMARK SMILES IDX 31 37 81 38 32 39 33 40 34 41 75 42 35 43 80 44 74 45 76 46
REMARK SMILES IDX 36 47 79 48 73 49 72 50 37 52 63 53 46 54 62 55 47 56 50 57
REMARK SMILES IDX 61 58 77 59 48 60 49 61 60 63 78 64 51 65 38 66 39 67 44 68
REMARK SMILES IDX 40 69 41 70 43 71 45 72 42 73 64 74 65 75 70 76 66 77 67 78
REMARK SMILES IDX 69 79 71 80 68 81 52 82 53 83 58 84 54 85 55 86 57 87 59 88
REMARK SMILES IDX 56 89
REMARK H PARENT 19 6 12 15 4 19 26 32 76 51 50 62
REMARK Flexibility Score: inf
ROOT
ATOM      1  C   UNL A   1      33.825  19.854  24.622  1.00  0.00     0.021 C 
ENDROOT
BRANCH   1   2
ATOM      2  C   UNL A   1      33.323  21.032  25.456  1.00  0.00     0.116 C 
BRANCH   2   3
ATOM      3  N   UNL A   1      32.204  21.698  24.815  1.00  0.00    -0.356 N 
ATOM      4  C   UNL A   1      31.881  23.024  24.788  1.00  0.00     0.227 C 
ATOM      5  O   UNL A   1      30.835  23.356  24.232  1.00  0.00    -0.274 OA
ATOM      6  H   UNL A   1      31.587  21.106  24.327  1.00  0.00     0.163 HD
BRANCH   4   7
ATOM      7  C   UNL A   1      32.824  24.022  25.460  1.00  0.00     0.103 C 
ATOM      8  C   UNL A   1      32.766  26.424  24.896  1.00  0.00     0.106 C 
ATOM      9  C   UNL A   1      33.924  25.728  24.270  1.00  0.00    -0.006 C 
ATOM     10  C   UNL A   1      32.110  25.346  25.773  1.00  0.00     0.047 C 
ATOM     11  C   UNL A   1      33.956  24.426  24.567  1.00  0.00    -0.016 C 
BRANCH   8  12
ATOM     12  N   UNL A   1      31.911  26.888  23.830  1.00  0.00    -0.348 N 
ATOM     13  O   UNL A   1      31.054  28.646  25.026  1.00  0.00    -0.273 OA
ATOM     14  C   UNL A   1      31.145  28.025  23.969  1.00  0.00     0.239 C 
ATOM     15  H   UNL A   1      31.873  26.382  22.987  1.00  0.00     0.164 HD
BRANCH  14  16
ATOM     16  C   UNL A   1      30.243  28.360  22.781  1.00  0.00     0.216 C 
BRANCH  16  17
ATOM     17  N   UNL A   1      28.824  28.160  23.041  1.00  0.00    -0.342 N 
ATOM     18  C   UNL A   1      27.798  29.069  23.077  1.00  0.00     0.261 C 
ATOM     19  H   UNL A   1      28.563  27.228  23.219  1.00  0.00     0.164 HD
ATOM     20  O   UNL A   1      26.684  28.647  23.394  1.00  0.00    -0.268 OA
BRANCH  18  21
ATOM     21  C   UNL A   1      28.072  30.455  22.766  1.00  0.00     0.092 A 
ATOM     22  C   UNL A   1      28.378  31.509  23.607  1.00  0.00     0.025 A 
ATOM     23  S   UNL A   1      28.071  30.944  21.125  1.00  0.00    -0.139 S 
ATOM     24  C   UNL A   1      28.542  32.736  22.900  1.00  0.00     0.012 A 
ATOM     25  C   UNL A   1      28.399  32.569  21.541  1.00  0.00     0.065 A 
ENDBRANCH  18  21
ENDBRANCH  16  17
ENDBRANCH  14  16
ENDBRANCH   8  12
ENDBRANCH   4   7
ENDBRANCH   2   3
ENDBRANCH   1   2
BRANCH   1  26
ATOM     26  C   UNL A   1      35.230  19.359  24.986  1.00  0.00     0.002 C 
BRANCH  26  27
ATOM     27  C   UNL A   1      36.330  20.426  24.970  1.00  0.00     0.002 C 
BRANCH  27  28
ATOM     28  C   UNL A   1      37.741  19.907  24.684  1.00  0.00     0.021 C 
BRANCH  28  29
ATOM     29  C   UNL A   1      38.787  20.267  25.734  1.00  0.00     0.116 C 
BRANCH  29  30
ATOM     30  N   UNL A   1      39.897  19.329  25.764  1.00  0.00    -0.352 N 
ATOM     31  C   UNL A   1      41.216  19.547  26.079  1.00  0.00     0.251 C 
ATOM     32  H   UNL A   1      39.670  18.401  25.524  1.00  0.00     0.163 HD
ATOM     33  O   UNL A   1      42.048  18.663  25.899  1.00  0.00    -0.269 OA
BRANCH  31  34
ATOM     34  C   UNL A   1      41.643  20.860  26.610  1.00  0.00     0.039 A 
ATOM     35  C   UNL A   1      42.139  21.818  25.721  1.00  0.00     0.014 A 
ATOM     36  C   UNL A   1      41.564  21.147  27.975  1.00  0.00     0.014 A 
ATOM     37  C   UNL A   1      42.494  23.084  26.191  1.00  0.00     0.010 A 
ATOM     38  C   UNL A   1      41.851  22.431  28.433  1.00  0.00     0.010 A 
ATOM     39  C   UNL A   1      42.320  23.412  27.546  1.00  0.00    -0.014 A 
BRANCH  39  40
ATOM     40  C   UNL A   1      42.618  24.777  28.052  1.00  0.00     0.031 A 
ATOM     41  C   UNL A   1      44.018  25.146  28.454  1.00  0.00     0.074 A 
ATOM     42  C   UNL A   1      41.617  25.663  28.209  1.00  0.00     0.049 A 
ATOM     43  N   UNL A   1      44.462  26.260  28.982  1.00  0.00    -0.248 NA
ATOM     44  C   UNL A   1      45.054  24.119  28.263  1.00  0.00     0.031 C 
ATOM     45  C   UNL A   1      40.208  25.415  27.895  1.00  0.00     0.029 A 
ATOM     46  N   UNL A   1      41.627  26.951  28.683  1.00  0.00    -0.354 N 
ATOM     47  C   UNL A   1      45.820  26.063  29.194  1.00  0.00     0.074 A 
ATOM     48  C   UNL A   1      46.118  24.706  28.792  1.00  0.00     0.031 C 
ATOM     49  C   UNL A   1      39.497  26.522  28.160  1.00  0.00     0.029 A 
ATOM     50  C   UNL A   1      40.388  27.543  28.699  1.00  0.00     0.049 A 
ATOM     51  H   UNL A   1      42.447  27.407  28.982  1.00  0.00     0.167 HD
ATOM     52  C   UNL A   1      46.741  26.941  29.660  1.00  0.00     0.037 A 
ATOM     53  C   UNL A   1      40.013  28.770  29.108  1.00  0.00     0.037 A 
ATOM     54  C   UNL A   1      46.447  28.298  30.042  1.00  0.00     0.049 A 
ATOM     55  C   UNL A   1      41.050  29.720  29.640  1.00  0.00     0.074 A 
ATOM     56  C   UNL A   1      47.320  29.280  30.476  1.00  0.00     0.029 A 
ATOM     57  N   UNL A   1      45.180  28.862  30.038  1.00  0.00    -0.354 N 
ATOM     58  N   UNL A   1      42.341  29.541  29.778  1.00  0.00    -0.248 NA
ATOM     59  C   UNL A   1      40.577  31.042  30.071  1.00  0.00     0.031 C 
ATOM     60  C   UNL A   1      46.575  30.426  30.776  1.00  0.00     0.029 A 
ATOM     61  C   UNL A   1      45.245  30.173  30.483  1.00  0.00     0.049 A 
ATOM     62  H   UNL A   1      44.357  28.400  29.760  1.00  0.00     0.167 HD
ATOM     63  C   UNL A   1      42.839  30.736  30.280  1.00  0.00     0.074 A 
ATOM     64  C   UNL A   1      41.712  31.636  30.412  1.00  0.00     0.031 C 
ATOM     65  C   UNL A   1      44.116  31.060  30.602  1.00  0.00     0.037 A 
BRANCH  52  66
ATOM     66  C   UNL A   1      48.157  26.456  29.779  1.00  0.00     0.057 A 
ATOM     67  C   UNL A   1      48.629  25.834  30.943  1.00  0.00     0.134 A 
ATOM     68  C   UNL A   1      49.053  26.587  28.711  1.00  0.00     0.134 A 
ATOM     69  F   UNL A   1      47.825  25.687  32.009  1.00  0.00    -0.206 F 
ATOM     70  C   UNL A   1      49.947  25.390  31.053  1.00  0.00     0.040 A 
ATOM     71  C   UNL A   1      50.367  26.121  28.797  1.00  0.00     0.040 A 
ATOM     72  F   UNL A   1      48.666  27.166  27.564  1.00  0.00    -0.206 F 
ATOM     73  C   UNL A   1      50.819  25.528  29.974  1.00  0.00     0.006 A 
ENDBRANCH  52  66
BRANCH  53  74
ATOM     74  C   UNL A   1      38.590  29.184  29.008  1.00  0.00     0.057 A 
ATOM     75  C   UNL A   1      38.061  29.653  27.800  1.00  0.00     0.134 A 
ATOM     76  C   UNL A   1      37.731  29.132  30.112  1.00  0.00     0.134 A 
ATOM     77  F   UNL A   1      38.841  29.744  26.712  1.00  0.00    -0.206 F 
ATOM     78  C   UNL A   1      36.735  30.074  27.697  1.00  0.00     0.040 A 
ATOM     79  C   UNL A   1      36.395  29.526  30.016  1.00  0.00     0.040 A 
ATOM     80  F   UNL A   1      38.174  28.685  31.296  1.00  0.00    -0.206 F 
ATOM     81  C   UNL A   1      35.896  30.006  28.807  1.00  0.00     0.006 A 
ENDBRANCH  53  74
BRANCH  65  82
ATOM     82  C   UNL A   1      44.368  32.455  31.092  1.00  0.00     0.057 A 
ATOM     83  C   UNL A   1      44.580  33.523  30.210  1.00  0.00     0.134 A 
ATOM     84  C   UNL A   1      44.365  32.739  32.464  1.00  0.00     0.134 A 
ATOM     85  F   UNL A   1      44.608  33.316  28.886  1.00  0.00    -0.206 F 
ATOM     86  C   UNL A   1      44.800  34.820  30.677  1.00  0.00     0.040 A 
ATOM     87  C   UNL A   1      44.559  34.036  32.941  1.00  0.00     0.040 A 
ATOM     88  F   UNL A   1      44.161  31.763  33.361  1.00  0.00    -0.206 F 
ATOM     89  C   UNL A   1      44.783  35.080  32.046  1.00  0.00     0.006 A 
ENDBRANCH  65  82
ENDBRANCH  39  40
ENDBRANCH  31  34
ENDBRANCH  29  30
ENDBRANCH  28  29
ENDBRANCH  27  28
ENDBRANCH  26  27
ENDBRANCH   1  26
TORSDOF 17
ENDMDL
MODEL 3
REMARK VINA RESULT:     -10.8      4.863      9.868
REMARK SMILES O=C(CNC(=O)c1cccs1)N[C@@H]1C=C[C@H](C(=O)NCCCCCCNC(=O)c2ccc(-c3c4nc(c(-c5c(F)cccc5F)c5ccc([nH]5)c(-c5c(F)cccc5F)c5nc(c(-c6c(F)cccc6F)c6ccc3[nH]6)C=C5)C=C4)cc2)C1
REMARK SMILES IDX 21 1 20 2 19 3 17 4 18 5 16 7 13 8 14 9 83 10 15 11 12 12
REMARK SMILES IDX 1 13 2 14 3 16 4 17 5 18 6 20 7 21 8 22 11 23 9 24 10 25
REMARK SMILES IDX 22 26 23 27 24 28 25 29 26 30 27 31 28 33 29 34 30 35 82 36
REMARK SMILES IDX 31 37 81 38 32 39 33 40 34 41 75 42 35 43 80 44 74 45 76 46
REMARK SMILES IDX 36 47 79 48 73 49 72 50 37 52 63 53 46 54 62 55 47 56 50 57
REMARK SMILES IDX 61 58 77 59 48 60 49 61 60 63 78 64 51 65 38 66 39 67 44 68
REMARK SMILES IDX 40 69 41 70 43 71 45 72 42 73 64 74 65 75 70 76 66 77 67 78
REMARK SMILES IDX 69 79 71 80 68 81 52 82 53 83 58 84 54 85 55 86 57 87 59 88
REMARK SMILES IDX 56 89
REMARK H PARENT 19 6 12 15 4 19 26 32 76 51 50 62
REMARK Flexibility Score: inf
ROOT
ATOM      1  C   UNL A   1      32.795  29.165  26.306  1.00  0.00     0.021 C 
ENDROOT
BRANCH   1   2
ATOM      2  C   UNL A   1      33.122  28.549  24.946  1.00  0.00     0.116 C 
BRANCH   2   3
ATOM      3  N   UNL A   1      32.203  27.477  24.613  1.00  0.00    -0.356 N 
ATOM      4  C   UNL A   1      32.466  26.194  24.227  1.00  0.00     0.227 C 
ATOM      5  O   UNL A   1      31.516  25.470  23.928  1.00  0.00    -0.274 OA
ATOM      6  H   UNL A   1      31.248  27.708  24.676  1.00  0.00     0.163 HD
BRANCH   4   7
ATOM      7  C   UNL A   1      33.921  25.729  24.175  1.00  0.00     0.103 C 
ATOM      8  C   UNL A   1      34.503  23.330  24.148  1.00  0.00     0.106 C 
ATOM      9  C   UNL A   1      34.734  23.950  25.483  1.00  0.00    -0.006 C 
ATOM     10  C   UNL A   1      34.086  24.509  23.255  1.00  0.00     0.047 C 
ATOM     11  C   UNL A   1      34.414  25.247  25.503  1.00  0.00    -0.016 C 
BRANCH   8  12
ATOM     12  N   UNL A   1      33.463  22.340  24.305  1.00  0.00    -0.348 N 
ATOM     13  O   UNL A   1      34.907  20.625  24.783  1.00  0.00    -0.273 OA
ATOM     14  C   UNL A   1      33.757  21.046  24.674  1.00  0.00     0.239 C 
ATOM     15  H   UNL A   1      32.526  22.595  24.144  1.00  0.00     0.164 HD
BRANCH  14  16
ATOM     16  C   UNL A   1      32.563  20.094  24.740  1.00  0.00     0.216 C 
BRANCH  16  17
ATOM     17  N   UNL A   1      32.268  19.426  23.480  1.00  0.00    -0.342 N 
ATOM     18  C   UNL A   1      32.623  18.176  23.041  1.00  0.00     0.261 C 
ATOM     19  H   UNL A   1      31.732  19.955  22.845  1.00  0.00     0.164 HD
ATOM     20  O   UNL A   1      32.303  17.873  21.890  1.00  0.00    -0.268 OA
BRANCH  18  21
ATOM     21  C   UNL A   1      33.359  17.299  23.926  1.00  0.00     0.092 A 
ATOM     22  C   UNL A   1      34.722  17.109  24.055  1.00  0.00     0.025 A 
ATOM     23  S   UNL A   1      32.485  16.340  25.044  1.00  0.00    -0.139 S 
ATOM     24  C   UNL A   1      35.041  16.117  25.028  1.00  0.00     0.012 A 
ATOM     25  C   UNL A   1      33.914  15.616  25.640  1.00  0.00     0.065 A 
ENDBRANCH  18  21
ENDBRANCH  16  17
ENDBRANCH  14  16
ENDBRANCH   8  12
ENDBRANCH   4   7
ENDBRANCH   2   3
ENDBRANCH   1   2
BRANCH   1  26
ATOM     26  C   UNL A   1      34.011  29.424  27.205  1.00  0.00     0.002 C 
BRANCH  26  27
ATOM     27  C   UNL A   1      34.199  30.876  27.656  1.00  0.00     0.002 C 
BRANCH  27  28
ATOM     28  C   UNL A   1      32.919  31.713  27.719  1.00  0.00     0.021 C 
BRANCH  28  29
ATOM     29  C   UNL A   1      33.014  33.087  27.064  1.00  0.00     0.116 C 
BRANCH  29  30
ATOM     30  N   UNL A   1      32.624  34.163  27.961  1.00  0.00    -0.352 N 
ATOM     31  C   UNL A   1      33.227  34.596  29.117  1.00  0.00     0.251 C 
ATOM     32  H   UNL A   1      31.810  34.652  27.703  1.00  0.00     0.163 HD
ATOM     33  O   UNL A   1      32.667  35.422  29.833  1.00  0.00    -0.269 OA
BRANCH  31  34
ATOM     34  C   UNL A   1      34.541  34.048  29.519  1.00  0.00     0.039 A 
ATOM     35  C   UNL A   1      34.615  33.242  30.658  1.00  0.00     0.014 A 
ATOM     36  C   UNL A   1      35.695  34.330  28.784  1.00  0.00     0.014 A 
ATOM     37  C   UNL A   1      35.834  32.666  31.023  1.00  0.00     0.010 A 
ATOM     38  C   UNL A   1      36.895  33.700  29.107  1.00  0.00     0.010 A 
ATOM     39  C   UNL A   1      36.976  32.862  30.230  1.00  0.00    -0.014 A 
BRANCH  39  40
ATOM     40  C   UNL A   1      38.264  32.197  30.557  1.00  0.00     0.031 A 
ATOM     41  C   UNL A   1      39.244  32.858  31.486  1.00  0.00     0.074 A 
ATOM     42  C   UNL A   1      38.578  31.027  29.969  1.00  0.00     0.049 A 
ATOM     43  N   UNL A   1      40.444  32.468  31.837  1.00  0.00    -0.248 NA
ATOM     44  C   UNL A   1      38.831  34.139  32.079  1.00  0.00     0.031 C 
ATOM     45  C   UNL A   1      37.732  30.303  29.017  1.00  0.00     0.029 A 
ATOM     46  N   UNL A   1      39.700  30.244  30.075  1.00  0.00    -0.354 N 
ATOM     47  C   UNL A   1      40.931  33.458  32.679  1.00  0.00     0.074 A 
ATOM     48  C   UNL A   1      39.922  34.492  32.743  1.00  0.00     0.031 C 
ATOM     49  C   UNL A   1      38.354  29.171  28.649  1.00  0.00     0.029 A 
ATOM     50  C   UNL A   1      39.656  29.109  29.304  1.00  0.00     0.049 A 
ATOM     51  H   UNL A   1      40.464  30.475  30.652  1.00  0.00     0.167 HD
ATOM     52  C   UNL A   1      42.103  33.492  33.358  1.00  0.00     0.037 A 
ATOM     53  C   UNL A   1      40.566  28.130  29.139  1.00  0.00     0.037 A 
ATOM     54  C   UNL A   1      43.100  32.454  33.309  1.00  0.00     0.049 A 
ATOM     55  C   UNL A   1      41.869  28.200  29.888  1.00  0.00     0.074 A 
ATOM     56  C   UNL A   1      44.295  32.372  34.000  1.00  0.00     0.029 A 
ATOM     57  N   UNL A   1      43.014  31.315  32.520  1.00  0.00    -0.354 N 
ATOM     58  N   UNL A   1      42.290  29.112  30.729  1.00  0.00    -0.248 NA
ATOM     59  C   UNL A   1      42.819  27.103  29.665  1.00  0.00     0.031 C 
ATOM     60  C   UNL A   1      44.955  31.205  33.597  1.00  0.00     0.029 A 
ATOM     61  C   UNL A   1      44.147  30.537  32.692  1.00  0.00     0.049 A 
ATOM     62  H   UNL A   1      42.261  31.094  31.927  1.00  0.00     0.167 HD
ATOM     63  C   UNL A   1      43.539  28.684  31.160  1.00  0.00     0.074 A 
ATOM     64  C   UNL A   1      43.802  27.425  30.495  1.00  0.00     0.031 C 
ATOM     65  C   UNL A   1      44.392  29.281  32.029  1.00  0.00     0.037 A 
BRANCH  52  66
ATOM     66  C   UNL A   1      42.369  34.696  34.214  1.00  0.00     0.057 A 
ATOM     67  C   UNL A   1      42.986  35.846  33.702  1.00  0.00     0.134 A 
ATOM     68  C   UNL A   1      41.982  34.720  35.561  1.00  0.00     0.134 A 
ATOM     69  F   UNL A   1      43.392  35.886  32.423  1.00  0.00    -0.206 F 
ATOM     70  C   UNL A   1      43.237  36.961  34.503  1.00  0.00     0.040 A 
ATOM     71  C   UNL A   1      42.202  35.840  36.365  1.00  0.00     0.040 A 
ATOM     72  F   UNL A   1      41.380  33.656  36.115  1.00  0.00    -0.206 F 
ATOM     73  C   UNL A   1      42.838  36.962  35.838  1.00  0.00     0.006 A 
ENDBRANCH  52  66
BRANCH  53  74
ATOM     74  C   UNL A   1      40.269  26.982  28.245  1.00  0.00     0.057 A 
ATOM     75  C   UNL A   1      39.440  25.937  28.669  1.00  0.00     0.134 A 
ATOM     76  C   UNL A   1      40.812  26.894  26.958  1.00  0.00     0.134 A 
ATOM     77  F   UNL A   1      38.907  25.955  29.900  1.00  0.00    -0.206 F 
ATOM     78  C   UNL A   1      39.175  24.836  27.853  1.00  0.00     0.040 A 
ATOM     79  C   UNL A   1      40.534  25.812  26.121  1.00  0.00     0.040 A 
ATOM     80  F   UNL A   1      41.608  27.867  26.490  1.00  0.00    -0.206 F 
ATOM     81  C   UNL A   1      39.720  24.775  26.572  1.00  0.00     0.006 A 
ENDBRANCH  53  74
BRANCH  65  82
ATOM     82  C   UNL A   1      45.671  28.560  32.339  1.00  0.00     0.057 A 
ATOM     83  C   UNL A   1      45.747  27.584  33.342  1.00  0.00     0.134 A 
ATOM     84  C   UNL A   1      46.833  28.824  31.603  1.00  0.00     0.134 A 
ATOM     85  F   UNL A   1      44.673  27.296  34.092  1.00  0.00    -0.206 F 
ATOM     86  C   UNL A   1      46.939  26.911  33.614  1.00  0.00     0.040 A 
ATOM     87  C   UNL A   1      48.023  28.138  31.848  1.00  0.00     0.040 A 
ATOM     88  F   UNL A   1      46.826  29.741  30.625  1.00  0.00    -0.206 F 
ATOM     89  C   UNL A   1      48.080  27.183  32.861  1.00  0.00     0.006 A 
ENDBRANCH  65  82
ENDBRANCH  39  40
ENDBRANCH  31  34
ENDBRANCH  29  30
ENDBRANCH  28  29
ENDBRANCH  27  28
ENDBRANCH  26  27
ENDBRANCH   1  26
TORSDOF 17
ENDMDL
