MODEL 1
REMARK VINA RESULT:     -12.5      0.000      0.000
REMARK SMILES Cc1c(CC(=O)NCCCCCCNC(=O)c2ccc(-c3c4nc(c(-c5c(F)cccc5F)c5ccc([nH]5)c(-c5c(F)cccc5F)c5nc(c(-c6c(F)cccc6F)c6ccc3[nH]6)C=C5)C=C4)cc2)c2ccccc2n1C(=O)c1ccc(Cl)cc1
REMARK SMILES IDX 10 1 9 2 8 3 7 4 5 5 6 6 4 8 3 9 1 10 2 11 77 12 71 13 76 14
REMARK SMILES IDX 72 15 75 16 73 17 74 18 78 19 79 20 80 21 81 22 86 23 82 24
REMARK SMILES IDX 85 25 83 26 84 27 11 28 12 29 13 30 14 31 15 32 16 34 17 35
REMARK SMILES IDX 18 36 70 37 19 38 69 39 20 40 21 41 22 42 63 43 23 44 68 45
REMARK SMILES IDX 62 46 64 47 24 48 67 49 61 50 60 51 25 53 51 54 34 55 50 56
REMARK SMILES IDX 35 57 38 58 49 59 65 60 36 61 37 62 48 64 66 65 39 66 26 67
REMARK SMILES IDX 27 68 32 69 28 70 29 71 31 72 33 73 30 74 52 75 53 76 58 77
REMARK SMILES IDX 54 78 55 79 57 80 59 81 56 82 40 83 41 84 46 85 42 86 43 87
REMARK SMILES IDX 45 88 47 89 44 90
REMARK H PARENT 7 7 14 33 64 52 38 63
REMARK Flexibility Score: inf
ROOT
ATOM      1  C   UNL A   1      40.939  21.231  27.627  1.00  0.00     0.002 C 
ENDROOT
BRANCH   1   2
ATOM      2  C   UNL A   1      40.273  21.634  26.305  1.00  0.00     0.021 C 
BRANCH   2   3
ATOM      3  C   UNL A   1      38.862  22.192  26.484  1.00  0.00     0.116 C 
BRANCH   3   4
ATOM      4  N   UNL A   1      38.393  22.821  25.266  1.00  0.00    -0.356 N 
ATOM      5  C   UNL A   1      37.138  23.266  24.967  1.00  0.00     0.224 C 
ATOM      6  O   UNL A   1      36.921  23.684  23.826  1.00  0.00    -0.275 OA
ATOM      7  H   UNL A   1      39.070  22.942  24.561  1.00  0.00     0.163 HD
BRANCH   5   8
ATOM      8  C   UNL A   1      36.066  23.305  26.045  1.00  0.00     0.138 C 
BRANCH   8   9
ATOM      9  C   UNL A   1      34.786  22.618  25.657  1.00  0.00    -0.010 A 
ATOM     10  C   UNL A   1      35.714  20.323  24.862  1.00  0.00     0.065 C 
ATOM     11  C   UNL A   1      34.648  21.340  25.130  1.00  0.00     0.028 A 
ATOM     12  N   UNL A   1      33.298  21.127  24.817  1.00  0.00    -0.280 N 
ATOM     13  C   UNL A   1      33.474  23.144  25.824  1.00  0.00     0.004 A 
ATOM     14  C   UNL A   1      32.563  22.174  25.392  1.00  0.00     0.056 A 
ATOM     15  C   UNL A   1      32.989  24.367  26.340  1.00  0.00     0.010 A 
ATOM     16  C   UNL A   1      31.177  22.386  25.560  1.00  0.00     0.027 A 
ATOM     17  C   UNL A   1      31.616  24.597  26.434  1.00  0.00     0.001 A 
ATOM     18  C   UNL A   1      30.721  23.608  26.062  1.00  0.00     0.002 A 
BRANCH  12  19
ATOM     19  C   UNL A   1      32.796  20.040  24.036  1.00  0.00     0.262 C 
ATOM     20  O   UNL A   1      32.189  20.273  23.007  1.00  0.00    -0.268 OA
BRANCH  19  21
ATOM     21  C   UNL A   1      32.948  18.616  24.385  1.00  0.00     0.040 A 
ATOM     22  C   UNL A   1      33.408  17.690  23.443  1.00  0.00     0.015 A 
ATOM     23  C   UNL A   1      32.597  18.214  25.678  1.00  0.00     0.015 A 
ATOM     24  C   UNL A   1      33.434  16.334  23.778  1.00  0.00     0.021 A 
ATOM     25  C   UNL A   1      32.632  16.860  26.008  1.00  0.00     0.021 A 
ATOM     26  C   UNL A   1      33.032  15.924  25.052  1.00  0.00     0.041 A 
ATOM     27  Cl  UNL A   1      33.007  14.249  25.440  1.00  0.00    -0.084 Cl
ENDBRANCH  19  21
ENDBRANCH  12  19
ENDBRANCH   8   9
ENDBRANCH   5   8
ENDBRANCH   3   4
ENDBRANCH   2   3
ENDBRANCH   1   2
BRANCH   1  28
ATOM     28  C   UNL A   1      42.183  20.350  27.473  1.00  0.00     0.002 C 
BRANCH  28  29
ATOM     29  C   UNL A   1      42.067  19.252  26.415  1.00  0.00     0.021 C 
BRANCH  29  30
ATOM     30  C   UNL A   1      43.380  18.523  26.117  1.00  0.00     0.116 C 
BRANCH  30  31
ATOM     31  N   UNL A   1      43.923  18.789  24.799  1.00  0.00    -0.352 N 
ATOM     32  C   UNL A   1      44.515  19.874  24.212  1.00  0.00     0.251 C 
ATOM     33  H   UNL A   1      43.849  18.019  24.192  1.00  0.00     0.163 HD
ATOM     34  O   UNL A   1      44.963  19.713  23.075  1.00  0.00    -0.269 OA
BRANCH  32  35
ATOM     35  C   UNL A   1      44.574  21.232  24.817  1.00  0.00     0.039 A 
ATOM     36  C   UNL A   1      45.476  21.634  25.800  1.00  0.00     0.014 A 
ATOM     37  C   UNL A   1      43.589  22.144  24.395  1.00  0.00     0.014 A 
ATOM     38  C   UNL A   1      45.303  22.838  26.463  1.00  0.00     0.010 A 
ATOM     39  C   UNL A   1      43.443  23.378  25.019  1.00  0.00     0.010 A 
ATOM     40  C   UNL A   1      44.260  23.690  26.101  1.00  0.00    -0.014 A 
BRANCH  40  41
ATOM     41  C   UNL A   1      44.126  24.928  26.860  1.00  0.00     0.031 A 
ATOM     42  C   UNL A   1      45.246  25.898  26.696  1.00  0.00     0.074 A 
ATOM     43  C   UNL A   1      43.042  25.217  27.605  1.00  0.00     0.049 A 
ATOM     44  N   UNL A   1      46.036  26.381  27.601  1.00  0.00    -0.248 NA
ATOM     45  C   UNL A   1      45.591  26.300  25.323  1.00  0.00     0.031 C 
ATOM     46  C   UNL A   1      41.767  24.497  27.654  1.00  0.00     0.029 A 
ATOM     47  N   UNL A   1      42.823  26.292  28.412  1.00  0.00    -0.354 N 
ATOM     48  C   UNL A   1      46.868  27.286  26.940  1.00  0.00     0.074 A 
ATOM     49  C   UNL A   1      46.640  27.095  25.532  1.00  0.00     0.031 C 
ATOM     50  C   UNL A   1      40.844  25.274  28.261  1.00  0.00     0.029 A 
ATOM     51  C   UNL A   1      41.492  26.477  28.755  1.00  0.00     0.049 A 
ATOM     52  H   UNL A   1      43.545  26.885  28.723  1.00  0.00     0.167 HD
ATOM     53  C   UNL A   1      47.521  28.276  27.607  1.00  0.00     0.037 A 
ATOM     54  C   UNL A   1      40.949  27.572  29.337  1.00  0.00     0.037 A 
ATOM     55  C   UNL A   1      47.652  27.973  29.008  1.00  0.00     0.049 A 
ATOM     56  C   UNL A   1      42.042  28.348  29.967  1.00  0.00     0.074 A 
ATOM     57  C   UNL A   1      48.271  26.989  29.753  1.00  0.00     0.029 A 
ATOM     58  N   UNL A   1      46.824  28.629  29.883  1.00  0.00    -0.354 N 
ATOM     59  N   UNL A   1      42.694  27.970  31.029  1.00  0.00    -0.248 NA
ATOM     60  C   UNL A   1      42.687  29.387  29.179  1.00  0.00     0.031 C 
ATOM     61  C   UNL A   1      47.444  26.811  30.901  1.00  0.00     0.029 A 
ATOM     62  C   UNL A   1      46.386  27.713  30.799  1.00  0.00     0.049 A 
ATOM     63  H   UNL A   1      46.589  29.585  29.856  1.00  0.00     0.167 HD
ATOM     64  C   UNL A   1      43.996  28.396  30.814  1.00  0.00     0.074 A 
ATOM     65  C   UNL A   1      43.904  29.363  29.725  1.00  0.00     0.031 C 
ATOM     66  C   UNL A   1      45.053  27.716  31.349  1.00  0.00     0.037 A 
BRANCH  53  67
ATOM     67  C   UNL A   1      47.667  29.693  27.083  1.00  0.00     0.057 A 
ATOM     68  C   UNL A   1      46.586  30.564  26.838  1.00  0.00     0.134 A 
ATOM     69  C   UNL A   1      48.926  30.320  27.161  1.00  0.00     0.134 A 
ATOM     70  F   UNL A   1      45.321  30.142  26.752  1.00  0.00    -0.206 F 
ATOM     71  C   UNL A   1      46.733  31.952  26.763  1.00  0.00     0.040 A 
ATOM     72  C   UNL A   1      49.078  31.712  27.138  1.00  0.00     0.040 A 
ATOM     73  F   UNL A   1      50.042  29.604  27.370  1.00  0.00    -0.206 F 
ATOM     74  C   UNL A   1      47.974  32.534  26.960  1.00  0.00     0.006 A 
ENDBRANCH  53  67
BRANCH  54  75
ATOM     75  C   UNL A   1      39.591  28.124  29.154  1.00  0.00     0.057 A 
ATOM     76  C   UNL A   1      39.244  28.844  27.997  1.00  0.00     0.134 A 
ATOM     77  C   UNL A   1      38.678  28.183  30.215  1.00  0.00     0.134 A 
ATOM     78  F   UNL A   1      40.083  28.927  26.955  1.00  0.00    -0.206 F 
ATOM     79  C   UNL A   1      38.061  29.581  27.899  1.00  0.00     0.040 A 
ATOM     80  C   UNL A   1      37.493  28.927  30.135  1.00  0.00     0.040 A 
ATOM     81  F   UNL A   1      38.942  27.568  31.376  1.00  0.00    -0.206 F 
ATOM     82  C   UNL A   1      37.186  29.635  28.976  1.00  0.00     0.006 A 
ENDBRANCH  54  75
BRANCH  66  83
ATOM     83  C   UNL A   1      44.753  26.700  32.411  1.00  0.00     0.057 A 
ATOM     84  C   UNL A   1      44.857  27.073  33.753  1.00  0.00     0.134 A 
ATOM     85  C   UNL A   1      44.483  25.350  32.141  1.00  0.00     0.134 A 
ATOM     86  F   UNL A   1      45.174  28.334  34.083  1.00  0.00    -0.206 F 
ATOM     87  C   UNL A   1      44.680  26.152  34.788  1.00  0.00     0.040 A 
ATOM     88  C   UNL A   1      44.270  24.424  33.167  1.00  0.00     0.040 A 
ATOM     89  F   UNL A   1      44.469  24.882  30.886  1.00  0.00    -0.206 F 
ATOM     90  C   UNL A   1      44.372  24.825  34.496  1.00  0.00     0.006 A 
ENDBRANCH  66  83
ENDBRANCH  40  41
ENDBRANCH  32  35
ENDBRANCH  30  31
ENDBRANCH  29  30
ENDBRANCH  28  29
ENDBRANCH   1  28
TORSDOF 16
ENDMDL
MODEL 2
REMARK VINA RESULT:     -12.1      2.852      4.281
REMARK SMILES Cc1c(CC(=O)NCCCCCCNC(=O)c2ccc(-c3c4nc(c(-c5c(F)cccc5F)c5ccc([nH]5)c(-c5c(F)cccc5F)c5nc(c(-c6c(F)cccc6F)c6ccc3[nH]6)C=C5)C=C4)cc2)c2ccccc2n1C(=O)c1ccc(Cl)cc1
REMARK SMILES IDX 10 1 9 2 8 3 7 4 5 5 6 6 4 8 3 9 1 10 2 11 77 12 71 13 76 14
REMARK SMILES IDX 72 15 75 16 73 17 74 18 78 19 79 20 80 21 81 22 86 23 82 24
REMARK SMILES IDX 85 25 83 26 84 27 11 28 12 29 13 30 14 31 15 32 16 34 17 35
REMARK SMILES IDX 18 36 70 37 19 38 69 39 20 40 21 41 22 42 63 43 23 44 68 45
REMARK SMILES IDX 62 46 64 47 24 48 67 49 61 50 60 51 25 53 51 54 34 55 50 56
REMARK SMILES IDX 35 57 38 58 49 59 65 60 36 61 37 62 48 64 66 65 39 66 26 67
REMARK SMILES IDX 27 68 32 69 28 70 29 71 31 72 33 73 30 74 52 75 53 76 58 77
REMARK SMILES IDX 54 78 55 79 57 80 59 81 56 82 40 83 41 84 46 85 42 86 43 87
REMARK SMILES IDX 45 88 47 89 44 90
REMARK H PARENT 7 7 14 33 64 52 38 63
REMARK Flexibility Score: inf
ROOT
ATOM      1  C   UNL A   1      40.329  21.806  27.231  1.00  0.00     0.002 C 
ENDROOT
BRANCH   1   2
ATOM      2  C   UNL A   1      39.495  21.972  25.955  1.00  0.00     0.021 C 
BRANCH   2   3
ATOM      3  C   UNL A   1      38.435  23.068  26.064  1.00  0.00     0.116 C 
BRANCH   3   4
ATOM      4  N   UNL A   1      37.172  22.525  26.522  1.00  0.00    -0.356 N 
ATOM      5  C   UNL A   1      35.911  22.995  26.292  1.00  0.00     0.224 C 
ATOM      6  O   UNL A   1      34.967  22.440  26.861  1.00  0.00    -0.275 OA
ATOM      7  H   UNL A   1      37.232  21.711  27.072  1.00  0.00     0.163 HD
BRANCH   5   8
ATOM      8  C   UNL A   1      35.689  24.129  25.304  1.00  0.00     0.138 C 
BRANCH   8   9
ATOM      9  C   UNL A   1      34.241  24.419  25.024  1.00  0.00    -0.010 A 
ATOM     10  C   UNL A   1      34.031  26.788  26.075  1.00  0.00     0.065 C 
ATOM     11  C   UNL A   1      33.531  25.560  25.378  1.00  0.00     0.028 A 
ATOM     12  N   UNL A   1      32.188  25.384  25.018  1.00  0.00    -0.280 N 
ATOM     13  C   UNL A   1      33.352  23.589  24.284  1.00  0.00     0.004 A 
ATOM     14  C   UNL A   1      32.117  24.243  24.205  1.00  0.00     0.056 A 
ATOM     15  C   UNL A   1      33.514  22.338  23.646  1.00  0.00     0.010 A 
ATOM     16  C   UNL A   1      31.081  23.696  23.417  1.00  0.00     0.027 A 
ATOM     17  C   UNL A   1      32.459  21.770  22.931  1.00  0.00     0.001 A 
ATOM     18  C   UNL A   1      31.261  22.452  22.806  1.00  0.00     0.002 A 
BRANCH  12  19
ATOM     19  C   UNL A   1      31.108  26.222  25.434  1.00  0.00     0.262 C 
ATOM     20  O   UNL A   1      30.583  26.029  26.515  1.00  0.00    -0.268 OA
BRANCH  19  21
ATOM     21  C   UNL A   1      30.550  27.330  24.637  1.00  0.00     0.040 A 
ATOM     22  C   UNL A   1      29.506  27.110  23.733  1.00  0.00     0.015 A 
ATOM     23  C   UNL A   1      31.111  28.602  24.794  1.00  0.00     0.015 A 
ATOM     24  C   UNL A   1      29.079  28.160  22.918  1.00  0.00     0.021 A 
ATOM     25  C   UNL A   1      30.675  29.648  23.982  1.00  0.00     0.021 A 
ATOM     26  C   UNL A   1      29.675  29.419  23.035  1.00  0.00     0.041 A 
ATOM     27  Cl  UNL A   1      29.189  30.693  21.987  1.00  0.00    -0.084 Cl
ENDBRANCH  19  21
ENDBRANCH  12  19
ENDBRANCH   8   9
ENDBRANCH   5   8
ENDBRANCH   3   4
ENDBRANCH   2   3
ENDBRANCH   1   2
BRANCH   1  28
ATOM     28  C   UNL A   1      41.077  20.473  27.336  1.00  0.00     0.002 C 
BRANCH  28  29
ATOM     29  C   UNL A   1      41.404  19.810  25.996  1.00  0.00     0.021 C 
BRANCH  29  30
ATOM     30  C   UNL A   1      42.731  19.048  25.977  1.00  0.00     0.116 C 
BRANCH  30  31
ATOM     31  N   UNL A   1      43.716  19.589  25.062  1.00  0.00    -0.352 N 
ATOM     32  C   UNL A   1      44.279  20.824  24.886  1.00  0.00     0.251 C 
ATOM     33  H   UNL A   1      44.055  18.921  24.424  1.00  0.00     0.163 HD
ATOM     34  O   UNL A   1      45.186  20.906  24.056  1.00  0.00    -0.269 OA
BRANCH  32  35
ATOM     35  C   UNL A   1      43.814  22.065  25.562  1.00  0.00     0.039 A 
ATOM     36  C   UNL A   1      42.977  23.023  24.993  1.00  0.00     0.014 A 
ATOM     37  C   UNL A   1      44.325  22.300  26.852  1.00  0.00     0.014 A 
ATOM     38  C   UNL A   1      42.790  24.249  25.611  1.00  0.00     0.010 A 
ATOM     39  C   UNL A   1      44.097  23.507  27.503  1.00  0.00     0.010 A 
ATOM     40  C   UNL A   1      43.385  24.506  26.846  1.00  0.00    -0.014 A 
BRANCH  40  41
ATOM     41  C   UNL A   1      43.163  25.827  27.423  1.00  0.00     0.031 A 
ATOM     42  C   UNL A   1      44.211  26.840  27.112  1.00  0.00     0.074 A 
ATOM     43  C   UNL A   1      42.062  26.141  28.131  1.00  0.00     0.049 A 
ATOM     44  N   UNL A   1      44.965  27.501  27.932  1.00  0.00    -0.248 NA
ATOM     45  C   UNL A   1      44.526  27.066  25.693  1.00  0.00     0.031 C 
ATOM     46  C   UNL A   1      40.841  25.347  28.295  1.00  0.00     0.029 A 
ATOM     47  N   UNL A   1      41.767  27.302  28.781  1.00  0.00    -0.354 N 
ATOM     48  C   UNL A   1      45.730  28.359  27.141  1.00  0.00     0.074 A 
ATOM     49  C   UNL A   1      45.516  27.955  25.777  1.00  0.00     0.031 C 
ATOM     50  C   UNL A   1      39.865  26.136  28.795  1.00  0.00     0.029 A 
ATOM     51  C   UNL A   1      40.427  27.439  29.107  1.00  0.00     0.049 A 
ATOM     52  H   UNL A   1      42.444  27.982  28.997  1.00  0.00     0.167 HD
ATOM     53  C   UNL A   1      46.312  29.477  27.654  1.00  0.00     0.037 A 
ATOM     54  C   UNL A   1      39.807  28.564  29.535  1.00  0.00     0.037 A 
ATOM     55  C   UNL A   1      46.464  29.386  29.082  1.00  0.00     0.049 A 
ATOM     56  C   UNL A   1      40.842  29.497  30.037  1.00  0.00     0.074 A 
ATOM     57  C   UNL A   1      47.152  28.563  29.952  1.00  0.00     0.029 A 
ATOM     58  N   UNL A   1      45.592  30.100  29.864  1.00  0.00    -0.354 N 
ATOM     59  N   UNL A   1      41.519  29.320  31.135  1.00  0.00    -0.248 NA
ATOM     60  C   UNL A   1      41.411  30.456  29.103  1.00  0.00     0.031 C 
ATOM     61  C   UNL A   1      46.340  28.493  31.123  1.00  0.00     0.029 A 
ATOM     62  C   UNL A   1      45.220  29.294  30.905  1.00  0.00     0.049 A 
ATOM     63  H   UNL A   1      45.289  31.023  29.705  1.00  0.00     0.167 HD
ATOM     64  C   UNL A   1      42.788  29.802  30.849  1.00  0.00     0.074 A 
ATOM     65  C   UNL A   1      42.627  30.596  29.635  1.00  0.00     0.031 C 
ATOM     66  C   UNL A   1      43.890  29.282  31.463  1.00  0.00     0.037 A 
BRANCH  53  67
ATOM     67  C   UNL A   1      46.356  30.812  26.934  1.00  0.00     0.057 A 
ATOM     68  C   UNL A   1      45.216  31.568  26.591  1.00  0.00     0.134 A 
ATOM     69  C   UNL A   1      47.571  31.524  26.896  1.00  0.00     0.134 A 
ATOM     70  F   UNL A   1      43.981  31.057  26.592  1.00  0.00    -0.206 F 
ATOM     71  C   UNL A   1      45.270  32.939  26.319  1.00  0.00     0.040 A 
ATOM     72  C   UNL A   1      47.629  32.906  26.675  1.00  0.00     0.040 A 
ATOM     73  F   UNL A   1      48.735  30.919  27.180  1.00  0.00    -0.206 F 
ATOM     74  C   UNL A   1      46.471  33.621  26.406  1.00  0.00     0.006 A 
ENDBRANCH  53  67
BRANCH  54  75
ATOM     75  C   UNL A   1      38.413  28.988  29.290  1.00  0.00     0.057 A 
ATOM     76  C   UNL A   1      38.023  29.541  28.056  1.00  0.00     0.134 A 
ATOM     77  C   UNL A   1      37.489  29.101  30.337  1.00  0.00     0.134 A 
ATOM     78  F   UNL A   1      38.861  29.565  27.011  1.00  0.00    -0.206 F 
ATOM     79  C   UNL A   1      36.789  30.170  27.875  1.00  0.00     0.040 A 
ATOM     80  C   UNL A   1      36.253  29.739  30.171  1.00  0.00     0.040 A 
ATOM     81  F   UNL A   1      37.789  28.646  31.561  1.00  0.00    -0.206 F 
ATOM     82  C   UNL A   1      35.903  30.283  28.938  1.00  0.00     0.006 A 
ENDBRANCH  54  75
BRANCH  66  83
ATOM     83  C   UNL A   1      43.664  28.407  32.661  1.00  0.00     0.057 A 
ATOM     84  C   UNL A   1      43.704  28.981  33.935  1.00  0.00     0.134 A 
ATOM     85  C   UNL A   1      43.528  27.013  32.592  1.00  0.00     0.134 A 
ATOM     86  F   UNL A   1      43.895  30.302  34.077  1.00  0.00    -0.206 F 
ATOM     87  C   UNL A   1      43.592  28.208  35.092  1.00  0.00     0.040 A 
ATOM     88  C   UNL A   1      43.380  26.231  33.741  1.00  0.00     0.040 A 
ATOM     89  F   UNL A   1      43.584  26.367  31.419  1.00  0.00    -0.206 F 
ATOM     90  C   UNL A   1      43.415  26.830  34.997  1.00  0.00     0.006 A 
ENDBRANCH  66  83
ENDBRANCH  40  41
ENDBRANCH  32  35
ENDBRANCH  30  31
ENDBRANCH  29  30
ENDBRANCH  28  29
ENDBRANCH   1  28
TORSDOF 16
ENDMDL
MODEL 3
REMARK VINA RESULT:     -11.9      4.103      9.202
REMARK SMILES Cc1c(CC(=O)NCCCCCCNC(=O)c2ccc(-c3c4nc(c(-c5c(F)cccc5F)c5ccc([nH]5)c(-c5c(F)cccc5F)c5nc(c(-c6c(F)cccc6F)c6ccc3[nH]6)C=C5)C=C4)cc2)c2ccccc2n1C(=O)c1ccc(Cl)cc1
REMARK SMILES IDX 10 1 9 2 8 3 7 4 5 5 6 6 4 8 3 9 1 10 2 11 77 12 71 13 76 14
REMARK SMILES IDX 72 15 75 16 73 17 74 18 78 19 79 20 80 21 81 22 86 23 82 24
REMARK SMILES IDX 85 25 83 26 84 27 11 28 12 29 13 30 14 31 15 32 16 34 17 35
REMARK SMILES IDX 18 36 70 37 19 38 69 39 20 40 21 41 22 42 63 43 23 44 68 45
REMARK SMILES IDX 62 46 64 47 24 48 67 49 61 50 60 51 25 53 51 54 34 55 50 56
REMARK SMILES IDX 35 57 38 58 49 59 65 60 36 61 37 62 48 64 66 65 39 66 26 67
REMARK SMILES IDX 27 68 32 69 28 70 29 71 31 72 33 73 30 74 52 75 53 76 58 77
REMARK SMILES IDX 54 78 55 79 57 80 59 81 56 82 40 83 41 84 46 85 42 86 43 87
REMARK SMILES IDX 45 88 47 89 44 90
REMARK H PARENT 7 7 14 33 64 52 38 63
REMARK Flexibility Score: inf
ROOT
ATOM      1  C   UNL A   1      34.444  32.263  28.457  1.00  0.00     0.002 C 
ENDROOT
BRANCH   1   2
ATOM      2  C   UNL A   1      34.973  31.007  27.753  1.00  0.00     0.021 C 
BRANCH   2   3
ATOM      3  C   UNL A   1      33.866  30.059  27.296  1.00  0.00     0.116 C 
BRANCH   3   4
ATOM      4  N   UNL A   1      33.972  29.783  25.877  1.00  0.00    -0.356 N 
ATOM      5  C   UNL A   1      34.025  28.572  25.248  1.00  0.00     0.224 C 
ATOM      6  O   UNL A   1      34.217  28.554  24.030  1.00  0.00    -0.275 OA
ATOM      7  H   UNL A   1      34.011  30.572  25.291  1.00  0.00     0.163 HD
BRANCH   5   8
ATOM      8  C   UNL A   1      33.780  27.293  26.033  1.00  0.00     0.138 C 
BRANCH   8   9
ATOM      9  C   UNL A   1      33.260  26.155  25.200  1.00  0.00    -0.010 A 
ATOM     10  C   UNL A   1      35.301  24.547  25.287  1.00  0.00     0.065 C 
ATOM     11  C   UNL A   1      33.932  24.985  24.868  1.00  0.00     0.028 A 
ATOM     12  N   UNL A   1      33.128  24.238  23.995  1.00  0.00    -0.280 N 
ATOM     13  C   UNL A   1      31.950  26.054  24.652  1.00  0.00     0.004 A 
ATOM     14  C   UNL A   1      31.852  24.822  23.995  1.00  0.00     0.056 A 
ATOM     15  C   UNL A   1      30.825  26.909  24.691  1.00  0.00     0.010 A 
ATOM     16  C   UNL A   1      30.613  24.407  23.461  1.00  0.00     0.027 A 
ATOM     17  C   UNL A   1      29.625  26.520  24.096  1.00  0.00     0.001 A 
ATOM     18  C   UNL A   1      29.518  25.274  23.501  1.00  0.00     0.002 A 
BRANCH  12  19
ATOM     19  C   UNL A   1      33.564  23.103  23.244  1.00  0.00     0.262 C 
ATOM     20  O   UNL A   1      34.120  23.272  22.175  1.00  0.00    -0.268 OA
BRANCH  19  21
ATOM     21  C   UNL A   1      33.382  21.701  23.661  1.00  0.00     0.040 A 
ATOM     22  C   UNL A   1      32.367  20.913  23.108  1.00  0.00     0.015 A 
ATOM     23  C   UNL A   1      34.239  21.189  24.640  1.00  0.00     0.015 A 
ATOM     24  C   UNL A   1      32.157  19.626  23.607  1.00  0.00     0.021 A 
ATOM     25  C   UNL A   1      34.029  19.900  25.128  1.00  0.00     0.021 A 
ATOM     26  C   UNL A   1      32.979  19.131  24.624  1.00  0.00     0.041 A 
ATOM     27  Cl  UNL A   1      32.678  17.569  25.278  1.00  0.00    -0.084 Cl
ENDBRANCH  19  21
ENDBRANCH  12  19
ENDBRANCH   8   9
ENDBRANCH   5   8
ENDBRANCH   3   4
ENDBRANCH   2   3
ENDBRANCH   1   2
BRANCH   1  28
ATOM     28  C   UNL A   1      35.350  33.493  28.336  1.00  0.00     0.002 C 
BRANCH  28  29
ATOM     29  C   UNL A   1      34.745  34.793  28.871  1.00  0.00     0.021 C 
BRANCH  29  30
ATOM     30  C   UNL A   1      33.330  34.644  29.434  1.00  0.00     0.116 C 
BRANCH  30  31
ATOM     31  N   UNL A   1      33.186  35.083  30.808  1.00  0.00    -0.352 N 
ATOM     32  C   UNL A   1      33.958  34.969  31.932  1.00  0.00     0.251 C 
ATOM     33  H   UNL A   1      32.346  35.569  30.969  1.00  0.00     0.163 HD
ATOM     34  O   UNL A   1      33.566  35.567  32.936  1.00  0.00    -0.269 OA
BRANCH  32  35
ATOM     35  C   UNL A   1      35.172  34.116  32.037  1.00  0.00     0.039 A 
ATOM     36  C   UNL A   1      36.482  34.588  32.096  1.00  0.00     0.014 A 
ATOM     37  C   UNL A   1      34.960  32.725  32.006  1.00  0.00     0.014 A 
ATOM     38  C   UNL A   1      37.550  33.717  31.958  1.00  0.00     0.010 A 
ATOM     39  C   UNL A   1      36.029  31.840  31.922  1.00  0.00     0.010 A 
ATOM     40  C   UNL A   1      37.321  32.347  31.828  1.00  0.00    -0.014 A 
BRANCH  40  41
ATOM     41  C   UNL A   1      38.493  31.495  31.662  1.00  0.00     0.031 A 
ATOM     42  C   UNL A   1      39.247  31.202  32.914  1.00  0.00     0.074 A 
ATOM     43  C   UNL A   1      38.841  30.950  30.481  1.00  0.00     0.049 A 
ATOM     44  N   UNL A   1      40.485  31.466  33.192  1.00  0.00    -0.248 NA
ATOM     45  C   UNL A   1      38.488  30.633  34.038  1.00  0.00     0.031 C 
ATOM     46  C   UNL A   1      38.065  30.928  29.238  1.00  0.00     0.029 A 
ATOM     47  N   UNL A   1      39.939  30.204  30.176  1.00  0.00    -0.354 N 
ATOM     48  C   UNL A   1      40.712  30.936  34.463  1.00  0.00     0.074 A 
ATOM     49  C   UNL A   1      39.425  30.560  34.984  1.00  0.00     0.031 C 
ATOM     50  C   UNL A   1      38.606  30.019  28.396  1.00  0.00     0.029 A 
ATOM     51  C   UNL A   1      39.829  29.501  28.985  1.00  0.00     0.049 A 
ATOM     52  H   UNL A   1      40.738  30.165  30.749  1.00  0.00     0.167 HD
ATOM     53  C   UNL A   1      41.967  30.646  34.903  1.00  0.00     0.037 A 
ATOM     54  C   UNL A   1      40.644  28.513  28.548  1.00  0.00     0.037 A 
ATOM     55  C   UNL A   1      42.967  31.377  34.170  1.00  0.00     0.049 A 
ATOM     56  C   UNL A   1      41.919  28.603  29.298  1.00  0.00     0.074 A 
ATOM     57  C   UNL A   1      43.281  32.709  33.986  1.00  0.00     0.029 A 
ATOM     58  N   UNL A   1      43.692  30.695  33.227  1.00  0.00    -0.354 N 
ATOM     59  N   UNL A   1      42.799  29.549  29.140  1.00  0.00    -0.248 NA
ATOM     60  C   UNL A   1      42.046  27.833  30.526  1.00  0.00     0.031 C 
ATOM     61  C   UNL A   1      43.804  32.791  32.662  1.00  0.00     0.029 A 
ATOM     62  C   UNL A   1      43.800  31.503  32.129  1.00  0.00     0.049 A 
ATOM     63  H   UNL A   1      44.066  29.789  33.323  1.00  0.00     0.167 HD
ATOM     64  C   UNL A   1      43.305  29.776  30.411  1.00  0.00     0.074 A 
ATOM     65  C   UNL A   1      42.898  28.614  31.195  1.00  0.00     0.031 C 
ATOM     66  C   UNL A   1      43.762  31.011  30.774  1.00  0.00     0.037 A 
BRANCH  53  67
ATOM     67  C   UNL A   1      42.315  29.401  35.698  1.00  0.00     0.057 A 
ATOM     68  C   UNL A   1      42.028  28.085  35.282  1.00  0.00     0.134 A 
ATOM     69  C   UNL A   1      43.269  29.500  36.731  1.00  0.00     0.134 A 
ATOM     70  F   UNL A   1      41.162  27.809  34.302  1.00  0.00    -0.206 F 
ATOM     71  C   UNL A   1      42.698  26.967  35.787  1.00  0.00     0.040 A 
ATOM     72  C   UNL A   1      43.981  28.392  37.208  1.00  0.00     0.040 A 
ATOM     73  F   UNL A   1      43.619  30.693  37.237  1.00  0.00    -0.206 F 
ATOM     74  C   UNL A   1      43.710  27.122  36.720  1.00  0.00     0.006 A 
ENDBRANCH  53  67
BRANCH  54  75
ATOM     75  C   UNL A   1      40.295  27.339  27.721  1.00  0.00     0.057 A 
ATOM     76  C   UNL A   1      39.549  26.270  28.248  1.00  0.00     0.134 A 
ATOM     77  C   UNL A   1      40.898  27.118  26.476  1.00  0.00     0.134 A 
ATOM     78  F   UNL A   1      39.001  26.342  29.469  1.00  0.00    -0.206 F 
ATOM     79  C   UNL A   1      39.411  25.051  27.579  1.00  0.00     0.040 A 
ATOM     80  C   UNL A   1      40.777  25.897  25.800  1.00  0.00     0.040 A 
ATOM     81  F   UNL A   1      41.667  28.061  25.914  1.00  0.00    -0.206 F 
ATOM     82  C   UNL A   1      40.038  24.856  26.355  1.00  0.00     0.006 A 
ENDBRANCH  54  75
BRANCH  66  83
ATOM     83  C   UNL A   1      43.983  32.013  29.679  1.00  0.00     0.057 A 
ATOM     84  C   UNL A   1      45.247  32.103  29.090  1.00  0.00     0.134 A 
ATOM     85  C   UNL A   1      43.025  32.957  29.283  1.00  0.00     0.134 A 
ATOM     86  F   UNL A   1      46.231  31.271  29.468  1.00  0.00    -0.206 F 
ATOM     87  C   UNL A   1      45.544  33.074  28.132  1.00  0.00     0.040 A 
ATOM     88  C   UNL A   1      43.297  33.912  28.300  1.00  0.00     0.040 A 
ATOM     89  F   UNL A   1      41.821  33.011  29.869  1.00  0.00    -0.206 F 
ATOM     90  C   UNL A   1      44.563  33.974  27.724  1.00  0.00     0.006 A 
ENDBRANCH  66  83
ENDBRANCH  40  41
ENDBRANCH  32  35
ENDBRANCH  30  31
ENDBRANCH  29  30
ENDBRANCH  28  29
ENDBRANCH   1  28
TORSDOF 16
ENDMDL
