MODEL 1
REMARK VINA RESULT:     -11.6      0.000      0.000
REMARK SMILES CC1(C)CCN(c2ncccc2C(=O)NCCCCCCNC(=O)c2ccc(-c3c4nc(c(-c5c(F)cccc5F)c5ccc([nH]5)c(-c5c(F)cccc5F)c5nc(c(-c6c(F)cccc6F)c6ccc3[nH]6)C=C5)C=C4)cc2)C1
REMARK SMILES IDX 19 1 18 2 17 3 16 4 15 5 13 6 14 7 12 9 7 10 8 11 9 12 11 13
REMARK SMILES IDX 10 14 6 15 1 16 2 17 3 18 4 19 79 20 5 21 20 22 21 23 22 24
REMARK SMILES IDX 23 25 24 27 25 28 26 29 78 30 27 31 77 32 28 33 29 34 30 35
REMARK SMILES IDX 71 36 31 37 76 38 70 39 72 40 32 41 75 42 69 43 68 44 33 46
REMARK SMILES IDX 59 47 42 48 58 49 43 50 46 51 57 52 73 53 44 54 45 55 56 57
REMARK SMILES IDX 74 58 47 59 34 60 35 61 40 62 36 63 37 64 39 65 41 66 38 67
REMARK SMILES IDX 60 68 61 69 66 70 62 71 63 72 65 73 67 74 64 75 48 76 49 77
REMARK SMILES IDX 54 78 50 79 51 80 53 81 55 82 52 83
REMARK H PARENT 15 8 22 26 72 45 46 56
REMARK Flexibility Score: inf
ROOT
ATOM      1  C   UNL A   1      31.765  30.706  26.398  1.00  0.00     0.002 C 
ENDROOT
BRANCH   1   2
ATOM      2  C   UNL A   1      33.004  30.048  27.018  1.00  0.00     0.002 C 
BRANCH   2   3
ATOM      3  C   UNL A   1      32.778  28.627  27.562  1.00  0.00     0.021 C 
BRANCH   3   4
ATOM      4  C   UNL A   1      31.303  28.235  27.627  1.00  0.00     0.116 C 
BRANCH   4   5
ATOM      5  N   UNL A   1      31.057  27.106  26.763  1.00  0.00    -0.352 N 
ATOM      6  C   UNL A   1      31.315  26.752  25.467  1.00  0.00     0.255 C 
ATOM      7  O   UNL A   1      30.871  25.633  25.207  1.00  0.00    -0.269 OA
ATOM      8  H   UNL A   1      30.569  26.394  27.237  1.00  0.00     0.163 HD
BRANCH   6   9
ATOM      9  C   UNL A   1      32.102  27.564  24.471  1.00  0.00     0.082 A 
ATOM     10  C   UNL A   1      31.426  28.333  23.499  1.00  0.00     0.141 A 
ATOM     11  N   UNL A   1      32.078  28.867  22.426  1.00  0.00    -0.238 NA
ATOM     12  C   UNL A   1      33.412  28.726  22.333  1.00  0.00     0.113 A 
ATOM     13  C   UNL A   1      33.501  27.535  24.383  1.00  0.00     0.019 A 
ATOM     14  C   UNL A   1      34.166  28.100  23.296  1.00  0.00     0.021 A 
BRANCH  10  15
ATOM     15  N   UNL A   1      30.102  28.680  23.596  1.00  0.00    -0.355 N 
ATOM     16  C   UNL A   1      28.490  30.466  21.480  1.00  0.00     0.013 C 
ATOM     17  C   UNL A   1      28.342  30.151  22.976  1.00  0.00    -0.016 C 
ATOM     18  C   UNL A   1      27.431  31.192  23.629  1.00  0.00     0.013 C 
ATOM     19  C   UNL A   1      27.815  28.722  23.196  1.00  0.00     0.030 C 
ATOM     20  C   UNL A   1      29.728  30.094  23.657  1.00  0.00     0.124 C 
ATOM     21  C   UNL A   1      29.058  27.850  23.031  1.00  0.00     0.119 C 
ENDBRANCH  10  15
ENDBRANCH   6   9
ENDBRANCH   4   5
ENDBRANCH   3   4
ENDBRANCH   2   3
ENDBRANCH   1   2
BRANCH   1  22
ATOM     22  C   UNL A   1      31.523  32.150  26.840  1.00  0.00     0.021 C 
BRANCH  22  23
ATOM     23  C   UNL A   1      32.786  32.877  27.280  1.00  0.00     0.116 C 
BRANCH  23  24
ATOM     24  N   UNL A   1      32.511  34.260  27.631  1.00  0.00    -0.352 N 
ATOM     25  C   UNL A   1      33.038  35.006  28.653  1.00  0.00     0.251 C 
ATOM     26  H   UNL A   1      31.860  34.724  27.056  1.00  0.00     0.163 HD
ATOM     27  O   UNL A   1      32.537  36.078  28.968  1.00  0.00    -0.269 OA
BRANCH  25  28
ATOM     28  C   UNL A   1      34.216  34.493  29.382  1.00  0.00     0.039 A 
ATOM     29  C   UNL A   1      34.034  33.869  30.618  1.00  0.00     0.014 A 
ATOM     30  C   UNL A   1      35.495  34.626  28.835  1.00  0.00     0.014 A 
ATOM     31  C   UNL A   1      35.135  33.330  31.283  1.00  0.00     0.010 A 
ATOM     32  C   UNL A   1      36.577  34.019  29.460  1.00  0.00     0.010 A 
ATOM     33  C   UNL A   1      36.410  33.375  30.696  1.00  0.00    -0.014 A 
BRANCH  33  34
ATOM     34  C   UNL A   1      37.594  32.781  31.363  1.00  0.00     0.031 A 
ATOM     35  C   UNL A   1      38.259  31.573  30.764  1.00  0.00     0.074 A 
ATOM     36  C   UNL A   1      38.022  33.280  32.539  1.00  0.00     0.049 A 
ATOM     37  N   UNL A   1      39.233  30.842  31.241  1.00  0.00    -0.248 NA
ATOM     38  C   UNL A   1      37.738  31.108  29.468  1.00  0.00     0.031 C 
ATOM     39  C   UNL A   1      37.438  34.425  33.237  1.00  0.00     0.029 A 
ATOM     40  N   UNL A   1      39.042  32.874  33.362  1.00  0.00    -0.354 N 
ATOM     41  C   UNL A   1      39.429  29.825  30.316  1.00  0.00     0.074 A 
ATOM     42  C   UNL A   1      38.435  29.998  29.279  1.00  0.00     0.031 C 
ATOM     43  C   UNL A   1      38.120  34.643  34.372  1.00  0.00     0.029 A 
ATOM     44  C   UNL A   1      39.158  33.626  34.506  1.00  0.00     0.049 A 
ATOM     45  H   UNL A   1      39.635  32.116  33.152  1.00  0.00     0.167 HD
ATOM     46  C   UNL A   1      40.367  28.849  30.317  1.00  0.00     0.037 A 
ATOM     47  C   UNL A   1      39.998  33.498  35.552  1.00  0.00     0.037 A 
ATOM     48  C   UNL A   1      41.366  28.696  31.342  1.00  0.00     0.049 A 
ATOM     49  C   UNL A   1      41.016  32.390  35.543  1.00  0.00     0.074 A 
ATOM     50  C   UNL A   1      42.394  27.773  31.411  1.00  0.00     0.029 A 
ATOM     51  N   UNL A   1      41.461  29.487  32.476  1.00  0.00    -0.354 N 
ATOM     52  N   UNL A   1      41.229  31.469  34.633  1.00  0.00    -0.248 NA
ATOM     53  C   UNL A   1      41.913  32.303  36.703  1.00  0.00     0.031 C 
ATOM     54  C   UNL A   1      43.077  27.970  32.614  1.00  0.00     0.029 A 
ATOM     55  C   UNL A   1      42.515  29.057  33.265  1.00  0.00     0.049 A 
ATOM     56  H   UNL A   1      40.867  30.243  32.691  1.00  0.00     0.167 HD
ATOM     57  C   UNL A   1      42.306  30.722  35.091  1.00  0.00     0.074 A 
ATOM     58  C   UNL A   1      42.706  31.300  36.358  1.00  0.00     0.031 C 
ATOM     59  C   UNL A   1      42.912  29.655  34.514  1.00  0.00     0.037 A 
BRANCH  46  60
ATOM     60  C   UNL A   1      40.354  27.871  29.178  1.00  0.00     0.057 A 
ATOM     61  C   UNL A   1      41.162  28.041  28.046  1.00  0.00     0.134 A 
ATOM     62  C   UNL A   1      39.546  26.728  29.227  1.00  0.00     0.134 A 
ATOM     63  F   UNL A   1      41.951  29.120  27.929  1.00  0.00    -0.206 F 
ATOM     64  C   UNL A   1      41.146  27.127  26.991  1.00  0.00     0.040 A 
ATOM     65  C   UNL A   1      39.544  25.789  28.193  1.00  0.00     0.040 A 
ATOM     66  F   UNL A   1      38.752  26.498  30.284  1.00  0.00    -0.206 F 
ATOM     67  C   UNL A   1      40.341  25.992  27.067  1.00  0.00     0.006 A 
ENDBRANCH  46  60
BRANCH  47  68
ATOM     68  C   UNL A   1      39.925  34.453  36.687  1.00  0.00     0.057 A 
ATOM     69  C   UNL A   1      40.660  35.645  36.675  1.00  0.00     0.134 A 
ATOM     70  C   UNL A   1      39.135  34.195  37.813  1.00  0.00     0.134 A 
ATOM     71  F   UNL A   1      41.449  35.941  35.633  1.00  0.00    -0.206 F 
ATOM     72  C   UNL A   1      40.631  36.534  37.752  1.00  0.00     0.040 A 
ATOM     73  C   UNL A   1      39.073  35.088  38.884  1.00  0.00     0.040 A 
ATOM     74  F   UNL A   1      38.400  33.076  37.883  1.00  0.00    -0.206 F 
ATOM     75  C   UNL A   1      39.831  36.258  38.859  1.00  0.00     0.006 A 
ENDBRANCH  47  68
BRANCH  59  76
ATOM     76  C   UNL A   1      44.106  29.075  35.213  1.00  0.00     0.057 A 
ATOM     77  C   UNL A   1      45.409  29.514  34.952  1.00  0.00     0.134 A 
ATOM     78  C   UNL A   1      43.938  28.102  36.208  1.00  0.00     0.134 A 
ATOM     79  F   UNL A   1      45.640  30.434  34.003  1.00  0.00    -0.206 F 
ATOM     80  C   UNL A   1      46.506  28.994  35.643  1.00  0.00     0.040 A 
ATOM     81  C   UNL A   1      45.023  27.596  36.927  1.00  0.00     0.040 A 
ATOM     82  F   UNL A   1      42.715  27.644  36.515  1.00  0.00    -0.206 F 
ATOM     83  C   UNL A   1      46.311  28.039  36.641  1.00  0.00     0.006 A 
ENDBRANCH  59  76
ENDBRANCH  33  34
ENDBRANCH  25  28
ENDBRANCH  23  24
ENDBRANCH  22  23
ENDBRANCH   1  22
TORSDOF 14
ENDMDL
MODEL 2
REMARK VINA RESULT:     -11.5      1.755      3.260
REMARK SMILES CC1(C)CCN(c2ncccc2C(=O)NCCCCCCNC(=O)c2ccc(-c3c4nc(c(-c5c(F)cccc5F)c5ccc([nH]5)c(-c5c(F)cccc5F)c5nc(c(-c6c(F)cccc6F)c6ccc3[nH]6)C=C5)C=C4)cc2)C1
REMARK SMILES IDX 19 1 18 2 17 3 16 4 15 5 13 6 14 7 12 9 7 10 8 11 9 12 11 13
REMARK SMILES IDX 10 14 6 15 1 16 2 17 3 18 4 19 79 20 5 21 20 22 21 23 22 24
REMARK SMILES IDX 23 25 24 27 25 28 26 29 78 30 27 31 77 32 28 33 29 34 30 35
REMARK SMILES IDX 71 36 31 37 76 38 70 39 72 40 32 41 75 42 69 43 68 44 33 46
REMARK SMILES IDX 59 47 42 48 58 49 43 50 46 51 57 52 73 53 44 54 45 55 56 57
REMARK SMILES IDX 74 58 47 59 34 60 35 61 40 62 36 63 37 64 39 65 41 66 38 67
REMARK SMILES IDX 60 68 61 69 66 70 62 71 63 72 65 73 67 74 64 75 48 76 49 77
REMARK SMILES IDX 54 78 50 79 51 80 53 81 55 82 52 83
REMARK H PARENT 15 8 22 26 72 45 46 56
REMARK Flexibility Score: inf
ROOT
ATOM      1  C   UNL A   1      31.213  30.844  25.583  1.00  0.00     0.002 C 
ENDROOT
BRANCH   1   2
ATOM      2  C   UNL A   1      32.284  29.846  26.041  1.00  0.00     0.002 C 
BRANCH   2   3
ATOM      3  C   UNL A   1      31.881  28.969  27.238  1.00  0.00     0.021 C 
BRANCH   3   4
ATOM      4  C   UNL A   1      32.415  27.540  27.145  1.00  0.00     0.116 C 
BRANCH   4   5
ATOM      5  N   UNL A   1      31.315  26.611  27.053  1.00  0.00    -0.352 N 
ATOM      6  C   UNL A   1      30.515  26.089  26.073  1.00  0.00     0.255 C 
ATOM      7  O   UNL A   1      29.685  25.305  26.538  1.00  0.00    -0.269 OA
ATOM      8  H   UNL A   1      31.074  26.255  27.938  1.00  0.00     0.163 HD
BRANCH   6   9
ATOM      9  C   UNL A   1      30.643  26.353  24.595  1.00  0.00     0.082 A 
ATOM     10  C   UNL A   1      31.585  25.631  23.830  1.00  0.00     0.141 A 
ATOM     11  N   UNL A   1      31.921  26.009  22.563  1.00  0.00    -0.238 NA
ATOM     12  C   UNL A   1      31.279  27.048  21.998  1.00  0.00     0.113 A 
ATOM     13  C   UNL A   1      29.932  27.358  23.926  1.00  0.00     0.019 A 
ATOM     14  C   UNL A   1      30.263  27.729  22.623  1.00  0.00     0.021 A 
BRANCH  10  15
ATOM     15  N   UNL A   1      32.163  24.460  24.251  1.00  0.00    -0.355 N 
ATOM     16  C   UNL A   1      32.429  21.787  22.504  1.00  0.00     0.013 C 
ATOM     17  C   UNL A   1      32.385  22.107  24.006  1.00  0.00    -0.016 C 
ATOM     18  C   UNL A   1      32.057  20.834  24.789  1.00  0.00     0.013 C 
ATOM     19  C   UNL A   1      33.705  22.739  24.481  1.00  0.00     0.030 C 
ATOM     20  C   UNL A   1      31.365  23.233  24.289  1.00  0.00     0.124 C 
ATOM     21  C   UNL A   1      33.575  24.201  24.063  1.00  0.00     0.119 C 
ENDBRANCH  10  15
ENDBRANCH   6   9
ENDBRANCH   4   5
ENDBRANCH   3   4
ENDBRANCH   2   3
ENDBRANCH   1   2
BRANCH   1  22
ATOM     22  C   UNL A   1      31.096  32.096  26.454  1.00  0.00     0.021 C 
BRANCH  22  23
ATOM     23  C   UNL A   1      32.427  32.582  27.012  1.00  0.00     0.116 C 
BRANCH  23  24
ATOM     24  N   UNL A   1      32.352  33.969  27.437  1.00  0.00    -0.352 N 
ATOM     25  C   UNL A   1      33.068  34.605  28.418  1.00  0.00     0.251 C 
ATOM     26  H   UNL A   1      31.700  34.528  26.955  1.00  0.00     0.163 HD
ATOM     27  O   UNL A   1      32.732  35.709  28.824  1.00  0.00    -0.269 OA
BRANCH  25  28
ATOM     28  C   UNL A   1      34.252  33.932  28.992  1.00  0.00     0.039 A 
ATOM     29  C   UNL A   1      35.527  34.359  28.616  1.00  0.00     0.014 A 
ATOM     30  C   UNL A   1      34.094  32.887  29.906  1.00  0.00     0.014 A 
ATOM     31  C   UNL A   1      36.649  33.767  29.199  1.00  0.00     0.010 A 
ATOM     32  C   UNL A   1      35.208  32.355  30.544  1.00  0.00     0.010 A 
ATOM     33  C   UNL A   1      36.497  32.781  30.188  1.00  0.00    -0.014 A 
BRANCH  33  34
ATOM     34  C   UNL A   1      37.669  32.158  30.849  1.00  0.00     0.031 A 
ATOM     35  C   UNL A   1      38.428  31.066  30.147  1.00  0.00     0.074 A 
ATOM     36  C   UNL A   1      38.003  32.520  32.103  1.00  0.00     0.049 A 
ATOM     37  N   UNL A   1      39.408  30.322  30.590  1.00  0.00    -0.248 NA
ATOM     38  C   UNL A   1      38.006  30.748  28.773  1.00  0.00     0.031 C 
ATOM     39  C   UNL A   1      37.322  33.541  32.900  1.00  0.00     0.029 A 
ATOM     40  N   UNL A   1      38.993  32.056  32.932  1.00  0.00    -0.354 N 
ATOM     41  C   UNL A   1      39.708  29.442  29.560  1.00  0.00     0.074 A 
ATOM     42  C   UNL A   1      38.769  29.703  28.492  1.00  0.00     0.031 C 
ATOM     43  C   UNL A   1      37.926  33.641  34.095  1.00  0.00     0.029 A 
ATOM     44  C   UNL A   1      39.004  32.660  34.167  1.00  0.00     0.049 A 
ATOM     45  H   UNL A   1      39.634  31.358  32.667  1.00  0.00     0.167 HD
ATOM     46  C   UNL A   1      40.693  28.515  29.498  1.00  0.00     0.037 A 
ATOM     47  C   UNL A   1      39.788  32.436  35.239  1.00  0.00     0.037 A 
ATOM     48  C   UNL A   1      41.638  28.275  30.557  1.00  0.00     0.049 A 
ATOM     49  C   UNL A   1      40.859  31.383  35.156  1.00  0.00     0.074 A 
ATOM     50  C   UNL A   1      42.705  27.395  30.576  1.00  0.00     0.029 A 
ATOM     51  N   UNL A   1      41.627  28.918  31.786  1.00  0.00    -0.354 N 
ATOM     52  N   UNL A   1      41.170  30.596  34.154  1.00  0.00    -0.248 NA
ATOM     53  C   UNL A   1      41.691  31.187  36.352  1.00  0.00     0.031 C 
ATOM     54  C   UNL A   1      43.307  27.466  31.835  1.00  0.00     0.029 A 
ATOM     55  C   UNL A   1      42.654  28.436  32.580  1.00  0.00     0.049 A 
ATOM     56  H   UNL A   1      40.984  29.614  32.055  1.00  0.00     0.167 HD
ATOM     57  C   UNL A   1      42.256  29.843  34.583  1.00  0.00     0.074 A 
ATOM     58  C   UNL A   1      42.552  30.271  35.934  1.00  0.00     0.031 C 
ATOM     59  C   UNL A   1      42.947  28.886  33.917  1.00  0.00     0.037 A 
BRANCH  46  60
ATOM     60  C   UNL A   1      40.795  27.691  28.248  1.00  0.00     0.057 A 
ATOM     61  C   UNL A   1      40.131  26.464  28.112  1.00  0.00     0.134 A 
ATOM     62  C   UNL A   1      41.543  28.144  27.153  1.00  0.00     0.134 A 
ATOM     63  F   UNL A   1      39.408  25.966  29.125  1.00  0.00    -0.206 F 
ATOM     64  C   UNL A   1      40.231  25.704  26.945  1.00  0.00     0.040 A 
ATOM     65  C   UNL A   1      41.624  27.408  25.969  1.00  0.00     0.040 A 
ATOM     66  F   UNL A   1      42.199  29.312  27.212  1.00  0.00    -0.206 F 
ATOM     67  C   UNL A   1      40.973  26.180  25.866  1.00  0.00     0.006 A 
ENDBRANCH  46  60
BRANCH  47  68
ATOM     68  C   UNL A   1      39.601  33.234  36.478  1.00  0.00     0.057 A 
ATOM     69  C   UNL A   1      38.725  32.809  37.484  1.00  0.00     0.134 A 
ATOM     70  C   UNL A   1      40.280  34.441  36.682  1.00  0.00     0.134 A 
ATOM     71  F   UNL A   1      38.033  31.670  37.340  1.00  0.00    -0.206 F 
ATOM     72  C   UNL A   1      38.511  33.568  38.636  1.00  0.00     0.040 A 
ATOM     73  C   UNL A   1      40.098  35.196  37.843  1.00  0.00     0.040 A 
ATOM     74  F   UNL A   1      41.141  34.898  35.762  1.00  0.00    -0.206 F 
ATOM     75  C   UNL A   1      39.203  34.763  38.820  1.00  0.00     0.006 A 
ENDBRANCH  47  68
BRANCH  59  76
ATOM     76  C   UNL A   1      44.127  28.272  34.612  1.00  0.00     0.057 A 
ATOM     77  C   UNL A   1      44.023  27.090  35.354  1.00  0.00     0.134 A 
ATOM     78  C   UNL A   1      45.400  28.846  34.483  1.00  0.00     0.134 A 
ATOM     79  F   UNL A   1      42.832  26.497  35.526  1.00  0.00    -0.206 F 
ATOM     80  C   UNL A   1      45.139  26.508  35.958  1.00  0.00     0.040 A 
ATOM     81  C   UNL A   1      46.528  28.257  35.057  1.00  0.00     0.040 A 
ATOM     82  F   UNL A   1      45.571  29.974  33.778  1.00  0.00    -0.206 F 
ATOM     83  C   UNL A   1      46.398  27.088  35.801  1.00  0.00     0.006 A 
ENDBRANCH  59  76
ENDBRANCH  33  34
ENDBRANCH  25  28
ENDBRANCH  23  24
ENDBRANCH  22  23
ENDBRANCH   1  22
TORSDOF 14
ENDMDL
MODEL 3
REMARK VINA RESULT:     -11.5      5.657     10.613
REMARK SMILES CC1(C)CCN(c2ncccc2C(=O)NCCCCCCNC(=O)c2ccc(-c3c4nc(c(-c5c(F)cccc5F)c5ccc([nH]5)c(-c5c(F)cccc5F)c5nc(c(-c6c(F)cccc6F)c6ccc3[nH]6)C=C5)C=C4)cc2)C1
REMARK SMILES IDX 19 1 18 2 17 3 16 4 15 5 13 6 14 7 12 9 7 10 8 11 9 12 11 13
REMARK SMILES IDX 10 14 6 15 1 16 2 17 3 18 4 19 79 20 5 21 20 22 21 23 22 24
REMARK SMILES IDX 23 25 24 27 25 28 26 29 78 30 27 31 77 32 28 33 29 34 30 35
REMARK SMILES IDX 71 36 31 37 76 38 70 39 72 40 32 41 75 42 69 43 68 44 33 46
REMARK SMILES IDX 59 47 42 48 58 49 43 50 46 51 57 52 73 53 44 54 45 55 56 57
REMARK SMILES IDX 74 58 47 59 34 60 35 61 40 62 36 63 37 64 39 65 41 66 38 67
REMARK SMILES IDX 60 68 61 69 66 70 62 71 63 72 65 73 67 74 64 75 48 76 49 77
REMARK SMILES IDX 54 78 50 79 51 80 53 81 55 82 52 83
REMARK H PARENT 15 8 22 26 72 45 46 56
REMARK Flexibility Score: inf
ROOT
ATOM      1  C   UNL A   1      36.827  20.570  25.001  1.00  0.00     0.002 C 
ENDROOT
BRANCH   1   2
ATOM      2  C   UNL A   1      37.238  22.048  25.021  1.00  0.00     0.002 C 
BRANCH   2   3
ATOM      3  C   UNL A   1      36.566  22.922  23.948  1.00  0.00     0.021 C 
BRANCH   3   4
ATOM      4  C   UNL A   1      35.547  23.904  24.524  1.00  0.00     0.116 C 
BRANCH   4   5
ATOM      5  N   UNL A   1      34.550  24.215  23.529  1.00  0.00    -0.352 N 
ATOM      6  C   UNL A   1      33.185  24.233  23.438  1.00  0.00     0.255 C 
ATOM      7  O   UNL A   1      32.810  24.584  22.318  1.00  0.00    -0.269 OA
ATOM      8  H   UNL A   1      34.967  24.492  22.680  1.00  0.00     0.163 HD
BRANCH   6   9
ATOM      9  C   UNL A   1      32.223  23.938  24.560  1.00  0.00     0.082 A 
ATOM     10  C   UNL A   1      32.050  24.874  25.604  1.00  0.00     0.141 A 
ATOM     11  N   UNL A   1      31.403  24.548  26.760  1.00  0.00    -0.238 NA
ATOM     12  C   UNL A   1      30.844  23.330  26.876  1.00  0.00     0.113 A 
ATOM     13  C   UNL A   1      31.535  22.723  24.689  1.00  0.00     0.019 A 
ATOM     14  C   UNL A   1      30.856  22.402  25.863  1.00  0.00     0.021 A 
BRANCH  10  15
ATOM     15  N   UNL A   1      32.430  26.189  25.510  1.00  0.00    -0.355 N 
ATOM     16  C   UNL A   1      31.621  28.506  27.570  1.00  0.00     0.013 C 
ATOM     17  C   UNL A   1      32.033  28.458  26.091  1.00  0.00    -0.016 C 
ATOM     18  C   UNL A   1      31.631  29.766  25.407  1.00  0.00     0.013 C 
ATOM     19  C   UNL A   1      33.540  28.183  25.941  1.00  0.00     0.030 C 
ATOM     20  C   UNL A   1      31.408  27.230  25.394  1.00  0.00     0.124 C 
ATOM     21  C   UNL A   1      33.650  26.671  26.125  1.00  0.00     0.119 C 
ENDBRANCH  10  15
ENDBRANCH   6   9
ENDBRANCH   4   5
ENDBRANCH   3   4
ENDBRANCH   2   3
ENDBRANCH   1   2
BRANCH   1  22
ATOM     22  C   UNL A   1      37.996  19.584  24.992  1.00  0.00     0.021 C 
BRANCH  22  23
ATOM     23  C   UNL A   1      39.221  20.078  25.748  1.00  0.00     0.116 C 
BRANCH  23  24
ATOM     24  N   UNL A   1      40.200  19.020  25.926  1.00  0.00    -0.352 N 
ATOM     25  C   UNL A   1      41.555  19.127  26.109  1.00  0.00     0.251 C 
ATOM     26  H   UNL A   1      39.843  18.102  25.915  1.00  0.00     0.163 HD
ATOM     27  O   UNL A   1      42.281  18.147  26.007  1.00  0.00    -0.269 OA
BRANCH  25  28
ATOM     28  C   UNL A   1      42.134  20.450  26.421  1.00  0.00     0.039 A 
ATOM     29  C   UNL A   1      42.571  21.267  25.376  1.00  0.00     0.014 A 
ATOM     30  C   UNL A   1      42.233  20.880  27.748  1.00  0.00     0.014 A 
ATOM     31  C   UNL A   1      43.063  22.541  25.661  1.00  0.00     0.010 A 
ATOM     32  C   UNL A   1      42.648  22.178  28.021  1.00  0.00     0.010 A 
ATOM     33  C   UNL A   1      43.078  23.016  26.982  1.00  0.00    -0.014 A 
BRANCH  33  34
ATOM     34  C   UNL A   1      43.564  24.379  27.311  1.00  0.00     0.031 A 
ATOM     35  C   UNL A   1      42.586  25.431  27.755  1.00  0.00     0.074 A 
ATOM     36  C   UNL A   1      44.865  24.687  27.141  1.00  0.00     0.049 A 
ATOM     37  N   UNL A   1      42.787  26.703  27.986  1.00  0.00    -0.248 NA
ATOM     38  C   UNL A   1      41.190  25.002  27.932  1.00  0.00     0.031 C 
ATOM     39  C   UNL A   1      45.902  23.762  26.683  1.00  0.00     0.029 A 
ATOM     40  N   UNL A   1      45.532  25.873  27.321  1.00  0.00    -0.354 N 
ATOM     41  C   UNL A   1      41.545  27.226  28.318  1.00  0.00     0.074 A 
ATOM     42  C   UNL A   1      40.586  26.150  28.202  1.00  0.00     0.031 C 
ATOM     43  C   UNL A   1      47.077  24.408  26.636  1.00  0.00     0.029 A 
ATOM     44  C   UNL A   1      46.869  25.803  27.015  1.00  0.00     0.049 A 
ATOM     45  H   UNL A   1      45.093  26.694  27.639  1.00  0.00     0.167 HD
ATOM     46  C   UNL A   1      41.233  28.485  28.709  1.00  0.00     0.037 A 
ATOM     47  C   UNL A   1      47.817  26.760  27.024  1.00  0.00     0.037 A 
ATOM     48  C   UNL A   1      42.196  29.546  28.843  1.00  0.00     0.049 A 
ATOM     49  C   UNL A   1      47.441  28.158  27.437  1.00  0.00     0.074 A 
ATOM     50  C   UNL A   1      41.993  30.843  29.281  1.00  0.00     0.029 A 
ATOM     51  N   UNL A   1      43.544  29.432  28.539  1.00  0.00    -0.354 N 
ATOM     52  N   UNL A   1      46.273  28.626  27.806  1.00  0.00    -0.248 NA
ATOM     53  C   UNL A   1      48.516  29.160  27.440  1.00  0.00     0.031 C 
ATOM     54  C   UNL A   1      43.207  31.529  29.190  1.00  0.00     0.029 A 
ATOM     55  C   UNL A   1      44.181  30.643  28.756  1.00  0.00     0.049 A 
ATOM     56  H   UNL A   1      43.985  28.612  28.217  1.00  0.00     0.167 HD
ATOM     57  C   UNL A   1      46.480  29.963  28.121  1.00  0.00     0.074 A 
ATOM     58  C   UNL A   1      47.887  30.229  27.905  1.00  0.00     0.031 C 
ATOM     59  C   UNL A   1      45.587  30.886  28.554  1.00  0.00     0.037 A 
BRANCH  46  60
ATOM     60  C   UNL A   1      39.794  28.781  29.016  1.00  0.00     0.057 A 
ATOM     61  C   UNL A   1      39.276  28.675  30.314  1.00  0.00     0.134 A 
ATOM     62  C   UNL A   1      38.921  29.208  28.006  1.00  0.00     0.134 A 
ATOM     63  F   UNL A   1      40.053  28.260  31.325  1.00  0.00    -0.206 F 
ATOM     64  C   UNL A   1      37.936  28.954  30.592  1.00  0.00     0.040 A 
ATOM     65  C   UNL A   1      37.587  29.521  28.277  1.00  0.00     0.040 A 
ATOM     66  F   UNL A   1      39.352  29.338  26.743  1.00  0.00    -0.206 F 
ATOM     67  C   UNL A   1      37.090  29.386  29.573  1.00  0.00     0.006 A 
ENDBRANCH  46  60
BRANCH  47  68
ATOM     68  C   UNL A   1      49.214  26.430  26.647  1.00  0.00     0.057 A 
ATOM     69  C   UNL A   1      50.112  25.908  27.588  1.00  0.00     0.134 A 
ATOM     70  C   UNL A   1      49.692  26.637  25.347  1.00  0.00     0.134 A 
ATOM     71  F   UNL A   1      49.719  25.704  28.853  1.00  0.00    -0.206 F 
ATOM     72  C   UNL A   1      51.439  25.629  27.256  1.00  0.00     0.040 A 
ATOM     73  C   UNL A   1      51.009  26.334  24.995  1.00  0.00     0.040 A 
ATOM     74  F   UNL A   1      48.881  27.123  24.397  1.00  0.00    -0.206 F 
ATOM     75  C   UNL A   1      51.889  25.837  25.954  1.00  0.00     0.006 A 
ENDBRANCH  47  68
BRANCH  59  76
ATOM     76  C   UNL A   1      46.107  32.256  28.878  1.00  0.00     0.057 A 
ATOM     77  C   UNL A   1      46.131  33.287  27.931  1.00  0.00     0.134 A 
ATOM     78  C   UNL A   1      46.533  32.560  30.178  1.00  0.00     0.134 A 
ATOM     79  F   UNL A   1      45.749  33.058  26.666  1.00  0.00    -0.206 F 
ATOM     80  C   UNL A   1      46.577  34.569  28.261  1.00  0.00     0.040 A 
ATOM     81  C   UNL A   1      46.952  33.845  30.528  1.00  0.00     0.040 A 
ATOM     82  F   UNL A   1      46.525  31.621  31.136  1.00  0.00    -0.206 F 
ATOM     83  C   UNL A   1      46.980  34.852  29.566  1.00  0.00     0.006 A 
ENDBRANCH  59  76
ENDBRANCH  33  34
ENDBRANCH  25  28
ENDBRANCH  23  24
ENDBRANCH  22  23
ENDBRANCH   1  22
TORSDOF 14
ENDMDL
