MODEL 1
REMARK VINA RESULT:     -12.0      0.000      0.000
REMARK SMILES CC1(C)C[C@@H]([C@H](CCNC(=O)c2ccccc2C(=O)NCCCCCCNC(=O)c2ccc(-c3c4nc(c(-c5c(F)cccc5F)c5ccc([nH]5)c(-c5c(F)cccc5F)c5nc(c(-c6c(F)cccc6F)c6ccc3[nH]6)C=C5)C=C4)cc2)c2ccccc2)CCO1
REMARK SMILES IDX 22 1 21 2 20 3 18 4 19 5 17 7 12 8 13 9 14 10 16 11 15 12
REMARK SMILES IDX 10 13 9 14 11 16 8 17 7 18 6 19 5 20 1 21 2 22 3 23 4 24
REMARK SMILES IDX 92 25 91 26 90 27 84 28 85 29 89 30 86 31 88 32 87 33 23 34
REMARK SMILES IDX 24 35 25 36 26 37 27 38 28 39 29 41 30 42 31 43 83 44 32 45
REMARK SMILES IDX 82 46 33 47 34 48 35 49 76 50 36 51 81 52 75 53 77 54 37 55
REMARK SMILES IDX 80 56 74 57 73 58 38 60 64 61 47 62 63 63 48 64 51 65 62 66
REMARK SMILES IDX 78 67 49 68 50 69 61 71 79 72 52 73 39 74 40 75 45 76 41 77
REMARK SMILES IDX 42 78 44 79 46 80 43 81 65 82 66 83 71 84 67 85 68 86 70 87
REMARK SMILES IDX 72 88 69 89 53 90 54 91 59 92 55 93 56 94 58 95 60 96 57 97
REMARK H PARENT 20 6 9 15 27 40 77 59 51 70
REMARK Flexibility Score: inf
ROOT
ATOM      1  C   UNL A   1      30.261  30.183  24.038  1.00  0.00     0.021 C 
ENDROOT
BRANCH   1   2
ATOM      2  C   UNL A   1      29.936  29.539  22.690  1.00  0.00     0.116 C 
BRANCH   2   3
ATOM      3  N   UNL A   1      29.545  28.145  22.786  1.00  0.00    -0.352 N 
ATOM      4  C   UNL A   1      30.072  27.111  23.518  1.00  0.00     0.252 C 
ATOM      5  O   UNL A   1      29.518  26.013  23.448  1.00  0.00    -0.269 OA
ATOM      6  H   UNL A   1      28.770  27.899  22.231  1.00  0.00     0.163 HD
BRANCH   4   7
ATOM      7  C   UNL A   1      31.301  27.225  24.343  1.00  0.00     0.052 A 
ATOM      8  C   UNL A   1      32.594  27.485  23.883  1.00  0.00     0.052 A 
ATOM      9  C   UNL A   1      33.679  27.445  24.781  1.00  0.00     0.014 A 
ATOM     10  C   UNL A   1      33.472  27.274  26.147  1.00  0.00     0.001 A 
ATOM     11  C   UNL A   1      31.102  27.106  25.735  1.00  0.00     0.014 A 
ATOM     12  C   UNL A   1      32.176  27.143  26.629  1.00  0.00     0.001 A 
BRANCH   8  13
ATOM     13  C   UNL A   1      32.967  27.865  22.510  1.00  0.00     0.252 C 
ATOM     14  N   UNL A   1      32.913  26.960  21.483  1.00  0.00    -0.352 N 
ATOM     15  H   UNL A   1      32.994  27.344  20.580  1.00  0.00     0.163 HD
ATOM     16  O   UNL A   1      33.241  29.041  22.275  1.00  0.00    -0.269 OA
BRANCH  14  17
ATOM     17  C   UNL A   1      32.754  25.512  21.530  1.00  0.00     0.117 C 
BRANCH  17  18
ATOM     18  C   UNL A   1      33.909  24.766  22.207  1.00  0.00     0.030 C 
BRANCH  18  19
ATOM     19  C   UNL A   1      33.663  23.973  23.541  1.00  0.00     0.024 C 
BRANCH  19  20
ATOM     20  C   UNL A   1      32.417  23.016  23.557  1.00  0.00     0.002 C 
ATOM     21  C   UNL A   1      32.227  23.718  26.971  1.00  0.00     0.042 C 
ATOM     22  C   UNL A   1      31.560  22.731  26.005  1.00  0.00     0.063 C 
ATOM     23  C   UNL A   1      30.194  22.361  26.610  1.00  0.00     0.042 C 
ATOM     24  C   UNL A   1      31.364  23.376  24.627  1.00  0.00     0.039 C 
ATOM     25  O   UNL A   1      32.391  21.568  25.949  1.00  0.00    -0.376 OA
ATOM     26  C   UNL A   1      32.262  20.771  24.777  1.00  0.00     0.161 C 
ATOM     27  C   UNL A   1      32.692  21.510  23.503  1.00  0.00     0.033 C 
ENDBRANCH  19  20
BRANCH  19  28
ATOM     28  C   UNL A   1      34.995  23.517  24.176  1.00  0.00    -0.045 A 
ATOM     29  C   UNL A   1      35.772  22.434  23.742  1.00  0.00     0.004 A 
ATOM     30  C   UNL A   1      35.449  24.168  25.336  1.00  0.00     0.004 A 
ATOM     31  C   UNL A   1      36.846  21.927  24.476  1.00  0.00     0.000 A 
ATOM     32  C   UNL A   1      36.554  23.694  26.059  1.00  0.00     0.000 A 
ATOM     33  C   UNL A   1      37.231  22.551  25.648  1.00  0.00     0.000 A 
ENDBRANCH  19  28
ENDBRANCH  18  19
ENDBRANCH  17  18
ENDBRANCH  14  17
ENDBRANCH   8  13
ENDBRANCH   4   7
ENDBRANCH   2   3
ENDBRANCH   1   2
BRANCH   1  34
ATOM     34  C   UNL A   1      29.620  31.551  24.293  1.00  0.00     0.002 C 
BRANCH  34  35
ATOM     35  C   UNL A   1      30.333  32.439  25.309  1.00  0.00     0.002 C 
BRANCH  35  36
ATOM     36  C   UNL A   1      31.031  31.776  26.477  1.00  0.00     0.021 C 
BRANCH  36  37
ATOM     37  C   UNL A   1      32.388  32.378  26.771  1.00  0.00     0.116 C 
BRANCH  37  38
ATOM     38  N   UNL A   1      32.294  33.727  27.329  1.00  0.00    -0.352 N 
ATOM     39  C   UNL A   1      33.012  34.359  28.319  1.00  0.00     0.251 C 
ATOM     40  H   UNL A   1      31.591  34.283  26.924  1.00  0.00     0.163 HD
ATOM     41  O   UNL A   1      32.617  35.428  28.769  1.00  0.00    -0.269 OA
BRANCH  39  42
ATOM     42  C   UNL A   1      34.244  33.744  28.858  1.00  0.00     0.039 A 
ATOM     43  C   UNL A   1      35.481  34.367  28.669  1.00  0.00     0.014 A 
ATOM     44  C   UNL A   1      34.181  32.542  29.552  1.00  0.00     0.014 A 
ATOM     45  C   UNL A   1      36.627  33.820  29.252  1.00  0.00     0.010 A 
ATOM     46  C   UNL A   1      35.273  32.106  30.279  1.00  0.00     0.010 A 
ATOM     47  C   UNL A   1      36.522  32.709  30.105  1.00  0.00    -0.014 A 
BRANCH  47  48
ATOM     48  C   UNL A   1      37.692  32.100  30.785  1.00  0.00     0.031 A 
ATOM     49  C   UNL A   1      38.468  31.010  30.086  1.00  0.00     0.074 A 
ATOM     50  C   UNL A   1      37.982  32.433  32.057  1.00  0.00     0.049 A 
ATOM     51  N   UNL A   1      39.403  30.224  30.556  1.00  0.00    -0.248 NA
ATOM     52  C   UNL A   1      38.098  30.722  28.688  1.00  0.00     0.031 C 
ATOM     53  C   UNL A   1      37.259  33.417  32.866  1.00  0.00     0.029 A 
ATOM     54  N   UNL A   1      38.958  31.966  32.900  1.00  0.00    -0.354 N 
ATOM     55  C   UNL A   1      39.687  29.326  29.532  1.00  0.00     0.074 A 
ATOM     56  C   UNL A   1      38.776  29.611  28.449  1.00  0.00     0.031 C 
ATOM     57  C   UNL A   1      37.837  33.502  34.076  1.00  0.00     0.029 A 
ATOM     58  C   UNL A   1      38.938  32.548  34.143  1.00  0.00     0.049 A 
ATOM     59  H   UNL A   1      39.611  31.276  32.639  1.00  0.00     0.167 HD
ATOM     60  C   UNL A   1      40.647  28.373  29.482  1.00  0.00     0.037 A 
ATOM     61  C   UNL A   1      39.717  32.330  35.218  1.00  0.00     0.037 A 
ATOM     62  C   UNL A   1      41.596  28.149  30.538  1.00  0.00     0.049 A 
ATOM     63  C   UNL A   1      40.814  31.306  35.124  1.00  0.00     0.074 A 
ATOM     64  C   UNL A   1      42.674  27.283  30.559  1.00  0.00     0.029 A 
ATOM     65  N   UNL A   1      41.583  28.807  31.758  1.00  0.00    -0.354 N 
ATOM     66  N   UNL A   1      41.123  30.516  34.122  1.00  0.00    -0.248 NA
ATOM     67  C   UNL A   1      41.674  31.146  36.303  1.00  0.00     0.031 C 
ATOM     68  C   UNL A   1      43.288  27.387  31.810  1.00  0.00     0.029 A 
ATOM     69  C   UNL A   1      42.624  28.354  32.549  1.00  0.00     0.049 A 
ATOM     70  H   UNL A   1      40.931  29.495  32.023  1.00  0.00     0.167 HD
ATOM     71  C   UNL A   1      42.229  29.787  34.539  1.00  0.00     0.074 A 
ATOM     72  C   UNL A   1      42.544  30.241  35.879  1.00  0.00     0.031 C 
ATOM     73  C   UNL A   1      42.922  28.829  33.876  1.00  0.00     0.037 A 
BRANCH  60  74
ATOM     74  C   UNL A   1      40.723  27.525  28.245  1.00  0.00     0.057 A 
ATOM     75  C   UNL A   1      41.503  27.889  27.137  1.00  0.00     0.134 A 
ATOM     76  C   UNL A   1      40.016  26.319  28.162  1.00  0.00     0.134 A 
ATOM     77  F   UNL A   1      42.195  29.039  27.141  1.00  0.00    -0.206 F 
ATOM     78  C   UNL A   1      41.545  27.106  25.982  1.00  0.00     0.040 A 
ATOM     79  C   UNL A   1      40.078  25.510  27.026  1.00  0.00     0.040 A 
ATOM     80  F   UNL A   1      39.254  25.903  29.186  1.00  0.00    -0.206 F 
ATOM     81  C   UNL A   1      40.836  25.909  25.927  1.00  0.00     0.006 A 
ENDBRANCH  60  74
BRANCH  61  82
ATOM     82  C   UNL A   1      39.512  33.123  36.457  1.00  0.00     0.057 A 
ATOM     83  C   UNL A   1      40.175  34.340  36.651  1.00  0.00     0.134 A 
ATOM     84  C   UNL A   1      38.642  32.696  37.467  1.00  0.00     0.134 A 
ATOM     85  F   UNL A   1      41.032  34.797  35.725  1.00  0.00    -0.206 F 
ATOM     86  C   UNL A   1      39.997  35.095  37.812  1.00  0.00     0.040 A 
ATOM     87  C   UNL A   1      38.434  33.454  38.622  1.00  0.00     0.040 A 
ATOM     88  F   UNL A   1      37.966  31.545  37.337  1.00  0.00    -0.206 F 
ATOM     89  C   UNL A   1      39.119  34.654  38.799  1.00  0.00     0.006 A 
ENDBRANCH  61  82
BRANCH  73  90
ATOM     90  C   UNL A   1      44.108  28.235  34.574  1.00  0.00     0.057 A 
ATOM     91  C   UNL A   1      45.379  28.818  34.498  1.00  0.00     0.134 A 
ATOM     92  C   UNL A   1      43.965  27.094  35.374  1.00  0.00     0.134 A 
ATOM     93  F   UNL A   1      45.585  29.907  33.739  1.00  0.00    -0.206 F 
ATOM     94  C   UNL A   1      46.472  28.272  35.173  1.00  0.00     0.040 A 
ATOM     95  C   UNL A   1      45.042  26.558  36.077  1.00  0.00     0.040 A 
ATOM     96  F   UNL A   1      42.770  26.496  35.498  1.00  0.00    -0.206 F 
ATOM     97  C   UNL A   1      46.301  27.144  35.974  1.00  0.00     0.006 A 
ENDBRANCH  73  90
ENDBRANCH  47  48
ENDBRANCH  39  42
ENDBRANCH  37  38
ENDBRANCH  36  37
ENDBRANCH  35  36
ENDBRANCH  34  35
ENDBRANCH   1  34
TORSDOF 19
ENDMDL
MODEL 2
REMARK VINA RESULT:     -11.9      1.639      3.227
REMARK SMILES CC1(C)C[C@@H]([C@H](CCNC(=O)c2ccccc2C(=O)NCCCCCCNC(=O)c2ccc(-c3c4nc(c(-c5c(F)cccc5F)c5ccc([nH]5)c(-c5c(F)cccc5F)c5nc(c(-c6c(F)cccc6F)c6ccc3[nH]6)C=C5)C=C4)cc2)c2ccccc2)CCO1
REMARK SMILES IDX 22 1 21 2 20 3 18 4 19 5 17 7 12 8 13 9 14 10 16 11 15 12
REMARK SMILES IDX 10 13 9 14 11 16 8 17 7 18 6 19 5 20 1 21 2 22 3 23 4 24
REMARK SMILES IDX 92 25 91 26 90 27 84 28 85 29 89 30 86 31 88 32 87 33 23 34
REMARK SMILES IDX 24 35 25 36 26 37 27 38 28 39 29 41 30 42 31 43 83 44 32 45
REMARK SMILES IDX 82 46 33 47 34 48 35 49 76 50 36 51 81 52 75 53 77 54 37 55
REMARK SMILES IDX 80 56 74 57 73 58 38 60 64 61 47 62 63 63 48 64 51 65 62 66
REMARK SMILES IDX 78 67 49 68 50 69 61 71 79 72 52 73 39 74 40 75 45 76 41 77
REMARK SMILES IDX 42 78 44 79 46 80 43 81 65 82 66 83 71 84 67 85 68 86 70 87
REMARK SMILES IDX 72 88 69 89 53 90 54 91 59 92 55 93 56 94 58 95 60 96 57 97
REMARK H PARENT 20 6 9 15 27 40 77 59 51 70
REMARK Flexibility Score: inf
ROOT
ATOM      1  C   UNL A   1      34.036  28.438  26.749  1.00  0.00     0.021 C 
ENDROOT
BRANCH   1   2
ATOM      2  C   UNL A   1      32.555  28.062  26.694  1.00  0.00     0.116 C 
BRANCH   2   3
ATOM      3  N   UNL A   1      31.752  28.957  25.880  1.00  0.00    -0.352 N 
ATOM      4  C   UNL A   1      31.268  28.818  24.604  1.00  0.00     0.252 C 
ATOM      5  O   UNL A   1      30.568  29.726  24.151  1.00  0.00    -0.269 OA
ATOM      6  H   UNL A   1      31.517  29.807  26.317  1.00  0.00     0.163 HD
BRANCH   4   7
ATOM      7  C   UNL A   1      31.583  27.669  23.719  1.00  0.00     0.052 A 
ATOM      8  C   UNL A   1      30.845  26.490  23.587  1.00  0.00     0.052 A 
ATOM      9  C   UNL A   1      31.340  25.438  22.790  1.00  0.00     0.014 A 
ATOM     10  C   UNL A   1      32.495  25.599  22.029  1.00  0.00     0.001 A 
ATOM     11  C   UNL A   1      32.721  27.835  22.902  1.00  0.00     0.014 A 
ATOM     12  C   UNL A   1      33.165  26.815  22.055  1.00  0.00     0.001 A 
BRANCH   8  13
ATOM     13  C   UNL A   1      29.520  26.226  24.172  1.00  0.00     0.252 C 
ATOM     14  N   UNL A   1      29.390  25.629  25.398  1.00  0.00    -0.352 N 
ATOM     15  H   UNL A   1      28.488  25.665  25.789  1.00  0.00     0.163 HD
ATOM     16  O   UNL A   1      28.520  26.634  23.583  1.00  0.00    -0.269 OA
BRANCH  14  17
ATOM     17  C   UNL A   1      30.393  24.949  26.209  1.00  0.00     0.117 C 
BRANCH  17  18
ATOM     18  C   UNL A   1      30.696  23.511  25.773  1.00  0.00     0.030 C 
BRANCH  18  19
ATOM     19  C   UNL A   1      32.114  23.139  25.206  1.00  0.00     0.024 C 
BRANCH  19  20
ATOM     20  C   UNL A   1      33.339  23.478  26.130  1.00  0.00     0.002 C 
ATOM     21  C   UNL A   1      35.311  22.928  23.303  1.00  0.00     0.042 C 
ATOM     22  C   UNL A   1      35.559  23.143  24.801  1.00  0.00     0.063 C 
ATOM     23  C   UNL A   1      36.975  23.728  24.946  1.00  0.00     0.042 C 
ATOM     24  C   UNL A   1      34.529  24.118  25.383  1.00  0.00     0.039 C 
ATOM     25  O   UNL A   1      35.505  21.857  25.427  1.00  0.00    -0.376 OA
ATOM     26  C   UNL A   1      35.196  21.857  26.816  1.00  0.00     0.161 C 
ATOM     27  C   UNL A   1      33.791  22.396  27.115  1.00  0.00     0.033 C 
ENDBRANCH  19  20
BRANCH  19  28
ATOM     28  C   UNL A   1      32.076  21.803  24.433  1.00  0.00    -0.045 A 
ATOM     29  C   UNL A   1      32.273  20.534  24.995  1.00  0.00     0.004 A 
ATOM     30  C   UNL A   1      31.916  21.834  23.037  1.00  0.00     0.004 A 
ATOM     31  C   UNL A   1      32.447  19.381  24.228  1.00  0.00     0.000 A 
ATOM     32  C   UNL A   1      32.046  20.674  22.258  1.00  0.00     0.000 A 
ATOM     33  C   UNL A   1      32.348  19.453  22.851  1.00  0.00     0.000 A 
ENDBRANCH  19  28
ENDBRANCH  18  19
ENDBRANCH  17  18
ENDBRANCH  14  17
ENDBRANCH   8  13
ENDBRANCH   4   7
ENDBRANCH   2   3
ENDBRANCH   1   2
BRANCH   1  34
ATOM     34  C   UNL A   1      34.404  29.550  27.737  1.00  0.00     0.002 C 
BRANCH  34  35
ATOM     35  C   UNL A   1      34.182  30.977  27.243  1.00  0.00     0.002 C 
BRANCH  35  36
ATOM     36  C   UNL A   1      32.915  31.692  27.660  1.00  0.00     0.021 C 
BRANCH  36  37
ATOM     37  C   UNL A   1      32.706  32.997  26.923  1.00  0.00     0.116 C 
BRANCH  37  38
ATOM     38  N   UNL A   1      32.501  34.126  27.830  1.00  0.00    -0.352 N 
ATOM     39  C   UNL A   1      33.187  34.535  28.952  1.00  0.00     0.251 C 
ATOM     40  H   UNL A   1      31.735  34.698  27.596  1.00  0.00     0.163 HD
ATOM     41  O   UNL A   1      32.706  35.396  29.679  1.00  0.00    -0.269 OA
BRANCH  39  42
ATOM     42  C   UNL A   1      34.488  33.924  29.296  1.00  0.00     0.039 A 
ATOM     43  C   UNL A   1      35.640  34.279  28.587  1.00  0.00     0.014 A 
ATOM     44  C   UNL A   1      34.576  32.991  30.322  1.00  0.00     0.014 A 
ATOM     45  C   UNL A   1      36.878  33.757  28.974  1.00  0.00     0.010 A 
ATOM     46  C   UNL A   1      35.812  32.625  30.820  1.00  0.00     0.010 A 
ATOM     47  C   UNL A   1      36.979  32.963  30.127  1.00  0.00    -0.014 A 
BRANCH  47  48
ATOM     48  C   UNL A   1      38.266  32.407  30.615  1.00  0.00     0.031 A 
ATOM     49  C   UNL A   1      38.813  31.149  29.986  1.00  0.00     0.074 A 
ATOM     50  C   UNL A   1      38.875  32.953  31.685  1.00  0.00     0.049 A 
ATOM     51  N   UNL A   1      39.815  30.398  30.366  1.00  0.00    -0.248 NA
ATOM     52  C   UNL A   1      38.097  30.629  28.806  1.00  0.00     0.031 C 
ATOM     53  C   UNL A   1      38.404  34.124  32.428  1.00  0.00     0.029 A 
ATOM     54  N   UNL A   1      40.018  32.581  32.345  1.00  0.00    -0.354 N 
ATOM     55  C   UNL A   1      39.809  29.303  29.508  1.00  0.00     0.074 A 
ATOM     56  C   UNL A   1      38.663  29.445  28.642  1.00  0.00     0.031 C 
ATOM     57  C   UNL A   1      39.268  34.393  33.419  1.00  0.00     0.029 A 
ATOM     58  C   UNL A   1      40.326  33.389  33.412  1.00  0.00     0.049 A 
ATOM     59  H   UNL A   1      40.566  31.807  32.080  1.00  0.00     0.167 HD
ATOM     60  C   UNL A   1      40.700  28.288  29.423  1.00  0.00     0.037 A 
ATOM     61  C   UNL A   1      41.344  33.320  34.289  1.00  0.00     0.037 A 
ATOM     62  C   UNL A   1      41.878  28.196  30.242  1.00  0.00     0.049 A 
ATOM     63  C   UNL A   1      42.355  32.216  34.143  1.00  0.00     0.074 A 
ATOM     64  C   UNL A   1      42.903  27.271  30.178  1.00  0.00     0.029 A 
ATOM     65  N   UNL A   1      42.189  29.074  31.270  1.00  0.00    -0.354 N 
ATOM     66  N   UNL A   1      42.382  31.230  33.278  1.00  0.00    -0.248 NA
ATOM     67  C   UNL A   1      43.479  32.219  35.088  1.00  0.00     0.031 C 
ATOM     68  C   UNL A   1      43.814  27.564  31.197  1.00  0.00     0.029 A 
ATOM     69  C   UNL A   1      43.383  28.701  31.861  1.00  0.00     0.049 A 
ATOM     70  H   UNL A   1      41.642  29.847  31.538  1.00  0.00     0.167 HD
ATOM     71  C   UNL A   1      43.537  30.512  33.555  1.00  0.00     0.074 A 
ATOM     72  C   UNL A   1      44.191  31.187  34.659  1.00  0.00     0.031 C 
ATOM     73  C   UNL A   1      44.016  29.396  32.954  1.00  0.00     0.037 A 
BRANCH  60  74
ATOM     74  C   UNL A   1      40.441  27.216  28.402  1.00  0.00     0.057 A 
ATOM     75  C   UNL A   1      39.588  26.133  28.658  1.00  0.00     0.134 A 
ATOM     76  C   UNL A   1      41.042  27.274  27.139  1.00  0.00     0.134 A 
ATOM     77  F   UNL A   1      38.988  26.006  29.853  1.00  0.00    -0.206 F 
ATOM     78  C   UNL A   1      39.374  25.128  27.712  1.00  0.00     0.040 A 
ATOM     79  C   UNL A   1      40.809  26.294  26.171  1.00  0.00     0.040 A 
ATOM     80  F   UNL A   1      41.865  28.284  26.820  1.00  0.00    -0.206 F 
ATOM     81  C   UNL A   1      39.982  25.212  26.461  1.00  0.00     0.006 A 
ENDBRANCH  60  74
BRANCH  61  82
ATOM     82  C   UNL A   1      41.477  34.347  35.353  1.00  0.00     0.057 A 
ATOM     83  C   UNL A   1      42.144  35.554  35.111  1.00  0.00     0.134 A 
ATOM     84  C   UNL A   1      40.932  34.158  36.629  1.00  0.00     0.134 A 
ATOM     85  F   UNL A   1      42.700  35.789  33.912  1.00  0.00    -0.206 F 
ATOM     86  C   UNL A   1      42.282  36.527  36.102  1.00  0.00     0.040 A 
ATOM     87  C   UNL A   1      41.040  35.135  37.622  1.00  0.00     0.040 A 
ATOM     88  F   UNL A   1      40.269  33.030  36.922  1.00  0.00    -0.206 F 
ATOM     89  C   UNL A   1      41.723  36.320  37.361  1.00  0.00     0.006 A 
ENDBRANCH  61  82
BRANCH  73  90
ATOM     90  C   UNL A   1      45.324  28.857  33.451  1.00  0.00     0.057 A 
ATOM     91  C   UNL A   1      45.389  27.884  34.455  1.00  0.00     0.134 A 
ATOM     92  C   UNL A   1      46.530  29.282  32.879  1.00  0.00     0.134 A 
ATOM     93  F   UNL A   1      44.269  27.443  35.050  1.00  0.00    -0.206 F 
ATOM     94  C   UNL A   1      46.611  27.369  34.891  1.00  0.00     0.040 A 
ATOM     95  C   UNL A   1      47.755  28.754  33.286  1.00  0.00     0.040 A 
ATOM     96  F   UNL A   1      46.535  30.204  31.904  1.00  0.00    -0.206 F 
ATOM     97  C   UNL A   1      47.798  27.798  34.299  1.00  0.00     0.006 A 
ENDBRANCH  73  90
ENDBRANCH  47  48
ENDBRANCH  39  42
ENDBRANCH  37  38
ENDBRANCH  36  37
ENDBRANCH  35  36
ENDBRANCH  34  35
ENDBRANCH   1  34
TORSDOF 19
ENDMDL
MODEL 3
REMARK VINA RESULT:     -11.9      1.732      6.480
REMARK SMILES CC1(C)C[C@@H]([C@H](CCNC(=O)c2ccccc2C(=O)NCCCCCCNC(=O)c2ccc(-c3c4nc(c(-c5c(F)cccc5F)c5ccc([nH]5)c(-c5c(F)cccc5F)c5nc(c(-c6c(F)cccc6F)c6ccc3[nH]6)C=C5)C=C4)cc2)c2ccccc2)CCO1
REMARK SMILES IDX 22 1 21 2 20 3 18 4 19 5 17 7 12 8 13 9 14 10 16 11 15 12
REMARK SMILES IDX 10 13 9 14 11 16 8 17 7 18 6 19 5 20 1 21 2 22 3 23 4 24
REMARK SMILES IDX 92 25 91 26 90 27 84 28 85 29 89 30 86 31 88 32 87 33 23 34
REMARK SMILES IDX 24 35 25 36 26 37 27 38 28 39 29 41 30 42 31 43 83 44 32 45
REMARK SMILES IDX 82 46 33 47 34 48 35 49 76 50 36 51 81 52 75 53 77 54 37 55
REMARK SMILES IDX 80 56 74 57 73 58 38 60 64 61 47 62 63 63 48 64 51 65 62 66
REMARK SMILES IDX 78 67 49 68 50 69 61 71 79 72 52 73 39 74 40 75 45 76 41 77
REMARK SMILES IDX 42 78 44 79 46 80 43 81 65 82 66 83 71 84 67 85 68 86 70 87
REMARK SMILES IDX 72 88 69 89 53 90 54 91 59 92 55 93 56 94 58 95 60 96 57 97
REMARK H PARENT 20 6 9 15 27 40 77 59 51 70
REMARK Flexibility Score: inf
ROOT
ATOM      1  C   UNL A   1      34.404  28.839  26.711  1.00  0.00     0.021 C 
ENDROOT
BRANCH   1   2
ATOM      2  C   UNL A   1      32.993  28.254  26.634  1.00  0.00     0.116 C 
BRANCH   2   3
ATOM      3  N   UNL A   1      32.045  29.101  25.934  1.00  0.00    -0.352 N 
ATOM      4  C   UNL A   1      31.418  28.940  24.725  1.00  0.00     0.252 C 
ATOM      5  O   UNL A   1      30.614  29.805  24.371  1.00  0.00    -0.269 OA
ATOM      6  H   UNL A   1      31.813  29.933  26.407  1.00  0.00     0.163 HD
BRANCH   4   7
ATOM      7  C   UNL A   1      31.693  27.817  23.793  1.00  0.00     0.052 A 
ATOM      8  C   UNL A   1      30.903  26.681  23.600  1.00  0.00     0.052 A 
ATOM      9  C   UNL A   1      31.360  25.644  22.762  1.00  0.00     0.014 A 
ATOM     10  C   UNL A   1      32.532  25.784  22.023  1.00  0.00     0.001 A 
ATOM     11  C   UNL A   1      32.849  27.966  22.999  1.00  0.00     0.014 A 
ATOM     12  C   UNL A   1      33.258  26.964  22.113  1.00  0.00     0.001 A 
BRANCH   8  13
ATOM     13  C   UNL A   1      29.559  26.454  24.155  1.00  0.00     0.252 C 
ATOM     14  N   UNL A   1      29.385  25.844  25.370  1.00  0.00    -0.352 N 
ATOM     15  H   UNL A   1      28.477  25.905  25.745  1.00  0.00     0.163 HD
ATOM     16  O   UNL A   1      28.585  26.904  23.554  1.00  0.00    -0.269 OA
BRANCH  14  17
ATOM     17  C   UNL A   1      30.348  25.119  26.189  1.00  0.00     0.117 C 
BRANCH  17  18
ATOM     18  C   UNL A   1      30.642  23.692  25.713  1.00  0.00     0.030 C 
BRANCH  18  19
ATOM     19  C   UNL A   1      32.066  23.319  25.163  1.00  0.00     0.024 C 
BRANCH  19  20
ATOM     20  C   UNL A   1      33.281  23.664  26.098  1.00  0.00     0.002 C 
ATOM     21  C   UNL A   1      35.293  22.975  23.330  1.00  0.00     0.042 C 
ATOM     22  C   UNL A   1      35.518  23.237  24.825  1.00  0.00     0.063 C 
ATOM     23  C   UNL A   1      36.943  23.797  24.976  1.00  0.00     0.042 C 
ATOM     24  C   UNL A   1      34.498  24.253  25.353  1.00  0.00     0.039 C 
ATOM     25  O   UNL A   1      35.425  21.974  25.493  1.00  0.00    -0.376 OA
ATOM     26  C   UNL A   1      35.090  22.029  26.875  1.00  0.00     0.161 C 
ATOM     27  C   UNL A   1      33.692  22.607  27.128  1.00  0.00     0.033 C 
ENDBRANCH  19  20
BRANCH  19  28
ATOM     28  C   UNL A   1      32.038  21.979  24.397  1.00  0.00    -0.045 A 
ATOM     29  C   UNL A   1      32.209  20.711  24.971  1.00  0.00     0.004 A 
ATOM     30  C   UNL A   1      31.916  22.003  22.996  1.00  0.00     0.004 A 
ATOM     31  C   UNL A   1      32.395  19.553  24.214  1.00  0.00     0.000 A 
ATOM     32  C   UNL A   1      32.058  20.838  22.227  1.00  0.00     0.000 A 
ATOM     33  C   UNL A   1      32.333  19.617  22.835  1.00  0.00     0.000 A 
ENDBRANCH  19  28
ENDBRANCH  18  19
ENDBRANCH  17  18
ENDBRANCH  14  17
ENDBRANCH   8  13
ENDBRANCH   4   7
ENDBRANCH   2   3
ENDBRANCH   1   2
BRANCH   1  34
ATOM     34  C   UNL A   1      34.697  29.705  27.940  1.00  0.00     0.002 C 
BRANCH  34  35
ATOM     35  C   UNL A   1      34.697  31.213  27.705  1.00  0.00     0.002 C 
BRANCH  35  36
ATOM     36  C   UNL A   1      33.404  31.972  27.914  1.00  0.00     0.021 C 
BRANCH  36  37
ATOM     37  C   UNL A   1      33.489  33.414  27.465  1.00  0.00     0.116 C 
BRANCH  37  38
ATOM     38  N   UNL A   1      33.083  34.352  28.512  1.00  0.00    -0.352 N 
ATOM     39  C   UNL A   1      33.510  34.516  29.810  1.00  0.00     0.251 C 
ATOM     40  H   UNL A   1      32.377  34.981  28.238  1.00  0.00     0.163 HD
ATOM     41  O   UNL A   1      32.875  35.233  30.574  1.00  0.00    -0.269 OA
BRANCH  39  42
ATOM     42  C   UNL A   1      34.716  33.812  30.294  1.00  0.00     0.039 A 
ATOM     43  C   UNL A   1      34.606  32.814  31.266  1.00  0.00     0.014 A 
ATOM     44  C   UNL A   1      35.969  34.141  29.789  1.00  0.00     0.014 A 
ATOM     45  C   UNL A   1      35.743  32.099  31.656  1.00  0.00     0.010 A 
ATOM     46  C   UNL A   1      37.051  33.316  30.033  1.00  0.00     0.010 A 
ATOM     47  C   UNL A   1      36.968  32.313  31.004  1.00  0.00    -0.014 A 
BRANCH  47  48
ATOM     48  C   UNL A   1      38.204  31.565  31.342  1.00  0.00     0.031 A 
ATOM     49  C   UNL A   1      39.055  32.029  32.499  1.00  0.00     0.074 A 
ATOM     50  C   UNL A   1      38.621  30.558  30.552  1.00  0.00     0.049 A 
ATOM     51  N   UNL A   1      40.252  31.640  32.859  1.00  0.00    -0.248 NA
ATOM     52  C   UNL A   1      38.515  33.125  33.326  1.00  0.00     0.031 C 
ATOM     53  C   UNL A   1      37.926  30.066  29.360  1.00  0.00     0.029 A 
ATOM     54  N   UNL A   1      39.745  29.775  30.625  1.00  0.00    -0.354 N 
ATOM     55  C   UNL A   1      40.618  32.475  33.909  1.00  0.00     0.074 A 
ATOM     56  C   UNL A   1      39.556  33.439  34.078  1.00  0.00     0.031 C 
ATOM     57  C   UNL A   1      38.621  29.044  28.835  1.00  0.00     0.029 A 
ATOM     58  C   UNL A   1      39.832  28.841  29.622  1.00  0.00     0.049 A 
ATOM     59  H   UNL A   1      40.426  29.874  31.329  1.00  0.00     0.167 HD
ATOM     60  C   UNL A   1      41.722  32.421  34.690  1.00  0.00     0.037 A 
ATOM     61  C   UNL A   1      40.787  27.928  29.364  1.00  0.00     0.037 A 
ATOM     62  C   UNL A   1      42.736  31.411  34.560  1.00  0.00     0.049 A 
ATOM     63  C   UNL A   1      41.979  27.848  30.277  1.00  0.00     0.074 A 
ATOM     64  C   UNL A   1      43.845  31.195  35.356  1.00  0.00     0.029 A 
ATOM     65  N   UNL A   1      42.754  30.440  33.570  1.00  0.00    -0.354 N 
ATOM     66  N   UNL A   1      42.276  28.593  31.315  1.00  0.00    -0.248 NA
ATOM     67  C   UNL A   1      42.964  26.798  29.989  1.00  0.00     0.031 C 
ATOM     68  C   UNL A   1      44.559  30.118  34.821  1.00  0.00     0.029 A 
ATOM     69  C   UNL A   1      43.866  29.632  33.724  1.00  0.00     0.049 A 
ATOM     70  H   UNL A   1      42.075  30.340  32.864  1.00  0.00     0.167 HD
ATOM     71  C   UNL A   1      43.466  28.086  31.820  1.00  0.00     0.074 A 
ATOM     72  C   UNL A   1      43.826  26.959  30.982  1.00  0.00     0.031 C 
ATOM     73  C   UNL A   1      44.196  28.511  32.880  1.00  0.00     0.037 A 
BRANCH  60  74
ATOM     74  C   UNL A   1      41.873  33.469  35.756  1.00  0.00     0.057 A 
ATOM     75  C   UNL A   1      42.568  34.666  35.531  1.00  0.00     0.134 A 
ATOM     76  C   UNL A   1      41.305  33.285  37.023  1.00  0.00     0.134 A 
ATOM     77  F   UNL A   1      43.149  34.904  34.345  1.00  0.00    -0.206 F 
ATOM     78  C   UNL A   1      42.725  35.622  36.538  1.00  0.00     0.040 A 
ATOM     79  C   UNL A   1      41.426  34.248  38.027  1.00  0.00     0.040 A 
ATOM     80  F   UNL A   1      40.621  32.167  37.308  1.00  0.00    -0.206 F 
ATOM     81  C   UNL A   1      42.147  35.416  37.788  1.00  0.00     0.006 A 
ENDBRANCH  60  74
BRANCH  61  82
ATOM     82  C   UNL A   1      40.634  26.997  28.218  1.00  0.00     0.057 A 
ATOM     83  C   UNL A   1      39.793  25.881  28.304  1.00  0.00     0.134 A 
ATOM     84  C   UNL A   1      41.307  27.203  27.009  1.00  0.00     0.134 A 
ATOM     85  F   UNL A   1      39.130  25.622  29.443  1.00  0.00    -0.206 F 
ATOM     86  C   UNL A   1      39.641  24.992  27.238  1.00  0.00     0.040 A 
ATOM     87  C   UNL A   1      41.144  26.337  25.924  1.00  0.00     0.040 A 
ATOM     88  F   UNL A   1      42.117  28.261  26.856  1.00  0.00    -0.206 F 
ATOM     89  C   UNL A   1      40.315  25.224  26.041  1.00  0.00     0.006 A 
ENDBRANCH  61  82
BRANCH  73  90
ATOM     90  C   UNL A   1      45.434  27.734  33.215  1.00  0.00     0.057 A 
ATOM     91  C   UNL A   1      46.691  28.094  32.714  1.00  0.00     0.134 A 
ATOM     92  C   UNL A   1      45.373  26.643  34.091  1.00  0.00     0.134 A 
ATOM     93  F   UNL A   1      46.815  29.123  31.861  1.00  0.00    -0.206 F 
ATOM     94  C   UNL A   1      47.841  27.380  33.053  1.00  0.00     0.040 A 
ATOM     95  C   UNL A   1      46.519  25.941  34.462  1.00  0.00     0.040 A 
ATOM     96  F   UNL A   1      44.200  26.256  34.616  1.00  0.00    -0.206 F 
ATOM     97  C   UNL A   1      47.757  26.306  33.938  1.00  0.00     0.006 A 
ENDBRANCH  73  90
ENDBRANCH  47  48
ENDBRANCH  39  42
ENDBRANCH  37  38
ENDBRANCH  36  37
ENDBRANCH  35  36
ENDBRANCH  34  35
ENDBRANCH   1  34
TORSDOF 19
ENDMDL
