MODEL 1
REMARK VINA RESULT:     -11.2      0.000      0.000
REMARK SMILES CN(c1ccccc1C(=O)NCCCCCCNC(=O)c1ccc(-c2c3nc(c(-c4c(F)cccc4F)c4ccc([nH]4)c(-c4c(F)cccc4F)c4nc(c(-c5c(F)cccc5F)c5ccc2[nH]5)C=C4)C=C3)cc1)S(=O)(=O)c1ccc(I)cc1
REMARK SMILES IDX 14 1 13 2 12 3 11 4 9 5 10 6 8 8 3 9 4 10 5 11 7 12 6 13
REMARK SMILES IDX 2 14 1 15 75 16 76 17 77 18 78 19 79 20 84 21 80 22 83 23
REMARK SMILES IDX 81 24 82 25 15 26 16 27 17 28 18 29 19 30 20 32 21 33 22 34
REMARK SMILES IDX 74 35 23 36 73 37 24 38 25 39 26 40 67 41 27 42 72 43 66 44
REMARK SMILES IDX 68 45 28 46 71 47 65 48 64 49 29 51 55 52 38 53 54 54 39 55
REMARK SMILES IDX 42 56 53 57 69 58 40 59 41 60 52 62 70 63 43 64 30 65 31 66
REMARK SMILES IDX 36 67 32 68 33 69 35 70 37 71 34 72 56 73 57 74 62 75 58 76
REMARK SMILES IDX 59 77 61 78 63 79 60 80 44 81 45 82 50 83 46 84 47 85 49 86
REMARK SMILES IDX 51 87 48 88
REMARK H PARENT 11 7 18 31 68 50 42 61
REMARK Flexibility Score: inf
ROOT
ATOM      1  C   UNL A   1      33.253  28.486  26.985  1.00  0.00     0.002 C 
ENDROOT
BRANCH   1   2
ATOM      2  C   UNL A   1      33.542  27.887  25.600  1.00  0.00     0.021 C 
BRANCH   2   3
ATOM      3  C   UNL A   1      34.001  26.432  25.557  1.00  0.00     0.116 C 
BRANCH   3   4
ATOM      4  N   UNL A   1      33.993  25.850  24.236  1.00  0.00    -0.352 N 
ATOM      5  C   UNL A   1      34.349  24.612  23.772  1.00  0.00     0.253 C 
ATOM      6  O   UNL A   1      34.192  24.424  22.561  1.00  0.00    -0.269 OA
ATOM      7  H   UNL A   1      33.669  26.461  23.535  1.00  0.00     0.163 HD
BRANCH   5   8
ATOM      8  C   UNL A   1      34.941  23.490  24.568  1.00  0.00     0.064 A 
ATOM      9  C   UNL A   1      34.343  22.264  24.934  1.00  0.00     0.064 A 
ATOM     10  C   UNL A   1      35.158  21.224  25.425  1.00  0.00     0.028 A 
ATOM     11  C   UNL A   1      36.510  21.428  25.697  1.00  0.00     0.002 A 
ATOM     12  C   UNL A   1      36.313  23.671  24.856  1.00  0.00     0.016 A 
ATOM     13  C   UNL A   1      37.084  22.662  25.435  1.00  0.00     0.001 A 
BRANCH   9  14
ATOM     14  N   UNL A   1      32.946  22.011  24.712  1.00  0.00    -0.269 N 
ATOM     15  C   UNL A   1      32.655  20.569  24.441  1.00  0.00     0.164 C 
BRANCH  14  16
ATOM     16  S   UNL A   1      31.739  22.739  25.688  1.00  0.00     0.264 S 
ATOM     17  O   UNL A   1      30.687  21.748  25.811  1.00  0.00    -0.201 OA
ATOM     18  O   UNL A   1      32.394  23.250  26.878  1.00  0.00    -0.201 OA
BRANCH  16  19
ATOM     19  C   UNL A   1      30.965  24.153  24.912  1.00  0.00     0.088 A 
ATOM     20  C   UNL A   1      30.642  25.210  25.782  1.00  0.00     0.023 A 
ATOM     21  C   UNL A   1      30.765  24.320  23.543  1.00  0.00     0.023 A 
ATOM     22  C   UNL A   1      30.196  26.437  25.283  1.00  0.00     0.016 A 
ATOM     23  C   UNL A   1      30.349  25.560  23.039  1.00  0.00     0.016 A 
ATOM     24  C   UNL A   1      30.081  26.618  23.908  1.00  0.00     0.013 A 
ATOM     25  I   UNL A   1      29.540  28.473  23.148  1.00  0.00    -0.044 I 
ENDBRANCH  16  19
ENDBRANCH  14  16
ENDBRANCH   9  14
ENDBRANCH   5   8
ENDBRANCH   3   4
ENDBRANCH   2   3
ENDBRANCH   1   2
BRANCH   1  26
ATOM     26  C   UNL A   1      31.849  29.025  27.282  1.00  0.00     0.002 C 
BRANCH  26  27
ATOM     27  C   UNL A   1      31.501  30.443  26.828  1.00  0.00     0.021 C 
BRANCH  27  28
ATOM     28  C   UNL A   1      32.641  31.448  26.733  1.00  0.00     0.116 C 
BRANCH  28  29
ATOM     29  N   UNL A   1      32.300  32.765  27.241  1.00  0.00    -0.352 N 
ATOM     30  C   UNL A   1      33.010  33.604  28.067  1.00  0.00     0.251 C 
ATOM     31  H   UNL A   1      31.426  33.110  26.949  1.00  0.00     0.163 HD
ATOM     32  O   UNL A   1      32.502  34.663  28.432  1.00  0.00    -0.269 OA
BRANCH  30  33
ATOM     33  C   UNL A   1      34.362  33.241  28.558  1.00  0.00     0.039 A 
ATOM     34  C   UNL A   1      34.458  32.460  29.717  1.00  0.00     0.014 A 
ATOM     35  C   UNL A   1      35.527  33.675  27.923  1.00  0.00     0.014 A 
ATOM     36  C   UNL A   1      35.710  32.061  30.196  1.00  0.00     0.010 A 
ATOM     37  C   UNL A   1      36.773  33.230  28.365  1.00  0.00     0.010 A 
ATOM     38  C   UNL A   1      36.877  32.415  29.503  1.00  0.00    -0.014 A 
BRANCH  38  39
ATOM     39  C   UNL A   1      38.217  31.953  29.951  1.00  0.00     0.031 A 
ATOM     40  C   UNL A   1      38.778  30.658  29.439  1.00  0.00     0.074 A 
ATOM     41  C   UNL A   1      38.900  32.661  30.871  1.00  0.00     0.049 A 
ATOM     42  N   UNL A   1      39.859  30.018  29.810  1.00  0.00    -0.248 NA
ATOM     43  C   UNL A   1      38.012  29.982  28.380  1.00  0.00     0.031 C 
ATOM     44  C   UNL A   1      38.465  33.928  31.462  1.00  0.00     0.029 A 
ATOM     45  N   UNL A   1      40.101  32.403  31.483  1.00  0.00    -0.354 N 
ATOM     46  C   UNL A   1      39.888  28.855  29.053  1.00  0.00     0.074 A 
ATOM     47  C   UNL A   1      38.704  28.865  28.218  1.00  0.00     0.031 C 
ATOM     48  C   UNL A   1      39.391  34.342  32.343  1.00  0.00     0.029 A 
ATOM     49  C   UNL A   1      40.463  33.353  32.408  1.00  0.00     0.049 A 
ATOM     50  H   UNL A   1      40.652  31.613  31.279  1.00  0.00     0.167 HD
ATOM     51  C   UNL A   1      40.819  27.872  29.046  1.00  0.00     0.037 A 
ATOM     52  C   UNL A   1      41.529  33.412  33.228  1.00  0.00     0.037 A 
ATOM     53  C   UNL A   1      42.013  27.873  29.849  1.00  0.00     0.049 A 
ATOM     54  C   UNL A   1      42.544  32.305  33.209  1.00  0.00     0.074 A 
ATOM     55  C   UNL A   1      43.034  26.939  29.880  1.00  0.00     0.029 A 
ATOM     56  N   UNL A   1      42.350  28.864  30.759  1.00  0.00    -0.354 N 
ATOM     57  N   UNL A   1      42.567  31.220  32.476  1.00  0.00    -0.248 NA
ATOM     58  C   UNL A   1      43.680  32.431  34.135  1.00  0.00     0.031 C 
ATOM     59  C   UNL A   1      43.979  27.353  30.825  1.00  0.00     0.029 A 
ATOM     60  C   UNL A   1      43.559  28.559  31.362  1.00  0.00     0.049 A 
ATOM     61  H   UNL A   1      41.810  29.665  30.947  1.00  0.00     0.167 HD
ATOM     62  C   UNL A   1      43.729  30.547  32.830  1.00  0.00     0.074 A 
ATOM     63  C   UNL A   1      44.386  31.347  33.843  1.00  0.00     0.031 C 
ATOM     64  C   UNL A   1      44.208  29.374  32.354  1.00  0.00     0.037 A 
BRANCH  51  65
ATOM     65  C   UNL A   1      40.578  26.706  28.137  1.00  0.00     0.057 A 
ATOM     66  C   UNL A   1      41.251  26.573  26.916  1.00  0.00     0.134 A 
ATOM     67  C   UNL A   1      39.679  25.694  28.497  1.00  0.00     0.134 A 
ATOM     68  F   UNL A   1      42.113  27.516  26.510  1.00  0.00    -0.206 F 
ATOM     69  C   UNL A   1      41.022  25.485  26.073  1.00  0.00     0.040 A 
ATOM     70  C   UNL A   1      39.458  24.590  27.671  1.00  0.00     0.040 A 
ATOM     71  F   UNL A   1      39.006  25.760  29.655  1.00  0.00    -0.206 F 
ATOM     72  C   UNL A   1      40.126  24.487  26.453  1.00  0.00     0.006 A 
ENDBRANCH  51  65
BRANCH  52  73
ATOM     73  C   UNL A   1      41.700  34.573  34.133  1.00  0.00     0.057 A 
ATOM     74  C   UNL A   1      42.338  35.738  33.691  1.00  0.00     0.134 A 
ATOM     75  C   UNL A   1      41.236  34.549  35.453  1.00  0.00     0.134 A 
ATOM     76  F   UNL A   1      42.821  35.808  32.442  1.00  0.00    -0.206 F 
ATOM     77  C   UNL A   1      42.516  36.836  34.531  1.00  0.00     0.040 A 
ATOM     78  C   UNL A   1      41.393  35.647  36.300  1.00  0.00     0.040 A 
ATOM     79  F   UNL A   1      40.617  33.461  35.933  1.00  0.00    -0.206 F 
ATOM     80  C   UNL A   1      42.038  36.794  35.840  1.00  0.00     0.006 A 
ENDBRANCH  52  73
BRANCH  64  81
ATOM     81  C   UNL A   1      45.526  28.903  32.889  1.00  0.00     0.057 A 
ATOM     82  C   UNL A   1      45.609  28.058  34.001  1.00  0.00     0.134 A 
ATOM     83  C   UNL A   1      46.721  29.265  32.254  1.00  0.00     0.134 A 
ATOM     84  F   UNL A   1      44.500  27.688  34.658  1.00  0.00    -0.206 F 
ATOM     85  C   UNL A   1      46.840  27.594  34.470  1.00  0.00     0.040 A 
ATOM     86  C   UNL A   1      47.954  28.795  32.704  1.00  0.00     0.040 A 
ATOM     87  F   UNL A   1      46.705  30.070  31.182  1.00  0.00    -0.206 F 
ATOM     88  C   UNL A   1      48.016  27.958  33.817  1.00  0.00     0.006 A 
ENDBRANCH  64  81
ENDBRANCH  38  39
ENDBRANCH  30  33
ENDBRANCH  28  29
ENDBRANCH  27  28
ENDBRANCH  26  27
ENDBRANCH   1  26
TORSDOF 16
ENDMDL
MODEL 2
REMARK VINA RESULT:     -11.2      3.963      8.810
REMARK SMILES CN(c1ccccc1C(=O)NCCCCCCNC(=O)c1ccc(-c2c3nc(c(-c4c(F)cccc4F)c4ccc([nH]4)c(-c4c(F)cccc4F)c4nc(c(-c5c(F)cccc5F)c5ccc2[nH]5)C=C4)C=C3)cc1)S(=O)(=O)c1ccc(I)cc1
REMARK SMILES IDX 14 1 13 2 12 3 11 4 9 5 10 6 8 8 3 9 4 10 5 11 7 12 6 13
REMARK SMILES IDX 2 14 1 15 75 16 76 17 77 18 78 19 79 20 84 21 80 22 83 23
REMARK SMILES IDX 81 24 82 25 15 26 16 27 17 28 18 29 19 30 20 32 21 33 22 34
REMARK SMILES IDX 74 35 23 36 73 37 24 38 25 39 26 40 67 41 27 42 72 43 66 44
REMARK SMILES IDX 68 45 28 46 71 47 65 48 64 49 29 51 55 52 38 53 54 54 39 55
REMARK SMILES IDX 42 56 53 57 69 58 40 59 41 60 52 62 70 63 43 64 30 65 31 66
REMARK SMILES IDX 36 67 32 68 33 69 35 70 37 71 34 72 56 73 57 74 62 75 58 76
REMARK SMILES IDX 59 77 61 78 63 79 60 80 44 81 45 82 50 83 46 84 47 85 49 86
REMARK SMILES IDX 51 87 48 88
REMARK H PARENT 11 7 18 31 68 50 42 61
REMARK Flexibility Score: inf
ROOT
ATOM      1  C   UNL A   1      37.022  22.064  24.174  1.00  0.00     0.002 C 
ENDROOT
BRANCH   1   2
ATOM      2  C   UNL A   1      37.166  23.314  25.056  1.00  0.00     0.021 C 
BRANCH   2   3
ATOM      3  C   UNL A   1      35.878  24.031  25.454  1.00  0.00     0.116 C 
BRANCH   3   4
ATOM      4  N   UNL A   1      35.222  23.466  26.610  1.00  0.00    -0.352 N 
ATOM      5  C   UNL A   1      34.169  22.600  26.740  1.00  0.00     0.253 C 
ATOM      6  O   UNL A   1      33.867  22.289  27.896  1.00  0.00    -0.269 OA
ATOM      7  H   UNL A   1      35.605  23.759  27.467  1.00  0.00     0.163 HD
BRANCH   5   8
ATOM      8  C   UNL A   1      33.331  22.032  25.636  1.00  0.00     0.064 A 
ATOM      9  C   UNL A   1      32.639  22.721  24.617  1.00  0.00     0.064 A 
ATOM     10  C   UNL A   1      32.155  21.998  23.508  1.00  0.00     0.028 A 
ATOM     11  C   UNL A   1      32.214  20.605  23.467  1.00  0.00     0.002 A 
ATOM     12  C   UNL A   1      33.374  20.620  25.572  1.00  0.00     0.016 A 
ATOM     13  C   UNL A   1      32.803  19.913  24.513  1.00  0.00     0.001 A 
BRANCH   9  14
ATOM     14  N   UNL A   1      32.514  24.152  24.626  1.00  0.00    -0.269 N 
ATOM     15  C   UNL A   1      32.579  24.748  23.255  1.00  0.00     0.164 C 
BRANCH  14  16
ATOM     16  S   UNL A   1      31.361  24.944  25.617  1.00  0.00     0.264 S 
ATOM     17  O   UNL A   1      30.292  25.351  24.724  1.00  0.00    -0.201 OA
ATOM     18  O   UNL A   1      31.073  24.064  26.735  1.00  0.00    -0.201 OA
BRANCH  16  19
ATOM     19  C   UNL A   1      31.976  26.461  26.338  1.00  0.00     0.088 A 
ATOM     20  C   UNL A   1      33.332  26.737  26.083  1.00  0.00     0.023 A 
ATOM     21  C   UNL A   1      31.211  27.407  27.018  1.00  0.00     0.023 A 
ATOM     22  C   UNL A   1      33.890  27.968  26.437  1.00  0.00     0.016 A 
ATOM     23  C   UNL A   1      31.762  28.654  27.344  1.00  0.00     0.016 A 
ATOM     24  C   UNL A   1      33.093  28.937  27.040  1.00  0.00     0.013 A 
ATOM     25  I   UNL A   1      33.877  30.813  27.459  1.00  0.00    -0.044 I 
ENDBRANCH  16  19
ENDBRANCH  14  16
ENDBRANCH   9  14
ENDBRANCH   5   8
ENDBRANCH   3   4
ENDBRANCH   2   3
ENDBRANCH   1   2
BRANCH   1  26
ATOM     26  C   UNL A   1      36.808  20.703  24.846  1.00  0.00     0.002 C 
BRANCH  26  27
ATOM     27  C   UNL A   1      37.982  19.725  24.905  1.00  0.00     0.021 C 
BRANCH  27  28
ATOM     28  C   UNL A   1      39.144  20.080  25.822  1.00  0.00     0.116 C 
BRANCH  28  29
ATOM     29  N   UNL A   1      40.218  19.104  25.807  1.00  0.00    -0.352 N 
ATOM     30  C   UNL A   1      41.555  19.257  26.089  1.00  0.00     0.251 C 
ATOM     31  H   UNL A   1      39.947  18.192  25.556  1.00  0.00     0.163 HD
ATOM     32  O   UNL A   1      42.314  18.300  25.950  1.00  0.00    -0.269 OA
BRANCH  30  33
ATOM     33  C   UNL A   1      42.107  20.565  26.521  1.00  0.00     0.039 A 
ATOM     34  C   UNL A   1      42.551  21.455  25.536  1.00  0.00     0.014 A 
ATOM     35  C   UNL A   1      42.224  20.915  27.869  1.00  0.00     0.014 A 
ATOM     36  C   UNL A   1      43.043  22.715  25.894  1.00  0.00     0.010 A 
ATOM     37  C   UNL A   1      42.661  22.192  28.223  1.00  0.00     0.010 A 
ATOM     38  C   UNL A   1      43.070  23.106  27.240  1.00  0.00    -0.014 A 
BRANCH  38  39
ATOM     39  C   UNL A   1      43.528  24.460  27.647  1.00  0.00     0.031 A 
ATOM     40  C   UNL A   1      42.530  25.497  28.074  1.00  0.00     0.074 A 
ATOM     41  C   UNL A   1      44.834  24.781  27.566  1.00  0.00     0.049 A 
ATOM     42  N   UNL A   1      42.713  26.768  28.331  1.00  0.00    -0.248 NA
ATOM     43  C   UNL A   1      41.135  25.049  28.212  1.00  0.00     0.031 C 
ATOM     44  C   UNL A   1      45.907  23.875  27.153  1.00  0.00     0.029 A 
ATOM     45  N   UNL A   1      45.477  25.969  27.811  1.00  0.00    -0.354 N 
ATOM     46  C   UNL A   1      41.457  27.277  28.634  1.00  0.00     0.074 A 
ATOM     47  C   UNL A   1      40.516  26.183  28.505  1.00  0.00     0.031 C 
ATOM     48  C   UNL A   1      47.076  24.536  27.186  1.00  0.00     0.029 A 
ATOM     49  C   UNL A   1      46.831  25.919  27.581  1.00  0.00     0.049 A 
ATOM     50  H   UNL A   1      45.012  26.779  28.123  1.00  0.00     0.167 HD
ATOM     51  C   UNL A   1      41.119  28.538  28.994  1.00  0.00     0.037 A 
ATOM     52  C   UNL A   1      47.766  26.885  27.662  1.00  0.00     0.037 A 
ATOM     53  C   UNL A   1      42.054  29.619  29.156  1.00  0.00     0.049 A 
ATOM     54  C   UNL A   1      47.365  28.277  28.056  1.00  0.00     0.074 A 
ATOM     55  C   UNL A   1      41.808  30.921  29.557  1.00  0.00     0.029 A 
ATOM     56  N   UNL A   1      43.419  29.521  28.931  1.00  0.00    -0.354 N 
ATOM     57  N   UNL A   1      46.177  28.741  28.356  1.00  0.00    -0.248 NA
ATOM     58  C   UNL A   1      48.436  29.284  28.120  1.00  0.00     0.031 C 
ATOM     59  C   UNL A   1      43.021  31.617  29.554  1.00  0.00     0.029 A 
ATOM     60  C   UNL A   1      44.026  30.741  29.177  1.00  0.00     0.049 A 
ATOM     61  H   UNL A   1      43.886  28.705  28.639  1.00  0.00     0.167 HD
ATOM     62  C   UNL A   1      46.359  30.080  28.670  1.00  0.00     0.074 A 
ATOM     63  C   UNL A   1      47.773  30.358  28.525  1.00  0.00     0.031 C 
ATOM     64  C   UNL A   1      45.435  30.997  29.047  1.00  0.00     0.037 A 
BRANCH  51  65
ATOM     65  C   UNL A   1      39.667  28.814  29.238  1.00  0.00     0.057 A 
ATOM     66  C   UNL A   1      39.089  28.654  30.504  1.00  0.00     0.134 A 
ATOM     67  C   UNL A   1      38.842  29.265  28.201  1.00  0.00     0.134 A 
ATOM     68  F   UNL A   1      39.825  28.210  31.534  1.00  0.00    -0.206 F 
ATOM     69  C   UNL A   1      37.736  28.912  30.725  1.00  0.00     0.040 A 
ATOM     70  C   UNL A   1      37.492  29.548  28.415  1.00  0.00     0.040 A 
ATOM     71  F   UNL A   1      39.335  29.444  26.966  1.00  0.00    -0.206 F 
ATOM     72  C   UNL A   1      36.934  29.365  29.679  1.00  0.00     0.006 A 
ENDBRANCH  51  65
BRANCH  52  73
ATOM     73  C   UNL A   1      49.184  26.563  27.377  1.00  0.00     0.057 A 
ATOM     74  C   UNL A   1      50.022  26.064  28.380  1.00  0.00     0.134 A 
ATOM     75  C   UNL A   1      49.735  26.747  26.103  1.00  0.00     0.134 A 
ATOM     76  F   UNL A   1      49.551  25.889  29.624  1.00  0.00    -0.206 F 
ATOM     77  C   UNL A   1      51.361  25.766  28.132  1.00  0.00     0.040 A 
ATOM     78  C   UNL A   1      51.069  26.437  25.836  1.00  0.00     0.040 A 
ATOM     79  F   UNL A   1      48.982  27.222  25.102  1.00  0.00    -0.206 F 
ATOM     80  C   UNL A   1      51.887  25.948  26.854  1.00  0.00     0.006 A 
ENDBRANCH  52  73
BRANCH  64  81
ATOM     81  C   UNL A   1      45.928  32.373  29.373  1.00  0.00     0.057 A 
ATOM     82  C   UNL A   1      45.972  33.386  28.409  1.00  0.00     0.134 A 
ATOM     83  C   UNL A   1      46.319  32.698  30.678  1.00  0.00     0.134 A 
ATOM     84  F   UNL A   1      45.623  33.132  27.139  1.00  0.00    -0.206 F 
ATOM     85  C   UNL A   1      46.398  34.677  28.731  1.00  0.00     0.040 A 
ATOM     86  C   UNL A   1      46.730  33.987  31.015  1.00  0.00     0.040 A 
ATOM     87  F   UNL A   1      46.295  31.770  31.646  1.00  0.00    -0.206 F 
ATOM     88  C   UNL A   1      46.772  34.981  30.038  1.00  0.00     0.006 A 
ENDBRANCH  64  81
ENDBRANCH  38  39
ENDBRANCH  30  33
ENDBRANCH  28  29
ENDBRANCH  27  28
ENDBRANCH  26  27
ENDBRANCH   1  26
TORSDOF 16
ENDMDL
MODEL 3
REMARK VINA RESULT:     -11.1      3.373      8.384
REMARK SMILES CN(c1ccccc1C(=O)NCCCCCCNC(=O)c1ccc(-c2c3nc(c(-c4c(F)cccc4F)c4ccc([nH]4)c(-c4c(F)cccc4F)c4nc(c(-c5c(F)cccc5F)c5ccc2[nH]5)C=C4)C=C3)cc1)S(=O)(=O)c1ccc(I)cc1
REMARK SMILES IDX 14 1 13 2 12 3 11 4 9 5 10 6 8 8 3 9 4 10 5 11 7 12 6 13
REMARK SMILES IDX 2 14 1 15 75 16 76 17 77 18 78 19 79 20 84 21 80 22 83 23
REMARK SMILES IDX 81 24 82 25 15 26 16 27 17 28 18 29 19 30 20 32 21 33 22 34
REMARK SMILES IDX 74 35 23 36 73 37 24 38 25 39 26 40 67 41 27 42 72 43 66 44
REMARK SMILES IDX 68 45 28 46 71 47 65 48 64 49 29 51 55 52 38 53 54 54 39 55
REMARK SMILES IDX 42 56 53 57 69 58 40 59 41 60 52 62 70 63 43 64 30 65 31 66
REMARK SMILES IDX 36 67 32 68 33 69 35 70 37 71 34 72 56 73 57 74 62 75 58 76
REMARK SMILES IDX 59 77 61 78 63 79 60 80 44 81 45 82 50 83 46 84 47 85 49 86
REMARK SMILES IDX 51 87 48 88
REMARK H PARENT 11 7 18 31 68 50 42 61
REMARK Flexibility Score: inf
ROOT
ATOM      1  C   UNL A   1      35.677  22.389  25.456  1.00  0.00     0.002 C 
ENDROOT
BRANCH   1   2
ATOM      2  C   UNL A   1      35.786  23.843  25.939  1.00  0.00     0.021 C 
BRANCH   2   3
ATOM      3  C   UNL A   1      34.775  24.838  25.372  1.00  0.00     0.116 C 
BRANCH   3   4
ATOM      4  N   UNL A   1      33.489  24.808  26.025  1.00  0.00    -0.352 N 
ATOM      5  C   UNL A   1      32.545  25.776  26.247  1.00  0.00     0.253 C 
ATOM      6  O   UNL A   1      31.520  25.406  26.828  1.00  0.00    -0.269 OA
ATOM      7  H   UNL A   1      33.243  23.924  26.380  1.00  0.00     0.163 HD
BRANCH   5   8
ATOM      8  C   UNL A   1      32.648  27.229  25.898  1.00  0.00     0.064 A 
ATOM      9  C   UNL A   1      31.979  27.934  24.873  1.00  0.00     0.064 A 
ATOM     10  C   UNL A   1      31.985  29.343  24.895  1.00  0.00     0.028 A 
ATOM     11  C   UNL A   1      32.756  30.052  25.816  1.00  0.00     0.002 A 
ATOM     12  C   UNL A   1      33.425  27.971  26.817  1.00  0.00     0.016 A 
ATOM     13  C   UNL A   1      33.497  29.364  26.764  1.00  0.00     0.001 A 
BRANCH   9  14
ATOM     14  N   UNL A   1      31.201  27.254  23.876  1.00  0.00    -0.269 N 
ATOM     15  C   UNL A   1      30.037  28.064  23.398  1.00  0.00     0.164 C 
BRANCH  14  16
ATOM     16  S   UNL A   1      31.944  26.382  22.601  1.00  0.00     0.264 S 
ATOM     17  O   UNL A   1      31.101  26.593  21.439  1.00  0.00    -0.201 OA
ATOM     18  O   UNL A   1      33.341  26.777  22.562  1.00  0.00    -0.201 OA
BRANCH  16  19
ATOM     19  C   UNL A   1      31.945  24.613  22.866  1.00  0.00     0.088 A 
ATOM     20  C   UNL A   1      33.078  23.936  22.378  1.00  0.00     0.023 A 
ATOM     21  C   UNL A   1      30.990  23.898  23.587  1.00  0.00     0.023 A 
ATOM     22  C   UNL A   1      33.286  22.585  22.671  1.00  0.00     0.016 A 
ATOM     23  C   UNL A   1      31.214  22.553  23.910  1.00  0.00     0.016 A 
ATOM     24  C   UNL A   1      32.367  21.905  23.465  1.00  0.00     0.013 A 
ATOM     25  I   UNL A   1      32.726  19.934  24.012  1.00  0.00    -0.044 I 
ENDBRANCH  16  19
ENDBRANCH  14  16
ENDBRANCH   9  14
ENDBRANCH   5   8
ENDBRANCH   3   4
ENDBRANCH   2   3
ENDBRANCH   1   2
BRANCH   1  26
ATOM     26  C   UNL A   1      36.629  21.899  24.359  1.00  0.00     0.002 C 
BRANCH  26  27
ATOM     27  C   UNL A   1      37.418  20.611  24.599  1.00  0.00     0.021 C 
BRANCH  27  28
ATOM     28  C   UNL A   1      38.343  20.571  25.808  1.00  0.00     0.116 C 
BRANCH  28  29
ATOM     29  N   UNL A   1      39.430  19.618  25.678  1.00  0.00    -0.352 N 
ATOM     30  C   UNL A   1      40.763  19.751  25.986  1.00  0.00     0.251 C 
ATOM     31  H   UNL A   1      39.173  18.740  25.314  1.00  0.00     0.163 HD
ATOM     32  O   UNL A   1      41.536  18.829  25.734  1.00  0.00    -0.269 OA
BRANCH  30  33
ATOM     33  C   UNL A   1      41.296  21.002  26.581  1.00  0.00     0.039 A 
ATOM     34  C   UNL A   1      41.796  21.986  25.718  1.00  0.00     0.014 A 
ATOM     35  C   UNL A   1      41.340  21.211  27.961  1.00  0.00     0.014 A 
ATOM     36  C   UNL A   1      42.272  23.197  26.231  1.00  0.00     0.010 A 
ATOM     37  C   UNL A   1      41.761  22.440  28.469  1.00  0.00     0.010 A 
ATOM     38  C   UNL A   1      42.228  23.446  27.610  1.00  0.00    -0.014 A 
BRANCH  38  39
ATOM     39  C   UNL A   1      42.667  24.747  28.179  1.00  0.00     0.031 A 
ATOM     40  C   UNL A   1      41.660  25.822  28.470  1.00  0.00     0.074 A 
ATOM     41  C   UNL A   1      43.979  24.989  28.369  1.00  0.00     0.049 A 
ATOM     42  N   UNL A   1      41.856  27.065  28.836  1.00  0.00    -0.248 NA
ATOM     43  C   UNL A   1      40.244  25.457  28.311  1.00  0.00     0.031 C 
ATOM     44  C   UNL A   1      45.063  24.039  28.115  1.00  0.00     0.029 A 
ATOM     45  N   UNL A   1      44.622  26.120  28.806  1.00  0.00    -0.354 N 
ATOM     46  C   UNL A   1      40.593  27.636  28.923  1.00  0.00     0.074 A 
ATOM     47  C   UNL A   1      39.640  26.611  28.550  1.00  0.00     0.031 C 
ATOM     48  C   UNL A   1      46.236  24.622  28.411  1.00  0.00     0.029 A 
ATOM     49  C   UNL A   1      45.991  25.997  28.836  1.00  0.00     0.049 A 
ATOM     50  H   UNL A   1      44.149  26.941  29.072  1.00  0.00     0.167 HD
ATOM     51  C   UNL A   1      40.258  28.895  29.289  1.00  0.00     0.037 A 
ATOM     52  C   UNL A   1      46.941  26.897  29.154  1.00  0.00     0.037 A 
ATOM     53  C   UNL A   1      41.198  29.906  29.693  1.00  0.00     0.049 A 
ATOM     54  C   UNL A   1      46.544  28.290  29.549  1.00  0.00     0.074 A 
ATOM     55  C   UNL A   1      40.947  31.199  30.118  1.00  0.00     0.029 A 
ATOM     56  N   UNL A   1      42.574  29.734  29.727  1.00  0.00    -0.354 N 
ATOM     57  N   UNL A   1      45.346  28.811  29.644  1.00  0.00    -0.248 NA
ATOM     58  C   UNL A   1      47.634  29.222  29.878  1.00  0.00     0.031 C 
ATOM     59  C   UNL A   1      42.172  31.817  30.390  1.00  0.00     0.029 A 
ATOM     60  C   UNL A   1      43.184  30.900  30.160  1.00  0.00     0.049 A 
ATOM     61  H   UNL A   1      43.046  28.906  29.481  1.00  0.00     0.167 HD
ATOM     62  C   UNL A   1      45.534  30.120  30.068  1.00  0.00     0.074 A 
ATOM     63  C   UNL A   1      46.961  30.315  30.214  1.00  0.00     0.031 C 
ATOM     64  C   UNL A   1      44.603  31.072  30.317  1.00  0.00     0.037 A 
BRANCH  51  65
ATOM     65  C   UNL A   1      38.802  29.250  29.267  1.00  0.00     0.057 A 
ATOM     66  C   UNL A   1      38.016  29.205  30.425  1.00  0.00     0.134 A 
ATOM     67  C   UNL A   1      38.185  29.661  28.079  1.00  0.00     0.134 A 
ATOM     68  F   UNL A   1      38.546  28.805  31.591  1.00  0.00    -0.206 F 
ATOM     69  C   UNL A   1      36.661  29.536  30.399  1.00  0.00     0.040 A 
ATOM     70  C   UNL A   1      36.835  30.015  28.045  1.00  0.00     0.040 A 
ATOM     71  F   UNL A   1      38.884  29.730  26.936  1.00  0.00    -0.206 F 
ATOM     72  C   UNL A   1      36.068  29.947  29.206  1.00  0.00     0.006 A 
ENDBRANCH  51  65
BRANCH  52  73
ATOM     73  C   UNL A   1      48.369  26.501  29.126  1.00  0.00     0.057 A 
ATOM     74  C   UNL A   1      49.155  26.736  27.992  1.00  0.00     0.134 A 
ATOM     75  C   UNL A   1      48.980  25.882  30.222  1.00  0.00     0.134 A 
ATOM     76  F   UNL A   1      48.616  27.307  26.906  1.00  0.00    -0.206 F 
ATOM     77  C   UNL A   1      50.498  26.362  27.945  1.00  0.00     0.040 A 
ATOM     78  C   UNL A   1      50.327  25.517  30.195  1.00  0.00     0.040 A 
ATOM     79  F   UNL A   1      48.278  25.632  31.336  1.00  0.00    -0.206 F 
ATOM     80  C   UNL A   1      51.088  25.754  29.052  1.00  0.00     0.006 A 
ENDBRANCH  52  73
BRANCH  64  81
ATOM     81  C   UNL A   1      45.094  32.397  30.815  1.00  0.00     0.057 A 
ATOM     82  C   UNL A   1      45.284  32.646  32.179  1.00  0.00     0.134 A 
ATOM     83  C   UNL A   1      45.425  33.416  29.915  1.00  0.00     0.134 A 
ATOM     84  F   UNL A   1      44.973  31.712  33.090  1.00  0.00    -0.206 F 
ATOM     85  C   UNL A   1      45.778  33.870  32.632  1.00  0.00     0.040 A 
ATOM     86  C   UNL A   1      45.934  34.638  30.354  1.00  0.00     0.040 A 
ATOM     87  F   UNL A   1      45.268  33.236  28.595  1.00  0.00    -0.206 F 
ATOM     88  C   UNL A   1      46.110  34.869  31.718  1.00  0.00     0.006 A 
ENDBRANCH  64  81
ENDBRANCH  38  39
ENDBRANCH  30  33
ENDBRANCH  28  29
ENDBRANCH  27  28
ENDBRANCH  26  27
ENDBRANCH   1  26
TORSDOF 16
ENDMDL
