MODEL 1
REMARK VINA RESULT:      -9.9      0.000      0.000
REMARK SMILES [NH3+][C@](CCC[P@TB4](=O)([O-])[O-])(Cc1ccccc1)C(=O)NCCCCCCNC(=O)c1ccc(-c2c3nc(c(-c4c(F)cccc4F)c4ccc([nH]4)c(-c4c(F)cccc4F)c4nc(c(-c5c(F)cccc5F)c5ccc2[nH]5)C=C4)C=C3)cc1
REMARK SMILES IDX 21 1 20 2 19 3 17 4 18 5 2 7 1 8 10 12 11 13 12 14 16 15
REMARK SMILES IDX 13 16 15 17 14 18 3 19 4 20 5 21 6 22 7 23 8 24 9 25 22 26
REMARK SMILES IDX 23 27 24 28 25 29 26 30 27 31 28 33 29 34 30 35 82 36 31 37
REMARK SMILES IDX 81 38 32 39 33 40 34 41 75 42 35 43 80 44 74 45 76 46 36 47
REMARK SMILES IDX 79 48 73 49 72 50 37 52 63 53 46 54 62 55 47 56 50 57 61 58
REMARK SMILES IDX 77 59 48 60 49 61 60 63 78 64 51 65 38 66 39 67 44 68 40 69
REMARK SMILES IDX 41 70 43 71 45 72 42 73 64 74 65 75 70 76 66 77 67 78 69 79
REMARK SMILES IDX 71 80 68 81 52 82 53 83 58 84 54 85 55 86 57 87 59 88 56 89
REMARK H PARENT 19 6 1 9 1 10 1 11 26 32 76 51 50 62
REMARK Flexibility Score: inf
ROOT
ATOM      1  C   UNL A   1      34.552  32.457  28.961  1.00  0.00       nan C 
ENDROOT
BRANCH   1   2
ATOM      2  C   UNL A   1      34.440  31.554  27.728  1.00  0.00       nan C 
BRANCH   2   3
ATOM      3  N   UNL A   1      33.300  30.682  27.854  1.00  0.00       nan N 
ATOM      4  C   UNL A   1      32.745  30.136  26.731  1.00  0.00       nan C 
ATOM      5  O   UNL A   1      31.608  30.522  26.461  1.00  0.00       nan OA
ATOM      6  H   UNL A   1      32.924  30.481  28.743  1.00  0.00       nan HD
BRANCH   4   7
ATOM      7  C   UNL A   1      33.541  29.056  25.923  1.00  0.00       nan C 
BRANCH   7   8
ATOM      8  N   UNL A   1      34.985  29.111  26.320  1.00  0.00       nan N 
ATOM      9  H   UNL A   1      35.271  28.205  26.691  1.00  0.00       nan HD
ATOM     10  H   UNL A   1      35.114  29.826  27.035  1.00  0.00       nan HD
ATOM     11  H   UNL A   1      35.554  29.340  25.505  1.00  0.00       nan HD
ENDBRANCH   7   8
BRANCH   7  12
ATOM     12  C   UNL A   1      33.428  29.398  24.400  1.00  0.00       nan C 
BRANCH  12  13
ATOM     13  C   UNL A   1      32.815  28.329  23.506  1.00  0.00       nan A 
ATOM     14  C   UNL A   1      31.452  28.364  23.168  1.00  0.00       nan A 
ATOM     15  C   UNL A   1      33.574  27.236  23.067  1.00  0.00       nan A 
ATOM     16  C   UNL A   1      30.842  27.292  22.513  1.00  0.00       nan A 
ATOM     17  C   UNL A   1      32.969  26.172  22.390  1.00  0.00       nan A 
ATOM     18  C   UNL A   1      31.600  26.190  22.134  1.00  0.00       nan A 
ENDBRANCH  12  13
ENDBRANCH   7  12
BRANCH   7  19
ATOM     19  C   UNL A   1      33.093  27.599  26.239  1.00  0.00       nan C 
BRANCH  19  20
ATOM     20  C   UNL A   1      31.651  27.362  26.730  1.00  0.00       nan C 
BRANCH  20  21
ATOM     21  C   UNL A   1      30.855  26.208  26.110  1.00  0.00       nan C 
BRANCH  21  22
ATOM     22  P   UNL A   1      31.758  24.631  25.895  1.00  0.00       nan P 
ATOM     23  O   UNL A   1      31.263  24.178  27.269  1.00  0.00       nan OA
ATOM     24  O   UNL A   1      30.747  24.033  24.794  1.00  0.00       nan OA
ATOM     25  O   UNL A   1      32.611  23.139  25.694  1.00  0.00       nan OA
ENDBRANCH  21  22
ENDBRANCH  20  21
ENDBRANCH  19  20
ENDBRANCH   7  19
ENDBRANCH   4   7
ENDBRANCH   2   3
ENDBRANCH   1   2
BRANCH   1  26
ATOM     26  C   UNL A   1      35.330  33.759  28.724  1.00  0.00       nan C 
BRANCH  26  27
ATOM     27  C   UNL A   1      34.510  34.880  28.081  1.00  0.00       nan C 
BRANCH  27  28
ATOM     28  C   UNL A   1      33.238  35.244  28.844  1.00  0.00       nan C 
BRANCH  28  29
ATOM     29  C   UNL A   1      33.389  36.455  29.750  1.00  0.00       inf C 
BRANCH  29  30
ATOM     30  N   UNL A   1      32.485  36.392  30.883  1.00  0.00    -0.352 N 
ATOM     31  C   UNL A   1      32.569  35.576  31.980  1.00  0.00     0.251 C 
ATOM     32  H   UNL A   1      31.719  37.009  30.860  1.00  0.00     0.163 HD
ATOM     33  O   UNL A   1      31.622  35.462  32.754  1.00  0.00    -0.269 OA
BRANCH  31  34
ATOM     34  C   UNL A   1      33.812  34.811  32.206  1.00  0.00     0.039 A 
ATOM     35  C   UNL A   1      35.037  35.473  32.119  1.00  0.00     0.014 A 
ATOM     36  C   UNL A   1      33.757  33.453  32.538  1.00  0.00     0.014 A 
ATOM     37  C   UNL A   1      36.212  34.778  32.408  1.00  0.00     0.010 A 
ATOM     38  C   UNL A   1      34.920  32.787  32.908  1.00  0.00     0.010 A 
ATOM     39  C   UNL A   1      36.160  33.439  32.834  1.00  0.00    -0.014 A 
BRANCH  39  40
ATOM     40  C   UNL A   1      37.399  32.703  33.189  1.00  0.00     0.031 A 
ATOM     41  C   UNL A   1      38.123  33.023  34.468  1.00  0.00     0.074 A 
ATOM     42  C   UNL A   1      37.896  31.784  32.339  1.00  0.00     0.049 A 
ATOM     43  N   UNL A   1      39.240  32.523  34.932  1.00  0.00    -0.248 NA
ATOM     44  C   UNL A   1      37.526  34.058  35.326  1.00  0.00     0.031 C 
ATOM     45  C   UNL A   1      37.309  31.418  31.049  1.00  0.00     0.029 A 
ATOM     46  N   UNL A   1      39.013  30.994  32.431  1.00  0.00    -0.354 N 
ATOM     47  C   UNL A   1      39.484  33.190  36.126  1.00  0.00     0.074 A 
ATOM     48  C   UNL A   1      38.433  34.171  36.285  1.00  0.00     0.031 C 
ATOM     49  C   UNL A   1      38.054  30.456  30.485  1.00  0.00     0.029 A 
ATOM     50  C   UNL A   1      39.194  30.167  31.350  1.00  0.00     0.049 A 
ATOM     51  H   UNL A   1      39.628  31.017  33.201  1.00  0.00     0.167 HD
ATOM     52  C   UNL A   1      40.478  32.984  37.021  1.00  0.00     0.037 A 
ATOM     53  C   UNL A   1      40.173  29.282  31.083  1.00  0.00     0.037 A 
ATOM     54  C   UNL A   1      41.512  31.996  36.866  1.00  0.00     0.049 A 
ATOM     55  C   UNL A   1      41.280  29.089  32.082  1.00  0.00     0.074 A 
ATOM     56  C   UNL A   1      42.534  31.673  37.741  1.00  0.00     0.029 A 
ATOM     57  N   UNL A   1      41.660  31.176  35.757  1.00  0.00    -0.354 N 
ATOM     58  N   UNL A   1      41.460  29.676  33.241  1.00  0.00    -0.248 NA
ATOM     59  C   UNL A   1      42.318  28.107  31.740  1.00  0.00     0.031 C 
ATOM     60  C   UNL A   1      43.333  30.697  37.137  1.00  0.00     0.029 A 
ATOM     61  C   UNL A   1      42.774  30.367  35.913  1.00  0.00     0.049 A 
ATOM     62  H   UNL A   1      41.062  31.170  34.975  1.00  0.00     0.167 HD
ATOM     63  C   UNL A   1      42.610  29.114  33.779  1.00  0.00     0.074 A 
ATOM     64  C   UNL A   1      43.077  28.129  32.826  1.00  0.00     0.031 C 
ATOM     65  C   UNL A   1      43.223  29.387  34.957  1.00  0.00     0.037 A 
BRANCH  52  66
ATOM     66  C   UNL A   1      40.493  33.850  38.250  1.00  0.00     0.057 A 
ATOM     67  C   UNL A   1      41.265  35.017  38.326  1.00  0.00     0.134 A 
ATOM     68  C   UNL A   1      39.704  33.527  39.361  1.00  0.00     0.134 A 
ATOM     69  F   UNL A   1      42.053  35.379  37.302  1.00  0.00    -0.206 F 
ATOM     70  C   UNL A   1      41.276  35.815  39.471  1.00  0.00     0.040 A 
ATOM     71  C   UNL A   1      39.682  34.333  40.501  1.00  0.00     0.040 A 
ATOM     72  F   UNL A   1      38.936  32.428  39.357  1.00  0.00    -0.206 F 
ATOM     73  C   UNL A   1      40.477  35.476  40.561  1.00  0.00     0.006 A 
ENDBRANCH  52  66
BRANCH  53  74
ATOM     74  C   UNL A   1      40.142  28.496  29.822  1.00  0.00     0.057 A 
ATOM     75  C   UNL A   1      39.404  27.310  29.728  1.00  0.00     0.134 A 
ATOM     76  C   UNL A   1      40.853  28.903  28.688  1.00  0.00     0.134 A 
ATOM     77  F   UNL A   1      38.715  26.857  30.786  1.00  0.00    -0.206 F 
ATOM     78  C   UNL A   1      39.392  26.545  28.560  1.00  0.00     0.040 A 
ATOM     79  C   UNL A   1      40.828  28.164  27.504  1.00  0.00     0.040 A 
ATOM     80  F   UNL A   1      41.573  30.035  28.710  1.00  0.00    -0.206 F 
ATOM     81  C   UNL A   1      40.103  26.976  27.441  1.00  0.00     0.006 A 
ENDBRANCH  53  74
BRANCH  65  82
ATOM     82  C   UNL A   1      44.445  28.582  35.300  1.00  0.00     0.057 A 
ATOM     83  C   UNL A   1      45.735  29.013  34.969  1.00  0.00     0.134 A 
ATOM     84  C   UNL A   1      44.326  27.379  36.008  1.00  0.00     0.134 A 
ATOM     85  F   UNL A   1      45.918  30.150  34.280  1.00  0.00    -0.206 F 
ATOM     86  C   UNL A   1      46.863  28.263  35.307  1.00  0.00     0.040 A 
ATOM     87  C   UNL A   1      45.449  26.636  36.379  1.00  0.00     0.040 A 
ATOM     88  F   UNL A   1      43.120  26.913  36.365  1.00  0.00    -0.206 F 
ATOM     89  C   UNL A   1      46.722  27.075  36.022  1.00  0.00     0.006 A 
ENDBRANCH  65  82
ENDBRANCH  39  40
ENDBRANCH  31  34
ENDBRANCH  29  30
ENDBRANCH  28  29
ENDBRANCH  27  28
ENDBRANCH  26  27
ENDBRANCH   1  26
TORSDOF 20
ENDMDL
MODEL 2
REMARK VINA RESULT:      -9.9      6.228     10.689
REMARK SMILES [NH3+][C@](CCC[P@TB4](=O)([O-])[O-])(Cc1ccccc1)C(=O)NCCCCCCNC(=O)c1ccc(-c2c3nc(c(-c4c(F)cccc4F)c4ccc([nH]4)c(-c4c(F)cccc4F)c4nc(c(-c5c(F)cccc5F)c5ccc2[nH]5)C=C4)C=C3)cc1
REMARK SMILES IDX 21 1 20 2 19 3 17 4 18 5 2 7 1 8 10 12 11 13 12 14 16 15
REMARK SMILES IDX 13 16 15 17 14 18 3 19 4 20 5 21 6 22 7 23 8 24 9 25 22 26
REMARK SMILES IDX 23 27 24 28 25 29 26 30 27 31 28 33 29 34 30 35 82 36 31 37
REMARK SMILES IDX 81 38 32 39 33 40 34 41 75 42 35 43 80 44 74 45 76 46 36 47
REMARK SMILES IDX 79 48 73 49 72 50 37 52 63 53 46 54 62 55 47 56 50 57 61 58
REMARK SMILES IDX 77 59 48 60 49 61 60 63 78 64 51 65 38 66 39 67 44 68 40 69
REMARK SMILES IDX 41 70 43 71 45 72 42 73 64 74 65 75 70 76 66 77 67 78 69 79
REMARK SMILES IDX 71 80 68 81 52 82 53 83 58 84 54 85 55 86 57 87 59 88 56 89
REMARK H PARENT 19 6 1 9 1 10 1 11 26 32 76 51 50 62
REMARK Flexibility Score: inf
ROOT
ATOM      1  C   UNL A   1      36.544  22.800  23.789  1.00  0.00       nan C 
ENDROOT
BRANCH   1   2
ATOM      2  C   UNL A   1      35.856  24.034  24.381  1.00  0.00       nan C 
BRANCH   2   3
ATOM      3  N   UNL A   1      34.630  23.651  25.035  1.00  0.00       nan N 
ATOM      4  C   UNL A   1      33.587  24.534  25.074  1.00  0.00       nan C 
ATOM      5  O   UNL A   1      33.295  24.960  26.191  1.00  0.00       nan OA
ATOM      6  H   UNL A   1      34.545  22.761  25.450  1.00  0.00       nan HD
BRANCH   4   7
ATOM      7  C   UNL A   1      32.827  24.889  23.751  1.00  0.00       nan C 
BRANCH   7   8
ATOM      8  N   UNL A   1      33.557  25.990  23.045  1.00  0.00       nan N 
ATOM      9  H   UNL A   1      32.896  26.721  22.781  1.00  0.00       nan HD
ATOM     10  H   UNL A   1      34.005  25.619  22.209  1.00  0.00       nan HD
ATOM     11  H   UNL A   1      34.266  26.381  23.666  1.00  0.00       nan HD
ENDBRANCH   7   8
BRANCH   7  12
ATOM     12  C   UNL A   1      31.396  25.398  24.128  1.00  0.00       nan C 
BRANCH  12  13
ATOM     13  C   UNL A   1      31.118  26.878  23.904  1.00  0.00       nan A 
ATOM     14  C   UNL A   1      31.519  27.838  24.847  1.00  0.00       nan A 
ATOM     15  C   UNL A   1      30.381  27.312  22.794  1.00  0.00       nan A 
ATOM     16  C   UNL A   1      31.102  29.168  24.746  1.00  0.00       nan A 
ATOM     17  C   UNL A   1      29.983  28.648  22.680  1.00  0.00       nan A 
ATOM     18  C   UNL A   1      30.324  29.570  23.667  1.00  0.00       nan A 
ENDBRANCH  12  13
ENDBRANCH   7  12
BRANCH   7  19
ATOM     19  C   UNL A   1      32.789  23.713  22.731  1.00  0.00       nan C 
BRANCH  19  20
ATOM     20  C   UNL A   1      31.739  22.601  22.927  1.00  0.00       nan C 
BRANCH  20  21
ATOM     21  C   UNL A   1      32.173  21.148  22.702  1.00  0.00       nan C 
BRANCH  21  22
ATOM     22  P   UNL A   1      32.372  20.125  24.206  1.00  0.00       nan P 
ATOM     23  O   UNL A   1      32.564  18.892  23.324  1.00  0.00       nan OA
ATOM     24  O   UNL A   1      33.834  20.691  24.575  1.00  0.00       nan OA
ATOM     25  O   UNL A   1      32.561  19.156  25.627  1.00  0.00       nan OA
ENDBRANCH  21  22
ENDBRANCH  20  21
ENDBRANCH  19  20
ENDBRANCH   7  19
ENDBRANCH   4   7
ENDBRANCH   2   3
ENDBRANCH   1   2
BRANCH   1  26
ATOM     26  C   UNL A   1      37.492  22.078  24.757  1.00  0.00       nan C 
BRANCH  26  27
ATOM     27  C   UNL A   1      37.172  20.597  24.972  1.00  0.00       nan C 
BRANCH  27  28
ATOM     28  C   UNL A   1      38.387  19.675  24.894  1.00  0.00       nan C 
BRANCH  28  29
ATOM     29  C   UNL A   1      39.435  19.943  25.962  1.00  0.00       inf C 
BRANCH  29  30
ATOM     30  N   UNL A   1      40.423  18.883  26.021  1.00  0.00    -0.352 N 
ATOM     31  C   UNL A   1      41.784  19.008  26.117  1.00  0.00     0.251 C 
ATOM     32  H   UNL A   1      40.074  17.964  25.987  1.00  0.00     0.163 HD
ATOM     33  O   UNL A   1      42.520  18.043  25.930  1.00  0.00    -0.269 OA
BRANCH  31  34
ATOM     34  C   UNL A   1      42.358  20.334  26.424  1.00  0.00     0.039 A 
ATOM     35  C   UNL A   1      42.890  21.096  25.384  1.00  0.00     0.014 A 
ATOM     36  C   UNL A   1      42.333  20.831  27.732  1.00  0.00     0.014 A 
ATOM     37  C   UNL A   1      43.362  22.382  25.650  1.00  0.00     0.010 A 
ATOM     38  C   UNL A   1      42.724  22.142  27.977  1.00  0.00     0.010 A 
ATOM     39  C   UNL A   1      43.255  22.926  26.942  1.00  0.00    -0.014 A 
BRANCH  39  40
ATOM     40  C   UNL A   1      43.710  24.309  27.229  1.00  0.00     0.031 A 
ATOM     41  C   UNL A   1      42.715  25.357  27.643  1.00  0.00     0.074 A 
ATOM     42  C   UNL A   1      45.008  24.631  27.068  1.00  0.00     0.049 A 
ATOM     43  N   UNL A   1      42.907  26.627  27.892  1.00  0.00    -0.248 NA
ATOM     44  C   UNL A   1      41.313  24.927  27.769  1.00  0.00     0.031 C 
ATOM     45  C   UNL A   1      46.060  23.714  26.627  1.00  0.00     0.029 A 
ATOM     46  N   UNL A   1      45.661  25.823  27.251  1.00  0.00    -0.354 N 
ATOM     47  C   UNL A   1      41.655  27.147  28.193  1.00  0.00     0.074 A 
ATOM     48  C   UNL A   1      40.701  26.071  28.035  1.00  0.00     0.031 C 
ATOM     49  C   UNL A   1      47.231  24.369  26.604  1.00  0.00     0.029 A 
ATOM     50  C   UNL A   1      47.007  25.760  26.984  1.00  0.00     0.049 A 
ATOM     51  H   UNL A   1      45.209  26.646  27.547  1.00  0.00     0.167 HD
ATOM     52  C   UNL A   1      41.333  28.400  28.590  1.00  0.00     0.037 A 
ATOM     53  C   UNL A   1      47.951  26.718  27.031  1.00  0.00     0.037 A 
ATOM     54  C   UNL A   1      42.288  29.463  28.761  1.00  0.00     0.049 A 
ATOM     55  C   UNL A   1      47.564  28.109  27.452  1.00  0.00     0.074 A 
ATOM     56  C   UNL A   1      42.070  30.753  29.211  1.00  0.00     0.029 A 
ATOM     57  N   UNL A   1      43.642  29.359  28.482  1.00  0.00    -0.354 N 
ATOM     58  N   UNL A   1      46.387  28.571  27.802  1.00  0.00    -0.248 NA
ATOM     59  C   UNL A   1      48.637  29.113  27.490  1.00  0.00     0.031 C 
ATOM     60  C   UNL A   1      43.283  31.447  29.150  1.00  0.00     0.029 A 
ATOM     61  C   UNL A   1      44.268  30.572  28.722  1.00  0.00     0.049 A 
ATOM     62  H   UNL A   1      44.092  28.545  28.160  1.00  0.00     0.167 HD
ATOM     63  C   UNL A   1      46.583  29.905  28.131  1.00  0.00     0.074 A 
ATOM     64  C   UNL A   1      47.994  30.176  27.953  1.00  0.00     0.031 C 
ATOM     65  C   UNL A   1      45.676  30.824  28.545  1.00  0.00     0.037 A 
BRANCH  52  66
ATOM     66  C   UNL A   1      39.884  28.688  28.866  1.00  0.00     0.057 A 
ATOM     67  C   UNL A   1      39.309  28.465  30.125  1.00  0.00     0.134 A 
ATOM     68  C   UNL A   1      39.058  29.222  27.869  1.00  0.00     0.134 A 
ATOM     69  F   UNL A   1      40.040  27.943  31.123  1.00  0.00    -0.206 F 
ATOM     70  C   UNL A   1      37.962  28.731  30.373  1.00  0.00     0.040 A 
ATOM     71  C   UNL A   1      37.717  29.523  28.113  1.00  0.00     0.040 A 
ATOM     72  F   UNL A   1      39.542  29.467  26.642  1.00  0.00    -0.206 F 
ATOM     73  C   UNL A   1      37.163  29.269  29.366  1.00  0.00     0.006 A 
ENDBRANCH  52  66
BRANCH  53  74
ATOM     74  C   UNL A   1      49.360  26.393  26.688  1.00  0.00     0.057 A 
ATOM     75  C   UNL A   1      50.253  25.933  27.664  1.00  0.00     0.134 A 
ATOM     76  C   UNL A   1      49.850  26.541  25.386  1.00  0.00     0.134 A 
ATOM     77  F   UNL A   1      49.850  25.787  28.935  1.00  0.00    -0.206 F 
ATOM     78  C   UNL A   1      51.588  25.654  27.362  1.00  0.00     0.040 A 
ATOM     79  C   UNL A   1      51.174  26.239  25.063  1.00  0.00     0.040 A 
ATOM     80  F   UNL A   1      49.043  26.969  24.403  1.00  0.00    -0.206 F 
ATOM     81  C   UNL A   1      52.050  25.803  26.055  1.00  0.00     0.006 A 
ENDBRANCH  53  74
BRANCH  65  82
ATOM     82  C   UNL A   1      46.188  32.198  28.873  1.00  0.00     0.057 A 
ATOM     83  C   UNL A   1      46.650  32.532  30.152  1.00  0.00     0.134 A 
ATOM     84  C   UNL A   1      46.257  33.185  27.882  1.00  0.00     0.134 A 
ATOM     85  F   UNL A   1      46.600  31.637  31.150  1.00  0.00    -0.206 F 
ATOM     86  C   UNL A   1      47.138  33.809  30.440  1.00  0.00     0.040 A 
ATOM     87  C   UNL A   1      46.772  34.455  28.150  1.00  0.00     0.040 A 
ATOM     88  F   UNL A   1      45.840  32.929  26.633  1.00  0.00    -0.206 F 
ATOM     89  C   UNL A   1      47.208  34.771  29.435  1.00  0.00     0.006 A 
ENDBRANCH  65  82
ENDBRANCH  39  40
ENDBRANCH  31  34
ENDBRANCH  29  30
ENDBRANCH  28  29
ENDBRANCH  27  28
ENDBRANCH  26  27
ENDBRANCH   1  26
TORSDOF 20
ENDMDL
MODEL 3
REMARK VINA RESULT:      -9.8      7.615     11.470
REMARK SMILES [NH3+][C@](CCC[P@TB4](=O)([O-])[O-])(Cc1ccccc1)C(=O)NCCCCCCNC(=O)c1ccc(-c2c3nc(c(-c4c(F)cccc4F)c4ccc([nH]4)c(-c4c(F)cccc4F)c4nc(c(-c5c(F)cccc5F)c5ccc2[nH]5)C=C4)C=C3)cc1
REMARK SMILES IDX 21 1 20 2 19 3 17 4 18 5 2 7 1 8 10 12 11 13 12 14 16 15
REMARK SMILES IDX 13 16 15 17 14 18 3 19 4 20 5 21 6 22 7 23 8 24 9 25 22 26
REMARK SMILES IDX 23 27 24 28 25 29 26 30 27 31 28 33 29 34 30 35 82 36 31 37
REMARK SMILES IDX 81 38 32 39 33 40 34 41 75 42 35 43 80 44 74 45 76 46 36 47
REMARK SMILES IDX 79 48 73 49 72 50 37 52 63 53 46 54 62 55 47 56 50 57 61 58
REMARK SMILES IDX 77 59 48 60 49 61 60 63 78 64 51 65 38 66 39 67 44 68 40 69
REMARK SMILES IDX 41 70 43 71 45 72 42 73 64 74 65 75 70 76 66 77 67 78 69 79
REMARK SMILES IDX 71 80 68 81 52 82 53 83 58 84 54 85 55 86 57 87 59 88 56 89
REMARK H PARENT 19 6 1 9 1 10 1 11 26 32 76 51 50 62
REMARK Flexibility Score: inf
ROOT
ATOM      1  C   UNL A   1      39.138  29.254  27.419  1.00  0.00       nan C 
ENDROOT
BRANCH   1   2
ATOM      2  C   UNL A   1      38.746  29.594  28.860  1.00  0.00       nan C 
BRANCH   2   3
ATOM      3  N   UNL A   1      37.428  29.086  29.148  1.00  0.00       nan N 
ATOM      4  C   UNL A   1      36.530  29.883  29.801  1.00  0.00       nan C 
ATOM      5  O   UNL A   1      36.217  29.512  30.932  1.00  0.00       nan OA
ATOM      6  H   UNL A   1      37.177  28.173  28.875  1.00  0.00       nan HD
BRANCH   4   7
ATOM      7  C   UNL A   1      35.939  31.138  29.074  1.00  0.00       nan C 
BRANCH   7   8
ATOM      8  N   UNL A   1      34.672  31.552  29.758  1.00  0.00       nan N 
ATOM      9  H   UNL A   1      34.873  31.792  30.729  1.00  0.00       nan HD
ATOM     10  H   UNL A   1      34.003  30.784  29.728  1.00  0.00       nan HD
ATOM     11  H   UNL A   1      34.278  32.364  29.282  1.00  0.00       nan HD
ENDBRANCH   7   8
BRANCH   7  12
ATOM     12  C   UNL A   1      35.604  30.739  27.598  1.00  0.00       nan C 
BRANCH  12  13
ATOM     13  C   UNL A   1      34.260  30.062  27.364  1.00  0.00       nan A 
ATOM     14  C   UNL A   1      34.152  28.663  27.334  1.00  0.00       nan A 
ATOM     15  C   UNL A   1      33.113  30.819  27.087  1.00  0.00       nan A 
ATOM     16  C   UNL A   1      32.969  28.038  26.931  1.00  0.00       nan A 
ATOM     17  C   UNL A   1      31.921  30.194  26.706  1.00  0.00       nan A 
ATOM     18  C   UNL A   1      31.857  28.805  26.605  1.00  0.00       nan A 
ENDBRANCH  12  13
ENDBRANCH   7  12
BRANCH   7  19
ATOM     19  C   UNL A   1      36.867  32.387  29.154  1.00  0.00       nan C 
BRANCH  19  20
ATOM     20  C   UNL A   1      36.240  33.747  29.519  1.00  0.00       nan C 
BRANCH  20  21
ATOM     21  C   UNL A   1      35.378  34.452  28.465  1.00  0.00       nan C 
BRANCH  21  22
ATOM     22  P   UNL A   1      33.862  35.271  29.081  1.00  0.00       nan P 
ATOM     23  O   UNL A   1      34.123  36.437  28.129  1.00  0.00       nan OA
ATOM     24  O   UNL A   1      32.843  34.263  28.347  1.00  0.00       nan OA
ATOM     25  O   UNL A   1      32.429  36.047  29.663  1.00  0.00       nan OA
ENDBRANCH  21  22
ENDBRANCH  20  21
ENDBRANCH  19  20
ENDBRANCH   7  19
ENDBRANCH   4   7
ENDBRANCH   2   3
ENDBRANCH   1   2
BRANCH   1  26
ATOM     26  C   UNL A   1      40.216  28.169  27.295  1.00  0.00       nan C 
BRANCH  26  27
ATOM     27  C   UNL A   1      40.219  27.144  28.432  1.00  0.00       nan C 
BRANCH  27  28
ATOM     28  C   UNL A   1      39.484  25.845  28.107  1.00  0.00       nan C 
BRANCH  28  29
ATOM     29  C   UNL A   1      39.667  25.375  26.673  1.00  0.00       inf C 
BRANCH  29  30
ATOM     30  N   UNL A   1      40.316  24.079  26.612  1.00  0.00    -0.352 N 
ATOM     31  C   UNL A   1      41.642  23.814  26.391  1.00  0.00     0.251 C 
ATOM     32  H   UNL A   1      39.734  23.297  26.746  1.00  0.00     0.163 HD
ATOM     33  O   UNL A   1      42.022  22.673  26.140  1.00  0.00    -0.269 OA
BRANCH  31  34
ATOM     34  C   UNL A   1      42.609  24.929  26.433  1.00  0.00     0.039 A 
ATOM     35  C   UNL A   1      43.252  25.220  27.636  1.00  0.00     0.014 A 
ATOM     36  C   UNL A   1      42.902  25.656  25.274  1.00  0.00     0.014 A 
ATOM     37  C   UNL A   1      44.225  26.219  27.668  1.00  0.00     0.010 A 
ATOM     38  C   UNL A   1      43.930  26.591  25.290  1.00  0.00     0.010 A 
ATOM     39  C   UNL A   1      44.593  26.892  26.490  1.00  0.00    -0.014 A 
BRANCH  39  40
ATOM     40  C   UNL A   1      45.659  27.924  26.500  1.00  0.00     0.031 A 
ATOM     41  C   UNL A   1      45.299  29.376  26.653  1.00  0.00     0.074 A 
ATOM     42  C   UNL A   1      46.943  27.558  26.322  1.00  0.00     0.049 A 
ATOM     43  N   UNL A   1      46.079  30.426  26.641  1.00  0.00    -0.248 NA
ATOM     44  C   UNL A   1      43.871  29.691  26.815  1.00  0.00     0.031 C 
ATOM     45  C   UNL A   1      47.413  26.187  26.119  1.00  0.00     0.029 A 
ATOM     46  N   UNL A   1      48.088  28.311  26.278  1.00  0.00    -0.354 N 
ATOM     47  C   UNL A   1      45.238  31.522  26.783  1.00  0.00     0.074 A 
ATOM     48  C   UNL A   1      43.883  31.015  26.817  1.00  0.00     0.031 C 
ATOM     49  C   UNL A   1      48.750  26.194  26.002  1.00  0.00     0.029 A 
ATOM     50  C   UNL A   1      49.228  27.571  26.078  1.00  0.00     0.049 A 
ATOM     51  H   UNL A   1      48.094  29.291  26.382  1.00  0.00     0.167 HD
ATOM     52  C   UNL A   1      45.565  32.830  26.901  1.00  0.00     0.037 A 
ATOM     53  C   UNL A   1      50.511  27.960  25.960  1.00  0.00     0.037 A 
ATOM     54  C   UNL A   1      46.915  33.328  26.882  1.00  0.00     0.049 A 
ATOM     55  C   UNL A   1      50.847  29.421  26.070  1.00  0.00     0.074 A 
ATOM     56  C   UNL A   1      47.356  34.629  27.048  1.00  0.00     0.029 A 
ATOM     57  N   UNL A   1      48.043  32.546  26.679  1.00  0.00    -0.354 N 
ATOM     58  N   UNL A   1      50.048  30.442  26.275  1.00  0.00    -0.248 NA
ATOM     59  C   UNL A   1      52.264  29.787  25.939  1.00  0.00     0.031 C 
ATOM     60  C   UNL A   1      48.745  34.643  26.888  1.00  0.00     0.029 A 
ATOM     61  C   UNL A   1      49.177  33.342  26.686  1.00  0.00     0.049 A 
ATOM     62  H   UNL A   1      48.037  31.570  26.549  1.00  0.00     0.167 HD
ATOM     63  C   UNL A   1      50.867  31.562  26.328  1.00  0.00     0.074 A 
ATOM     64  C   UNL A   1      52.225  31.095  26.148  1.00  0.00     0.031 C 
ATOM     65  C   UNL A   1      50.524  32.861  26.511  1.00  0.00     0.037 A 
BRANCH  52  66
ATOM     66  C   UNL A   1      44.441  33.815  27.059  1.00  0.00     0.057 A 
ATOM     67  C   UNL A   1      43.939  34.171  28.319  1.00  0.00     0.134 A 
ATOM     68  C   UNL A   1      43.871  34.435  25.941  1.00  0.00     0.134 A 
ATOM     69  F   UNL A   1      44.430  33.605  29.432  1.00  0.00    -0.206 F 
ATOM     70  C   UNL A   1      42.892  35.084  28.458  1.00  0.00     0.040 A 
ATOM     71  C   UNL A   1      42.845  35.373  26.069  1.00  0.00     0.040 A 
ATOM     72  F   UNL A   1      44.306  34.147  24.705  1.00  0.00    -0.206 F 
ATOM     73  C   UNL A   1      42.347  35.693  27.331  1.00  0.00     0.006 A 
ENDBRANCH  52  66
BRANCH  53  74
ATOM     74  C   UNL A   1      51.578  26.949  25.742  1.00  0.00     0.057 A 
ATOM     75  C   UNL A   1      52.022  26.633  24.452  1.00  0.00     0.134 A 
ATOM     76  C   UNL A   1      52.171  26.269  26.812  1.00  0.00     0.134 A 
ATOM     77  F   UNL A   1      51.480  27.237  23.384  1.00  0.00    -0.206 F 
ATOM     78  C   UNL A   1      53.001  25.662  24.232  1.00  0.00     0.040 A 
ATOM     79  C   UNL A   1      53.171  25.316  26.609  1.00  0.00     0.040 A 
ATOM     80  F   UNL A   1      51.797  26.532  28.073  1.00  0.00    -0.206 F 
ATOM     81  C   UNL A   1      53.582  25.003  25.315  1.00  0.00     0.006 A 
ENDBRANCH  53  74
BRANCH  65  82
ATOM     82  C   UNL A   1      51.639  33.866  26.566  1.00  0.00     0.057 A 
ATOM     83  C   UNL A   1      52.090  34.538  25.423  1.00  0.00     0.134 A 
ATOM     84  C   UNL A   1      52.241  34.193  27.788  1.00  0.00     0.134 A 
ATOM     85  F   UNL A   1      51.566  34.262  24.219  1.00  0.00    -0.206 F 
ATOM     86  C   UNL A   1      53.118  35.481  25.489  1.00  0.00     0.040 A 
ATOM     87  C   UNL A   1      53.247  35.157  27.871  1.00  0.00     0.040 A 
ATOM     88  F   UNL A   1      51.850  33.595  28.923  1.00  0.00    -0.206 F 
ATOM     89  C   UNL A   1      53.693  35.799  26.719  1.00  0.00     0.006 A 
ENDBRANCH  65  82
ENDBRANCH  39  40
ENDBRANCH  31  34
ENDBRANCH  29  30
ENDBRANCH  28  29
ENDBRANCH  27  28
ENDBRANCH  26  27
ENDBRANCH   1  26
TORSDOF 20
ENDMDL
