MODEL 1
REMARK VINA RESULT:      -9.9      0.000      0.000
REMARK SMILES CC[C@H](CCO)CNc1cc(C(=O)NCCCCCCNC(=O)c2ccc(-c3c4nc(c(-c5c(F)cccc5F)c5ccc([nH]5)c(-c5c(F)cccc5F)c5nc(c(-c6c(F)cccc6F)c6ccc3[nH]6)C=C5)C=C4)cc2)ccn1
REMARK SMILES IDX 15 1 14 2 12 3 13 4 11 6 9 7 10 8 80 9 79 10 78 11 8 12 7 14
REMARK SMILES IDX 3 15 2 16 1 17 4 18 5 19 6 20 16 22 17 23 18 24 19 25 20 26
REMARK SMILES IDX 21 27 22 28 23 30 24 31 25 32 77 33 26 34 76 35 27 36 28 37
REMARK SMILES IDX 29 38 70 39 30 40 75 41 69 42 71 43 31 44 74 45 68 46 67 47
REMARK SMILES IDX 32 49 58 50 41 51 57 52 42 53 45 54 56 55 72 56 43 57 44 58
REMARK SMILES IDX 55 60 73 61 46 62 33 63 34 64 39 65 35 66 36 67 38 68 40 69
REMARK SMILES IDX 37 70 59 71 60 72 65 73 61 74 62 75 64 76 66 77 63 78 47 79
REMARK SMILES IDX 48 80 53 81 49 82 50 83 52 84 54 85 51 86
REMARK H PARENT 14 5 8 13 6 21 21 29 71 48 45 59
REMARK Flexibility Score: inf
ROOT
ATOM      1  C   UNL A   1      37.937  22.383  25.934  1.00  0.00     0.116 C 
ENDROOT
BRANCH   1   2
ATOM      2  N   UNL A   1      37.580  22.659  24.556  1.00  0.00    -0.352 N 
ATOM      3  C   UNL A   1      36.428  22.516  23.828  1.00  0.00     0.251 C 
ATOM      4  O   UNL A   1      36.480  22.838  22.639  1.00  0.00    -0.269 OA
ATOM      5  H   UNL A   1      38.325  23.030  24.030  1.00  0.00     0.163 HD
BRANCH   3   6
ATOM      6  C   UNL A   1      35.124  22.065  24.387  1.00  0.00     0.044 A 
ATOM      7  C   UNL A   1      33.621  20.523  25.452  1.00  0.00     0.126 A 
ATOM      8  C   UNL A   1      34.842  20.780  24.839  1.00  0.00     0.060 A 
ATOM      9  N   UNL A   1      32.640  21.438  25.506  1.00  0.00    -0.240 NA
ATOM     10  C   UNL A   1      32.892  22.659  24.993  1.00  0.00     0.114 A 
ATOM     11  C   UNL A   1      34.109  23.023  24.453  1.00  0.00     0.034 A 
BRANCH   7  12
ATOM     12  N   UNL A   1      33.359  19.328  26.096  1.00  0.00    -0.370 N 
ATOM     13  H   UNL A   1      33.539  19.232  27.059  1.00  0.00     0.162 HD
BRANCH  12  14
ATOM     14  C   UNL A   1      32.812  18.213  25.334  1.00  0.00     0.118 C 
BRANCH  14  15
ATOM     15  C   UNL A   1      33.952  17.399  24.678  1.00  0.00     0.010 C 
BRANCH  15  16
ATOM     16  C   UNL A   1      33.688  17.290  23.158  1.00  0.00     0.002 C 
ATOM     17  C   UNL A   1      32.472  18.074  22.687  1.00  0.00     0.004 C 
ENDBRANCH  15  16
BRANCH  15  18
ATOM     18  C   UNL A   1      34.074  16.007  25.346  1.00  0.00     0.033 C 
BRANCH  18  19
ATOM     19  C   UNL A   1      32.781  15.197  25.322  1.00  0.00     0.156 C 
BRANCH  19  20
ATOM     20  O   UNL A   1      33.048  13.834  25.617  1.00  0.00    -0.396 OA
ATOM     21  H   UNL A   1      32.435  13.269  25.122  1.00  0.00     0.210 HD
ENDBRANCH  19  20
ENDBRANCH  18  19
ENDBRANCH  15  18
ENDBRANCH  14  15
ENDBRANCH  12  14
ENDBRANCH   7  12
ENDBRANCH   3   6
ENDBRANCH   1   2
BRANCH   1  22
ATOM     22  C   UNL A   1      38.831  23.499  26.479  1.00  0.00     0.021 C 
BRANCH  22  23
ATOM     23  C   UNL A   1      40.295  23.067  26.655  1.00  0.00     0.002 C 
BRANCH  23  24
ATOM     24  C   UNL A   1      40.535  22.035  27.765  1.00  0.00     0.002 C 
BRANCH  24  25
ATOM     25  C   UNL A   1      41.086  20.686  27.294  1.00  0.00     0.021 C 
BRANCH  25  26
ATOM     26  C   UNL A   1      41.400  20.609  25.801  1.00  0.00     0.116 C 
BRANCH  26  27
ATOM     27  N   UNL A   1      42.780  20.227  25.559  1.00  0.00    -0.352 N 
ATOM     28  C   UNL A   1      43.923  20.986  25.584  1.00  0.00     0.251 C 
ATOM     29  H   UNL A   1      42.918  19.276  25.344  1.00  0.00     0.163 HD
ATOM     30  O   UNL A   1      44.969  20.526  25.138  1.00  0.00    -0.269 OA
BRANCH  28  31
ATOM     31  C   UNL A   1      43.903  22.360  26.134  1.00  0.00     0.039 A 
ATOM     32  C   UNL A   1      44.077  22.529  27.511  1.00  0.00     0.014 A 
ATOM     33  C   UNL A   1      43.656  23.470  25.320  1.00  0.00     0.014 A 
ATOM     34  C   UNL A   1      44.046  23.810  28.064  1.00  0.00     0.010 A 
ATOM     35  C   UNL A   1      43.685  24.754  25.865  1.00  0.00     0.010 A 
ATOM     36  C   UNL A   1      43.872  24.936  27.242  1.00  0.00    -0.014 A 
BRANCH  36  37
ATOM     37  C   UNL A   1      43.886  26.302  27.823  1.00  0.00     0.031 A 
ATOM     38  C   UNL A   1      45.185  27.014  28.075  1.00  0.00     0.074 A 
ATOM     39  C   UNL A   1      42.719  26.893  28.147  1.00  0.00     0.049 A 
ATOM     40  N   UNL A   1      45.390  28.209  28.569  1.00  0.00    -0.248 NA
ATOM     41  C   UNL A   1      46.418  26.281  27.749  1.00  0.00     0.031 C 
ATOM     42  C   UNL A   1      41.395  26.288  27.997  1.00  0.00     0.029 A 
ATOM     43  N   UNL A   1      42.461  28.135  28.668  1.00  0.00    -0.354 N 
ATOM     44  C   UNL A   1      46.769  28.369  28.617  1.00  0.00     0.074 A 
ATOM     45  C   UNL A   1      47.354  27.131  28.150  1.00  0.00     0.031 C 
ATOM     46  C   UNL A   1      40.462  27.170  28.390  1.00  0.00     0.029 A 
ATOM     47  C   UNL A   1      41.122  28.392  28.841  1.00  0.00     0.049 A 
ATOM     48  H   UNL A   1      43.167  28.782  28.898  1.00  0.00     0.167 HD
ATOM     49  C   UNL A   1      47.483  29.456  28.995  1.00  0.00     0.037 A 
ATOM     50  C   UNL A   1      40.498  29.491  29.303  1.00  0.00     0.037 A 
ATOM     51  C   UNL A   1      46.902  30.696  29.438  1.00  0.00     0.049 A 
ATOM     52  C   UNL A   1      41.314  30.688  29.702  1.00  0.00     0.074 A 
ATOM     53  C   UNL A   1      47.542  31.871  29.795  1.00  0.00     0.029 A 
ATOM     54  N   UNL A   1      45.542  30.922  29.585  1.00  0.00    -0.354 N 
ATOM     55  N   UNL A   1      42.615  30.845  29.680  1.00  0.00    -0.248 NA
ATOM     56  C   UNL A   1      40.572  31.864  30.178  1.00  0.00     0.031 C 
ATOM     57  C   UNL A   1      46.569  32.798  30.186  1.00  0.00     0.029 A 
ATOM     58  C   UNL A   1      45.323  32.213  30.039  1.00  0.00     0.049 A 
ATOM     59  H   UNL A   1      44.836  30.263  29.393  1.00  0.00     0.167 HD
ATOM     60  C   UNL A   1      42.846  32.143  30.118  1.00  0.00     0.074 A 
ATOM     61  C   UNL A   1      41.551  32.735  30.379  1.00  0.00     0.031 C 
ATOM     62  C   UNL A   1      44.027  32.786  30.291  1.00  0.00     0.037 A 
BRANCH  49  63
ATOM     63  C   UNL A   1      48.979  29.358  28.930  1.00  0.00     0.057 A 
ATOM     64  C   UNL A   1      49.696  29.791  27.807  1.00  0.00     0.134 A 
ATOM     65  C   UNL A   1      49.715  28.867  30.016  1.00  0.00     0.134 A 
ATOM     66  F   UNL A   1      49.050  30.261  26.729  1.00  0.00    -0.206 F 
ATOM     67  C   UNL A   1      51.089  29.721  27.759  1.00  0.00     0.040 A 
ATOM     68  C   UNL A   1      51.109  28.813  29.989  1.00  0.00     0.040 A 
ATOM     69  F   UNL A   1      49.090  28.441  31.125  1.00  0.00    -0.206 F 
ATOM     70  C   UNL A   1      51.800  29.238  28.855  1.00  0.00     0.006 A 
ENDBRANCH  49  63
BRANCH  50  71
ATOM     71  C   UNL A   1      39.017  29.526  29.382  1.00  0.00     0.057 A 
ATOM     72  C   UNL A   1      38.238  29.656  28.226  1.00  0.00     0.134 A 
ATOM     73  C   UNL A   1      38.348  29.449  30.609  1.00  0.00     0.134 A 
ATOM     74  F   UNL A   1      38.824  29.753  27.024  1.00  0.00    -0.206 F 
ATOM     75  C   UNL A   1      36.845  29.728  28.288  1.00  0.00     0.040 A 
ATOM     76  C   UNL A   1      36.955  29.498  30.683  1.00  0.00     0.040 A 
ATOM     77  F   UNL A   1      39.039  29.317  31.750  1.00  0.00    -0.206 F 
ATOM     78  C   UNL A   1      36.200  29.645  29.521  1.00  0.00     0.006 A 
ENDBRANCH  50  71
BRANCH  62  79
ATOM     79  C   UNL A   1      43.962  34.208  30.763  1.00  0.00     0.057 A 
ATOM     80  C   UNL A   1      43.886  35.280  29.864  1.00  0.00     0.134 A 
ATOM     81  C   UNL A   1      43.960  34.507  32.130  1.00  0.00     0.134 A 
ATOM     82  F   UNL A   1      43.898  35.059  28.539  1.00  0.00    -0.206 F 
ATOM     83  C   UNL A   1      43.839  36.601  30.308  1.00  0.00     0.040 A 
ATOM     84  C   UNL A   1      43.889  35.824  32.588  1.00  0.00     0.040 A 
ATOM     85  F   UNL A   1      44.025  33.527  33.042  1.00  0.00    -0.206 F 
ATOM     86  C   UNL A   1      43.835  36.875  31.675  1.00  0.00     0.006 A 
ENDBRANCH  62  79
ENDBRANCH  36  37
ENDBRANCH  28  31
ENDBRANCH  26  27
ENDBRANCH  25  26
ENDBRANCH  24  25
ENDBRANCH  23  24
ENDBRANCH  22  23
ENDBRANCH   1  22
TORSDOF 20
ENDMDL
MODEL 2
REMARK VINA RESULT:      -9.8      1.792      6.678
REMARK SMILES CC[C@H](CCO)CNc1cc(C(=O)NCCCCCCNC(=O)c2ccc(-c3c4nc(c(-c5c(F)cccc5F)c5ccc([nH]5)c(-c5c(F)cccc5F)c5nc(c(-c6c(F)cccc6F)c6ccc3[nH]6)C=C5)C=C4)cc2)ccn1
REMARK SMILES IDX 15 1 14 2 12 3 13 4 11 6 9 7 10 8 80 9 79 10 78 11 8 12 7 14
REMARK SMILES IDX 3 15 2 16 1 17 4 18 5 19 6 20 16 22 17 23 18 24 19 25 20 26
REMARK SMILES IDX 21 27 22 28 23 30 24 31 25 32 77 33 26 34 76 35 27 36 28 37
REMARK SMILES IDX 29 38 70 39 30 40 75 41 69 42 71 43 31 44 74 45 68 46 67 47
REMARK SMILES IDX 32 49 58 50 41 51 57 52 42 53 45 54 56 55 72 56 43 57 44 58
REMARK SMILES IDX 55 60 73 61 46 62 33 63 34 64 39 65 35 66 36 67 38 68 40 69
REMARK SMILES IDX 37 70 59 71 60 72 65 73 61 74 62 75 64 76 66 77 63 78 47 79
REMARK SMILES IDX 48 80 53 81 49 82 50 83 52 84 54 85 51 86
REMARK H PARENT 14 5 8 13 6 21 21 29 71 48 45 59
REMARK Flexibility Score: inf
ROOT
ATOM      1  C   UNL A   1      36.010  23.877  24.801  1.00  0.00     0.116 C 
ENDROOT
BRANCH   1   2
ATOM      2  N   UNL A   1      35.259  23.853  23.560  1.00  0.00    -0.352 N 
ATOM      3  C   UNL A   1      34.160  23.158  23.130  1.00  0.00     0.251 C 
ATOM      4  O   UNL A   1      33.787  23.371  21.975  1.00  0.00    -0.269 OA
ATOM      5  H   UNL A   1      35.617  24.469  22.881  1.00  0.00     0.163 HD
BRANCH   3   6
ATOM      6  C   UNL A   1      33.363  22.227  23.975  1.00  0.00     0.044 A 
ATOM      7  C   UNL A   1      32.958  20.211  25.218  1.00  0.00     0.126 A 
ATOM      8  C   UNL A   1      33.737  20.932  24.320  1.00  0.00     0.060 A 
ATOM      9  N   UNL A   1      31.777  20.665  25.666  1.00  0.00    -0.240 NA
ATOM     10  C   UNL A   1      31.381  21.890  25.263  1.00  0.00     0.114 A 
ATOM     11  C   UNL A   1      32.140  22.706  24.449  1.00  0.00     0.034 A 
BRANCH   7  12
ATOM     12  N   UNL A   1      33.375  19.006  25.752  1.00  0.00    -0.370 N 
ATOM     13  H   UNL A   1      34.169  18.968  26.333  1.00  0.00     0.162 HD
BRANCH  12  14
ATOM     14  C   UNL A   1      32.628  17.794  25.445  1.00  0.00     0.118 C 
BRANCH  14  15
ATOM     15  C   UNL A   1      33.549  16.750  24.770  1.00  0.00     0.010 C 
BRANCH  15  16
ATOM     16  C   UNL A   1      35.022  17.187  24.940  1.00  0.00     0.002 C 
ATOM     17  C   UNL A   1      35.900  16.146  25.619  1.00  0.00     0.004 C 
ENDBRANCH  15  16
BRANCH  15  18
ATOM     18  C   UNL A   1      33.165  16.576  23.280  1.00  0.00     0.033 C 
BRANCH  18  19
ATOM     19  C   UNL A   1      32.825  17.885  22.575  1.00  0.00     0.156 C 
BRANCH  19  20
ATOM     20  O   UNL A   1      31.737  17.696  21.682  1.00  0.00    -0.396 OA
ATOM     21  H   UNL A   1      31.901  18.187  20.862  1.00  0.00     0.210 HD
ENDBRANCH  19  20
ENDBRANCH  18  19
ENDBRANCH  15  18
ENDBRANCH  14  15
ENDBRANCH  12  14
ENDBRANCH   7  12
ENDBRANCH   3   6
ENDBRANCH   1   2
BRANCH   1  22
ATOM     22  C   UNL A   1      37.203  22.923  24.713  1.00  0.00     0.021 C 
BRANCH  22  23
ATOM     23  C   UNL A   1      37.042  21.672  25.590  1.00  0.00     0.002 C 
BRANCH  23  24
ATOM     24  C   UNL A   1      36.989  20.346  24.820  1.00  0.00     0.002 C 
BRANCH  24  25
ATOM     25  C   UNL A   1      38.283  19.528  24.839  1.00  0.00     0.021 C 
BRANCH  25  26
ATOM     26  C   UNL A   1      39.230  19.855  25.992  1.00  0.00     0.116 C 
BRANCH  26  27
ATOM     27  N   UNL A   1      40.460  19.085  25.914  1.00  0.00    -0.352 N 
ATOM     28  C   UNL A   1      41.764  19.496  26.024  1.00  0.00     0.251 C 
ATOM     29  H   UNL A   1      40.339  18.121  25.759  1.00  0.00     0.163 HD
ATOM     30  O   UNL A   1      42.671  18.730  25.712  1.00  0.00    -0.269 OA
BRANCH  28  31
ATOM     31  C   UNL A   1      42.089  20.858  26.504  1.00  0.00     0.039 A 
ATOM     32  C   UNL A   1      42.039  21.109  27.878  1.00  0.00     0.014 A 
ATOM     33  C   UNL A   1      42.380  21.896  25.614  1.00  0.00     0.014 A 
ATOM     34  C   UNL A   1      42.322  22.387  28.363  1.00  0.00     0.010 A 
ATOM     35  C   UNL A   1      42.721  23.158  26.102  1.00  0.00     0.010 A 
ATOM     36  C   UNL A   1      42.687  23.417  27.480  1.00  0.00    -0.014 A 
BRANCH  36  37
ATOM     37  C   UNL A   1      43.034  24.765  27.997  1.00  0.00     0.031 A 
ATOM     38  C   UNL A   1      41.963  25.794  28.234  1.00  0.00     0.074 A 
ATOM     39  C   UNL A   1      44.325  25.070  28.230  1.00  0.00     0.049 A 
ATOM     40  N   UNL A   1      42.079  27.017  28.686  1.00  0.00    -0.248 NA
ATOM     41  C   UNL A   1      40.584  25.405  27.902  1.00  0.00     0.031 C 
ATOM     42  C   UNL A   1      45.461  24.177  27.993  1.00  0.00     0.029 A 
ATOM     43  N   UNL A   1      44.900  26.216  28.719  1.00  0.00    -0.354 N 
ATOM     44  C   UNL A   1      40.794  27.544  28.689  1.00  0.00     0.074 A 
ATOM     45  C   UNL A   1      39.920  26.527  28.145  1.00  0.00     0.031 C 
ATOM     46  C   UNL A   1      46.592  24.798  28.364  1.00  0.00     0.029 A 
ATOM     47  C   UNL A   1      46.265  26.138  28.841  1.00  0.00     0.049 A 
ATOM     48  H   UNL A   1      44.382  27.019  28.959  1.00  0.00     0.167 HD
ATOM     49  C   UNL A   1      40.377  28.757  29.124  1.00  0.00     0.037 A 
ATOM     50  C   UNL A   1      47.153  27.043  29.293  1.00  0.00     0.037 A 
ATOM     51  C   UNL A   1      41.242  29.761  29.685  1.00  0.00     0.049 A 
ATOM     52  C   UNL A   1      46.661  28.375  29.784  1.00  0.00     0.074 A 
ATOM     53  C   UNL A   1      40.906  31.002  30.199  1.00  0.00     0.029 A 
ATOM     54  N   UNL A   1      42.618  29.639  29.806  1.00  0.00    -0.354 N 
ATOM     55  N   UNL A   1      45.435  28.834  29.838  1.00  0.00    -0.248 NA
ATOM     56  C   UNL A   1      47.677  29.311  30.286  1.00  0.00     0.031 C 
ATOM     57  C   UNL A   1      42.083  31.642  30.604  1.00  0.00     0.029 A 
ATOM     58  C   UNL A   1      43.147  30.787  30.374  1.00  0.00     0.049 A 
ATOM     59  H   UNL A   1      43.141  28.852  29.529  1.00  0.00     0.167 HD
ATOM     60  C   UNL A   1      45.529  30.100  30.400  1.00  0.00     0.074 A 
ATOM     61  C   UNL A   1      46.930  30.329  30.686  1.00  0.00     0.031 C 
ATOM     62  C   UNL A   1      44.543  30.995  30.654  1.00  0.00     0.037 A 
BRANCH  49  63
ATOM     63  C   UNL A   1      38.911  29.060  29.024  1.00  0.00     0.057 A 
ATOM     64  C   UNL A   1      38.061  28.952  30.132  1.00  0.00     0.134 A 
ATOM     65  C   UNL A   1      38.350  29.508  27.821  1.00  0.00     0.134 A 
ATOM     66  F   UNL A   1      38.534  28.519  31.310  1.00  0.00    -0.206 F 
ATOM     67  C   UNL A   1      36.702  29.259  30.043  1.00  0.00     0.040 A 
ATOM     68  C   UNL A   1      36.997  29.839  27.725  1.00  0.00     0.040 A 
ATOM     69  F   UNL A   1      39.109  29.639  26.722  1.00  0.00    -0.206 F 
ATOM     70  C   UNL A   1      36.168  29.711  28.838  1.00  0.00     0.006 A 
ENDBRANCH  49  63
BRANCH  50  71
ATOM     71  C   UNL A   1      48.598  26.707  29.339  1.00  0.00     0.057 A 
ATOM     72  C   UNL A   1      49.167  26.129  30.480  1.00  0.00     0.134 A 
ATOM     73  C   UNL A   1      49.444  26.971  28.256  1.00  0.00     0.134 A 
ATOM     74  F   UNL A   1      48.408  25.871  31.556  1.00  0.00    -0.206 F 
ATOM     75  C   UNL A   1      50.531  25.843  30.551  1.00  0.00     0.040 A 
ATOM     76  C   UNL A   1      50.806  26.669  28.306  1.00  0.00     0.040 A 
ATOM     77  F   UNL A   1      48.957  27.517  27.133  1.00  0.00    -0.206 F 
ATOM     78  C   UNL A   1      51.354  26.111  29.459  1.00  0.00     0.006 A 
ENDBRANCH  50  71
BRANCH  62  79
ATOM     79  C   UNL A   1      44.950  32.290  31.292  1.00  0.00     0.057 A 
ATOM     80  C   UNL A   1      45.016  32.437  32.684  1.00  0.00     0.134 A 
ATOM     81  C   UNL A   1      45.295  33.396  30.506  1.00  0.00     0.134 A 
ATOM     82  F   UNL A   1      44.684  31.417  33.492  1.00  0.00    -0.206 F 
ATOM     83  C   UNL A   1      45.384  33.647  33.272  1.00  0.00     0.040 A 
ATOM     84  C   UNL A   1      45.687  34.605  31.082  1.00  0.00     0.040 A 
ATOM     85  F   UNL A   1      45.259  33.319  29.168  1.00  0.00    -0.206 F 
ATOM     86  C   UNL A   1      45.725  34.735  32.469  1.00  0.00     0.006 A 
ENDBRANCH  62  79
ENDBRANCH  36  37
ENDBRANCH  28  31
ENDBRANCH  26  27
ENDBRANCH  25  26
ENDBRANCH  24  25
ENDBRANCH  23  24
ENDBRANCH  22  23
ENDBRANCH   1  22
TORSDOF 20
ENDMDL
MODEL 3
REMARK VINA RESULT:      -9.7      1.698      2.130
REMARK SMILES CC[C@H](CCO)CNc1cc(C(=O)NCCCCCCNC(=O)c2ccc(-c3c4nc(c(-c5c(F)cccc5F)c5ccc([nH]5)c(-c5c(F)cccc5F)c5nc(c(-c6c(F)cccc6F)c6ccc3[nH]6)C=C5)C=C4)cc2)ccn1
REMARK SMILES IDX 15 1 14 2 12 3 13 4 11 6 9 7 10 8 80 9 79 10 78 11 8 12 7 14
REMARK SMILES IDX 3 15 2 16 1 17 4 18 5 19 6 20 16 22 17 23 18 24 19 25 20 26
REMARK SMILES IDX 21 27 22 28 23 30 24 31 25 32 77 33 26 34 76 35 27 36 28 37
REMARK SMILES IDX 29 38 70 39 30 40 75 41 69 42 71 43 31 44 74 45 68 46 67 47
REMARK SMILES IDX 32 49 58 50 41 51 57 52 42 53 45 54 56 55 72 56 43 57 44 58
REMARK SMILES IDX 55 60 73 61 46 62 33 63 34 64 39 65 35 66 36 67 38 68 40 69
REMARK SMILES IDX 37 70 59 71 60 72 65 73 61 74 62 75 64 76 66 77 63 78 47 79
REMARK SMILES IDX 48 80 53 81 49 82 50 83 52 84 54 85 51 86
REMARK H PARENT 14 5 8 13 6 21 21 29 71 48 45 59
REMARK Flexibility Score: inf
ROOT
ATOM      1  C   UNL A   1      38.048  22.092  25.941  1.00  0.00     0.116 C 
ENDROOT
BRANCH   1   2
ATOM      2  N   UNL A   1      37.668  22.499  24.601  1.00  0.00    -0.352 N 
ATOM      3  C   UNL A   1      36.493  22.469  23.899  1.00  0.00     0.251 C 
ATOM      4  O   UNL A   1      36.529  22.887  22.740  1.00  0.00    -0.269 OA
ATOM      5  H   UNL A   1      38.416  22.878  24.086  1.00  0.00     0.163 HD
BRANCH   3   6
ATOM      6  C   UNL A   1      35.184  22.033  24.458  1.00  0.00     0.044 A 
ATOM      7  C   UNL A   1      33.650  20.489  25.477  1.00  0.00     0.126 A 
ATOM      8  C   UNL A   1      34.869  20.737  24.857  1.00  0.00     0.060 A 
ATOM      9  N   UNL A   1      32.698  21.429  25.587  1.00  0.00    -0.240 NA
ATOM     10  C   UNL A   1      32.980  22.665  25.124  1.00  0.00     0.114 A 
ATOM     11  C   UNL A   1      34.199  23.016  24.581  1.00  0.00     0.034 A 
BRANCH   7  12
ATOM     12  N   UNL A   1      33.361  19.275  26.071  1.00  0.00    -0.370 N 
ATOM     13  H   UNL A   1      33.528  19.140  27.033  1.00  0.00     0.162 HD
BRANCH  12  14
ATOM     14  C   UNL A   1      32.807  18.198  25.261  1.00  0.00     0.118 C 
BRANCH  14  15
ATOM     15  C   UNL A   1      33.943  17.329  24.671  1.00  0.00     0.010 C 
BRANCH  15  16
ATOM     16  C   UNL A   1      33.736  17.194  23.145  1.00  0.00     0.002 C 
ATOM     17  C   UNL A   1      32.561  17.997  22.608  1.00  0.00     0.004 C 
ENDBRANCH  15  16
BRANCH  15  18
ATOM     18  C   UNL A   1      33.988  15.951  25.374  1.00  0.00     0.033 C 
BRANCH  18  19
ATOM     19  C   UNL A   1      32.667  15.189  25.320  1.00  0.00     0.156 C 
BRANCH  19  20
ATOM     20  O   UNL A   1      32.126  15.048  26.626  1.00  0.00    -0.396 OA
ATOM     21  H   UNL A   1      32.742  14.543  27.179  1.00  0.00     0.210 HD
ENDBRANCH  19  20
ENDBRANCH  18  19
ENDBRANCH  15  18
ENDBRANCH  14  15
ENDBRANCH  12  14
ENDBRANCH   7  12
ENDBRANCH   3   6
ENDBRANCH   1   2
BRANCH   1  22
ATOM     22  C   UNL A   1      39.124  23.032  26.490  1.00  0.00     0.021 C 
BRANCH  22  23
ATOM     23  C   UNL A   1      40.532  22.416  26.468  1.00  0.00     0.002 C 
BRANCH  23  24
ATOM     24  C   UNL A   1      40.859  21.509  27.662  1.00  0.00     0.002 C 
BRANCH  24  25
ATOM     25  C   UNL A   1      41.261  20.076  27.304  1.00  0.00     0.021 C 
BRANCH  25  26
ATOM     26  C   UNL A   1      41.293  19.776  25.806  1.00  0.00     0.116 C 
BRANCH  26  27
ATOM     27  N   UNL A   1      42.565  19.204  25.398  1.00  0.00    -0.352 N 
ATOM     28  C   UNL A   1      43.767  19.816  25.150  1.00  0.00     0.251 C 
ATOM     29  H   UNL A   1      42.564  18.227  25.281  1.00  0.00     0.163 HD
ATOM     30  O   UNL A   1      44.668  19.187  24.605  1.00  0.00    -0.269 OA
BRANCH  28  31
ATOM     31  C   UNL A   1      43.986  21.231  25.525  1.00  0.00     0.039 A 
ATOM     32  C   UNL A   1      44.390  21.519  26.832  1.00  0.00     0.014 A 
ATOM     33  C   UNL A   1      43.738  22.272  24.625  1.00  0.00     0.014 A 
ATOM     34  C   UNL A   1      44.588  22.844  27.223  1.00  0.00     0.010 A 
ATOM     35  C   UNL A   1      43.992  23.592  24.999  1.00  0.00     0.010 A 
ATOM     36  C   UNL A   1      44.411  23.891  26.303  1.00  0.00    -0.014 A 
BRANCH  36  37
ATOM     37  C   UNL A   1      44.666  25.297  26.704  1.00  0.00     0.031 A 
ATOM     38  C   UNL A   1      46.043  25.889  26.591  1.00  0.00     0.074 A 
ATOM     39  C   UNL A   1      43.653  26.037  27.197  1.00  0.00     0.049 A 
ATOM     40  N   UNL A   1      46.450  27.098  26.887  1.00  0.00    -0.248 NA
ATOM     41  C   UNL A   1      47.109  25.001  26.099  1.00  0.00     0.031 C 
ATOM     42  C   UNL A   1      42.283  25.564  27.402  1.00  0.00     0.029 A 
ATOM     43  N   UNL A   1      43.620  27.344  27.612  1.00  0.00    -0.354 N 
ATOM     44  C   UNL A   1      47.814  27.115  26.623  1.00  0.00     0.074 A 
ATOM     45  C   UNL A   1      48.177  25.782  26.191  1.00  0.00     0.031 C 
ATOM     46  C   UNL A   1      41.537  26.574  27.878  1.00  0.00     0.029 A 
ATOM     47  C   UNL A   1      42.379  27.756  28.032  1.00  0.00     0.049 A 
ATOM     48  H   UNL A   1      44.411  27.931  27.610  1.00  0.00     0.167 HD
ATOM     49  C   UNL A   1      48.681  28.152  26.712  1.00  0.00     0.037 A 
ATOM     50  C   UNL A   1      41.965  28.954  28.485  1.00  0.00     0.037 A 
ATOM     51  C   UNL A   1      48.317  29.483  27.120  1.00  0.00     0.049 A 
ATOM     52  C   UNL A   1      42.945  30.091  28.560  1.00  0.00     0.074 A 
ATOM     53  C   UNL A   1      49.114  30.612  27.194  1.00  0.00     0.029 A 
ATOM     54  N   UNL A   1      47.047  29.864  27.524  1.00  0.00    -0.354 N 
ATOM     55  N   UNL A   1      44.217  30.107  28.245  1.00  0.00    -0.248 NA
ATOM     56  C   UNL A   1      42.427  31.379  29.041  1.00  0.00     0.031 C 
ATOM     57  C   UNL A   1      48.332  31.670  27.672  1.00  0.00     0.029 A 
ATOM     58  C   UNL A   1      47.041  31.209  27.861  1.00  0.00     0.049 A 
ATOM     59  H   UNL A   1      46.264  29.268  27.565  1.00  0.00     0.167 HD
ATOM     60  C   UNL A   1      44.646  31.409  28.470  1.00  0.00     0.074 A 
ATOM     61  C   UNL A   1      43.494  32.157  28.928  1.00  0.00     0.031 C 
ATOM     62  C   UNL A   1      45.885  31.937  28.312  1.00  0.00     0.037 A 
BRANCH  49  63
ATOM     63  C   UNL A   1      50.112  27.889  26.344  1.00  0.00     0.057 A 
ATOM     64  C   UNL A   1      50.538  27.884  25.010  1.00  0.00     0.134 A 
ATOM     65  C   UNL A   1      51.082  27.685  27.333  1.00  0.00     0.134 A 
ATOM     66  F   UNL A   1      49.656  28.063  24.014  1.00  0.00    -0.206 F 
ATOM     67  C   UNL A   1      51.874  27.665  24.671  1.00  0.00     0.040 A 
ATOM     68  C   UNL A   1      52.425  27.487  27.008  1.00  0.00     0.040 A 
ATOM     69  F   UNL A   1      50.742  27.684  28.631  1.00  0.00    -0.206 F 
ATOM     70  C   UNL A   1      52.824  27.472  25.672  1.00  0.00     0.006 A 
ENDBRANCH  49  63
BRANCH  50  71
ATOM     71  C   UNL A   1      40.546  29.153  28.871  1.00  0.00     0.057 A 
ATOM     72  C   UNL A   1      39.560  29.363  27.901  1.00  0.00     0.134 A 
ATOM     73  C   UNL A   1      40.147  29.156  30.212  1.00  0.00     0.134 A 
ATOM     74  F   UNL A   1      39.887  29.390  26.600  1.00  0.00    -0.206 F 
ATOM     75  C   UNL A   1      38.228  29.589  28.250  1.00  0.00     0.040 A 
ATOM     76  C   UNL A   1      38.814  29.358  30.575  1.00  0.00     0.040 A 
ATOM     77  F   UNL A   1      41.045  28.953  31.187  1.00  0.00    -0.206 F 
ATOM     78  C   UNL A   1      37.852  29.584  29.592  1.00  0.00     0.006 A 
ENDBRANCH  50  71
BRANCH  62  79
ATOM     79  C   UNL A   1      46.043  33.397  28.618  1.00  0.00     0.057 A 
ATOM     80  C   UNL A   1      45.843  34.380  27.640  1.00  0.00     0.134 A 
ATOM     81  C   UNL A   1      46.384  33.823  29.907  1.00  0.00     0.134 A 
ATOM     82  F   UNL A   1      45.529  34.034  26.382  1.00  0.00    -0.206 F 
ATOM     83  C   UNL A   1      46.005  35.736  27.927  1.00  0.00     0.040 A 
ATOM     84  C   UNL A   1      46.525  35.178  30.213  1.00  0.00     0.040 A 
ATOM     85  F   UNL A   1      46.583  32.933  30.889  1.00  0.00    -0.206 F 
ATOM     86  C   UNL A   1      46.342  36.138  29.219  1.00  0.00     0.006 A 
ENDBRANCH  62  79
ENDBRANCH  36  37
ENDBRANCH  28  31
ENDBRANCH  26  27
ENDBRANCH  25  26
ENDBRANCH  24  25
ENDBRANCH  23  24
ENDBRANCH  22  23
ENDBRANCH   1  22
TORSDOF 20
ENDMDL
