MODEL 1
REMARK VINA RESULT:     -11.7      0.000      0.000
REMARK SMILES COc1ccc(NC(=O)[C@@H]2[C@@H](C(=O)NCCCCCCNC(=O)c3ccc(-c4c5nc(c(-c6c(F)cccc6F)c6ccc([nH]6)c(-c6c(F)cccc6F)c6nc(c(-c7c(F)cccc7F)c7ccc4[nH]7)C=C6)C=C5)cc3)[C@@H]3CC[C@H]2C3=C(C)C)cc1
REMARK SMILES IDX 17 1 16 2 15 3 14 4 12 5 13 6 11 8 10 9 81 10 78 11 80 12
REMARK SMILES IDX 82 13 79 14 83 15 84 16 85 17 8 18 7 19 9 21 6 22 3 23 4 24
REMARK SMILES IDX 87 25 5 26 86 27 2 28 1 29 18 30 19 31 20 32 21 33 22 34
REMARK SMILES IDX 23 36 24 37 25 38 77 39 26 40 76 41 27 42 28 43 29 44 70 45
REMARK SMILES IDX 30 46 75 47 69 48 71 49 31 50 74 51 68 52 67 53 32 55 58 56
REMARK SMILES IDX 41 57 57 58 42 59 45 60 56 61 72 62 43 63 44 64 55 66 73 67
REMARK SMILES IDX 46 68 33 69 34 70 39 71 35 72 36 73 38 74 40 75 37 76 59 77
REMARK SMILES IDX 60 78 65 79 61 80 62 81 64 82 66 83 63 84 47 85 48 86 53 87
REMARK SMILES IDX 49 88 50 89 52 90 54 91 51 92
REMARK H PARENT 14 7 7 20 21 35 71 54 45 65
REMARK Flexibility Score: inf
ROOT
ATOM      1  C   UNL A   1      38.370  22.477  25.792  1.00  0.00     0.002 C 
ENDROOT
BRANCH   1   2
ATOM      2  C   UNL A   1      37.674  23.842  25.762  1.00  0.00     0.021 C 
BRANCH   2   3
ATOM      3  C   UNL A   1      36.149  23.757  25.887  1.00  0.00     0.116 C 
BRANCH   3   4
ATOM      4  N   UNL A   1      35.505  24.126  24.649  1.00  0.00    -0.356 N 
ATOM      5  C   UNL A   1      34.217  24.500  24.433  1.00  0.00     0.224 C 
ATOM      6  O   UNL A   1      33.710  24.083  23.385  1.00  0.00    -0.275 OA
ATOM      7  H   UNL A   1      36.079  24.104  23.850  1.00  0.00     0.163 HD
BRANCH   5   8
ATOM      8  C   UNL A   1      33.403  25.440  25.324  1.00  0.00     0.098 C 
ATOM      9  C   UNL A   1      31.858  25.392  25.162  1.00  0.00     0.099 C 
ATOM     10  C   UNL A   1      31.483  26.892  25.320  1.00  0.00     0.028 C 
ATOM     11  C   UNL A   1      33.744  26.955  25.229  1.00  0.00     0.028 C 
ATOM     12  C   UNL A   1      31.918  27.517  26.673  1.00  0.00     0.009 C 
ATOM     13  C   UNL A   1      32.553  27.518  24.478  1.00  0.00    -0.064 C 
ATOM     14  C   UNL A   1      33.454  27.568  26.602  1.00  0.00     0.009 C 
ATOM     15  C   UNL A   1      32.407  28.373  23.450  1.00  0.00    -0.077 C 
ATOM     16  C   UNL A   1      33.541  29.114  22.802  1.00  0.00     0.039 C 
ATOM     17  C   UNL A   1      31.056  28.659  22.846  1.00  0.00     0.039 C 
BRANCH   9  18
ATOM     18  C   UNL A   1      31.058  24.586  26.191  1.00  0.00     0.228 C 
ATOM     19  N   UNL A   1      31.358  23.318  26.574  1.00  0.00    -0.326 N 
ATOM     20  H   UNL A   1      30.903  23.053  27.405  1.00  0.00     0.169 HD
ATOM     21  O   UNL A   1      30.067  25.075  26.750  1.00  0.00    -0.274 OA
BRANCH  19  22
ATOM     22  C   UNL A   1      32.166  22.307  26.050  1.00  0.00     0.041 A 
ATOM     23  C   UNL A   1      33.568  20.167  24.935  1.00  0.00     0.119 A 
ATOM     24  C   UNL A   1      34.021  20.760  26.109  1.00  0.00     0.048 A 
ATOM     25  C   UNL A   1      32.458  20.675  24.271  1.00  0.00     0.048 A 
ATOM     26  C   UNL A   1      33.334  21.849  26.652  1.00  0.00     0.030 A 
ATOM     27  C   UNL A   1      31.771  21.759  24.820  1.00  0.00     0.030 A 
BRANCH  23  28
ATOM     28  O   UNL A   1      34.164  19.011  24.516  1.00  0.00    -0.497 OA
ATOM     29  C   UNL A   1      33.189  18.020  24.204  1.00  0.00     0.278 C 
ENDBRANCH  23  28
ENDBRANCH  19  22
ENDBRANCH   9  18
ENDBRANCH   5   8
ENDBRANCH   3   4
ENDBRANCH   2   3
ENDBRANCH   1   2
BRANCH   1  30
ATOM     30  C   UNL A   1      37.613  21.346  25.084  1.00  0.00     0.002 C 
BRANCH  30  31
ATOM     31  C   UNL A   1      38.404  20.052  24.884  1.00  0.00     0.021 C 
BRANCH  31  32
ATOM     32  C   UNL A   1      39.111  19.532  26.131  1.00  0.00     0.116 C 
BRANCH  32  33
ATOM     33  N   UNL A   1      40.421  18.980  25.822  1.00  0.00    -0.352 N 
ATOM     34  C   UNL A   1      41.646  19.593  25.806  1.00  0.00     0.251 C 
ATOM     35  H   UNL A   1      40.428  18.023  25.590  1.00  0.00     0.163 HD
ATOM     36  O   UNL A   1      42.611  19.032  25.286  1.00  0.00    -0.269 OA
BRANCH  34  37
ATOM     37  C   UNL A   1      41.809  20.936  26.398  1.00  0.00     0.039 A 
ATOM     38  C   UNL A   1      41.650  21.095  27.776  1.00  0.00     0.014 A 
ATOM     39  C   UNL A   1      42.114  22.037  25.593  1.00  0.00     0.014 A 
ATOM     40  C   UNL A   1      41.873  22.346  28.357  1.00  0.00     0.010 A 
ATOM     41  C   UNL A   1      42.410  23.262  26.181  1.00  0.00     0.010 A 
ATOM     42  C   UNL A   1      42.299  23.427  27.569  1.00  0.00    -0.014 A 
BRANCH  42  43
ATOM     43  C   UNL A   1      42.658  24.733  28.177  1.00  0.00     0.031 A 
ATOM     44  C   UNL A   1      41.613  25.796  28.366  1.00  0.00     0.074 A 
ATOM     45  C   UNL A   1      43.945  24.987  28.487  1.00  0.00     0.049 A 
ATOM     46  N   UNL A   1      41.753  27.026  28.792  1.00  0.00    -0.248 NA
ATOM     47  C   UNL A   1      40.232  25.437  28.008  1.00  0.00     0.031 C 
ATOM     48  C   UNL A   1      45.058  24.051  28.314  1.00  0.00     0.029 A 
ATOM     49  N   UNL A   1      44.538  26.114  28.998  1.00  0.00    -0.354 N 
ATOM     50  C   UNL A   1      40.484  27.588  28.742  1.00  0.00     0.074 A 
ATOM     51  C   UNL A   1      39.598  26.584  28.195  1.00  0.00     0.031 C 
ATOM     52  C   UNL A   1      46.193  24.635  28.729  1.00  0.00     0.029 A 
ATOM     53  C   UNL A   1      45.900  26.000  29.151  1.00  0.00     0.049 A 
ATOM     54  H   UNL A   1      44.036  26.929  29.231  1.00  0.00     0.167 HD
ATOM     55  C   UNL A   1      40.091  28.824  29.135  1.00  0.00     0.037 A 
ATOM     56  C   UNL A   1      46.811  26.900  29.567  1.00  0.00     0.037 A 
ATOM     57  C   UNL A   1      40.977  29.815  29.690  1.00  0.00     0.049 A 
ATOM     58  C   UNL A   1      46.355  28.279  29.958  1.00  0.00     0.074 A 
ATOM     59  C   UNL A   1      40.666  31.074  30.172  1.00  0.00     0.029 A 
ATOM     60  N   UNL A   1      42.349  29.661  29.827  1.00  0.00    -0.354 N 
ATOM     61  N   UNL A   1      45.141  28.774  29.973  1.00  0.00    -0.248 NA
ATOM     62  C   UNL A   1      47.394  29.224  30.388  1.00  0.00     0.031 C 
ATOM     63  C   UNL A   1      41.856  31.704  30.547  1.00  0.00     0.029 A 
ATOM     64  C   UNL A   1      42.903  30.817  30.353  1.00  0.00     0.049 A 
ATOM     65  H   UNL A   1      42.854  28.852  29.586  1.00  0.00     0.167 HD
ATOM     66  C   UNL A   1      45.267  30.077  30.437  1.00  0.00     0.074 A 
ATOM     67  C   UNL A   1      46.674  30.289  30.708  1.00  0.00     0.031 C 
ATOM     68  C   UNL A   1      44.306  31.014  30.620  1.00  0.00     0.037 A 
BRANCH  55  69
ATOM     69  C   UNL A   1      38.639  29.174  28.978  1.00  0.00     0.057 A 
ATOM     70  C   UNL A   1      38.105  29.580  27.748  1.00  0.00     0.134 A 
ATOM     71  C   UNL A   1      37.756  29.067  30.060  1.00  0.00     0.134 A 
ATOM     72  F   UNL A   1      38.897  29.712  26.673  1.00  0.00    -0.206 F 
ATOM     73  C   UNL A   1      36.751  29.890  27.606  1.00  0.00     0.040 A 
ATOM     74  C   UNL A   1      36.395  29.347  29.923  1.00  0.00     0.040 A 
ATOM     75  F   UNL A   1      38.198  28.677  31.265  1.00  0.00    -0.206 F 
ATOM     76  C   UNL A   1      35.891  29.767  28.694  1.00  0.00     0.006 A 
ENDBRANCH  55  69
BRANCH  56  77
ATOM     77  C   UNL A   1      48.247  26.527  29.637  1.00  0.00     0.057 A 
ATOM     78  C   UNL A   1      49.116  26.798  28.574  1.00  0.00     0.134 A 
ATOM     79  C   UNL A   1      48.783  25.884  30.759  1.00  0.00     0.134 A 
ATOM     80  F   UNL A   1      48.658  27.395  27.463  1.00  0.00    -0.206 F 
ATOM     81  C   UNL A   1      50.461  26.426  28.614  1.00  0.00     0.040 A 
ATOM     82  C   UNL A   1      50.132  25.530  30.826  1.00  0.00     0.040 A 
ATOM     83  F   UNL A   1      48.006  25.602  31.815  1.00  0.00    -0.206 F 
ATOM     84  C   UNL A   1      50.973  25.794  29.745  1.00  0.00     0.006 A 
ENDBRANCH  56  77
BRANCH  68  85
ATOM     85  C   UNL A   1      44.733  32.346  31.163  1.00  0.00     0.057 A 
ATOM     86  C   UNL A   1      45.067  33.413  30.321  1.00  0.00     0.134 A 
ATOM     87  C   UNL A   1      44.757  32.578  32.545  1.00  0.00     0.134 A 
ATOM     88  F   UNL A   1      45.077  33.252  28.989  1.00  0.00    -0.206 F 
ATOM     89  C   UNL A   1      45.427  34.661  30.834  1.00  0.00     0.040 A 
ATOM     90  C   UNL A   1      45.087  33.829  33.068  1.00  0.00     0.040 A 
ATOM     91  F   UNL A   1      44.441  31.601  33.407  1.00  0.00    -0.206 F 
ATOM     92  C   UNL A   1      45.428  34.873  32.212  1.00  0.00     0.006 A 
ENDBRANCH  68  85
ENDBRANCH  42  43
ENDBRANCH  34  37
ENDBRANCH  32  33
ENDBRANCH  31  32
ENDBRANCH  30  31
ENDBRANCH   1  30
TORSDOF 16
ENDMDL
MODEL 2
REMARK VINA RESULT:     -11.7      1.154      1.674
REMARK SMILES COc1ccc(NC(=O)[C@@H]2[C@@H](C(=O)NCCCCCCNC(=O)c3ccc(-c4c5nc(c(-c6c(F)cccc6F)c6ccc([nH]6)c(-c6c(F)cccc6F)c6nc(c(-c7c(F)cccc7F)c7ccc4[nH]7)C=C6)C=C5)cc3)[C@@H]3CC[C@H]2C3=C(C)C)cc1
REMARK SMILES IDX 17 1 16 2 15 3 14 4 12 5 13 6 11 8 10 9 81 10 78 11 80 12
REMARK SMILES IDX 82 13 79 14 83 15 84 16 85 17 8 18 7 19 9 21 6 22 3 23 4 24
REMARK SMILES IDX 87 25 5 26 86 27 2 28 1 29 18 30 19 31 20 32 21 33 22 34
REMARK SMILES IDX 23 36 24 37 25 38 77 39 26 40 76 41 27 42 28 43 29 44 70 45
REMARK SMILES IDX 30 46 75 47 69 48 71 49 31 50 74 51 68 52 67 53 32 55 58 56
REMARK SMILES IDX 41 57 57 58 42 59 45 60 56 61 72 62 43 63 44 64 55 66 73 67
REMARK SMILES IDX 46 68 33 69 34 70 39 71 35 72 36 73 38 74 40 75 37 76 59 77
REMARK SMILES IDX 60 78 65 79 61 80 62 81 64 82 66 83 63 84 47 85 48 86 53 87
REMARK SMILES IDX 49 88 50 89 52 90 54 91 51 92
REMARK H PARENT 14 7 7 20 21 35 71 54 45 65
REMARK Flexibility Score: inf
ROOT
ATOM      1  C   UNL A   1      37.305  22.214  24.384  1.00  0.00     0.002 C 
ENDROOT
BRANCH   1   2
ATOM      2  C   UNL A   1      37.341  23.318  25.444  1.00  0.00     0.021 C 
BRANCH   2   3
ATOM      3  C   UNL A   1      35.960  23.884  25.791  1.00  0.00     0.116 C 
BRANCH   3   4
ATOM      4  N   UNL A   1      35.188  24.140  24.598  1.00  0.00    -0.356 N 
ATOM      5  C   UNL A   1      33.887  24.512  24.484  1.00  0.00     0.224 C 
ATOM      6  O   UNL A   1      33.267  24.002  23.543  1.00  0.00    -0.275 OA
ATOM      7  H   UNL A   1      35.673  24.030  23.748  1.00  0.00     0.163 HD
BRANCH   5   8
ATOM      8  C   UNL A   1      33.180  25.550  25.359  1.00  0.00     0.098 C 
ATOM      9  C   UNL A   1      31.637  25.655  25.206  1.00  0.00     0.099 C 
ATOM     10  C   UNL A   1      31.417  27.189  25.334  1.00  0.00     0.028 C 
ATOM     11  C   UNL A   1      33.672  27.020  25.230  1.00  0.00     0.028 C 
ATOM     12  C   UNL A   1      31.924  27.794  26.670  1.00  0.00     0.009 C 
ATOM     13  C   UNL A   1      32.539  27.684  24.472  1.00  0.00    -0.064 C 
ATOM     14  C   UNL A   1      33.457  27.687  26.590  1.00  0.00     0.009 C 
ATOM     15  C   UNL A   1      32.473  28.528  23.427  1.00  0.00    -0.077 C 
ATOM     16  C   UNL A   1      33.672  29.136  22.757  1.00  0.00     0.039 C 
ATOM     17  C   UNL A   1      31.154  28.937  22.824  1.00  0.00     0.039 C 
BRANCH   9  18
ATOM     18  C   UNL A   1      30.766  24.957  26.257  1.00  0.00     0.228 C 
ATOM     19  N   UNL A   1      31.013  23.719  26.757  1.00  0.00    -0.326 N 
ATOM     20  H   UNL A   1      30.512  23.535  27.584  1.00  0.00     0.169 HD
ATOM     21  O   UNL A   1      29.763  25.514  26.724  1.00  0.00    -0.274 OA
BRANCH  19  22
ATOM     22  C   UNL A   1      31.818  22.649  26.360  1.00  0.00     0.041 A 
ATOM     23  C   UNL A   1      33.212  20.385  25.514  1.00  0.00     0.119 A 
ATOM     24  C   UNL A   1      33.670  21.117  26.604  1.00  0.00     0.048 A 
ATOM     25  C   UNL A   1      32.101  20.809  24.796  1.00  0.00     0.048 A 
ATOM     26  C   UNL A   1      32.987  22.267  27.010  1.00  0.00     0.030 A 
ATOM     27  C   UNL A   1      31.417  21.954  25.209  1.00  0.00     0.030 A 
BRANCH  23  28
ATOM     28  O   UNL A   1      33.805  19.184  25.239  1.00  0.00    -0.497 OA
ATOM     29  C   UNL A   1      33.203  18.569  24.104  1.00  0.00     0.278 C 
ENDBRANCH  23  28
ENDBRANCH  19  22
ENDBRANCH   9  18
ENDBRANCH   5   8
ENDBRANCH   3   4
ENDBRANCH   2   3
ENDBRANCH   1   2
BRANCH   1  30
ATOM     30  C   UNL A   1      36.909  20.826  24.904  1.00  0.00     0.002 C 
BRANCH  30  31
ATOM     31  C   UNL A   1      38.046  19.806  24.987  1.00  0.00     0.021 C 
BRANCH  31  32
ATOM     32  C   UNL A   1      39.234  20.237  25.839  1.00  0.00     0.116 C 
BRANCH  32  33
ATOM     33  N   UNL A   1      40.249  19.198  25.921  1.00  0.00    -0.352 N 
ATOM     34  C   UNL A   1      41.602  19.311  26.110  1.00  0.00     0.251 C 
ATOM     35  H   UNL A   1      39.914  18.277  25.827  1.00  0.00     0.163 HD
ATOM     36  O   UNL A   1      42.337  18.343  25.909  1.00  0.00    -0.269 OA
BRANCH  34  37
ATOM     37  C   UNL A   1      42.184  20.598  26.539  1.00  0.00     0.039 A 
ATOM     38  C   UNL A   1      42.768  21.432  25.583  1.00  0.00     0.014 A 
ATOM     39  C   UNL A   1      42.159  20.979  27.884  1.00  0.00     0.014 A 
ATOM     40  C   UNL A   1      43.256  22.684  25.964  1.00  0.00     0.010 A 
ATOM     41  C   UNL A   1      42.576  22.254  28.248  1.00  0.00     0.010 A 
ATOM     42  C   UNL A   1      43.122  23.122  27.291  1.00  0.00    -0.014 A 
BRANCH  42  43
ATOM     43  C   UNL A   1      43.524  24.493  27.697  1.00  0.00     0.031 A 
ATOM     44  C   UNL A   1      42.481  25.523  28.026  1.00  0.00     0.074 A 
ATOM     45  C   UNL A   1      44.829  24.829  27.692  1.00  0.00     0.049 A 
ATOM     46  N   UNL A   1      42.633  26.792  28.309  1.00  0.00    -0.248 NA
ATOM     47  C   UNL A   1      41.080  25.075  28.013  1.00  0.00     0.031 C 
ATOM     48  C   UNL A   1      45.933  23.929  27.353  1.00  0.00     0.029 A 
ATOM     49  N   UNL A   1      45.448  26.023  27.965  1.00  0.00    -0.354 N 
ATOM     50  C   UNL A   1      41.352  27.294  28.497  1.00  0.00     0.074 A 
ATOM     51  C   UNL A   1      40.432  26.206  28.243  1.00  0.00     0.031 C 
ATOM     52  C   UNL A   1      47.093  24.596  27.457  1.00  0.00     0.029 A 
ATOM     53  C   UNL A   1      46.814  25.981  27.821  1.00  0.00     0.049 A 
ATOM     54  H   UNL A   1      44.959  26.833  28.238  1.00  0.00     0.167 HD
ATOM     55  C   UNL A   1      40.978  28.542  28.866  1.00  0.00     0.037 A 
ATOM     56  C   UNL A   1      47.737  26.953  27.950  1.00  0.00     0.037 A 
ATOM     57  C   UNL A   1      41.900  29.617  29.128  1.00  0.00     0.049 A 
ATOM     58  C   UNL A   1      47.292  28.342  28.320  1.00  0.00     0.074 A 
ATOM     59  C   UNL A   1      41.625  30.901  29.563  1.00  0.00     0.029 A 
ATOM     60  N   UNL A   1      43.276  29.535  28.969  1.00  0.00    -0.354 N 
ATOM     61  N   UNL A   1      46.082  28.784  28.564  1.00  0.00    -0.248 NA
ATOM     62  C   UNL A   1      48.340  29.366  28.431  1.00  0.00     0.031 C 
ATOM     63  C   UNL A   1      42.826  31.613  29.613  1.00  0.00     0.029 A 
ATOM     64  C   UNL A   1      43.858  30.757  29.264  1.00  0.00     0.049 A 
ATOM     65  H   UNL A   1      43.765  28.729  28.688  1.00  0.00     0.167 HD
ATOM     66  C   UNL A   1      46.226  30.129  28.881  1.00  0.00     0.074 A 
ATOM     67  C   UNL A   1      47.642  30.425  28.816  1.00  0.00     0.031 C 
ATOM     68  C   UNL A   1      45.271  31.037  29.197  1.00  0.00     0.037 A 
BRANCH  55  69
ATOM     69  C   UNL A   1      39.508  28.815  29.006  1.00  0.00     0.057 A 
ATOM     70  C   UNL A   1      38.837  28.647  30.225  1.00  0.00     0.134 A 
ATOM     71  C   UNL A   1      38.762  29.290  27.920  1.00  0.00     0.134 A 
ATOM     72  F   UNL A   1      39.490  28.187  31.303  1.00  0.00    -0.206 F 
ATOM     73  C   UNL A   1      37.473  28.917  30.351  1.00  0.00     0.040 A 
ATOM     74  C   UNL A   1      37.404  29.590  28.042  1.00  0.00     0.040 A 
ATOM     75  F   UNL A   1      39.342  29.481  26.725  1.00  0.00    -0.206 F 
ATOM     76  C   UNL A   1      36.754  29.396  29.259  1.00  0.00     0.006 A 
ENDBRANCH  55  69
BRANCH  56  77
ATOM     77  C   UNL A   1      49.174  26.650  27.731  1.00  0.00     0.057 A 
ATOM     78  C   UNL A   1      49.764  26.821  26.473  1.00  0.00     0.134 A 
ATOM     79  C   UNL A   1      49.989  26.173  28.764  1.00  0.00     0.134 A 
ATOM     80  F   UNL A   1      49.031  27.257  25.437  1.00  0.00    -0.206 F 
ATOM     81  C   UNL A   1      51.106  26.511  26.245  1.00  0.00     0.040 A 
ATOM     82  C   UNL A   1      51.340  25.885  28.559  1.00  0.00     0.040 A 
ATOM     83  F   UNL A   1      49.488  25.995  29.996  1.00  0.00    -0.206 F 
ATOM     84  C   UNL A   1      51.899  26.045  27.292  1.00  0.00     0.006 A 
ENDBRANCH  56  77
BRANCH  68  85
ATOM     85  C   UNL A   1      45.723  32.431  29.521  1.00  0.00     0.057 A 
ATOM     86  C   UNL A   1      45.818  33.424  28.539  1.00  0.00     0.134 A 
ATOM     87  C   UNL A   1      46.014  32.796  30.843  1.00  0.00     0.134 A 
ATOM     88  F   UNL A   1      45.567  33.135  27.253  1.00  0.00    -0.206 F 
ATOM     89  C   UNL A   1      46.203  34.728  28.856  1.00  0.00     0.040 A 
ATOM     90  C   UNL A   1      46.371  34.104  31.176  1.00  0.00     0.040 A 
ATOM     91  F   UNL A   1      45.935  31.896  31.833  1.00  0.00    -0.206 F 
ATOM     92  C   UNL A   1      46.471  35.072  30.180  1.00  0.00     0.006 A 
ENDBRANCH  68  85
ENDBRANCH  42  43
ENDBRANCH  34  37
ENDBRANCH  32  33
ENDBRANCH  31  32
ENDBRANCH  30  31
ENDBRANCH   1  30
TORSDOF 16
ENDMDL
MODEL 3
REMARK VINA RESULT:     -11.2      2.407      4.707
REMARK SMILES COc1ccc(NC(=O)[C@@H]2[C@@H](C(=O)NCCCCCCNC(=O)c3ccc(-c4c5nc(c(-c6c(F)cccc6F)c6ccc([nH]6)c(-c6c(F)cccc6F)c6nc(c(-c7c(F)cccc7F)c7ccc4[nH]7)C=C6)C=C5)cc3)[C@@H]3CC[C@H]2C3=C(C)C)cc1
REMARK SMILES IDX 17 1 16 2 15 3 14 4 12 5 13 6 11 8 10 9 81 10 78 11 80 12
REMARK SMILES IDX 82 13 79 14 83 15 84 16 85 17 8 18 7 19 9 21 6 22 3 23 4 24
REMARK SMILES IDX 87 25 5 26 86 27 2 28 1 29 18 30 19 31 20 32 21 33 22 34
REMARK SMILES IDX 23 36 24 37 25 38 77 39 26 40 76 41 27 42 28 43 29 44 70 45
REMARK SMILES IDX 30 46 75 47 69 48 71 49 31 50 74 51 68 52 67 53 32 55 58 56
REMARK SMILES IDX 41 57 57 58 42 59 45 60 56 61 72 62 43 63 44 64 55 66 73 67
REMARK SMILES IDX 46 68 33 69 34 70 39 71 35 72 36 73 38 74 40 75 37 76 59 77
REMARK SMILES IDX 60 78 65 79 61 80 62 81 64 82 66 83 63 84 47 85 48 86 53 87
REMARK SMILES IDX 49 88 50 89 52 90 54 91 51 92
REMARK H PARENT 14 7 7 20 21 35 71 54 45 65
REMARK Flexibility Score: inf
ROOT
ATOM      1  C   UNL A   1      33.601  22.112  27.326  1.00  0.00     0.002 C 
ENDROOT
BRANCH   1   2
ATOM      2  C   UNL A   1      32.347  22.990  27.282  1.00  0.00     0.021 C 
BRANCH   2   3
ATOM      3  C   UNL A   1      31.356  22.594  26.181  1.00  0.00     0.116 C 
BRANCH   3   4
ATOM      4  N   UNL A   1      30.278  23.550  26.083  1.00  0.00    -0.356 N 
ATOM      5  C   UNL A   1      30.338  24.883  25.834  1.00  0.00     0.224 C 
ATOM      6  O   UNL A   1      29.533  25.579  26.465  1.00  0.00    -0.275 OA
ATOM      7  H   UNL A   1      29.374  23.183  26.214  1.00  0.00     0.163 HD
BRANCH   5   8
ATOM      8  C   UNL A   1      31.243  25.555  24.799  1.00  0.00     0.098 C 
ATOM      9  C   UNL A   1      32.067  26.780  25.285  1.00  0.00     0.099 C 
ATOM     10  C   UNL A   1      32.007  27.707  24.039  1.00  0.00     0.028 C 
ATOM     11  C   UNL A   1      30.557  26.056  23.496  1.00  0.00     0.028 C 
ATOM     12  C   UNL A   1      32.590  27.075  22.747  1.00  0.00     0.009 C 
ATOM     13  C   UNL A   1      30.560  27.561  23.676  1.00  0.00    -0.064 C 
ATOM     14  C   UNL A   1      31.596  25.960  22.376  1.00  0.00     0.009 C 
ATOM     15  C   UNL A   1      29.646  28.532  23.499  1.00  0.00    -0.077 C 
ATOM     16  C   UNL A   1      28.275  28.306  22.930  1.00  0.00     0.039 C 
ATOM     17  C   UNL A   1      29.931  29.964  23.876  1.00  0.00     0.039 C 
BRANCH   9  18
ATOM     18  C   UNL A   1      33.541  26.552  25.642  1.00  0.00     0.228 C 
ATOM     19  N   UNL A   1      34.290  27.405  26.386  1.00  0.00    -0.326 N 
ATOM     20  H   UNL A   1      35.118  26.992  26.721  1.00  0.00     0.169 HD
ATOM     21  O   UNL A   1      34.137  25.536  25.261  1.00  0.00    -0.274 OA
BRANCH  19  22
ATOM     22  C   UNL A   1      34.149  28.738  26.781  1.00  0.00     0.041 A 
ATOM     23  C   UNL A   1      34.026  31.348  27.761  1.00  0.00     0.119 A 
ATOM     24  C   UNL A   1      32.883  30.741  27.250  1.00  0.00     0.048 A 
ATOM     25  C   UNL A   1      35.249  30.690  27.725  1.00  0.00     0.048 A 
ATOM     26  C   UNL A   1      32.952  29.444  26.734  1.00  0.00     0.030 A 
ATOM     27  C   UNL A   1      35.312  29.391  27.215  1.00  0.00     0.030 A 
BRANCH  23  28
ATOM     28  O   UNL A   1      33.897  32.549  28.399  1.00  0.00    -0.497 OA
ATOM     29  C   UNL A   1      34.927  33.449  28.002  1.00  0.00     0.278 C 
ENDBRANCH  23  28
ENDBRANCH  19  22
ENDBRANCH   9  18
ENDBRANCH   5   8
ENDBRANCH   3   4
ENDBRANCH   2   3
ENDBRANCH   1   2
BRANCH   1  30
ATOM     30  C   UNL A   1      33.885  21.319  26.043  1.00  0.00     0.002 C 
BRANCH  30  31
ATOM     31  C   UNL A   1      34.918  21.942  25.101  1.00  0.00     0.021 C 
BRANCH  31  32
ATOM     32  C   UNL A   1      36.228  22.349  25.765  1.00  0.00     0.116 C 
BRANCH  32  33
ATOM     33  N   UNL A   1      37.192  21.259  25.776  1.00  0.00    -0.352 N 
ATOM     34  C   UNL A   1      38.547  21.293  25.978  1.00  0.00     0.251 C 
ATOM     35  H   UNL A   1      36.815  20.364  25.615  1.00  0.00     0.163 HD
ATOM     36  O   UNL A   1      39.237  20.309  25.710  1.00  0.00    -0.269 OA
BRANCH  34  37
ATOM     37  C   UNL A   1      39.187  22.517  26.501  1.00  0.00     0.039 A 
ATOM     38  C   UNL A   1      40.218  22.400  27.435  1.00  0.00     0.014 A 
ATOM     39  C   UNL A   1      38.766  23.779  26.072  1.00  0.00     0.014 A 
ATOM     40  C   UNL A   1      40.880  23.545  27.882  1.00  0.00     0.010 A 
ATOM     41  C   UNL A   1      39.475  24.911  26.459  1.00  0.00     0.010 A 
ATOM     42  C   UNL A   1      40.543  24.806  27.362  1.00  0.00    -0.014 A 
BRANCH  42  43
ATOM     43  C   UNL A   1      41.309  26.024  27.729  1.00  0.00     0.031 A 
ATOM     44  C   UNL A   1      40.655  27.123  28.516  1.00  0.00     0.074 A 
ATOM     45  C   UNL A   1      42.573  26.170  27.283  1.00  0.00     0.049 A 
ATOM     46  N   UNL A   1      41.131  28.296  28.850  1.00  0.00    -0.248 NA
ATOM     47  C   UNL A   1      39.276  26.884  28.969  1.00  0.00     0.031 C 
ATOM     48  C   UNL A   1      43.304  25.189  26.478  1.00  0.00     0.029 A 
ATOM     49  N   UNL A   1      43.461  27.205  27.431  1.00  0.00    -0.354 N 
ATOM     50  C   UNL A   1      40.109  28.935  29.540  1.00  0.00     0.074 A 
ATOM     51  C   UNL A   1      38.970  28.043  29.531  1.00  0.00     0.031 C 
ATOM     52  C   UNL A   1      44.534  25.662  26.219  1.00  0.00     0.029 A 
ATOM     53  C   UNL A   1      44.662  26.996  26.796  1.00  0.00     0.049 A 
ATOM     54  H   UNL A   1      43.256  28.022  27.942  1.00  0.00     0.167 HD
ATOM     55  C   UNL A   1      40.126  30.148  30.143  1.00  0.00     0.037 A 
ATOM     56  C   UNL A   1      45.739  27.796  26.678  1.00  0.00     0.037 A 
ATOM     57  C   UNL A   1      41.267  31.027  30.158  1.00  0.00     0.049 A 
ATOM     58  C   UNL A   1      45.717  29.155  27.321  1.00  0.00     0.074 A 
ATOM     59  C   UNL A   1      41.404  32.251  30.790  1.00  0.00     0.029 A 
ATOM     60  N   UNL A   1      42.464  30.780  29.503  1.00  0.00    -0.354 N 
ATOM     61  N   UNL A   1      44.769  29.718  28.031  1.00  0.00    -0.248 NA
ATOM     62  C   UNL A   1      46.913  29.991  27.146  1.00  0.00     0.031 C 
ATOM     63  C   UNL A   1      42.661  32.770  30.470  1.00  0.00     0.029 A 
ATOM     64  C   UNL A   1      43.332  31.844  29.686  1.00  0.00     0.049 A 
ATOM     65  H   UNL A   1      42.668  29.969  28.983  1.00  0.00     0.167 HD
ATOM     66  C   UNL A   1      45.263  30.961  28.408  1.00  0.00     0.074 A 
ATOM     67  C   UNL A   1      46.600  31.062  27.861  1.00  0.00     0.031 C 
ATOM     68  C   UNL A   1      44.662  31.931  29.138  1.00  0.00     0.037 A 
BRANCH  55  69
ATOM     69  C   UNL A   1      38.871  30.598  30.835  1.00  0.00     0.057 A 
ATOM     70  C   UNL A   1      37.919  31.402  30.193  1.00  0.00     0.134 A 
ATOM     71  C   UNL A   1      38.592  30.190  32.145  1.00  0.00     0.134 A 
ATOM     72  F   UNL A   1      38.129  31.835  28.941  1.00  0.00    -0.206 F 
ATOM     73  C   UNL A   1      36.749  31.804  30.839  1.00  0.00     0.040 A 
ATOM     74  C   UNL A   1      37.411  30.562  32.791  1.00  0.00     0.040 A 
ATOM     75  F   UNL A   1      39.456  29.413  32.817  1.00  0.00    -0.206 F 
ATOM     76  C   UNL A   1      36.489  31.378  32.139  1.00  0.00     0.006 A 
ENDBRANCH  55  69
BRANCH  56  77
ATOM     77  C   UNL A   1      46.930  27.333  25.921  1.00  0.00     0.057 A 
ATOM     78  C   UNL A   1      47.037  27.546  24.541  1.00  0.00     0.134 A 
ATOM     79  C   UNL A   1      47.983  26.660  26.552  1.00  0.00     0.134 A 
ATOM     80  F   UNL A   1      46.052  28.168  23.877  1.00  0.00    -0.206 F 
ATOM     81  C   UNL A   1      48.136  27.089  23.813  1.00  0.00     0.040 A 
ATOM     82  C   UNL A   1      49.103  26.223  25.842  1.00  0.00     0.040 A 
ATOM     83  F   UNL A   1      47.948  26.431  27.873  1.00  0.00    -0.206 F 
ATOM     84  C   UNL A   1      49.176  26.429  24.465  1.00  0.00     0.006 A 
ENDBRANCH  56  77
BRANCH  68  85
ATOM     85  C   UNL A   1      45.451  33.177  29.414  1.00  0.00     0.057 A 
ATOM     86  C   UNL A   1      46.311  33.279  30.515  1.00  0.00     0.134 A 
ATOM     87  C   UNL A   1      45.391  34.268  28.536  1.00  0.00     0.134 A 
ATOM     88  F   UNL A   1      46.404  32.275  31.400  1.00  0.00    -0.206 F 
ATOM     89  C   UNL A   1      47.070  34.428  30.743  1.00  0.00     0.040 A 
ATOM     90  C   UNL A   1      46.167  35.410  28.738  1.00  0.00     0.040 A 
ATOM     91  F   UNL A   1      44.594  34.234  27.459  1.00  0.00    -0.206 F 
ATOM     92  C   UNL A   1      47.006  35.494  29.847  1.00  0.00     0.006 A 
ENDBRANCH  68  85
ENDBRANCH  42  43
ENDBRANCH  34  37
ENDBRANCH  32  33
ENDBRANCH  31  32
ENDBRANCH  30  31
ENDBRANCH   1  30
TORSDOF 16
ENDMDL
