MODEL 1
REMARK VINA RESULT:     -10.4      0.000      0.000
REMARK SMILES CCC[C@H](C)C[N@H+]1[C@@H]2CC[C@H]1C[C@H](CC(=O)NCCCCCCNC(=O)c1ccc(-c3c4nc(c(-c5c(F)cccc5F)c5ccc([nH]5)c(-c5c(F)cccc5F)c5nc(c(-c6c(F)cccc6F)c6ccc3[nH]6)C=C5)C=C4)cc1)C2
REMARK SMILES IDX 19 1 18 2 17 3 15 4 16 5 14 7 13 8 7 9 8 10 11 11 9 13 81 14
REMARK SMILES IDX 10 15 12 16 6 17 4 18 5 19 3 20 2 21 1 22 20 23 21 24 22 25
REMARK SMILES IDX 23 26 24 27 25 28 26 30 27 31 28 32 80 33 29 34 79 35 30 36
REMARK SMILES IDX 31 37 32 38 73 39 33 40 78 41 72 42 74 43 34 44 77 45 71 46
REMARK SMILES IDX 70 47 35 49 61 50 44 51 60 52 45 53 48 54 59 55 75 56 46 57
REMARK SMILES IDX 47 58 58 60 76 61 49 62 36 63 37 64 42 65 38 66 39 67 41 68
REMARK SMILES IDX 43 69 40 70 62 71 63 72 68 73 64 74 65 75 67 76 69 77 66 78
REMARK SMILES IDX 50 79 51 80 56 81 52 82 53 83 55 84 57 85 54 86
REMARK H PARENT 17 6 7 12 24 29 74 48 48 59
REMARK Flexibility Score: inf
ROOT
ATOM      1  C   UNL A   1      31.072  28.342  24.429  1.00  0.00     0.021 C 
ENDROOT
BRANCH   1   2
ATOM      2  C   UNL A   1      30.690  27.549  23.174  1.00  0.00     0.116 C 
BRANCH   2   3
ATOM      3  N   UNL A   1      31.851  27.370  22.318  1.00  0.00    -0.356 N 
ATOM      4  C   UNL A   1      32.875  26.475  22.373  1.00  0.00     0.220 C 
ATOM      5  O   UNL A   1      33.823  26.633  21.599  1.00  0.00    -0.275 OA
ATOM      6  H   UNL A   1      31.905  28.006  21.568  1.00  0.00     0.163 HD
BRANCH   4   7
ATOM      7  C   UNL A   1      32.849  25.293  23.326  1.00  0.00     0.104 C 
BRANCH   7   8
ATOM      8  C   UNL A   1      34.237  24.778  23.772  1.00  0.00     0.010 C 
ATOM      9  N   UNL A   1      34.867  22.227  25.148  1.00  0.00    -0.330 N 
ATOM     10  C   UNL A   1      35.392  22.443  23.802  1.00  0.00     0.184 C 
ATOM     11  C   UNL A   1      35.179  23.483  25.831  1.00  0.00     0.184 C 
ATOM     12  H   UNL A   1      35.313  21.377  25.493  1.00  0.00     0.348 HD
ATOM     13  C   UNL A   1      36.801  22.965  24.136  1.00  0.00     0.071 C 
ATOM     14  C   UNL A   1      34.622  23.498  22.989  1.00  0.00     0.069 C 
ATOM     15  C   UNL A   1      36.637  23.720  25.450  1.00  0.00     0.071 C 
ATOM     16  C   UNL A   1      34.283  24.601  25.301  1.00  0.00     0.069 C 
BRANCH   9  17
ATOM     17  C   UNL A   1      33.538  21.671  25.437  1.00  0.00     0.265 C 
BRANCH  17  18
ATOM     18  C   UNL A   1      33.041  20.325  24.849  1.00  0.00     0.041 C 
ATOM     19  C   UNL A   1      32.357  20.506  23.494  1.00  0.00     0.013 C 
BRANCH  18  20
ATOM     20  C   UNL A   1      34.207  19.312  24.682  1.00  0.00     0.009 C 
BRANCH  20  21
ATOM     21  C   UNL A   1      33.745  17.849  24.621  1.00  0.00    -0.003 C 
ATOM     22  C   UNL A   1      32.695  17.510  25.674  1.00  0.00     0.004 C 
ENDBRANCH  20  21
ENDBRANCH  18  20
ENDBRANCH  17  18
ENDBRANCH   9  17
ENDBRANCH   7   8
ENDBRANCH   4   7
ENDBRANCH   2   3
ENDBRANCH   1   2
BRANCH   1  23
ATOM     23  C   UNL A   1      31.095  27.519  25.715  1.00  0.00     0.002 C 
BRANCH  23  24
ATOM     24  C   UNL A   1      31.968  28.101  26.829  1.00  0.00     0.002 C 
BRANCH  24  25
ATOM     25  C   UNL A   1      33.475  27.867  26.683  1.00  0.00     0.021 C 
BRANCH  25  26
ATOM     26  C   UNL A   1      34.261  29.012  26.047  1.00  0.00     0.116 C 
BRANCH  26  27
ATOM     27  N   UNL A   1      33.947  30.298  26.657  1.00  0.00    -0.352 N 
ATOM     28  C   UNL A   1      34.529  30.928  27.721  1.00  0.00     0.251 C 
ATOM     29  H   UNL A   1      33.203  30.788  26.237  1.00  0.00     0.163 HD
ATOM     30  O   UNL A   1      33.985  31.911  28.228  1.00  0.00    -0.269 OA
BRANCH  28  31
ATOM     31  C   UNL A   1      35.803  30.434  28.279  1.00  0.00     0.039 A 
ATOM     32  C   UNL A   1      35.774  29.603  29.403  1.00  0.00     0.014 A 
ATOM     33  C   UNL A   1      37.026  30.816  27.719  1.00  0.00     0.014 A 
ATOM     34  C   UNL A   1      36.969  29.112  29.931  1.00  0.00     0.010 A 
ATOM     35  C   UNL A   1      38.212  30.272  28.207  1.00  0.00     0.010 A 
ATOM     36  C   UNL A   1      38.196  29.420  29.321  1.00  0.00    -0.014 A 
BRANCH  36  37
ATOM     37  C   UNL A   1      39.471  28.864  29.841  1.00  0.00     0.031 A 
ATOM     38  C   UNL A   1      40.124  29.469  31.053  1.00  0.00     0.074 A 
ATOM     39  C   UNL A   1      40.070  27.850  29.188  1.00  0.00     0.049 A 
ATOM     40  N   UNL A   1      41.259  29.156  31.624  1.00  0.00    -0.248 NA
ATOM     41  C   UNL A   1      39.419  30.591  31.694  1.00  0.00     0.031 C 
ATOM     42  C   UNL A   1      39.561  27.210  27.972  1.00  0.00     0.029 A 
ATOM     43  N   UNL A   1      41.241  27.185  29.448  1.00  0.00    -0.354 N 
ATOM     44  C   UNL A   1      41.412  30.048  32.678  1.00  0.00     0.074 A 
ATOM     45  C   UNL A   1      40.279  30.947  32.637  1.00  0.00     0.031 C 
ATOM     46  C   UNL A   1      40.404  26.231  27.606  1.00  0.00     0.029 A 
ATOM     47  C   UNL A   1      41.527  26.197  28.538  1.00  0.00     0.049 A 
ATOM     48  H   UNL A   1      41.822  27.398  30.214  1.00  0.00     0.167 HD
ATOM     49  C   UNL A   1      42.394  30.098  33.610  1.00  0.00     0.037 A 
ATOM     50  C   UNL A   1      42.578  25.359  28.463  1.00  0.00     0.037 A 
ATOM     51  C   UNL A   1      43.507  29.188  33.662  1.00  0.00     0.049 A 
ATOM     52  C   UNL A   1      43.654  25.433  29.510  1.00  0.00     0.074 A 
ATOM     53  C   UNL A   1      44.523  29.119  34.599  1.00  0.00     0.029 A 
ATOM     54  N   UNL A   1      43.751  28.186  32.734  1.00  0.00    -0.354 N 
ATOM     55  N   UNL A   1      43.749  26.238  30.541  1.00  0.00    -0.248 NA
ATOM     56  C   UNL A   1      44.762  24.477  29.388  1.00  0.00     0.031 C 
ATOM     57  C   UNL A   1      45.405  28.103  34.216  1.00  0.00     0.029 A 
ATOM     58  C   UNL A   1      44.912  27.507  33.066  1.00  0.00     0.049 A 
ATOM     59  H   UNL A   1      43.183  27.987  31.955  1.00  0.00     0.167 HD
ATOM     60  C   UNL A   1      44.911  25.867  31.206  1.00  0.00     0.074 A 
ATOM     61  C   UNL A   1      45.478  24.756  30.470  1.00  0.00     0.031 C 
ATOM     62  C   UNL A   1      45.459  26.399  32.326  1.00  0.00     0.037 A 
BRANCH  49  63
ATOM     63  C   UNL A   1      42.303  31.175  34.652  1.00  0.00     0.057 A 
ATOM     64  C   UNL A   1      41.652  30.965  35.875  1.00  0.00     0.134 A 
ATOM     65  C   UNL A   1      42.899  32.425  34.445  1.00  0.00     0.134 A 
ATOM     66  F   UNL A   1      41.050  29.794  36.133  1.00  0.00    -0.206 F 
ATOM     67  C   UNL A   1      41.573  31.968  36.843  1.00  0.00     0.040 A 
ATOM     68  C   UNL A   1      42.851  33.427  35.416  1.00  0.00     0.040 A 
ATOM     69  F   UNL A   1      43.544  32.692  33.300  1.00  0.00    -0.206 F 
ATOM     70  C   UNL A   1      42.180  33.202  36.617  1.00  0.00     0.006 A 
ENDBRANCH  49  63
BRANCH  50  71
ATOM     71  C   UNL A   1      42.651  24.357  27.370  1.00  0.00     0.057 A 
ATOM     72  C   UNL A   1      42.170  23.055  27.552  1.00  0.00     0.134 A 
ATOM     73  C   UNL A   1      43.207  24.670  26.125  1.00  0.00     0.134 A 
ATOM     74  F   UNL A   1      41.642  22.690  28.730  1.00  0.00    -0.206 F 
ATOM     75  C   UNL A   1      42.256  22.095  26.543  1.00  0.00     0.040 A 
ATOM     76  C   UNL A   1      43.278  23.727  25.097  1.00  0.00     0.040 A 
ATOM     77  F   UNL A   1      43.678  25.902  25.883  1.00  0.00    -0.206 F 
ATOM     78  C   UNL A   1      42.808  22.432  25.309  1.00  0.00     0.006 A 
ENDBRANCH  50  71
BRANCH  62  79
ATOM     79  C   UNL A   1      46.718  25.762  32.840  1.00  0.00     0.057 A 
ATOM     80  C   UNL A   1      47.984  26.162  32.398  1.00  0.00     0.134 A 
ATOM     81  C   UNL A   1      46.658  24.756  33.813  1.00  0.00     0.134 A 
ATOM     82  F   UNL A   1      48.108  27.112  31.458  1.00  0.00    -0.206 F 
ATOM     83  C   UNL A   1      49.148  25.565  32.886  1.00  0.00     0.040 A 
ATOM     84  C   UNL A   1      47.815  24.171  34.328  1.00  0.00     0.040 A 
ATOM     85  F   UNL A   1      45.477  24.332  34.285  1.00  0.00    -0.206 F 
ATOM     86  C   UNL A   1      49.066  24.571  33.859  1.00  0.00     0.006 A 
ENDBRANCH  62  79
ENDBRANCH  36  37
ENDBRANCH  28  31
ENDBRANCH  26  27
ENDBRANCH  25  26
ENDBRANCH  24  25
ENDBRANCH  23  24
ENDBRANCH   1  23
TORSDOF 18
ENDMDL
MODEL 2
REMARK VINA RESULT:     -10.3      3.819      6.578
REMARK SMILES CCC[C@H](C)C[N@H+]1[C@@H]2CC[C@H]1C[C@H](CC(=O)NCCCCCCNC(=O)c1ccc(-c3c4nc(c(-c5c(F)cccc5F)c5ccc([nH]5)c(-c5c(F)cccc5F)c5nc(c(-c6c(F)cccc6F)c6ccc3[nH]6)C=C5)C=C4)cc1)C2
REMARK SMILES IDX 19 1 18 2 17 3 15 4 16 5 14 7 13 8 7 9 8 10 11 11 9 13 81 14
REMARK SMILES IDX 10 15 12 16 6 17 4 18 5 19 3 20 2 21 1 22 20 23 21 24 22 25
REMARK SMILES IDX 23 26 24 27 25 28 26 30 27 31 28 32 80 33 29 34 79 35 30 36
REMARK SMILES IDX 31 37 32 38 73 39 33 40 78 41 72 42 74 43 34 44 77 45 71 46
REMARK SMILES IDX 70 47 35 49 61 50 44 51 60 52 45 53 48 54 59 55 75 56 46 57
REMARK SMILES IDX 47 58 58 60 76 61 49 62 36 63 37 64 42 65 38 66 39 67 41 68
REMARK SMILES IDX 43 69 40 70 62 71 63 72 68 73 64 74 65 75 67 76 69 77 66 78
REMARK SMILES IDX 50 79 51 80 56 81 52 82 53 83 55 84 57 85 54 86
REMARK H PARENT 17 6 7 12 24 29 74 48 48 59
REMARK Flexibility Score: inf
ROOT
ATOM      1  C   UNL A   1      35.318  31.890  28.225  1.00  0.00     0.021 C 
ENDROOT
BRANCH   1   2
ATOM      2  C   UNL A   1      34.574  30.712  27.586  1.00  0.00     0.116 C 
BRANCH   2   3
ATOM      3  N   UNL A   1      33.295  31.151  27.055  1.00  0.00    -0.356 N 
ATOM      4  C   UNL A   1      32.213  30.444  26.626  1.00  0.00     0.220 C 
ATOM      5  O   UNL A   1      31.297  31.063  26.079  1.00  0.00    -0.275 OA
ATOM      6  H   UNL A   1      33.192  32.129  26.996  1.00  0.00     0.163 HD
BRANCH   4   7
ATOM      7  C   UNL A   1      32.107  28.944  26.840  1.00  0.00     0.104 C 
BRANCH   7   8
ATOM      8  C   UNL A   1      32.363  28.082  25.582  1.00  0.00     0.010 C 
ATOM      9  N   UNL A   1      31.203  28.436  22.875  1.00  0.00    -0.330 N 
ATOM     10  C   UNL A   1      32.644  28.598  23.044  1.00  0.00     0.184 C 
ATOM     11  C   UNL A   1      30.922  27.194  23.597  1.00  0.00     0.184 C 
ATOM     12  H   UNL A   1      31.032  28.447  21.870  1.00  0.00     0.348 HD
ATOM     13  C   UNL A   1      33.129  27.191  22.647  1.00  0.00     0.071 C 
ATOM     14  C   UNL A   1      33.077  28.913  24.487  1.00  0.00     0.069 C 
ATOM     15  C   UNL A   1      32.010  26.254  23.087  1.00  0.00     0.071 C 
ATOM     16  C   UNL A   1      31.057  27.424  25.101  1.00  0.00     0.069 C 
BRANCH   9  17
ATOM     17  C   UNL A   1      30.221  29.510  23.074  1.00  0.00     0.265 C 
BRANCH  17  18
ATOM     18  C   UNL A   1      28.920  29.629  22.239  1.00  0.00     0.041 C 
ATOM     19  C   UNL A   1      27.666  29.541  23.109  1.00  0.00     0.013 C 
BRANCH  18  20
ATOM     20  C   UNL A   1      28.876  30.963  21.443  1.00  0.00     0.009 C 
BRANCH  20  21
ATOM     21  C   UNL A   1      28.007  32.043  22.103  1.00  0.00    -0.003 C 
ATOM     22  C   UNL A   1      28.822  33.060  22.897  1.00  0.00     0.004 C 
ENDBRANCH  20  21
ENDBRANCH  18  20
ENDBRANCH  17  18
ENDBRANCH   9  17
ENDBRANCH   7   8
ENDBRANCH   4   7
ENDBRANCH   2   3
ENDBRANCH   1   2
BRANCH   1  23
ATOM     23  C   UNL A   1      34.449  32.780  29.112  1.00  0.00     0.002 C 
BRANCH  23  24
ATOM     24  C   UNL A   1      34.437  34.258  28.715  1.00  0.00     0.002 C 
BRANCH  24  25
ATOM     25  C   UNL A   1      33.133  35.012  28.999  1.00  0.00     0.021 C 
BRANCH  25  26
ATOM     26  C   UNL A   1      33.289  36.348  29.721  1.00  0.00     0.116 C 
BRANCH  26  27
ATOM     27  N   UNL A   1      32.479  36.418  30.930  1.00  0.00    -0.352 N 
ATOM     28  C   UNL A   1      32.613  35.746  32.114  1.00  0.00     0.251 C 
ATOM     29  H   UNL A   1      31.721  37.045  30.889  1.00  0.00     0.163 HD
ATOM     30  O   UNL A   1      31.702  35.775  32.944  1.00  0.00    -0.269 OA
BRANCH  28  31
ATOM     31  C   UNL A   1      33.838  34.975  32.403  1.00  0.00     0.039 A 
ATOM     32  C   UNL A   1      35.081  35.597  32.253  1.00  0.00     0.014 A 
ATOM     33  C   UNL A   1      33.765  33.633  32.787  1.00  0.00     0.014 A 
ATOM     34  C   UNL A   1      36.248  34.887  32.540  1.00  0.00     0.010 A 
ATOM     35  C   UNL A   1      34.926  32.948  33.137  1.00  0.00     0.010 A 
ATOM     36  C   UNL A   1      36.180  33.566  33.011  1.00  0.00    -0.014 A 
BRANCH  36  37
ATOM     37  C   UNL A   1      37.410  32.816  33.370  1.00  0.00     0.031 A 
ATOM     38  C   UNL A   1      38.140  33.122  34.648  1.00  0.00     0.074 A 
ATOM     39  C   UNL A   1      37.901  31.898  32.515  1.00  0.00     0.049 A 
ATOM     40  N   UNL A   1      39.254  32.613  35.106  1.00  0.00    -0.248 NA
ATOM     41  C   UNL A   1      37.553  34.158  35.514  1.00  0.00     0.031 C 
ATOM     42  C   UNL A   1      37.311  31.545  31.222  1.00  0.00     0.029 A 
ATOM     43  N   UNL A   1      39.013  31.099  32.602  1.00  0.00    -0.354 N 
ATOM     44  C   UNL A   1      39.508  33.272  36.303  1.00  0.00     0.074 A 
ATOM     45  C   UNL A   1      38.461  34.254  36.474  1.00  0.00     0.031 C 
ATOM     46  C   UNL A   1      38.055  30.587  30.647  1.00  0.00     0.029 A 
ATOM     47  C   UNL A   1      39.189  30.281  31.513  1.00  0.00     0.049 A 
ATOM     48  H   UNL A   1      39.627  31.113  33.372  1.00  0.00     0.167 HD
ATOM     49  C   UNL A   1      40.510  33.061  37.190  1.00  0.00     0.037 A 
ATOM     50  C   UNL A   1      40.159  29.388  31.243  1.00  0.00     0.037 A 
ATOM     51  C   UNL A   1      41.539  32.067  37.028  1.00  0.00     0.049 A 
ATOM     52  C   UNL A   1      41.259  29.170  32.244  1.00  0.00     0.074 A 
ATOM     53  C   UNL A   1      42.564  31.736  37.897  1.00  0.00     0.029 A 
ATOM     54  N   UNL A   1      41.672  31.242  35.920  1.00  0.00    -0.354 N 
ATOM     55  N   UNL A   1      41.449  29.754  33.403  1.00  0.00    -0.248 NA
ATOM     56  C   UNL A   1      42.275  28.165  31.903  1.00  0.00     0.031 C 
ATOM     57  C   UNL A   1      43.342  30.741  37.297  1.00  0.00     0.029 A 
ATOM     58  C   UNL A   1      42.774  30.418  36.076  1.00  0.00     0.049 A 
ATOM     59  H   UNL A   1      41.072  31.243  35.140  1.00  0.00     0.167 HD
ATOM     60  C   UNL A   1      42.586  29.167  33.942  1.00  0.00     0.074 A 
ATOM     61  C   UNL A   1      43.035  28.172  32.990  1.00  0.00     0.031 C 
ATOM     62  C   UNL A   1      43.204  29.428  35.120  1.00  0.00     0.037 A 
BRANCH  49  63
ATOM     63  C   UNL A   1      40.539  33.924  38.418  1.00  0.00     0.057 A 
ATOM     64  C   UNL A   1      41.285  35.109  38.470  1.00  0.00     0.134 A 
ATOM     65  C   UNL A   1      39.791  33.582  39.551  1.00  0.00     0.134 A 
ATOM     66  F   UNL A   1      42.034  35.488  37.424  1.00  0.00    -0.206 F 
ATOM     67  C   UNL A   1      41.306  35.910  39.614  1.00  0.00     0.040 A 
ATOM     68  C   UNL A   1      39.782  34.389  40.691  1.00  0.00     0.040 A 
ATOM     69  F   UNL A   1      39.049  32.465  39.568  1.00  0.00    -0.206 F 
ATOM     70  C   UNL A   1      40.547  35.553  40.726  1.00  0.00     0.006 A 
ENDBRANCH  49  63
BRANCH  50  71
ATOM     71  C   UNL A   1      40.119  28.609  29.979  1.00  0.00     0.057 A 
ATOM     72  C   UNL A   1      40.811  29.043  28.842  1.00  0.00     0.134 A 
ATOM     73  C   UNL A   1      39.388  27.420  29.874  1.00  0.00     0.134 A 
ATOM     74  F   UNL A   1      41.514  30.185  28.877  1.00  0.00    -0.206 F 
ATOM     75  C   UNL A   1      40.761  28.336  27.641  1.00  0.00     0.040 A 
ATOM     76  C   UNL A   1      39.350  26.688  28.686  1.00  0.00     0.040 A 
ATOM     77  F   UNL A   1      38.711  26.945  30.930  1.00  0.00    -0.206 F 
ATOM     78  C   UNL A   1      40.032  27.151  27.562  1.00  0.00     0.006 A 
ENDBRANCH  50  71
BRANCH  62  79
ATOM     79  C   UNL A   1      44.410  28.601  35.458  1.00  0.00     0.057 A 
ATOM     80  C   UNL A   1      45.703  28.999  35.101  1.00  0.00     0.134 A 
ATOM     81  C   UNL A   1      44.274  27.407  36.178  1.00  0.00     0.134 A 
ATOM     82  F   UNL A   1      45.900  30.126  34.399  1.00  0.00    -0.206 F 
ATOM     83  C   UNL A   1      46.819  28.224  35.424  1.00  0.00     0.040 A 
ATOM     84  C   UNL A   1      45.383  26.638  36.530  1.00  0.00     0.040 A 
ATOM     85  F   UNL A   1      43.063  26.974  36.559  1.00  0.00    -0.206 F 
ATOM     86  C   UNL A   1      46.661  27.043  36.146  1.00  0.00     0.006 A 
ENDBRANCH  62  79
ENDBRANCH  36  37
ENDBRANCH  28  31
ENDBRANCH  26  27
ENDBRANCH  25  26
ENDBRANCH  24  25
ENDBRANCH  23  24
ENDBRANCH   1  23
TORSDOF 18
ENDMDL
MODEL 3
REMARK VINA RESULT:     -10.2      3.317      5.773
REMARK SMILES CCC[C@H](C)C[N@H+]1[C@@H]2CC[C@H]1C[C@H](CC(=O)NCCCCCCNC(=O)c1ccc(-c3c4nc(c(-c5c(F)cccc5F)c5ccc([nH]5)c(-c5c(F)cccc5F)c5nc(c(-c6c(F)cccc6F)c6ccc3[nH]6)C=C5)C=C4)cc1)C2
REMARK SMILES IDX 19 1 18 2 17 3 15 4 16 5 14 7 13 8 7 9 8 10 11 11 9 13 81 14
REMARK SMILES IDX 10 15 12 16 6 17 4 18 5 19 3 20 2 21 1 22 20 23 21 24 22 25
REMARK SMILES IDX 23 26 24 27 25 28 26 30 27 31 28 32 80 33 29 34 79 35 30 36
REMARK SMILES IDX 31 37 32 38 73 39 33 40 78 41 72 42 74 43 34 44 77 45 71 46
REMARK SMILES IDX 70 47 35 49 61 50 44 51 60 52 45 53 48 54 59 55 75 56 46 57
REMARK SMILES IDX 47 58 58 60 76 61 49 62 36 63 37 64 42 65 38 66 39 67 41 68
REMARK SMILES IDX 43 69 40 70 62 71 63 72 68 73 64 74 65 75 67 76 69 77 66 78
REMARK SMILES IDX 50 79 51 80 56 81 52 82 53 83 55 84 57 85 54 86
REMARK H PARENT 17 6 7 12 24 29 74 48 48 59
REMARK Flexibility Score: inf
ROOT
ATOM      1  C   UNL A   1      35.018  31.743  28.168  1.00  0.00     0.021 C 
ENDROOT
BRANCH   1   2
ATOM      2  C   UNL A   1      33.865  30.987  27.498  1.00  0.00     0.116 C 
BRANCH   2   3
ATOM      3  N   UNL A   1      34.356  29.770  26.874  1.00  0.00    -0.356 N 
ATOM      4  C   UNL A   1      33.726  28.599  26.577  1.00  0.00     0.220 C 
ATOM      5  O   UNL A   1      34.415  27.659  26.175  1.00  0.00    -0.275 OA
ATOM      6  H   UNL A   1      35.307  29.797  26.622  1.00  0.00     0.163 HD
BRANCH   4   7
ATOM      7  C   UNL A   1      32.220  28.453  26.696  1.00  0.00     0.104 C 
BRANCH   7   8
ATOM      8  C   UNL A   1      31.437  28.617  25.373  1.00  0.00     0.010 C 
ATOM      9  N   UNL A   1      31.942  27.251  22.789  1.00  0.00    -0.330 N 
ATOM     10  C   UNL A   1      30.686  26.985  23.486  1.00  0.00     0.184 C 
ATOM     11  C   UNL A   1      32.045  28.710  22.839  1.00  0.00     0.184 C 
ATOM     12  H   UNL A   1      31.855  26.815  21.871  1.00  0.00     0.348 HD
ATOM     13  C   UNL A   1      29.757  27.983  22.771  1.00  0.00     0.071 C 
ATOM     14  C   UNL A   1      30.726  27.293  24.993  1.00  0.00     0.069 C 
ATOM     15  C   UNL A   1      30.652  29.162  22.410  1.00  0.00     0.071 C 
ATOM     16  C   UNL A   1      32.355  29.162  24.264  1.00  0.00     0.069 C 
BRANCH   9  17
ATOM     17  C   UNL A   1      33.195  26.527  23.037  1.00  0.00     0.265 C 
BRANCH  17  18
ATOM     18  C   UNL A   1      33.237  25.058  23.533  1.00  0.00     0.041 C 
ATOM     19  C   UNL A   1      33.009  24.060  22.397  1.00  0.00     0.013 C 
BRANCH  18  20
ATOM     20  C   UNL A   1      34.592  24.727  24.217  1.00  0.00     0.009 C 
BRANCH  20  21
ATOM     21  C   UNL A   1      34.452  24.307  25.687  1.00  0.00    -0.003 C 
ATOM     22  C   UNL A   1      33.008  24.331  26.179  1.00  0.00     0.004 C 
ENDBRANCH  20  21
ENDBRANCH  18  20
ENDBRANCH  17  18
ENDBRANCH   9  17
ENDBRANCH   7   8
ENDBRANCH   4   7
ENDBRANCH   2   3
ENDBRANCH   1   2
BRANCH   1  23
ATOM     23  C   UNL A   1      34.577  32.853  29.121  1.00  0.00     0.002 C 
BRANCH  23  24
ATOM     24  C   UNL A   1      34.359  34.214  28.457  1.00  0.00     0.002 C 
BRANCH  24  25
ATOM     25  C   UNL A   1      33.093  34.966  28.885  1.00  0.00     0.021 C 
BRANCH  25  26
ATOM     26  C   UNL A   1      33.327  36.258  29.664  1.00  0.00     0.116 C 
BRANCH  26  27
ATOM     27  N   UNL A   1      32.452  36.366  30.824  1.00  0.00    -0.352 N 
ATOM     28  C   UNL A   1      32.538  35.758  32.046  1.00  0.00     0.251 C 
ATOM     29  H   UNL A   1      31.683  36.971  30.712  1.00  0.00     0.163 HD
ATOM     30  O   UNL A   1      31.584  35.804  32.825  1.00  0.00    -0.269 OA
BRANCH  28  31
ATOM     31  C   UNL A   1      33.763  35.034  32.438  1.00  0.00     0.039 A 
ATOM     32  C   UNL A   1      33.659  33.706  32.862  1.00  0.00     0.014 A 
ATOM     33  C   UNL A   1      35.008  35.671  32.422  1.00  0.00     0.014 A 
ATOM     34  C   UNL A   1      34.811  33.002  33.219  1.00  0.00     0.010 A 
ATOM     35  C   UNL A   1      36.161  34.948  32.714  1.00  0.00     0.010 A 
ATOM     36  C   UNL A   1      36.074  33.608  33.121  1.00  0.00    -0.014 A 
BRANCH  36  37
ATOM     37  C   UNL A   1      37.312  32.855  33.448  1.00  0.00     0.031 A 
ATOM     38  C   UNL A   1      38.062  33.144  34.718  1.00  0.00     0.074 A 
ATOM     39  C   UNL A   1      37.790  31.951  32.572  1.00  0.00     0.049 A 
ATOM     40  N   UNL A   1      39.185  32.631  35.151  1.00  0.00    -0.248 NA
ATOM     41  C   UNL A   1      37.487  34.165  35.609  1.00  0.00     0.031 C 
ATOM     42  C   UNL A   1      37.180  31.616  31.283  1.00  0.00     0.029 A 
ATOM     43  N   UNL A   1      38.905  31.154  32.629  1.00  0.00    -0.354 N 
ATOM     44  C   UNL A   1      39.458  33.273  36.352  1.00  0.00     0.074 A 
ATOM     45  C   UNL A   1      38.411  34.250  36.555  1.00  0.00     0.031 C 
ATOM     46  C   UNL A   1      37.916  30.667  30.683  1.00  0.00     0.029 A 
ATOM     47  C   UNL A   1      39.065  30.352  31.525  1.00  0.00     0.049 A 
ATOM     48  H   UNL A   1      39.532  31.157  33.388  1.00  0.00     0.167 HD
ATOM     49  C   UNL A   1      40.475  33.051  37.220  1.00  0.00     0.037 A 
ATOM     50  C   UNL A   1      40.032  29.465  31.225  1.00  0.00     0.037 A 
ATOM     51  C   UNL A   1      41.502  32.062  37.026  1.00  0.00     0.049 A 
ATOM     52  C   UNL A   1      41.149  29.235  32.205  1.00  0.00     0.074 A 
ATOM     53  C   UNL A   1      42.542  31.721  37.873  1.00  0.00     0.029 A 
ATOM     54  N   UNL A   1      41.618  31.254  35.904  1.00  0.00    -0.354 N 
ATOM     55  N   UNL A   1      41.356  29.802  33.370  1.00  0.00    -0.248 NA
ATOM     56  C   UNL A   1      42.161  28.238  31.833  1.00  0.00     0.031 C 
ATOM     57  C   UNL A   1      43.312  30.736  37.246  1.00  0.00     0.029 A 
ATOM     58  C   UNL A   1      42.724  30.430  36.029  1.00  0.00     0.049 A 
ATOM     59  H   UNL A   1      41.006  31.265  35.134  1.00  0.00     0.167 HD
ATOM     60  C   UNL A   1      42.504  29.210  33.881  1.00  0.00     0.074 A 
ATOM     61  C   UNL A   1      42.939  28.231  32.907  1.00  0.00     0.031 C 
ATOM     62  C   UNL A   1      43.140  29.455  35.052  1.00  0.00     0.037 A 
BRANCH  49  63
ATOM     63  C   UNL A   1      40.522  33.896  38.460  1.00  0.00     0.057 A 
ATOM     64  C   UNL A   1      39.789  33.564  39.607  1.00  0.00     0.134 A 
ATOM     65  C   UNL A   1      41.332  35.036  38.519  1.00  0.00     0.134 A 
ATOM     66  F   UNL A   1      38.984  32.491  39.613  1.00  0.00    -0.206 F 
ATOM     67  C   UNL A   1      39.839  34.351  40.759  1.00  0.00     0.040 A 
ATOM     68  C   UNL A   1      41.411  35.816  39.675  1.00  0.00     0.040 A 
ATOM     69  F   UNL A   1      42.066  35.409  37.460  1.00  0.00    -0.206 F 
ATOM     70  C   UNL A   1      40.658  35.477  40.797  1.00  0.00     0.006 A 
ENDBRANCH  49  63
BRANCH  50  71
ATOM     71  C   UNL A   1      39.973  28.704  29.952  1.00  0.00     0.057 A 
ATOM     72  C   UNL A   1      39.272  27.495  29.866  1.00  0.00     0.134 A 
ATOM     73  C   UNL A   1      40.616  29.160  28.795  1.00  0.00     0.134 A 
ATOM     74  F   UNL A   1      38.651  26.998  30.946  1.00  0.00    -0.206 F 
ATOM     75  C   UNL A   1      39.230  26.756  28.683  1.00  0.00     0.040 A 
ATOM     76  C   UNL A   1      40.561  28.444  27.598  1.00  0.00     0.040 A 
ATOM     77  F   UNL A   1      41.296  30.316  28.809  1.00  0.00    -0.206 F 
ATOM     78  C   UNL A   1      39.873  27.234  27.543  1.00  0.00     0.006 A 
ENDBRANCH  50  71
BRANCH  62  79
ATOM     79  C   UNL A   1      44.354  28.626  35.358  1.00  0.00     0.057 A 
ATOM     80  C   UNL A   1      44.264  27.405  36.038  1.00  0.00     0.134 A 
ATOM     81  C   UNL A   1      45.623  29.043  34.938  1.00  0.00     0.134 A 
ATOM     82  F   UNL A   1      43.078  26.957  36.478  1.00  0.00    -0.206 F 
ATOM     83  C   UNL A   1      45.399  26.640  36.313  1.00  0.00     0.040 A 
ATOM     84  C   UNL A   1      46.761  28.273  35.184  1.00  0.00     0.040 A 
ATOM     85  F   UNL A   1      45.778  30.198  34.275  1.00  0.00    -0.206 F 
ATOM     86  C   UNL A   1      46.651  27.071  35.880  1.00  0.00     0.006 A 
ENDBRANCH  62  79
ENDBRANCH  36  37
ENDBRANCH  28  31
ENDBRANCH  26  27
ENDBRANCH  25  26
ENDBRANCH  24  25
ENDBRANCH  23  24
ENDBRANCH   1  23
TORSDOF 18
ENDMDL
