MODEL 1
REMARK VINA RESULT:     -11.9      0.000      0.000
REMARK SMILES O=C(NCCCCCCNC(=O)[C@H]1Cc2[nH]cnc2CN1C(=O)N1CCC[C@H](O)C1)c1ccc(-c2c3nc(c(-c4c(F)cccc4F)c4ccc([nH]4)c(-c4c(F)cccc4F)c4nc(c(-c5c(F)cccc5F)c5ccc2[nH]5)C=C4)C=C3)cc1
REMARK SMILES IDX 7 1 6 2 5 3 4 4 3 5 1 6 2 7 31 9 32 10 84 11 33 12 83 13
REMARK SMILES IDX 34 14 35 15 36 16 77 17 37 18 82 19 76 20 78 21 38 22 81 23
REMARK SMILES IDX 75 24 74 25 39 27 65 28 48 29 64 30 49 31 52 32 63 33 79 34
REMARK SMILES IDX 50 35 51 36 62 38 80 39 53 40 40 41 41 42 46 43 42 44 43 45
REMARK SMILES IDX 45 46 47 47 44 48 66 49 67 50 72 51 68 52 69 53 71 54 73 55
REMARK SMILES IDX 70 56 54 57 55 58 60 59 56 60 57 61 59 62 61 63 58 64 8 65
REMARK SMILES IDX 9 66 10 67 11 68 12 70 13 71 14 72 21 73 15 74 20 75 16 76
REMARK SMILES IDX 19 77 17 78 18 80 22 81 23 82 24 83 25 84 30 85 26 86 28 87
REMARK SMILES IDX 27 88 29 89
REMARK H PARENT 3 8 78 26 52 37 10 69 16 79 29 90
REMARK Flexibility Score: inf
ROOT
ATOM      1  C   UNL A   1      35.608  29.570  27.556  1.00  0.00     0.002 C 
ENDROOT
BRANCH   1   2
ATOM      2  C   UNL A   1      35.893  31.072  27.666  1.00  0.00     0.002 C 
BRANCH   2   3
ATOM      3  C   UNL A   1      34.694  31.984  27.955  1.00  0.00     0.021 C 
BRANCH   3   4
ATOM      4  C   UNL A   1      34.999  33.176  28.857  1.00  0.00     0.116 C 
BRANCH   4   5
ATOM      5  N   UNL A   1      34.699  32.947  30.252  1.00  0.00    -0.352 N 
ATOM      6  O   UNL A   1      34.756  32.341  32.372  1.00  0.00    -0.269 OA
ATOM      7  C   UNL A   1      35.283  32.239  31.256  1.00  0.00     0.251 C 
ATOM      8  H   UNL A   1      33.881  33.410  30.542  1.00  0.00     0.163 HD
BRANCH   7   9
ATOM      9  C   UNL A   1      36.448  31.332  31.100  1.00  0.00     0.039 A 
ATOM     10  C   UNL A   1      36.412  29.937  31.127  1.00  0.00     0.014 A 
ATOM     11  C   UNL A   1      37.687  31.969  30.899  1.00  0.00     0.014 A 
ATOM     12  C   UNL A   1      37.588  29.200  31.030  1.00  0.00     0.010 A 
ATOM     13  C   UNL A   1      38.861  31.240  30.780  1.00  0.00     0.010 A 
ATOM     14  C   UNL A   1      38.813  29.852  30.876  1.00  0.00    -0.014 A 
BRANCH  14  15
ATOM     15  C   UNL A   1      40.002  29.038  30.654  1.00  0.00     0.031 A 
ATOM     16  C   UNL A   1      40.841  28.809  31.873  1.00  0.00     0.074 A 
ATOM     17  C   UNL A   1      40.256  28.398  29.496  1.00  0.00     0.049 A 
ATOM     18  N   UNL A   1      42.093  29.079  32.056  1.00  0.00    -0.248 NA
ATOM     19  C   UNL A   1      40.161  28.291  33.074  1.00  0.00     0.031 C 
ATOM     20  C   UNL A   1      39.394  28.273  28.317  1.00  0.00     0.029 A 
ATOM     21  N   UNL A   1      41.333  27.632  29.167  1.00  0.00    -0.354 N 
ATOM     22  C   UNL A   1      42.405  28.622  33.337  1.00  0.00     0.074 A 
ATOM     23  C   UNL A   1      41.159  28.252  33.956  1.00  0.00     0.031 C 
ATOM     24  C   UNL A   1      39.885  27.309  27.505  1.00  0.00     0.029 A 
ATOM     25  C   UNL A   1      41.160  26.853  28.033  1.00  0.00     0.049 A 
ATOM     26  H   UNL A   1      42.166  27.632  29.692  1.00  0.00     0.167 HD
ATOM     27  C   UNL A   1      43.688  28.415  33.745  1.00  0.00     0.037 A 
ATOM     28  C   UNL A   1      41.982  25.867  27.596  1.00  0.00     0.037 A 
ATOM     29  C   UNL A   1      44.628  29.133  32.930  1.00  0.00     0.049 A 
ATOM     30  C   UNL A   1      43.302  26.057  28.247  1.00  0.00     0.074 A 
ATOM     31  C   UNL A   1      44.864  30.470  32.672  1.00  0.00     0.029 A 
ATOM     32  N   UNL A   1      45.294  28.448  31.947  1.00  0.00    -0.354 N 
ATOM     33  N   UNL A   1      44.104  27.051  27.991  1.00  0.00    -0.248 NA
ATOM     34  C   UNL A   1      43.533  25.374  29.510  1.00  0.00     0.031 C 
ATOM     35  C   UNL A   1      45.209  30.521  31.291  1.00  0.00     0.029 A 
ATOM     36  C   UNL A   1      45.217  29.212  30.810  1.00  0.00     0.049 A 
ATOM     37  H   UNL A   1      45.741  27.575  32.039  1.00  0.00     0.167 HD
ATOM     38  C   UNL A   1      44.646  27.391  29.221  1.00  0.00     0.074 A 
ATOM     39  C   UNL A   1      44.323  26.272  30.103  1.00  0.00     0.031 C 
ATOM     40  C   UNL A   1      45.064  28.664  29.483  1.00  0.00     0.037 A 
BRANCH  27  41
ATOM     41  C   UNL A   1      44.108  27.326  34.699  1.00  0.00     0.057 A 
ATOM     42  C   UNL A   1      44.026  25.978  34.309  1.00  0.00     0.134 A 
ATOM     43  C   UNL A   1      44.324  27.540  36.076  1.00  0.00     0.134 A 
ATOM     44  F   UNL A   1      43.797  25.643  33.031  1.00  0.00    -0.206 F 
ATOM     45  C   UNL A   1      44.098  24.924  35.230  1.00  0.00     0.040 A 
ATOM     46  C   UNL A   1      44.447  26.494  36.997  1.00  0.00     0.040 A 
ATOM     47  F   UNL A   1      44.328  28.766  36.614  1.00  0.00    -0.206 F 
ATOM     48  C   UNL A   1      44.306  25.181  36.580  1.00  0.00     0.006 A 
ENDBRANCH  27  41
BRANCH  28  49
ATOM     49  C   UNL A   1      41.623  24.599  26.923  1.00  0.00     0.057 A 
ATOM     50  C   UNL A   1      42.486  23.993  25.998  1.00  0.00     0.134 A 
ATOM     51  C   UNL A   1      40.557  23.806  27.383  1.00  0.00     0.134 A 
ATOM     52  F   UNL A   1      43.559  24.651  25.536  1.00  0.00    -0.206 F 
ATOM     53  C   UNL A   1      42.312  22.669  25.573  1.00  0.00     0.040 A 
ATOM     54  C   UNL A   1      40.368  22.486  26.964  1.00  0.00     0.040 A 
ATOM     55  F   UNL A   1      39.718  24.258  28.327  1.00  0.00    -0.206 F 
ATOM     56  C   UNL A   1      41.256  21.907  26.065  1.00  0.00     0.006 A 
ENDBRANCH  28  49
BRANCH  40  57
ATOM     57  C   UNL A   1      45.119  29.634  28.334  1.00  0.00     0.057 A 
ATOM     58  C   UNL A   1      44.037  30.432  27.926  1.00  0.00     0.134 A 
ATOM     59  C   UNL A   1      46.348  29.878  27.712  1.00  0.00     0.134 A 
ATOM     60  F   UNL A   1      42.847  30.350  28.531  1.00  0.00    -0.206 F 
ATOM     61  C   UNL A   1      44.164  31.391  26.915  1.00  0.00     0.040 A 
ATOM     62  C   UNL A   1      46.496  30.857  26.725  1.00  0.00     0.040 A 
ATOM     63  F   UNL A   1      47.443  29.199  28.088  1.00  0.00    -0.206 F 
ATOM     64  C   UNL A   1      45.398  31.610  26.316  1.00  0.00     0.006 A 
ENDBRANCH  40  57
ENDBRANCH  14  15
ENDBRANCH   7   9
ENDBRANCH   4   5
ENDBRANCH   3   4
ENDBRANCH   2   3
ENDBRANCH   1   2
BRANCH   1  65
ATOM     65  C   UNL A   1      34.190  29.169  27.154  1.00  0.00     0.021 C 
BRANCH  65  66
ATOM     66  C   UNL A   1      34.069  27.907  26.316  1.00  0.00     0.116 C 
BRANCH  66  67
ATOM     67  N   UNL A   1      32.896  27.120  26.660  1.00  0.00    -0.354 N 
ATOM     68  C   UNL A   1      31.630  27.038  26.155  1.00  0.00     0.243 C 
ATOM     69  H   UNL A   1      33.046  26.515  27.421  1.00  0.00     0.163 HD
ATOM     70  O   UNL A   1      30.819  26.418  26.855  1.00  0.00    -0.273 OA
BRANCH  68  71
ATOM     71  C   UNL A   1      31.180  27.648  24.805  1.00  0.00     0.182 C 
ATOM     72  C   UNL A   1      31.058  29.187  24.831  1.00  0.00     0.091 C 
ATOM     73  N   UNL A   1      31.610  27.134  23.443  1.00  0.00    -0.306 N 
ATOM     74  C   UNL A   1      30.339  29.640  23.633  1.00  0.00     0.042 A 
ATOM     75  C   UNL A   1      30.669  27.489  22.326  1.00  0.00     0.180 C 
ATOM     76  N   UNL A   1      29.700  30.824  23.436  1.00  0.00    -0.348 N 
ATOM     77  C   UNL A   1      30.169  28.898  22.493  1.00  0.00     0.081 A 
ATOM     78  C   UNL A   1      29.175  30.766  22.173  1.00  0.00     0.197 A 
ATOM     79  H   UNL A   1      29.628  31.571  24.072  1.00  0.00     0.167 HD
ATOM     80  N   UNL A   1      29.430  29.613  21.587  1.00  0.00    -0.240 NA
BRANCH  73  81
ATOM     81  C   UNL A   1      32.876  26.759  23.029  1.00  0.00     0.321 C 
ATOM     82  O   UNL A   1      33.663  27.562  22.522  1.00  0.00    -0.248 OA
BRANCH  81  83
ATOM     83  N   UNL A   1      33.282  25.454  23.203  1.00  0.00    -0.322 N 
ATOM     84  C   UNL A   1      34.268  25.092  24.212  1.00  0.00     0.121 C 
ATOM     85  C   UNL A   1      32.255  24.413  23.074  1.00  0.00     0.153 C 
ATOM     86  C   UNL A   1      34.970  23.770  23.888  1.00  0.00     0.024 C 
ATOM     87  C   UNL A   1      32.903  23.229  22.374  1.00  0.00     0.134 C 
ATOM     88  C   UNL A   1      34.154  22.723  23.103  1.00  0.00     0.035 C 
BRANCH  87  89
ATOM     89  O   UNL A   1      33.267  23.670  21.063  1.00  0.00    -0.391 OA
ATOM     90  H   UNL A   1      32.503  24.094  20.641  1.00  0.00     0.211 HD
ENDBRANCH  87  89
ENDBRANCH  81  83
ENDBRANCH  73  81
ENDBRANCH  68  71
ENDBRANCH  66  67
ENDBRANCH  65  66
ENDBRANCH   1  65
TORSDOF 16
ENDMDL
MODEL 2
REMARK VINA RESULT:     -11.8      3.005      8.300
REMARK SMILES O=C(NCCCCCCNC(=O)[C@H]1Cc2[nH]cnc2CN1C(=O)N1CCC[C@H](O)C1)c1ccc(-c2c3nc(c(-c4c(F)cccc4F)c4ccc([nH]4)c(-c4c(F)cccc4F)c4nc(c(-c5c(F)cccc5F)c5ccc2[nH]5)C=C4)C=C3)cc1
REMARK SMILES IDX 7 1 6 2 5 3 4 4 3 5 1 6 2 7 31 9 32 10 84 11 33 12 83 13
REMARK SMILES IDX 34 14 35 15 36 16 77 17 37 18 82 19 76 20 78 21 38 22 81 23
REMARK SMILES IDX 75 24 74 25 39 27 65 28 48 29 64 30 49 31 52 32 63 33 79 34
REMARK SMILES IDX 50 35 51 36 62 38 80 39 53 40 40 41 41 42 46 43 42 44 43 45
REMARK SMILES IDX 45 46 47 47 44 48 66 49 67 50 72 51 68 52 69 53 71 54 73 55
REMARK SMILES IDX 70 56 54 57 55 58 60 59 56 60 57 61 59 62 61 63 58 64 8 65
REMARK SMILES IDX 9 66 10 67 11 68 12 70 13 71 14 72 21 73 15 74 20 75 16 76
REMARK SMILES IDX 19 77 17 78 18 80 22 81 23 82 24 83 25 84 30 85 26 86 28 87
REMARK SMILES IDX 27 88 29 89
REMARK H PARENT 3 8 78 26 52 37 10 69 16 79 29 90
REMARK Flexibility Score: inf
ROOT
ATOM      1  C   UNL A   1      38.663  24.269  26.792  1.00  0.00     0.002 C 
ENDROOT
BRANCH   1   2
ATOM      2  C   UNL A   1      39.687  23.296  27.384  1.00  0.00     0.002 C 
BRANCH   2   3
ATOM      3  C   UNL A   1      40.058  22.078  26.528  1.00  0.00     0.021 C 
BRANCH   3   4
ATOM      4  C   UNL A   1      41.514  21.638  26.637  1.00  0.00     0.116 C 
BRANCH   4   5
ATOM      5  N   UNL A   1      42.359  22.144  25.579  1.00  0.00    -0.352 N 
ATOM      6  O   UNL A   1      43.651  23.388  24.295  1.00  0.00    -0.269 OA
ATOM      7  C   UNL A   1      42.901  23.356  25.280  1.00  0.00     0.251 C 
ATOM      8  H   UNL A   1      42.597  21.451  24.922  1.00  0.00     0.163 HD
BRANCH   7   9
ATOM      9  C   UNL A   1      42.617  24.623  26.000  1.00  0.00     0.039 A 
ATOM     10  C   UNL A   1      41.836  25.679  25.530  1.00  0.00     0.014 A 
ATOM     11  C   UNL A   1      43.200  24.735  27.276  1.00  0.00     0.014 A 
ATOM     12  C   UNL A   1      41.698  26.842  26.279  1.00  0.00     0.010 A 
ATOM     13  C   UNL A   1      43.049  25.883  28.039  1.00  0.00     0.010 A 
ATOM     14  C   UNL A   1      42.320  26.951  27.524  1.00  0.00    -0.014 A 
BRANCH  14  15
ATOM     15  C   UNL A   1      42.047  28.137  28.328  1.00  0.00     0.031 A 
ATOM     16  C   UNL A   1      43.055  29.235  28.187  1.00  0.00     0.074 A 
ATOM     17  C   UNL A   1      40.904  28.317  29.018  1.00  0.00     0.049 A 
ATOM     18  N   UNL A   1      43.759  29.809  29.108  1.00  0.00    -0.248 NA
ATOM     19  C   UNL A   1      43.380  29.684  26.821  1.00  0.00     0.031 C 
ATOM     20  C   UNL A   1      39.699  27.483  29.017  1.00  0.00     0.029 A 
ATOM     21  N   UNL A   1      40.547  29.364  29.812  1.00  0.00    -0.354 N 
ATOM     22  C   UNL A   1      44.502  30.802  28.467  1.00  0.00     0.074 A 
ATOM     23  C   UNL A   1      44.315  30.606  27.053  1.00  0.00     0.031 C 
ATOM     24  C   UNL A   1      38.683  28.164  29.593  1.00  0.00     0.029 A 
ATOM     25  C   UNL A   1      39.197  29.416  30.125  1.00  0.00     0.049 A 
ATOM     26  H   UNL A   1      41.195  30.029  30.138  1.00  0.00     0.167 HD
ATOM     27  C   UNL A   1      45.085  31.829  29.144  1.00  0.00     0.037 A 
ATOM     28  C   UNL A   1      38.544  30.441  30.726  1.00  0.00     0.037 A 
ATOM     29  C   UNL A   1      45.245  31.523  30.539  1.00  0.00     0.049 A 
ATOM     30  C   UNL A   1      39.558  31.287  31.402  1.00  0.00     0.074 A 
ATOM     31  C   UNL A   1      45.958  30.575  31.247  1.00  0.00     0.029 A 
ATOM     32  N   UNL A   1      44.334  32.034  31.427  1.00  0.00    -0.354 N 
ATOM     33  N   UNL A   1      40.245  30.910  32.442  1.00  0.00    -0.248 NA
ATOM     34  C   UNL A   1      40.122  32.394  30.645  1.00  0.00     0.031 C 
ATOM     35  C   UNL A   1      45.109  30.213  32.332  1.00  0.00     0.029 A 
ATOM     36  C   UNL A   1      43.961  31.002  32.250  1.00  0.00     0.049 A 
ATOM     37  H   UNL A   1      44.010  32.963  31.466  1.00  0.00     0.167 HD
ATOM     38  C   UNL A   1      41.515  31.426  32.230  1.00  0.00     0.074 A 
ATOM     39  C   UNL A   1      41.356  32.399  31.153  1.00  0.00     0.031 C 
ATOM     40  C   UNL A   1      42.621  30.821  32.755  1.00  0.00     0.037 A 
BRANCH  27  41
ATOM     41  C   UNL A   1      45.238  33.225  28.598  1.00  0.00     0.057 A 
ATOM     42  C   UNL A   1      44.100  34.008  28.335  1.00  0.00     0.134 A 
ATOM     43  C   UNL A   1      46.444  33.722  28.061  1.00  0.00     0.134 A 
ATOM     44  F   UNL A   1      42.889  33.631  28.770  1.00  0.00    -0.206 F 
ATOM     45  C   UNL A   1      44.151  35.168  27.551  1.00  0.00     0.040 A 
ATOM     46  C   UNL A   1      46.514  34.904  27.317  1.00  0.00     0.040 A 
ATOM     47  F   UNL A   1      47.594  33.040  28.142  1.00  0.00    -0.206 F 
ATOM     48  C   UNL A   1      45.361  35.617  27.035  1.00  0.00     0.006 A 
ENDBRANCH  27  41
BRANCH  28  49
ATOM     49  C   UNL A   1      37.164  30.920  30.489  1.00  0.00     0.057 A 
ATOM     50  C   UNL A   1      36.323  31.280  31.552  1.00  0.00     0.134 A 
ATOM     51  C   UNL A   1      36.739  31.308  29.207  1.00  0.00     0.134 A 
ATOM     52  F   UNL A   1      36.666  30.996  32.817  1.00  0.00    -0.206 F 
ATOM     53  C   UNL A   1      35.139  32.003  31.354  1.00  0.00     0.040 A 
ATOM     54  C   UNL A   1      35.557  32.025  28.994  1.00  0.00     0.040 A 
ATOM     55  F   UNL A   1      37.504  31.085  28.128  1.00  0.00    -0.206 F 
ATOM     56  C   UNL A   1      34.758  32.387  30.071  1.00  0.00     0.006 A 
ENDBRANCH  28  49
BRANCH  40  57
ATOM     57  C   UNL A   1      42.409  29.706  33.743  1.00  0.00     0.057 A 
ATOM     58  C   UNL A   1      42.200  29.904  35.118  1.00  0.00     0.134 A 
ATOM     59  C   UNL A   1      42.262  28.399  33.268  1.00  0.00     0.134 A 
ATOM     60  F   UNL A   1      42.214  31.130  35.653  1.00  0.00    -0.206 F 
ATOM     61  C   UNL A   1      41.909  28.844  35.983  1.00  0.00     0.040 A 
ATOM     62  C   UNL A   1      41.937  27.337  34.116  1.00  0.00     0.040 A 
ATOM     63  F   UNL A   1      42.386  28.137  31.958  1.00  0.00    -0.206 F 
ATOM     64  C   UNL A   1      41.770  27.555  35.481  1.00  0.00     0.006 A 
ENDBRANCH  40  57
ENDBRANCH  14  15
ENDBRANCH   7   9
ENDBRANCH   4   5
ENDBRANCH   3   4
ENDBRANCH   2   3
ENDBRANCH   1   2
BRANCH   1  65
ATOM     65  C   UNL A   1      37.865  23.776  25.585  1.00  0.00     0.021 C 
BRANCH  65  66
ATOM     66  C   UNL A   1      36.353  23.863  25.709  1.00  0.00     0.116 C 
BRANCH  66  67
ATOM     67  N   UNL A   1      35.699  24.047  24.423  1.00  0.00    -0.354 N 
ATOM     68  C   UNL A   1      34.800  23.312  23.704  1.00  0.00     0.243 C 
ATOM     69  H   UNL A   1      35.960  24.883  23.973  1.00  0.00     0.163 HD
ATOM     70  O   UNL A   1      34.639  23.671  22.531  1.00  0.00    -0.273 OA
BRANCH  68  71
ATOM     71  C   UNL A   1      34.001  22.109  24.262  1.00  0.00     0.182 C 
ATOM     72  C   UNL A   1      34.887  20.910  24.663  1.00  0.00     0.091 C 
ATOM     73  N   UNL A   1      32.772  22.228  25.144  1.00  0.00    -0.306 N 
ATOM     74  C   UNL A   1      34.042  19.728  24.878  1.00  0.00     0.042 A 
ATOM     75  C   UNL A   1      31.872  21.025  25.110  1.00  0.00     0.180 C 
ATOM     76  N   UNL A   1      34.411  18.420  24.872  1.00  0.00    -0.348 N 
ATOM     77  C   UNL A   1      32.689  19.762  25.097  1.00  0.00     0.081 A 
ATOM     78  C   UNL A   1      33.269  17.701  25.105  1.00  0.00     0.197 A 
ATOM     79  H   UNL A   1      35.316  18.061  24.729  1.00  0.00     0.167 HD
ATOM     80  N   UNL A   1      32.214  18.482  25.231  1.00  0.00    -0.240 NA
BRANCH  73  81
ATOM     81  C   UNL A   1      32.573  23.063  26.230  1.00  0.00     0.321 C 
ATOM     82  O   UNL A   1      32.810  22.701  27.385  1.00  0.00    -0.248 OA
BRANCH  81  83
ATOM     83  N   UNL A   1      32.114  24.344  26.019  1.00  0.00    -0.322 N 
ATOM     84  C   UNL A   1      33.000  25.496  26.122  1.00  0.00     0.121 C 
ATOM     85  C   UNL A   1      31.131  24.532  24.945  1.00  0.00     0.153 C 
ATOM     86  C   UNL A   1      32.235  26.793  26.401  1.00  0.00     0.024 C 
ATOM     87  C   UNL A   1      30.132  25.571  25.431  1.00  0.00     0.134 C 
ATOM     88  C   UNL A   1      30.801  26.888  25.843  1.00  0.00     0.035 C 
BRANCH  87  89
ATOM     89  O   UNL A   1      29.464  25.007  26.563  1.00  0.00    -0.391 OA
ATOM     90  H   UNL A   1      29.724  24.077  26.661  1.00  0.00     0.211 HD
ENDBRANCH  87  89
ENDBRANCH  81  83
ENDBRANCH  73  81
ENDBRANCH  68  71
ENDBRANCH  66  67
ENDBRANCH  65  66
ENDBRANCH   1  65
TORSDOF 16
ENDMDL
MODEL 3
REMARK VINA RESULT:     -11.8      3.600      8.565
REMARK SMILES O=C(NCCCCCCNC(=O)[C@H]1Cc2[nH]cnc2CN1C(=O)N1CCC[C@H](O)C1)c1ccc(-c2c3nc(c(-c4c(F)cccc4F)c4ccc([nH]4)c(-c4c(F)cccc4F)c4nc(c(-c5c(F)cccc5F)c5ccc2[nH]5)C=C4)C=C3)cc1
REMARK SMILES IDX 7 1 6 2 5 3 4 4 3 5 1 6 2 7 31 9 32 10 84 11 33 12 83 13
REMARK SMILES IDX 34 14 35 15 36 16 77 17 37 18 82 19 76 20 78 21 38 22 81 23
REMARK SMILES IDX 75 24 74 25 39 27 65 28 48 29 64 30 49 31 52 32 63 33 79 34
REMARK SMILES IDX 50 35 51 36 62 38 80 39 53 40 40 41 41 42 46 43 42 44 43 45
REMARK SMILES IDX 45 46 47 47 44 48 66 49 67 50 72 51 68 52 69 53 71 54 73 55
REMARK SMILES IDX 70 56 54 57 55 58 60 59 56 60 57 61 59 62 61 63 58 64 8 65
REMARK SMILES IDX 9 66 10 67 11 68 12 70 13 71 14 72 21 73 15 74 20 75 16 76
REMARK SMILES IDX 19 77 17 78 18 80 22 81 23 82 24 83 25 84 30 85 26 86 28 87
REMARK SMILES IDX 27 88 29 89
REMARK H PARENT 3 8 78 26 52 37 10 69 16 79 29 90
REMARK Flexibility Score: inf
ROOT
ATOM      1  C   UNL A   1      40.401  21.857  27.469  1.00  0.00     0.002 C 
ENDROOT
BRANCH   1   2
ATOM      2  C   UNL A   1      41.464  20.753  27.441  1.00  0.00     0.002 C 
BRANCH   2   3
ATOM      3  C   UNL A   1      41.572  19.932  26.151  1.00  0.00     0.021 C 
BRANCH   3   4
ATOM      4  C   UNL A   1      42.898  19.199  25.967  1.00  0.00     0.116 C 
BRANCH   4   5
ATOM      5  N   UNL A   1      43.719  19.733  24.904  1.00  0.00    -0.352 N 
ATOM      6  O   UNL A   1      45.002  21.001  23.635  1.00  0.00    -0.269 OA
ATOM      7  C   UNL A   1      44.288  20.942  24.645  1.00  0.00     0.251 C 
ATOM      8  H   UNL A   1      43.910  19.067  24.205  1.00  0.00     0.163 HD
BRANCH   7   9
ATOM      9  C   UNL A   1      44.073  22.178  25.438  1.00  0.00     0.039 A 
ATOM     10  C   UNL A   1      44.662  22.478  26.667  1.00  0.00     0.014 A 
ATOM     11  C   UNL A   1      43.194  23.117  24.867  1.00  0.00     0.014 A 
ATOM     12  C   UNL A   1      44.329  23.648  27.342  1.00  0.00     0.010 A 
ATOM     13  C   UNL A   1      42.873  24.295  25.524  1.00  0.00     0.010 A 
ATOM     14  C   UNL A   1      43.421  24.546  26.779  1.00  0.00    -0.014 A 
BRANCH  14  15
ATOM     15  C   UNL A   1      43.196  25.815  27.462  1.00  0.00     0.031 A 
ATOM     16  C   UNL A   1      44.217  26.871  27.175  1.00  0.00     0.074 A 
ATOM     17  C   UNL A   1      42.080  26.088  28.166  1.00  0.00     0.049 A 
ATOM     18  N   UNL A   1      44.962  27.524  28.007  1.00  0.00    -0.248 NA
ATOM     19  C   UNL A   1      44.502  27.170  25.760  1.00  0.00     0.031 C 
ATOM     20  C   UNL A   1      40.863  25.283  28.292  1.00  0.00     0.029 A 
ATOM     21  N   UNL A   1      41.769  27.219  28.858  1.00  0.00    -0.354 N 
ATOM     22  C   UNL A   1      45.698  28.429  27.242  1.00  0.00     0.074 A 
ATOM     23  C   UNL A   1      45.459  28.091  25.863  1.00  0.00     0.031 C 
ATOM     24  C   UNL A   1      39.878  26.042  28.826  1.00  0.00     0.029 A 
ATOM     25  C   UNL A   1      40.431  27.331  29.207  1.00  0.00     0.049 A 
ATOM     26  H   UNL A   1      42.439  27.902  29.092  1.00  0.00     0.167 HD
ATOM     27  C   UNL A   1      46.322  29.509  27.789  1.00  0.00     0.037 A 
ATOM     28  C   UNL A   1      39.817  28.426  29.719  1.00  0.00     0.037 A 
ATOM     29  C   UNL A   1      46.525  29.347  29.202  1.00  0.00     0.049 A 
ATOM     30  C   UNL A   1      40.868  29.317  30.270  1.00  0.00     0.074 A 
ATOM     31  C   UNL A   1      47.246  28.463  29.982  1.00  0.00     0.029 A 
ATOM     32  N   UNL A   1      45.654  29.966  30.061  1.00  0.00    -0.354 N 
ATOM     33  N   UNL A   1      41.584  29.037  31.320  1.00  0.00    -0.248 NA
ATOM     34  C   UNL A   1      41.424  30.327  29.383  1.00  0.00     0.031 C 
ATOM     35  C   UNL A   1      46.428  28.233  31.126  1.00  0.00     0.029 A 
ATOM     36  C   UNL A   1      45.292  29.032  30.999  1.00  0.00     0.049 A 
ATOM     37  H   UNL A   1      45.347  30.900  30.013  1.00  0.00     0.167 HD
ATOM     38  C   UNL A   1      42.854  29.502  31.015  1.00  0.00     0.074 A 
ATOM     39  C   UNL A   1      42.675  30.360  29.847  1.00  0.00     0.031 C 
ATOM     40  C   UNL A   1      43.968  28.932  31.563  1.00  0.00     0.037 A 
BRANCH  27  41
ATOM     41  C   UNL A   1      46.480  30.838  27.095  1.00  0.00     0.057 A 
ATOM     42  C   UNL A   1      47.746  31.446  27.015  1.00  0.00     0.134 A 
ATOM     43  C   UNL A   1      45.393  31.668  26.751  1.00  0.00     0.134 A 
ATOM     44  F   UNL A   1      48.857  30.769  27.342  1.00  0.00    -0.206 F 
ATOM     45  C   UNL A   1      47.911  32.794  26.672  1.00  0.00     0.040 A 
ATOM     46  C   UNL A   1      45.551  33.002  26.359  1.00  0.00     0.040 A 
ATOM     47  F   UNL A   1      44.123  31.265  26.871  1.00  0.00    -0.206 F 
ATOM     48  C   UNL A   1      46.811  33.578  26.346  1.00  0.00     0.006 A 
ENDBRANCH  27  41
BRANCH  28  49
ATOM     49  C   UNL A   1      38.438  28.906  29.478  1.00  0.00     0.057 A 
ATOM     50  C   UNL A   1      37.521  29.052  30.530  1.00  0.00     0.134 A 
ATOM     51  C   UNL A   1      38.078  29.504  28.258  1.00  0.00     0.134 A 
ATOM     52  F   UNL A   1      37.796  28.557  31.745  1.00  0.00    -0.206 F 
ATOM     53  C   UNL A   1      36.326  29.769  30.382  1.00  0.00     0.040 A 
ATOM     54  C   UNL A   1      36.887  30.218  28.096  1.00  0.00     0.040 A 
ATOM     55  F   UNL A   1      38.915  29.494  27.210  1.00  0.00    -0.206 F 
ATOM     56  C   UNL A   1      36.011  30.365  29.164  1.00  0.00     0.006 A 
ENDBRANCH  28  49
BRANCH  40  57
ATOM     57  C   UNL A   1      43.770  27.931  32.669  1.00  0.00     0.057 A 
ATOM     58  C   UNL A   1      43.732  26.540  32.473  1.00  0.00     0.134 A 
ATOM     59  C   UNL A   1      43.768  28.378  33.995  1.00  0.00     0.134 A 
ATOM     60  F   UNL A   1      43.836  26.009  31.250  1.00  0.00    -0.206 F 
ATOM     61  C   UNL A   1      43.645  25.644  33.543  1.00  0.00     0.040 A 
ATOM     62  C   UNL A   1      43.717  27.491  35.074  1.00  0.00     0.040 A 
ATOM     63  F   UNL A   1      43.863  29.689  34.267  1.00  0.00    -0.206 F 
ATOM     64  C   UNL A   1      43.644  26.118  34.850  1.00  0.00     0.006 A 
ENDBRANCH  40  57
ENDBRANCH  14  15
ENDBRANCH   7   9
ENDBRANCH   4   5
ENDBRANCH   3   4
ENDBRANCH   2   3
ENDBRANCH   1   2
BRANCH   1  65
ATOM     65  C   UNL A   1      39.870  22.332  26.117  1.00  0.00     0.021 C 
BRANCH  65  66
ATOM     66  C   UNL A   1      38.360  22.303  25.950  1.00  0.00     0.116 C 
BRANCH  66  67
ATOM     67  N   UNL A   1      37.898  21.103  25.271  1.00  0.00    -0.354 N 
ATOM     68  C   UNL A   1      36.674  20.522  25.102  1.00  0.00     0.243 C 
ATOM     69  H   UNL A   1      38.626  20.600  24.838  1.00  0.00     0.163 HD
ATOM     70  O   UNL A   1      36.692  19.368  24.656  1.00  0.00    -0.273 OA
BRANCH  68  71
ATOM     71  C   UNL A   1      35.323  21.208  25.419  1.00  0.00     0.182 C 
ATOM     72  C   UNL A   1      35.244  22.672  24.933  1.00  0.00     0.091 C 
ATOM     73  N   UNL A   1      33.973  20.516  25.363  1.00  0.00    -0.306 N 
ATOM     74  C   UNL A   1      34.078  23.325  25.540  1.00  0.00     0.042 A 
ATOM     75  C   UNL A   1      32.913  21.170  26.204  1.00  0.00     0.180 C 
ATOM     76  N   UNL A   1      33.845  24.657  25.690  1.00  0.00    -0.348 N 
ATOM     77  C   UNL A   1      33.014  22.667  26.101  1.00  0.00     0.081 A 
ATOM     78  C   UNL A   1      32.636  24.763  26.323  1.00  0.00     0.197 A 
ATOM     79  H   UNL A   1      34.427  25.396  25.401  1.00  0.00     0.167 HD
ATOM     80  N   UNL A   1      32.118  23.581  26.596  1.00  0.00    -0.240 NA
BRANCH  73  81
ATOM     81  C   UNL A   1      33.488  19.660  24.390  1.00  0.00     0.321 C 
ATOM     82  O   UNL A   1      33.102  20.070  23.293  1.00  0.00    -0.248 OA
BRANCH  81  83
ATOM     83  N   UNL A   1      33.449  18.307  24.643  1.00  0.00    -0.322 N 
ATOM     84  C   UNL A   1      32.238  17.659  25.128  1.00  0.00     0.121 C 
ATOM     85  C   UNL A   1      34.178  17.433  23.716  1.00  0.00     0.153 C 
ATOM     86  C   UNL A   1      32.536  16.341  25.851  1.00  0.00     0.024 C 
ATOM     87  C   UNL A   1      34.806  16.324  24.546  1.00  0.00     0.134 C 
ATOM     88  C   UNL A   1      33.776  15.554  25.380  1.00  0.00     0.035 C 
BRANCH  87  89
ATOM     89  O   UNL A   1      35.752  16.946  25.421  1.00  0.00    -0.391 OA
ATOM     90  H   UNL A   1      35.280  17.463  26.092  1.00  0.00     0.211 HD
ENDBRANCH  87  89
ENDBRANCH  81  83
ENDBRANCH  73  81
ENDBRANCH  68  71
ENDBRANCH  66  67
ENDBRANCH  65  66
ENDBRANCH   1  65
TORSDOF 16
ENDMDL
