MODEL 1
REMARK VINA RESULT:     -11.8      0.000      0.000
REMARK SMILES CO[C@H]1C[C@@H](C(=O)NCCCCCCNC(=O)c2ccc(-c3c4nc(c(-c5c(F)cccc5F)c5ccc([nH]5)c(-c5c(F)cccc5F)c5nc(c(-c6c(F)cccc6F)c6ccc3[nH]6)C=C5)C=C4)cc2)N(C(=O)Nc2cc(C)cc(F)c2)C1
REMARK SMILES IDX 11 1 10 2 9 3 8 4 6 5 7 6 5 8 3 9 4 10 84 11 72 12 2 13 1 14
REMARK SMILES IDX 73 15 74 16 75 17 76 19 77 20 83 21 78 22 81 23 79 24 80 25
REMARK SMILES IDX 82 26 12 27 13 28 14 29 15 30 16 31 17 33 18 34 19 35 71 36
REMARK SMILES IDX 20 37 70 38 21 39 22 40 23 41 64 42 24 43 69 44 63 45 65 46
REMARK SMILES IDX 25 47 68 48 62 49 61 50 26 52 52 53 35 54 51 55 36 56 39 57
REMARK SMILES IDX 50 58 66 59 37 60 38 61 49 63 67 64 40 65 27 66 28 67 33 68
REMARK SMILES IDX 29 69 30 70 32 71 34 72 31 73 53 74 54 75 59 76 55 77 56 78
REMARK SMILES IDX 58 79 60 80 57 81 41 82 42 83 47 84 43 85 44 86 46 87 48 88
REMARK SMILES IDX 45 89
REMARK H PARENT 8 7 75 18 15 32 65 51 39 62
REMARK Flexibility Score: inf
ROOT
ATOM      1  C   UNL A   1      35.446  22.427  24.205  1.00  0.00     0.002 C 
ENDROOT
BRANCH   1   2
ATOM      2  C   UNL A   1      34.878  23.736  24.763  1.00  0.00     0.021 C 
BRANCH   2   3
ATOM      3  C   UNL A   1      33.597  24.205  24.072  1.00  0.00     0.116 C 
BRANCH   3   4
ATOM      4  N   UNL A   1      32.543  24.478  25.028  1.00  0.00    -0.354 N 
ATOM      5  C   UNL A   1      32.183  25.666  25.594  1.00  0.00     0.242 C 
ATOM      6  O   UNL A   1      31.284  25.646  26.435  1.00  0.00    -0.273 OA
ATOM      7  H   UNL A   1      32.014  23.697  25.310  1.00  0.00     0.163 HD
BRANCH   5   8
ATOM      8  C   UNL A   1      32.918  26.954  25.179  1.00  0.00     0.179 C 
ATOM      9  C   UNL A   1      33.498  29.190  25.845  1.00  0.00     0.140 C 
ATOM     10  C   UNL A   1      32.878  27.907  26.383  1.00  0.00     0.069 C 
ATOM     11  C   UNL A   1      33.102  29.172  24.365  1.00  0.00     0.154 C 
ATOM     12  N   UNL A   1      32.492  27.867  24.105  1.00  0.00    -0.310 N 
BRANCH   9  13
ATOM     13  O   UNL A   1      33.010  30.373  26.471  1.00  0.00    -0.380 OA
ATOM     14  C   UNL A   1      31.661  30.680  26.147  1.00  0.00     0.195 C 
ENDBRANCH   9  13
BRANCH  12  15
ATOM     15  C   UNL A   1      32.304  27.530  22.795  1.00  0.00     0.322 C 
ATOM     16  O   UNL A   1      33.226  27.106  22.093  1.00  0.00    -0.248 OA
ATOM     17  N   UNL A   1      31.083  27.633  22.215  1.00  0.00    -0.308 N 
ATOM     18  H   UNL A   1      30.989  27.088  21.401  1.00  0.00     0.171 HD
BRANCH  17  19
ATOM     19  C   UNL A   1      29.926  28.356  22.540  1.00  0.00     0.046 A 
ATOM     20  C   UNL A   1      29.918  29.717  22.202  1.00  0.00     0.029 A 
ATOM     21  C   UNL A   1      28.804  27.808  23.151  1.00  0.00     0.065 A 
ATOM     22  C   UNL A   1      28.752  30.488  22.294  1.00  0.00    -0.046 A 
ATOM     23  C   UNL A   1      27.658  28.587  23.292  1.00  0.00     0.125 A 
ATOM     24  C   UNL A   1      28.726  31.881  21.740  1.00  0.00     0.044 C 
ATOM     25  C   UNL A   1      27.609  29.901  22.835  1.00  0.00     0.042 A 
ATOM     26  F   UNL A   1      26.564  28.050  23.850  1.00  0.00    -0.207 F 
ENDBRANCH  17  19
ENDBRANCH  12  15
ENDBRANCH   5   8
ENDBRANCH   3   4
ENDBRANCH   2   3
ENDBRANCH   1   2
BRANCH   1  27
ATOM     27  C   UNL A   1      36.960  22.272  24.356  1.00  0.00     0.002 C 
BRANCH  27  28
ATOM     28  C   UNL A   1      37.437  21.059  25.146  1.00  0.00     0.021 C 
BRANCH  28  29
ATOM     29  C   UNL A   1      38.832  21.180  25.730  1.00  0.00     0.116 C 
BRANCH  29  30
ATOM     30  N   UNL A   1      39.613  19.952  25.662  1.00  0.00    -0.352 N 
ATOM     31  C   UNL A   1      40.931  19.787  26.031  1.00  0.00     0.251 C 
ATOM     32  H   UNL A   1      39.151  19.155  25.316  1.00  0.00     0.163 HD
ATOM     33  O   UNL A   1      41.518  18.725  25.859  1.00  0.00    -0.269 OA
BRANCH  31  34
ATOM     34  C   UNL A   1      41.637  20.954  26.596  1.00  0.00     0.039 A 
ATOM     35  C   UNL A   1      42.175  21.909  25.734  1.00  0.00     0.014 A 
ATOM     36  C   UNL A   1      41.622  21.163  27.977  1.00  0.00     0.014 A 
ATOM     37  C   UNL A   1      42.623  23.123  26.255  1.00  0.00     0.010 A 
ATOM     38  C   UNL A   1      41.980  22.406  28.481  1.00  0.00     0.010 A 
ATOM     39  C   UNL A   1      42.484  23.399  27.627  1.00  0.00    -0.014 A 
BRANCH  39  40
ATOM     40  C   UNL A   1      42.859  24.717  28.196  1.00  0.00     0.031 A 
ATOM     41  C   UNL A   1      41.800  25.758  28.424  1.00  0.00     0.074 A 
ATOM     42  C   UNL A   1      44.156  25.014  28.411  1.00  0.00     0.049 A 
ATOM     43  N   UNL A   1      41.930  26.999  28.816  1.00  0.00    -0.248 NA
ATOM     44  C   UNL A   1      40.414  25.363  28.124  1.00  0.00     0.031 C 
ATOM     45  C   UNL A   1      45.287  24.122  28.148  1.00  0.00     0.029 A 
ATOM     46  N   UNL A   1      44.743  26.161  28.883  1.00  0.00    -0.354 N 
ATOM     47  C   UNL A   1      40.651  27.539  28.777  1.00  0.00     0.074 A 
ATOM     48  C   UNL A   1      39.771  26.511  28.267  1.00  0.00     0.031 C 
ATOM     49  C   UNL A   1      46.428  24.747  28.479  1.00  0.00     0.029 A 
ATOM     50  C   UNL A   1      46.112  26.092  28.952  1.00  0.00     0.049 A 
ATOM     51  H   UNL A   1      44.229  26.958  29.146  1.00  0.00     0.167 HD
ATOM     52  C   UNL A   1      40.240  28.771  29.159  1.00  0.00     0.037 A 
ATOM     53  C   UNL A   1      47.013  27.011  29.351  1.00  0.00     0.037 A 
ATOM     54  C   UNL A   1      41.109  29.771  29.717  1.00  0.00     0.049 A 
ATOM     55  C   UNL A   1      46.530  28.350  29.833  1.00  0.00     0.074 A 
ATOM     56  C   UNL A   1      40.779  31.012  30.231  1.00  0.00     0.029 A 
ATOM     57  N   UNL A   1      42.485  29.640  29.836  1.00  0.00    -0.354 N 
ATOM     58  N   UNL A   1      45.305  28.817  29.881  1.00  0.00    -0.248 NA
ATOM     59  C   UNL A   1      47.550  29.286  30.326  1.00  0.00     0.031 C 
ATOM     60  C   UNL A   1      41.961  31.647  30.630  1.00  0.00     0.029 A 
ATOM     61  C   UNL A   1      43.021  30.784  30.399  1.00  0.00     0.049 A 
ATOM     62  H   UNL A   1      43.003  28.849  29.560  1.00  0.00     0.167 HD
ATOM     63  C   UNL A   1      45.404  30.090  30.426  1.00  0.00     0.074 A 
ATOM     64  C   UNL A   1      46.807  30.316  30.707  1.00  0.00     0.031 C 
ATOM     65  C   UNL A   1      44.421  30.990  30.671  1.00  0.00     0.037 A 
BRANCH  52  66
ATOM     66  C   UNL A   1      38.783  29.090  28.991  1.00  0.00     0.057 A 
ATOM     67  C   UNL A   1      38.256  29.514  27.764  1.00  0.00     0.134 A 
ATOM     68  C   UNL A   1      37.898  28.975  30.069  1.00  0.00     0.134 A 
ATOM     69  F   UNL A   1      39.053  29.661  26.694  1.00  0.00    -0.206 F 
ATOM     70  C   UNL A   1      36.909  29.854  27.626  1.00  0.00     0.040 A 
ATOM     71  C   UNL A   1      36.542  29.283  29.936  1.00  0.00     0.040 A 
ATOM     72  F   UNL A   1      38.335  28.569  31.271  1.00  0.00    -0.206 F 
ATOM     73  C   UNL A   1      36.048  29.734  28.714  1.00  0.00     0.006 A 
ENDBRANCH  52  66
BRANCH  53  74
ATOM     74  C   UNL A   1      48.459  26.678  29.344  1.00  0.00     0.057 A 
ATOM     75  C   UNL A   1      49.277  27.036  28.267  1.00  0.00     0.134 A 
ATOM     76  C   UNL A   1      49.060  26.014  30.418  1.00  0.00     0.134 A 
ATOM     77  F   UNL A   1      48.753  27.661  27.201  1.00  0.00    -0.206 F 
ATOM     78  C   UNL A   1      50.640  26.733  28.249  1.00  0.00     0.040 A 
ATOM     79  C   UNL A   1      50.426  25.722  30.424  1.00  0.00     0.040 A 
ATOM     80  F   UNL A   1      48.333  25.654  31.486  1.00  0.00    -0.206 F 
ATOM     81  C   UNL A   1      51.219  26.079  29.334  1.00  0.00     0.006 A 
ENDBRANCH  53  74
BRANCH  65  82
ATOM     82  C   UNL A   1      44.825  32.295  31.290  1.00  0.00     0.057 A 
ATOM     83  C   UNL A   1      44.940  32.446  32.678  1.00  0.00     0.134 A 
ATOM     84  C   UNL A   1      45.150  33.395  30.488  1.00  0.00     0.134 A 
ATOM     85  F   UNL A   1      44.631  31.432  33.499  1.00  0.00    -0.206 F 
ATOM     86  C   UNL A   1      45.349  33.653  33.246  1.00  0.00     0.040 A 
ATOM     87  C   UNL A   1      45.582  34.599  31.044  1.00  0.00     0.040 A 
ATOM     88  F   UNL A   1      45.068  33.312  29.151  1.00  0.00    -0.206 F 
ATOM     89  C   UNL A   1      45.678  34.732  32.428  1.00  0.00     0.006 A 
ENDBRANCH  65  82
ENDBRANCH  39  40
ENDBRANCH  31  34
ENDBRANCH  29  30
ENDBRANCH  28  29
ENDBRANCH  27  28
ENDBRANCH   1  27
TORSDOF 16
ENDMDL
MODEL 2
REMARK VINA RESULT:     -11.7      1.573      6.925
REMARK SMILES CO[C@H]1C[C@@H](C(=O)NCCCCCCNC(=O)c2ccc(-c3c4nc(c(-c5c(F)cccc5F)c5ccc([nH]5)c(-c5c(F)cccc5F)c5nc(c(-c6c(F)cccc6F)c6ccc3[nH]6)C=C5)C=C4)cc2)N(C(=O)Nc2cc(C)cc(F)c2)C1
REMARK SMILES IDX 11 1 10 2 9 3 8 4 6 5 7 6 5 8 3 9 4 10 84 11 72 12 2 13 1 14
REMARK SMILES IDX 73 15 74 16 75 17 76 19 77 20 83 21 78 22 81 23 79 24 80 25
REMARK SMILES IDX 82 26 12 27 13 28 14 29 15 30 16 31 17 33 18 34 19 35 71 36
REMARK SMILES IDX 20 37 70 38 21 39 22 40 23 41 64 42 24 43 69 44 63 45 65 46
REMARK SMILES IDX 25 47 68 48 62 49 61 50 26 52 52 53 35 54 51 55 36 56 39 57
REMARK SMILES IDX 50 58 66 59 37 60 38 61 49 63 67 64 40 65 27 66 28 67 33 68
REMARK SMILES IDX 29 69 30 70 32 71 34 72 31 73 53 74 54 75 59 76 55 77 56 78
REMARK SMILES IDX 58 79 60 80 57 81 41 82 42 83 47 84 43 85 44 86 46 87 48 88
REMARK SMILES IDX 45 89
REMARK H PARENT 8 7 75 18 15 32 65 51 39 62
REMARK Flexibility Score: inf
ROOT
ATOM      1  C   UNL A   1      36.992  23.317  24.869  1.00  0.00     0.002 C 
ENDROOT
BRANCH   1   2
ATOM      2  C   UNL A   1      35.699  23.675  25.610  1.00  0.00     0.021 C 
BRANCH   2   3
ATOM      3  C   UNL A   1      34.794  24.646  24.851  1.00  0.00     0.116 C 
BRANCH   3   4
ATOM      4  N   UNL A   1      34.377  25.753  25.688  1.00  0.00    -0.354 N 
ATOM      5  C   UNL A   1      33.243  26.509  25.610  1.00  0.00     0.242 C 
ATOM      6  O   UNL A   1      33.129  27.446  26.402  1.00  0.00    -0.273 OA
ATOM      7  H   UNL A   1      34.998  25.995  26.413  1.00  0.00     0.163 HD
BRANCH   5   8
ATOM      8  C   UNL A   1      32.186  26.177  24.542  1.00  0.00     0.179 C 
ATOM      9  C   UNL A   1      31.039  26.987  22.590  1.00  0.00     0.140 C 
ATOM     10  C   UNL A   1      32.195  27.326  23.521  1.00  0.00     0.069 C 
ATOM     11  C   UNL A   1      30.052  26.261  23.511  1.00  0.00     0.154 C 
ATOM     12  N   UNL A   1      30.738  26.056  24.789  1.00  0.00    -0.310 N 
BRANCH   9  13
ATOM     13  O   UNL A   1      30.418  28.127  22.004  1.00  0.00    -0.380 OA
ATOM     14  C   UNL A   1      29.976  29.091  22.949  1.00  0.00     0.195 C 
ENDBRANCH   9  13
BRANCH  12  15
ATOM     15  C   UNL A   1      30.145  25.197  25.669  1.00  0.00     0.322 C 
ATOM     16  O   UNL A   1      29.426  25.601  26.588  1.00  0.00    -0.248 OA
ATOM     17  N   UNL A   1      30.309  23.857  25.557  1.00  0.00    -0.308 N 
ATOM     18  H   UNL A   1      29.614  23.337  26.021  1.00  0.00     0.171 HD
BRANCH  17  19
ATOM     19  C   UNL A   1      31.266  23.059  24.913  1.00  0.00     0.046 A 
ATOM     20  C   UNL A   1      32.132  22.326  25.737  1.00  0.00     0.029 A 
ATOM     21  C   UNL A   1      31.393  22.946  23.533  1.00  0.00     0.065 A 
ATOM     22  C   UNL A   1      32.990  21.349  25.213  1.00  0.00    -0.046 A 
ATOM     23  C   UNL A   1      32.282  22.012  23.006  1.00  0.00     0.125 A 
ATOM     24  C   UNL A   1      33.755  20.448  26.135  1.00  0.00     0.044 C 
ATOM     25  C   UNL A   1      33.048  21.189  23.829  1.00  0.00     0.042 A 
ATOM     26  F   UNL A   1      32.381  21.877  21.677  1.00  0.00    -0.207 F 
ENDBRANCH  17  19
ENDBRANCH  12  15
ENDBRANCH   5   8
ENDBRANCH   3   4
ENDBRANCH   2   3
ENDBRANCH   1   2
BRANCH   1  27
ATOM     27  C   UNL A   1      36.979  21.946  24.190  1.00  0.00     0.002 C 
BRANCH  27  28
ATOM     28  C   UNL A   1      37.457  20.772  25.037  1.00  0.00     0.021 C 
BRANCH  28  29
ATOM     29  C   UNL A   1      38.806  20.968  25.704  1.00  0.00     0.116 C 
BRANCH  29  30
ATOM     30  N   UNL A   1      39.677  19.803  25.637  1.00  0.00    -0.352 N 
ATOM     31  C   UNL A   1      41.007  19.741  25.994  1.00  0.00     0.251 C 
ATOM     32  H   UNL A   1      39.273  18.970  25.302  1.00  0.00     0.163 HD
ATOM     33  O   UNL A   1      41.671  18.726  25.824  1.00  0.00    -0.269 OA
BRANCH  31  34
ATOM     34  C   UNL A   1      41.627  20.963  26.545  1.00  0.00     0.039 A 
ATOM     35  C   UNL A   1      42.161  21.909  25.671  1.00  0.00     0.014 A 
ATOM     36  C   UNL A   1      41.535  21.224  27.914  1.00  0.00     0.014 A 
ATOM     37  C   UNL A   1      42.524  23.164  26.163  1.00  0.00     0.010 A 
ATOM     38  C   UNL A   1      41.807  22.501  28.383  1.00  0.00     0.010 A 
ATOM     39  C   UNL A   1      42.305  23.484  27.514  1.00  0.00    -0.014 A 
BRANCH  39  40
ATOM     40  C   UNL A   1      42.588  24.840  28.046  1.00  0.00     0.031 A 
ATOM     41  C   UNL A   1      43.975  25.183  28.512  1.00  0.00     0.074 A 
ATOM     42  C   UNL A   1      41.583  25.724  28.207  1.00  0.00     0.049 A 
ATOM     43  N   UNL A   1      44.407  26.270  29.098  1.00  0.00    -0.248 NA
ATOM     44  C   UNL A   1      45.003  24.144  28.337  1.00  0.00     0.031 C 
ATOM     45  C   UNL A   1      40.177  25.483  27.876  1.00  0.00     0.029 A 
ATOM     46  N   UNL A   1      41.590  27.001  28.710  1.00  0.00    -0.354 N 
ATOM     47  C   UNL A   1      45.743  26.030  29.390  1.00  0.00     0.074 A 
ATOM     48  C   UNL A   1      46.034  24.677  28.972  1.00  0.00     0.031 C 
ATOM     49  C   UNL A   1      39.461  26.581  28.166  1.00  0.00     0.029 A 
ATOM     50  C   UNL A   1      40.351  27.593  28.729  1.00  0.00     0.049 A 
ATOM     51  H   UNL A   1      42.406  27.449  29.027  1.00  0.00     0.167 HD
ATOM     52  C   UNL A   1      46.655  26.872  29.931  1.00  0.00     0.037 A 
ATOM     53  C   UNL A   1      39.974  28.815  29.153  1.00  0.00     0.037 A 
ATOM     54  C   UNL A   1      46.375  28.235  30.295  1.00  0.00     0.049 A 
ATOM     55  C   UNL A   1      41.015  29.757  29.691  1.00  0.00     0.074 A 
ATOM     56  C   UNL A   1      47.250  29.202  30.754  1.00  0.00     0.029 A 
ATOM     57  N   UNL A   1      45.120  28.822  30.236  1.00  0.00    -0.354 N 
ATOM     58  N   UNL A   1      42.297  29.552  29.874  1.00  0.00    -0.248 NA
ATOM     59  C   UNL A   1      40.560  31.102  30.068  1.00  0.00     0.031 C 
ATOM     60  C   UNL A   1      46.517  30.368  31.006  1.00  0.00     0.029 A 
ATOM     61  C   UNL A   1      45.193  30.135  30.667  1.00  0.00     0.049 A 
ATOM     62  H   UNL A   1      44.299  28.372  29.932  1.00  0.00     0.167 HD
ATOM     63  C   UNL A   1      42.806  30.746  30.370  1.00  0.00     0.074 A 
ATOM     64  C   UNL A   1      41.696  31.674  30.443  1.00  0.00     0.031 C 
ATOM     65  C   UNL A   1      44.077  31.044  30.732  1.00  0.00     0.037 A 
BRANCH  52  66
ATOM     66  C   UNL A   1      48.039  26.334  30.149  1.00  0.00     0.057 A 
ATOM     67  C   UNL A   1      49.010  26.362  29.139  1.00  0.00     0.134 A 
ATOM     68  C   UNL A   1      48.404  25.778  31.381  1.00  0.00     0.134 A 
ATOM     69  F   UNL A   1      48.721  26.866  27.930  1.00  0.00    -0.206 F 
ATOM     70  C   UNL A   1      50.281  25.817  29.333  1.00  0.00     0.040 A 
ATOM     71  C   UNL A   1      49.681  25.257  31.596  1.00  0.00     0.040 A 
ATOM     72  F   UNL A   1      47.524  25.724  32.392  1.00  0.00    -0.206 F 
ATOM     73  C   UNL A   1      50.620  25.267  30.567  1.00  0.00     0.006 A 
ENDBRANCH  52  66
BRANCH  53  74
ATOM     74  C   UNL A   1      38.552  29.225  29.051  1.00  0.00     0.057 A 
ATOM     75  C   UNL A   1      37.707  29.184  30.165  1.00  0.00     0.134 A 
ATOM     76  C   UNL A   1      38.010  29.685  27.846  1.00  0.00     0.134 A 
ATOM     77  F   UNL A   1      38.167  28.737  31.344  1.00  0.00    -0.206 F 
ATOM     78  C   UNL A   1      36.368  29.571  30.084  1.00  0.00     0.040 A 
ATOM     79  C   UNL A   1      36.678  30.095  27.754  1.00  0.00     0.040 A 
ATOM     80  F   UNL A   1      38.771  29.758  26.744  1.00  0.00    -0.206 F 
ATOM     81  C   UNL A   1      35.852  30.035  28.876  1.00  0.00     0.006 A 
ENDBRANCH  53  74
BRANCH  65  82
ATOM     82  C   UNL A   1      44.341  32.437  31.222  1.00  0.00     0.057 A 
ATOM     83  C   UNL A   1      44.643  33.482  30.340  1.00  0.00     0.134 A 
ATOM     84  C   UNL A   1      44.243  32.744  32.584  1.00  0.00     0.134 A 
ATOM     85  F   UNL A   1      44.762  33.248  29.025  1.00  0.00    -0.206 F 
ATOM     86  C   UNL A   1      44.855  34.782  30.800  1.00  0.00     0.040 A 
ATOM     87  C   UNL A   1      44.430  34.045  33.053  1.00  0.00     0.040 A 
ATOM     88  F   UNL A   1      43.950  31.788  33.479  1.00  0.00    -0.206 F 
ATOM     89  C   UNL A   1      44.741  35.068  32.159  1.00  0.00     0.006 A 
ENDBRANCH  65  82
ENDBRANCH  39  40
ENDBRANCH  31  34
ENDBRANCH  29  30
ENDBRANCH  28  29
ENDBRANCH  27  28
ENDBRANCH   1  27
TORSDOF 16
ENDMDL
MODEL 3
REMARK VINA RESULT:     -11.7      0.607      6.076
REMARK SMILES CO[C@H]1C[C@@H](C(=O)NCCCCCCNC(=O)c2ccc(-c3c4nc(c(-c5c(F)cccc5F)c5ccc([nH]5)c(-c5c(F)cccc5F)c5nc(c(-c6c(F)cccc6F)c6ccc3[nH]6)C=C5)C=C4)cc2)N(C(=O)Nc2cc(C)cc(F)c2)C1
REMARK SMILES IDX 11 1 10 2 9 3 8 4 6 5 7 6 5 8 3 9 4 10 84 11 72 12 2 13 1 14
REMARK SMILES IDX 73 15 74 16 75 17 76 19 77 20 83 21 78 22 81 23 79 24 80 25
REMARK SMILES IDX 82 26 12 27 13 28 14 29 15 30 16 31 17 33 18 34 19 35 71 36
REMARK SMILES IDX 20 37 70 38 21 39 22 40 23 41 64 42 24 43 69 44 63 45 65 46
REMARK SMILES IDX 25 47 68 48 62 49 61 50 26 52 52 53 35 54 51 55 36 56 39 57
REMARK SMILES IDX 50 58 66 59 37 60 38 61 49 63 67 64 40 65 27 66 28 67 33 68
REMARK SMILES IDX 29 69 30 70 32 71 34 72 31 73 53 74 54 75 59 76 55 77 56 78
REMARK SMILES IDX 58 79 60 80 57 81 41 82 42 83 47 84 43 85 44 86 46 87 48 88
REMARK SMILES IDX 45 89
REMARK H PARENT 8 7 75 18 15 32 65 51 39 62
REMARK Flexibility Score: inf
ROOT
ATOM      1  C   UNL A   1      36.114  22.671  25.564  1.00  0.00     0.002 C 
ENDROOT
BRANCH   1   2
ATOM      2  C   UNL A   1      35.228  23.799  25.022  1.00  0.00     0.021 C 
BRANCH   2   3
ATOM      3  C   UNL A   1      34.225  24.346  26.039  1.00  0.00     0.116 C 
BRANCH   3   4
ATOM      4  N   UNL A   1      32.880  24.370  25.501  1.00  0.00    -0.354 N 
ATOM      5  C   UNL A   1      32.144  25.437  25.077  1.00  0.00     0.242 C 
ATOM      6  O   UNL A   1      30.987  25.222  24.710  1.00  0.00    -0.273 OA
ATOM      7  H   UNL A   1      32.434  23.495  25.434  1.00  0.00     0.163 HD
BRANCH   5   8
ATOM      8  C   UNL A   1      32.771  26.843  25.094  1.00  0.00     0.179 C 
ATOM      9  C   UNL A   1      32.985  28.887  26.342  1.00  0.00     0.140 C 
ATOM     10  C   UNL A   1      32.453  27.465  26.463  1.00  0.00     0.069 C 
ATOM     11  C   UNL A   1      32.801  29.202  24.853  1.00  0.00     0.154 C 
ATOM     12  N   UNL A   1      32.391  27.954  24.205  1.00  0.00    -0.310 N 
BRANCH   9  13
ATOM     13  O   UNL A   1      32.279  29.836  27.136  1.00  0.00    -0.380 OA
ATOM     14  C   UNL A   1      32.915  31.103  27.219  1.00  0.00     0.195 C 
ENDBRANCH   9  13
BRANCH  12  15
ATOM     15  C   UNL A   1      32.425  27.936  22.840  1.00  0.00     0.322 C 
ATOM     16  O   UNL A   1      33.473  27.741  22.217  1.00  0.00    -0.248 OA
ATOM     17  N   UNL A   1      31.298  28.114  22.110  1.00  0.00    -0.308 N 
ATOM     18  H   UNL A   1      31.371  27.779  21.187  1.00  0.00     0.171 HD
BRANCH  17  19
ATOM     19  C   UNL A   1      30.047  28.678  22.401  1.00  0.00     0.046 A 
ATOM     20  C   UNL A   1      29.836  29.997  21.973  1.00  0.00     0.029 A 
ATOM     21  C   UNL A   1      29.021  28.013  23.062  1.00  0.00     0.065 A 
ATOM     22  C   UNL A   1      28.569  30.592  22.029  1.00  0.00    -0.046 A 
ATOM     23  C   UNL A   1      27.772  28.622  23.166  1.00  0.00     0.125 A 
ATOM     24  C   UNL A   1      28.334  31.925  21.384  1.00  0.00     0.044 C 
ATOM     25  C   UNL A   1      27.527  29.881  22.623  1.00  0.00     0.042 A 
ATOM     26  F   UNL A   1      26.772  27.968  23.773  1.00  0.00    -0.207 F 
ENDBRANCH  17  19
ENDBRANCH  12  15
ENDBRANCH   5   8
ENDBRANCH   3   4
ENDBRANCH   2   3
ENDBRANCH   1   2
BRANCH   1  27
ATOM     27  C   UNL A   1      37.068  22.060  24.536  1.00  0.00     0.002 C 
BRANCH  27  28
ATOM     28  C   UNL A   1      37.726  20.743  24.928  1.00  0.00     0.021 C 
BRANCH  28  29
ATOM     29  C   UNL A   1      38.986  20.877  25.763  1.00  0.00     0.116 C 
BRANCH  29  30
ATOM     30  N   UNL A   1      39.871  19.723  25.693  1.00  0.00    -0.352 N 
ATOM     31  C   UNL A   1      41.205  19.679  26.037  1.00  0.00     0.251 C 
ATOM     32  H   UNL A   1      39.475  18.884  25.364  1.00  0.00     0.163 HD
ATOM     33  O   UNL A   1      41.881  18.672  25.864  1.00  0.00    -0.269 OA
BRANCH  31  34
ATOM     34  C   UNL A   1      41.815  20.911  26.577  1.00  0.00     0.039 A 
ATOM     35  C   UNL A   1      42.347  21.851  25.695  1.00  0.00     0.014 A 
ATOM     36  C   UNL A   1      41.713  21.187  27.943  1.00  0.00     0.014 A 
ATOM     37  C   UNL A   1      42.700  23.113  26.175  1.00  0.00     0.010 A 
ATOM     38  C   UNL A   1      41.975  22.471  28.399  1.00  0.00     0.010 A 
ATOM     39  C   UNL A   1      42.471  23.448  27.521  1.00  0.00    -0.014 A 
BRANCH  39  40
ATOM     40  C   UNL A   1      42.742  24.811  28.040  1.00  0.00     0.031 A 
ATOM     41  C   UNL A   1      44.130  25.175  28.487  1.00  0.00     0.074 A 
ATOM     42  C   UNL A   1      41.728  25.683  28.205  1.00  0.00     0.049 A 
ATOM     43  N   UNL A   1      44.555  26.272  29.060  1.00  0.00    -0.248 NA
ATOM     44  C   UNL A   1      45.169  24.148  28.309  1.00  0.00     0.031 C 
ATOM     45  C   UNL A   1      40.322  25.422  27.891  1.00  0.00     0.029 A 
ATOM     46  N   UNL A   1      41.724  26.964  28.698  1.00  0.00    -0.354 N 
ATOM     47  C   UNL A   1      45.897  26.052  29.339  1.00  0.00     0.074 A 
ATOM     48  C   UNL A   1      46.201  24.699  28.929  1.00  0.00     0.031 C 
ATOM     49  C   UNL A   1      39.596  26.513  28.181  1.00  0.00     0.029 A 
ATOM     50  C   UNL A   1      40.478  27.541  28.726  1.00  0.00     0.049 A 
ATOM     51  H   UNL A   1      42.539  27.426  29.002  1.00  0.00     0.167 HD
ATOM     52  C   UNL A   1      46.804  26.910  29.863  1.00  0.00     0.037 A 
ATOM     53  C   UNL A   1      40.091  28.761  29.145  1.00  0.00     0.037 A 
ATOM     54  C   UNL A   1      46.511  28.271  30.219  1.00  0.00     0.049 A 
ATOM     55  C   UNL A   1      41.125  29.721  29.663  1.00  0.00     0.074 A 
ATOM     56  C   UNL A   1      47.378  29.253  30.662  1.00  0.00     0.029 A 
ATOM     57  N   UNL A   1      45.248  28.842  30.170  1.00  0.00    -0.354 N 
ATOM     58  N   UNL A   1      42.412  29.533  29.834  1.00  0.00    -0.248 NA
ATOM     59  C   UNL A   1      40.658  31.063  30.035  1.00  0.00     0.031 C 
ATOM     60  C   UNL A   1      46.634  30.412  30.913  1.00  0.00     0.029 A 
ATOM     61  C   UNL A   1      45.309  30.160  30.590  1.00  0.00     0.049 A 
ATOM     62  H   UNL A   1      44.429  28.379  29.878  1.00  0.00     0.167 HD
ATOM     63  C   UNL A   1      42.911  30.737  30.315  1.00  0.00     0.074 A 
ATOM     64  C   UNL A   1      41.791  31.652  30.393  1.00  0.00     0.031 C 
ATOM     65  C   UNL A   1      44.182  31.054  30.661  1.00  0.00     0.037 A 
BRANCH  52  66
ATOM     66  C   UNL A   1      48.197  26.391  30.070  1.00  0.00     0.057 A 
ATOM     67  C   UNL A   1      48.591  25.788  31.272  1.00  0.00     0.134 A 
ATOM     68  C   UNL A   1      49.157  26.499  29.057  1.00  0.00     0.134 A 
ATOM     69  F   UNL A   1      47.725  25.666  32.289  1.00  0.00    -0.206 F 
ATOM     70  C   UNL A   1      49.901  25.350  31.474  1.00  0.00     0.040 A 
ATOM     71  C   UNL A   1      50.462  26.037  29.236  1.00  0.00     0.040 A 
ATOM     72  F   UNL A   1      48.845  27.062  27.879  1.00  0.00    -0.206 F 
ATOM     73  C   UNL A   1      50.839  25.471  30.452  1.00  0.00     0.006 A 
ENDBRANCH  52  66
BRANCH  53  74
ATOM     74  C   UNL A   1      38.663  29.153  29.055  1.00  0.00     0.057 A 
ATOM     75  C   UNL A   1      38.106  29.581  27.846  1.00  0.00     0.134 A 
ATOM     76  C   UNL A   1      37.818  29.091  30.169  1.00  0.00     0.134 A 
ATOM     77  F   UNL A   1      38.871  29.676  26.747  1.00  0.00    -0.206 F 
ATOM     78  C   UNL A   1      36.763  29.948  27.747  1.00  0.00     0.040 A 
ATOM     79  C   UNL A   1      36.467  29.436  30.081  1.00  0.00     0.040 A 
ATOM     80  F   UNL A   1      38.288  28.678  31.355  1.00  0.00    -0.206 F 
ATOM     81  C   UNL A   1      35.938  29.870  28.866  1.00  0.00     0.006 A 
ENDBRANCH  53  74
BRANCH  65  82
ATOM     82  C   UNL A   1      44.434  32.454  31.137  1.00  0.00     0.057 A 
ATOM     83  C   UNL A   1      44.396  32.787  32.497  1.00  0.00     0.134 A 
ATOM     84  C   UNL A   1      44.763  33.468  30.229  1.00  0.00     0.134 A 
ATOM     85  F   UNL A   1      44.074  31.862  33.413  1.00  0.00    -0.206 F 
ATOM     86  C   UNL A   1      44.664  34.084  32.935  1.00  0.00     0.040 A 
ATOM     87  C   UNL A   1      45.055  34.763  30.658  1.00  0.00     0.040 A 
ATOM     88  F   UNL A   1      44.823  33.211  28.913  1.00  0.00    -0.206 F 
ATOM     89  C   UNL A   1      45.001  35.075  32.015  1.00  0.00     0.006 A 
ENDBRANCH  65  82
ENDBRANCH  39  40
ENDBRANCH  31  34
ENDBRANCH  29  30
ENDBRANCH  28  29
ENDBRANCH  27  28
ENDBRANCH   1  27
TORSDOF 16
ENDMDL
