MODEL 1
REMARK VINA RESULT:     -10.7      0.000      0.000
REMARK SMILES Cc1oc2c(c1C(=O)NCCCC(=O)NCCCCCCNC(=O)c1ccc(-c3c4nc(c(-c5c(F)cccc5F)c5ccc([nH]5)c(-c5c(F)cccc5F)c5nc(c(-c6c(F)cccc6F)c6ccc3[nH]6)C=C5)C=C4)cc1)CCCC2
REMARK SMILES IDX 17 1 16 2 15 3 13 4 14 5 12 7 11 8 10 9 9 10 7 11 8 12 6 14
REMARK SMILES IDX 1 15 2 16 3 17 4 18 5 19 82 20 79 21 81 22 80 23 18 24 19 25
REMARK SMILES IDX 20 26 21 27 22 28 23 29 24 31 25 32 26 33 78 34 27 35 77 36
REMARK SMILES IDX 28 37 29 38 30 39 71 40 31 41 76 42 70 43 72 44 32 45 75 46
REMARK SMILES IDX 69 47 68 48 33 50 59 51 42 52 58 53 43 54 46 55 57 56 73 57
REMARK SMILES IDX 44 58 45 59 56 61 74 62 47 63 34 64 35 65 40 66 36 67 37 68
REMARK SMILES IDX 39 69 41 70 38 71 60 72 61 73 66 74 62 75 63 76 65 77 67 78
REMARK SMILES IDX 64 79 48 80 49 81 54 82 50 83 51 84 53 85 55 86 52 87
REMARK H PARENT 15 6 9 13 22 30 72 49 46 60
REMARK Flexibility Score: inf
ROOT
ATOM      1  C   UNL A   1      39.079  21.350  26.082  1.00  0.00     0.021 C 
ENDROOT
BRANCH   1   2
ATOM      2  C   UNL A   1      38.067  22.491  25.989  1.00  0.00     0.116 C 
BRANCH   2   3
ATOM      3  N   UNL A   1      37.654  22.690  24.616  1.00  0.00    -0.356 N 
ATOM      4  C   UNL A   1      36.525  23.272  24.131  1.00  0.00     0.220 C 
ATOM      5  O   UNL A   1      36.301  23.206  22.921  1.00  0.00    -0.275 OA
ATOM      6  H   UNL A   1      38.281  22.355  23.935  1.00  0.00     0.163 HD
BRANCH   4   7
ATOM      7  C   UNL A   1      35.580  24.003  25.063  1.00  0.00     0.102 C 
BRANCH   7   8
ATOM      8  C   UNL A   1      34.441  24.737  24.362  1.00  0.00     0.031 C 
BRANCH   8   9
ATOM      9  C   UNL A   1      33.128  23.985  24.154  1.00  0.00     0.116 C 
BRANCH   9  10
ATOM     10  N   UNL A   1      32.275  23.855  25.306  1.00  0.00    -0.352 N 
ATOM     11  C   UNL A   1      31.312  24.692  25.817  1.00  0.00     0.255 C 
ATOM     12  O   UNL A   1      30.674  24.226  26.765  1.00  0.00    -0.269 OA
ATOM     13  H   UNL A   1      32.405  23.024  25.817  1.00  0.00     0.163 HD
BRANCH  11  14
ATOM     14  C   UNL A   1      31.065  26.066  25.356  1.00  0.00     0.084 A 
ATOM     15  C   UNL A   1      28.867  26.243  23.811  1.00  0.00     0.088 C 
ATOM     16  C   UNL A   1      30.097  26.648  24.526  1.00  0.00     0.114 A 
ATOM     17  O   UNL A   1      30.343  27.984  24.359  1.00  0.00    -0.465 OA
ATOM     18  C   UNL A   1      31.410  28.291  25.108  1.00  0.00     0.108 A 
ATOM     19  C   UNL A   1      31.874  27.191  25.782  1.00  0.00     0.007 A 
ATOM     20  C   UNL A   1      31.915  29.678  25.139  1.00  0.00     0.076 C 
ATOM     21  C   UNL A   1      33.048  27.294  26.704  1.00  0.00     0.040 C 
ATOM     22  C   UNL A   1      33.330  29.667  25.743  1.00  0.00     0.008 C 
ATOM     23  C   UNL A   1      33.407  28.773  26.998  1.00  0.00     0.005 C 
ENDBRANCH  11  14
ENDBRANCH   9  10
ENDBRANCH   8   9
ENDBRANCH   7   8
ENDBRANCH   4   7
ENDBRANCH   2   3
ENDBRANCH   1   2
BRANCH   1  24
ATOM     24  C   UNL A   1      40.438  21.779  26.640  1.00  0.00     0.002 C 
BRANCH  24  25
ATOM     25  C   UNL A   1      41.071  20.799  27.640  1.00  0.00     0.002 C 
BRANCH  25  26
ATOM     26  C   UNL A   1      42.195  19.910  27.088  1.00  0.00     0.021 C 
BRANCH  26  27
ATOM     27  C   UNL A   1      42.199  19.826  25.570  1.00  0.00     0.116 C 
BRANCH  27  28
ATOM     28  N   UNL A   1      43.553  19.910  25.027  1.00  0.00    -0.352 N 
ATOM     29  C   UNL A   1      44.364  21.014  24.889  1.00  0.00     0.251 C 
ATOM     30  H   UNL A   1      43.939  19.059  24.718  1.00  0.00     0.163 HD
ATOM     31  O   UNL A   1      45.319  20.999  24.127  1.00  0.00    -0.269 OA
BRANCH  29  32
ATOM     32  C   UNL A   1      44.068  22.218  25.683  1.00  0.00     0.039 A 
ATOM     33  C   UNL A   1      44.632  22.391  26.951  1.00  0.00     0.014 A 
ATOM     34  C   UNL A   1      43.203  23.169  25.149  1.00  0.00     0.014 A 
ATOM     35  C   UNL A   1      44.361  23.562  27.652  1.00  0.00     0.010 A 
ATOM     36  C   UNL A   1      43.049  24.379  25.773  1.00  0.00     0.010 A 
ATOM     37  C   UNL A   1      43.577  24.554  27.047  1.00  0.00    -0.014 A 
BRANCH  37  38
ATOM     38  C   UNL A   1      43.385  25.846  27.686  1.00  0.00     0.031 A 
ATOM     39  C   UNL A   1      44.376  26.881  27.286  1.00  0.00     0.074 A 
ATOM     40  C   UNL A   1      42.264  26.139  28.376  1.00  0.00     0.049 A 
ATOM     41  N   UNL A   1      45.232  27.480  28.045  1.00  0.00    -0.248 NA
ATOM     42  C   UNL A   1      44.534  27.190  25.854  1.00  0.00     0.031 C 
ATOM     43  C   UNL A   1      41.069  25.308  28.570  1.00  0.00     0.029 A 
ATOM     44  N   UNL A   1      41.898  27.316  28.949  1.00  0.00    -0.354 N 
ATOM     45  C   UNL A   1      45.904  28.388  27.230  1.00  0.00     0.074 A 
ATOM     46  C   UNL A   1      45.564  28.040  25.876  1.00  0.00     0.031 C 
ATOM     47  C   UNL A   1      40.042  26.084  28.975  1.00  0.00     0.029 A 
ATOM     48  C   UNL A   1      40.538  27.425  29.220  1.00  0.00     0.049 A 
ATOM     49  H   UNL A   1      42.542  28.033  29.153  1.00  0.00     0.167 HD
ATOM     50  C   UNL A   1      46.500  29.494  27.755  1.00  0.00     0.037 A 
ATOM     51  C   UNL A   1      39.880  28.564  29.556  1.00  0.00     0.037 A 
ATOM     52  C   UNL A   1      46.639  29.376  29.185  1.00  0.00     0.049 A 
ATOM     53  C   UNL A   1      40.902  29.534  30.035  1.00  0.00     0.074 A 
ATOM     54  C   UNL A   1      47.264  28.470  30.020  1.00  0.00     0.029 A 
ATOM     55  N   UNL A   1      45.737  30.051  29.976  1.00  0.00    -0.354 N 
ATOM     56  N   UNL A   1      41.573  29.384  31.145  1.00  0.00    -0.248 NA
ATOM     57  C   UNL A   1      41.531  30.391  29.038  1.00  0.00     0.031 C 
ATOM     58  C   UNL A   1      46.355  28.288  31.104  1.00  0.00     0.029 A 
ATOM     59  C   UNL A   1      45.284  29.161  30.915  1.00  0.00     0.049 A 
ATOM     60  H   UNL A   1      45.469  30.994  29.884  1.00  0.00     0.167 HD
ATOM     61  C   UNL A   1      42.874  29.742  30.821  1.00  0.00     0.074 A 
ATOM     62  C   UNL A   1      42.773  30.422  29.530  1.00  0.00     0.031 C 
ATOM     63  C   UNL A   1      43.947  29.190  31.463  1.00  0.00     0.037 A 
BRANCH  50  64
ATOM     64  C   UNL A   1      46.622  30.824  27.053  1.00  0.00     0.057 A 
ATOM     65  C   UNL A   1      47.869  31.478  27.042  1.00  0.00     0.134 A 
ATOM     66  C   UNL A   1      45.528  31.616  26.655  1.00  0.00     0.134 A 
ATOM     67  F   UNL A   1      48.989  30.835  27.408  1.00  0.00    -0.206 F 
ATOM     68  C   UNL A   1      48.002  32.838  26.740  1.00  0.00     0.040 A 
ATOM     69  C   UNL A   1      45.658  32.962  26.301  1.00  0.00     0.040 A 
ATOM     70  F   UNL A   1      44.266  31.172  26.686  1.00  0.00    -0.206 F 
ATOM     71  C   UNL A   1      46.891  33.588  26.376  1.00  0.00     0.006 A 
ENDBRANCH  50  64
BRANCH  51  72
ATOM     72  C   UNL A   1      38.497  28.963  29.196  1.00  0.00     0.057 A 
ATOM     73  C   UNL A   1      37.497  29.083  30.173  1.00  0.00     0.134 A 
ATOM     74  C   UNL A   1      38.179  29.487  27.930  1.00  0.00     0.134 A 
ATOM     75  F   UNL A   1      37.715  28.654  31.425  1.00  0.00    -0.206 F 
ATOM     76  C   UNL A   1      36.266  29.702  29.912  1.00  0.00     0.040 A 
ATOM     77  C   UNL A   1      36.952  30.101  27.654  1.00  0.00     0.040 A 
ATOM     78  F   UNL A   1      39.078  29.499  26.935  1.00  0.00    -0.206 F 
ATOM     79  C   UNL A   1      35.995  30.223  28.652  1.00  0.00     0.006 A 
ENDBRANCH  51  72
BRANCH  63  80
ATOM     80  C   UNL A   1      43.708  28.346  32.686  1.00  0.00     0.057 A 
ATOM     81  C   UNL A   1      43.631  26.945  32.680  1.00  0.00     0.134 A 
ATOM     82  C   UNL A   1      43.750  28.965  33.942  1.00  0.00     0.134 A 
ATOM     83  F   UNL A   1      43.692  26.249  31.539  1.00  0.00    -0.206 F 
ATOM     84  C   UNL A   1      43.560  26.201  33.864  1.00  0.00     0.040 A 
ATOM     85  C   UNL A   1      43.717  28.233  35.130  1.00  0.00     0.040 A 
ATOM     86  F   UNL A   1      43.883  30.298  34.033  1.00  0.00    -0.206 F 
ATOM     87  C   UNL A   1      43.612  26.846  35.094  1.00  0.00     0.006 A 
ENDBRANCH  63  80
ENDBRANCH  37  38
ENDBRANCH  29  32
ENDBRANCH  27  28
ENDBRANCH  26  27
ENDBRANCH  25  26
ENDBRANCH  24  25
ENDBRANCH   1  24
TORSDOF 17
ENDMDL
MODEL 2
REMARK VINA RESULT:     -10.7      2.624      8.291
REMARK SMILES Cc1oc2c(c1C(=O)NCCCC(=O)NCCCCCCNC(=O)c1ccc(-c3c4nc(c(-c5c(F)cccc5F)c5ccc([nH]5)c(-c5c(F)cccc5F)c5nc(c(-c6c(F)cccc6F)c6ccc3[nH]6)C=C5)C=C4)cc1)CCCC2
REMARK SMILES IDX 17 1 16 2 15 3 13 4 14 5 12 7 11 8 10 9 9 10 7 11 8 12 6 14
REMARK SMILES IDX 1 15 2 16 3 17 4 18 5 19 82 20 79 21 81 22 80 23 18 24 19 25
REMARK SMILES IDX 20 26 21 27 22 28 23 29 24 31 25 32 26 33 78 34 27 35 77 36
REMARK SMILES IDX 28 37 29 38 30 39 71 40 31 41 76 42 70 43 72 44 32 45 75 46
REMARK SMILES IDX 69 47 68 48 33 50 59 51 42 52 58 53 43 54 46 55 57 56 73 57
REMARK SMILES IDX 44 58 45 59 56 61 74 62 47 63 34 64 35 65 40 66 36 67 37 68
REMARK SMILES IDX 39 69 41 70 38 71 60 72 61 73 66 74 62 75 63 76 65 77 67 78
REMARK SMILES IDX 64 79 48 80 49 81 54 82 50 83 51 84 53 85 55 86 52 87
REMARK H PARENT 15 6 9 13 22 30 72 49 46 60
REMARK Flexibility Score: inf
ROOT
ATOM      1  C   UNL A   1      31.878  28.608  23.887  1.00  0.00     0.021 C 
ENDROOT
BRANCH   1   2
ATOM      2  C   UNL A   1      31.065  27.580  23.102  1.00  0.00     0.116 C 
BRANCH   2   3
ATOM      3  N   UNL A   1      31.800  27.137  21.937  1.00  0.00    -0.356 N 
ATOM      4  C   UNL A   1      32.597  26.045  21.783  1.00  0.00     0.220 C 
ATOM      5  O   UNL A   1      33.250  25.933  20.745  1.00  0.00    -0.275 OA
ATOM      6  H   UNL A   1      31.712  27.709  21.141  1.00  0.00     0.163 HD
BRANCH   4   7
ATOM      7  C   UNL A   1      32.654  24.984  22.863  1.00  0.00     0.102 C 
BRANCH   7   8
ATOM      8  C   UNL A   1      33.209  23.639  22.399  1.00  0.00     0.031 C 
BRANCH   8   9
ATOM      9  C   UNL A   1      32.499  22.373  22.872  1.00  0.00     0.116 C 
BRANCH   9  10
ATOM     10  N   UNL A   1      32.220  22.283  24.281  1.00  0.00    -0.352 N 
ATOM     11  C   UNL A   1      33.016  21.910  25.338  1.00  0.00     0.255 C 
ATOM     12  O   UNL A   1      32.497  22.053  26.449  1.00  0.00    -0.269 OA
ATOM     13  H   UNL A   1      31.300  22.529  24.531  1.00  0.00     0.163 HD
BRANCH  11  14
ATOM     14  C   UNL A   1      34.356  21.319  25.212  1.00  0.00     0.084 A 
ATOM     15  C   UNL A   1      34.262  18.722  24.508  1.00  0.00     0.088 C 
ATOM     16  C   UNL A   1      34.820  20.031  24.911  1.00  0.00     0.114 A 
ATOM     17  O   UNL A   1      36.186  19.983  24.976  1.00  0.00    -0.465 OA
ATOM     18  C   UNL A   1      36.618  21.219  25.252  1.00  0.00     0.108 A 
ATOM     19  C   UNL A   1      35.571  22.097  25.359  1.00  0.00     0.007 A 
ATOM     20  C   UNL A   1      38.066  21.485  25.377  1.00  0.00     0.076 C 
ATOM     21  C   UNL A   1      35.809  23.547  25.640  1.00  0.00     0.040 C 
ATOM     22  C   UNL A   1      38.252  22.851  26.061  1.00  0.00     0.008 C 
ATOM     23  C   UNL A   1      37.304  23.916  25.474  1.00  0.00     0.005 C 
ENDBRANCH  11  14
ENDBRANCH   9  10
ENDBRANCH   8   9
ENDBRANCH   7   8
ENDBRANCH   4   7
ENDBRANCH   2   3
ENDBRANCH   1   2
BRANCH   1  24
ATOM     24  C   UNL A   1      31.021  29.669  24.581  1.00  0.00     0.002 C 
BRANCH  24  25
ATOM     25  C   UNL A   1      31.667  30.331  25.807  1.00  0.00     0.002 C 
BRANCH  25  26
ATOM     26  C   UNL A   1      32.254  29.373  26.854  1.00  0.00     0.021 C 
BRANCH  26  27
ATOM     27  C   UNL A   1      33.698  29.687  27.209  1.00  0.00     0.116 C 
BRANCH  27  28
ATOM     28  N   UNL A   1      33.954  31.126  27.216  1.00  0.00    -0.352 N 
ATOM     29  C   UNL A   1      34.974  31.822  27.826  1.00  0.00     0.251 C 
ATOM     30  H   UNL A   1      33.307  31.673  26.714  1.00  0.00     0.163 HD
ATOM     31  O   UNL A   1      34.880  33.022  28.028  1.00  0.00    -0.269 OA
BRANCH  29  32
ATOM     32  C   UNL A   1      36.191  31.096  28.226  1.00  0.00     0.039 A 
ATOM     33  C   UNL A   1      36.327  29.731  27.954  1.00  0.00     0.014 A 
ATOM     34  C   UNL A   1      37.191  31.795  28.895  1.00  0.00     0.014 A 
ATOM     35  C   UNL A   1      37.509  29.090  28.309  1.00  0.00     0.010 A 
ATOM     36  C   UNL A   1      38.406  31.203  29.117  1.00  0.00     0.010 A 
ATOM     37  C   UNL A   1      38.547  29.840  28.881  1.00  0.00    -0.014 A 
BRANCH  37  38
ATOM     38  C   UNL A   1      39.846  29.240  29.140  1.00  0.00     0.031 A 
ATOM     39  C   UNL A   1      40.101  28.923  30.571  1.00  0.00     0.074 A 
ATOM     40  C   UNL A   1      40.631  28.785  28.141  1.00  0.00     0.049 A 
ATOM     41  N   UNL A   1      41.021  29.418  31.330  1.00  0.00    -0.248 NA
ATOM     42  C   UNL A   1      39.141  28.064  31.285  1.00  0.00     0.031 C 
ATOM     43  C   UNL A   1      40.346  28.747  26.702  1.00  0.00     0.029 A 
ATOM     44  N   UNL A   1      41.817  28.126  28.223  1.00  0.00    -0.354 N 
ATOM     45  C   UNL A   1      40.886  28.787  32.564  1.00  0.00     0.074 A 
ATOM     46  C   UNL A   1      39.618  28.109  32.532  1.00  0.00     0.031 C 
ATOM     47  C   UNL A   1      41.192  27.886  26.098  1.00  0.00     0.029 A 
ATOM     48  C   UNL A   1      42.170  27.435  27.069  1.00  0.00     0.049 A 
ATOM     49  H   UNL A   1      42.378  28.136  29.032  1.00  0.00     0.167 HD
ATOM     50  C   UNL A   1      41.941  28.688  33.420  1.00  0.00     0.037 A 
ATOM     51  C   UNL A   1      43.160  26.512  26.962  1.00  0.00     0.037 A 
ATOM     52  C   UNL A   1      42.999  29.592  33.042  1.00  0.00     0.049 A 
ATOM     53  C   UNL A   1      44.074  26.716  28.120  1.00  0.00     0.074 A 
ATOM     54  C   UNL A   1      43.082  30.961  32.874  1.00  0.00     0.029 A 
ATOM     55  N   UNL A   1      44.083  29.068  32.376  1.00  0.00    -0.354 N 
ATOM     56  N   UNL A   1      44.829  27.771  28.264  1.00  0.00    -0.248 NA
ATOM     57  C   UNL A   1      43.767  25.997  29.350  1.00  0.00     0.031 C 
ATOM     58  C   UNL A   1      43.882  31.135  31.707  1.00  0.00     0.029 A 
ATOM     59  C   UNL A   1      44.316  29.876  31.293  1.00  0.00     0.049 A 
ATOM     60  H   UNL A   1      44.594  28.266  32.630  1.00  0.00     0.167 HD
ATOM     61  C   UNL A   1      44.720  28.102  29.607  1.00  0.00     0.074 A 
ATOM     62  C   UNL A   1      44.110  26.933  30.240  1.00  0.00     0.031 C 
ATOM     63  C   UNL A   1      44.840  29.394  30.036  1.00  0.00     0.037 A 
BRANCH  50  64
ATOM     64  C   UNL A   1      42.180  27.538  34.366  1.00  0.00     0.057 A 
ATOM     65  C   UNL A   1      41.843  27.689  35.725  1.00  0.00     0.134 A 
ATOM     66  C   UNL A   1      42.985  26.421  34.071  1.00  0.00     0.134 A 
ATOM     67  F   UNL A   1      41.087  28.719  36.137  1.00  0.00    -0.206 F 
ATOM     68  C   UNL A   1      42.340  26.842  36.721  1.00  0.00     0.040 A 
ATOM     69  C   UNL A   1      43.443  25.538  35.053  1.00  0.00     0.040 A 
ATOM     70  F   UNL A   1      43.459  26.177  32.844  1.00  0.00    -0.206 F 
ATOM     71  C   UNL A   1      43.152  25.766  36.387  1.00  0.00     0.006 A 
ENDBRANCH  50  64
BRANCH  51  72
ATOM     72  C   UNL A   1      43.189  25.292  26.119  1.00  0.00     0.057 A 
ATOM     73  C   UNL A   1      44.237  25.056  25.216  1.00  0.00     0.134 A 
ATOM     74  C   UNL A   1      42.332  24.202  26.357  1.00  0.00     0.134 A 
ATOM     75  F   UNL A   1      45.135  26.015  24.952  1.00  0.00    -0.206 F 
ATOM     76  C   UNL A   1      44.431  23.809  24.604  1.00  0.00     0.040 A 
ATOM     77  C   UNL A   1      42.509  22.955  25.748  1.00  0.00     0.040 A 
ATOM     78  F   UNL A   1      41.338  24.280  27.255  1.00  0.00    -0.206 F 
ATOM     79  C   UNL A   1      43.571  22.750  24.878  1.00  0.00     0.006 A 
ENDBRANCH  51  72
BRANCH  63  80
ATOM     80  C   UNL A   1      45.314  30.442  29.065  1.00  0.00     0.057 A 
ATOM     81  C   UNL A   1      44.479  31.137  28.177  1.00  0.00     0.134 A 
ATOM     82  C   UNL A   1      46.635  30.898  29.169  1.00  0.00     0.134 A 
ATOM     83  F   UNL A   1      43.176  30.853  28.080  1.00  0.00    -0.206 F 
ATOM     84  C   UNL A   1      44.945  32.207  27.404  1.00  0.00     0.040 A 
ATOM     85  C   UNL A   1      47.103  31.987  28.431  1.00  0.00     0.040 A 
ATOM     86  F   UNL A   1      47.480  30.323  30.039  1.00  0.00    -0.206 F 
ATOM     87  C   UNL A   1      46.260  32.640  27.537  1.00  0.00     0.006 A 
ENDBRANCH  63  80
ENDBRANCH  37  38
ENDBRANCH  29  32
ENDBRANCH  27  28
ENDBRANCH  26  27
ENDBRANCH  25  26
ENDBRANCH  24  25
ENDBRANCH   1  24
TORSDOF 17
ENDMDL
MODEL 3
REMARK VINA RESULT:     -10.7      2.622      8.047
REMARK SMILES Cc1oc2c(c1C(=O)NCCCC(=O)NCCCCCCNC(=O)c1ccc(-c3c4nc(c(-c5c(F)cccc5F)c5ccc([nH]5)c(-c5c(F)cccc5F)c5nc(c(-c6c(F)cccc6F)c6ccc3[nH]6)C=C5)C=C4)cc1)CCCC2
REMARK SMILES IDX 17 1 16 2 15 3 13 4 14 5 12 7 11 8 10 9 9 10 7 11 8 12 6 14
REMARK SMILES IDX 1 15 2 16 3 17 4 18 5 19 82 20 79 21 81 22 80 23 18 24 19 25
REMARK SMILES IDX 20 26 21 27 22 28 23 29 24 31 25 32 26 33 78 34 27 35 77 36
REMARK SMILES IDX 28 37 29 38 30 39 71 40 31 41 76 42 70 43 72 44 32 45 75 46
REMARK SMILES IDX 69 47 68 48 33 50 59 51 42 52 58 53 43 54 46 55 57 56 73 57
REMARK SMILES IDX 44 58 45 59 56 61 74 62 47 63 34 64 35 65 40 66 36 67 37 68
REMARK SMILES IDX 39 69 41 70 38 71 60 72 61 73 66 74 62 75 63 76 65 77 67 78
REMARK SMILES IDX 64 79 48 80 49 81 54 82 50 83 51 84 53 85 55 86 52 87
REMARK H PARENT 15 6 9 13 22 30 72 49 46 60
REMARK Flexibility Score: inf
ROOT
ATOM      1  C   UNL A   1      32.800  27.064  26.364  1.00  0.00     0.021 C 
ENDROOT
BRANCH   1   2
ATOM      2  C   UNL A   1      31.378  27.443  25.951  1.00  0.00     0.116 C 
BRANCH   2   3
ATOM      3  N   UNL A   1      30.729  26.329  25.294  1.00  0.00    -0.356 N 
ATOM      4  C   UNL A   1      30.632  26.047  23.967  1.00  0.00     0.220 C 
ATOM      5  O   UNL A   1      29.904  25.119  23.613  1.00  0.00    -0.275 OA
ATOM      6  H   UNL A   1      30.293  25.682  25.895  1.00  0.00     0.163 HD
BRANCH   4   7
ATOM      7  C   UNL A   1      31.425  26.849  22.956  1.00  0.00     0.102 C 
BRANCH   7   8
ATOM      8  C   UNL A   1      31.781  26.087  21.683  1.00  0.00     0.031 C 
BRANCH   8   9
ATOM      9  C   UNL A   1      32.923  25.075  21.751  1.00  0.00     0.116 C 
BRANCH   9  10
ATOM     10  N   UNL A   1      32.554  23.686  21.679  1.00  0.00    -0.352 N 
ATOM     11  C   UNL A   1      32.534  22.705  22.641  1.00  0.00     0.255 C 
ATOM     12  O   UNL A   1      32.050  21.631  22.272  1.00  0.00    -0.269 OA
ATOM     13  H   UNL A   1      32.268  23.386  20.785  1.00  0.00     0.163 HD
BRANCH  11  14
ATOM     14  C   UNL A   1      33.091  22.846  23.994  1.00  0.00     0.084 A 
ATOM     15  C   UNL A   1      31.189  22.745  25.896  1.00  0.00     0.088 C 
ATOM     16  C   UNL A   1      32.523  22.892  25.274  1.00  0.00     0.114 A 
ATOM     17  O   UNL A   1      33.486  23.097  26.224  1.00  0.00    -0.465 OA
ATOM     18  C   UNL A   1      34.668  23.125  25.596  1.00  0.00     0.108 A 
ATOM     19  C   UNL A   1      34.516  22.928  24.248  1.00  0.00     0.007 A 
ATOM     20  C   UNL A   1      35.911  23.325  26.369  1.00  0.00     0.076 C 
ATOM     21  C   UNL A   1      35.704  22.894  23.338  1.00  0.00     0.040 C 
ATOM     22  C   UNL A   1      37.038  23.695  25.390  1.00  0.00     0.008 C 
ATOM     23  C   UNL A   1      37.026  22.793  24.139  1.00  0.00     0.005 C 
ENDBRANCH  11  14
ENDBRANCH   9  10
ENDBRANCH   8   9
ENDBRANCH   7   8
ENDBRANCH   4   7
ENDBRANCH   2   3
ENDBRANCH   1   2
BRANCH   1  24
ATOM     24  C   UNL A   1      33.838  28.143  26.050  1.00  0.00     0.002 C 
BRANCH  24  25
ATOM     25  C   UNL A   1      34.266  29.005  27.247  1.00  0.00     0.002 C 
BRANCH  25  26
ATOM     26  C   UNL A   1      33.467  30.299  27.462  1.00  0.00     0.021 C 
BRANCH  26  27
ATOM     27  C   UNL A   1      34.347  31.533  27.581  1.00  0.00     0.116 C 
BRANCH  27  28
ATOM     28  N   UNL A   1      34.241  32.148  28.902  1.00  0.00    -0.352 N 
ATOM     29  C   UNL A   1      35.003  31.921  30.027  1.00  0.00     0.251 C 
ATOM     30  H   UNL A   1      33.526  32.818  29.002  1.00  0.00     0.163 HD
ATOM     31  O   UNL A   1      34.601  32.248  31.133  1.00  0.00    -0.269 OA
BRANCH  29  32
ATOM     32  C   UNL A   1      36.321  31.282  29.877  1.00  0.00     0.039 A 
ATOM     33  C   UNL A   1      37.458  32.051  29.605  1.00  0.00     0.014 A 
ATOM     34  C   UNL A   1      36.405  29.898  29.994  1.00  0.00     0.014 A 
ATOM     35  C   UNL A   1      38.691  31.415  29.512  1.00  0.00     0.010 A 
ATOM     36  C   UNL A   1      37.631  29.290  30.043  1.00  0.00     0.010 A 
ATOM     37  C   UNL A   1      38.767  30.034  29.744  1.00  0.00    -0.014 A 
BRANCH  37  38
ATOM     38  C   UNL A   1      40.052  29.356  29.793  1.00  0.00     0.031 A 
ATOM     39  C   UNL A   1      40.582  29.145  31.167  1.00  0.00     0.074 A 
ATOM     40  C   UNL A   1      40.580  28.753  28.708  1.00  0.00     0.049 A 
ATOM     41  N   UNL A   1      41.669  29.627  31.669  1.00  0.00    -0.248 NA
ATOM     42  C   UNL A   1      39.743  28.432  32.146  1.00  0.00     0.031 C 
ATOM     43  C   UNL A   1      39.998  28.614  27.368  1.00  0.00     0.029 A 
ATOM     44  N   UNL A   1      41.714  28.009  28.613  1.00  0.00    -0.354 N 
ATOM     45  C   UNL A   1      41.758  29.119  32.963  1.00  0.00     0.074 A 
ATOM     46  C   UNL A   1      40.472  28.546  33.259  1.00  0.00     0.031 C 
ATOM     47  C   UNL A   1      40.643  27.638  26.695  1.00  0.00     0.029 A 
ATOM     48  C   UNL A   1      41.774  27.194  27.488  1.00  0.00     0.049 A 
ATOM     49  H   UNL A   1      42.433  28.044  29.287  1.00  0.00     0.167 HD
ATOM     50  C   UNL A   1      42.961  29.010  33.592  1.00  0.00     0.037 A 
ATOM     51  C   UNL A   1      42.661  26.188  27.277  1.00  0.00     0.037 A 
ATOM     52  C   UNL A   1      43.970  29.788  32.917  1.00  0.00     0.049 A 
ATOM     53  C   UNL A   1      43.808  26.417  28.198  1.00  0.00     0.074 A 
ATOM     54  C   UNL A   1      44.099  31.126  32.597  1.00  0.00     0.029 A 
ATOM     55  N   UNL A   1      44.855  29.122  32.102  1.00  0.00    -0.354 N 
ATOM     56  N   UNL A   1      44.640  27.415  28.078  1.00  0.00    -0.248 NA
ATOM     57  C   UNL A   1      43.722  25.835  29.532  1.00  0.00     0.031 C 
ATOM     58  C   UNL A   1      44.646  31.132  31.280  1.00  0.00     0.029 A 
ATOM     59  C   UNL A   1      44.905  29.811  30.917  1.00  0.00     0.049 A 
ATOM     60  H   UNL A   1      45.358  28.306  32.327  1.00  0.00     0.167 HD
ATOM     61  C   UNL A   1      44.836  27.870  29.374  1.00  0.00     0.074 A 
ATOM     62  C   UNL A   1      44.302  26.814  30.234  1.00  0.00     0.031 C 
ATOM     63  C   UNL A   1      45.122  29.180  29.636  1.00  0.00     0.037 A 
BRANCH  50  64
ATOM     64  C   UNL A   1      43.322  27.930  34.582  1.00  0.00     0.057 A 
ATOM     65  C   UNL A   1      43.419  26.598  34.134  1.00  0.00     0.134 A 
ATOM     66  C   UNL A   1      43.285  28.089  35.981  1.00  0.00     0.134 A 
ATOM     67  F   UNL A   1      43.454  26.312  32.824  1.00  0.00    -0.206 F 
ATOM     68  C   UNL A   1      43.395  25.507  35.011  1.00  0.00     0.040 A 
ATOM     69  C   UNL A   1      43.314  27.008  36.866  1.00  0.00     0.040 A 
ATOM     70  F   UNL A   1      43.115  29.279  36.567  1.00  0.00    -0.206 F 
ATOM     71  C   UNL A   1      43.333  25.710  36.383  1.00  0.00     0.006 A 
ENDBRANCH  50  64
BRANCH  51  72
ATOM     72  C   UNL A   1      42.437  24.901  26.575  1.00  0.00     0.057 A 
ATOM     73  C   UNL A   1      43.217  24.530  25.469  1.00  0.00     0.134 A 
ATOM     74  C   UNL A   1      41.630  23.886  27.121  1.00  0.00     0.134 A 
ATOM     75  F   UNL A   1      44.053  25.411  24.901  1.00  0.00    -0.206 F 
ATOM     76  C   UNL A   1      43.209  23.227  24.951  1.00  0.00     0.040 A 
ATOM     77  C   UNL A   1      41.608  22.583  26.610  1.00  0.00     0.040 A 
ATOM     78  F   UNL A   1      40.896  24.096  28.223  1.00  0.00    -0.206 F 
ATOM     79  C   UNL A   1      42.411  22.245  25.529  1.00  0.00     0.006 A 
ENDBRANCH  51  72
BRANCH  63  80
ATOM     80  C   UNL A   1      45.446  30.098  28.487  1.00  0.00     0.057 A 
ATOM     81  C   UNL A   1      44.495  30.847  27.777  1.00  0.00     0.134 A 
ATOM     82  C   UNL A   1      46.792  30.378  28.216  1.00  0.00     0.134 A 
ATOM     83  F   UNL A   1      43.187  30.734  28.035  1.00  0.00    -0.206 F 
ATOM     84  C   UNL A   1      44.864  31.798  26.820  1.00  0.00     0.040 A 
ATOM     85  C   UNL A   1      47.174  31.350  27.291  1.00  0.00     0.040 A 
ATOM     86  F   UNL A   1      47.762  29.746  28.896  1.00  0.00    -0.206 F 
ATOM     87  C   UNL A   1      46.209  32.058  26.581  1.00  0.00     0.006 A 
ENDBRANCH  63  80
ENDBRANCH  37  38
ENDBRANCH  29  32
ENDBRANCH  27  28
ENDBRANCH  26  27
ENDBRANCH  25  26
ENDBRANCH  24  25
ENDBRANCH   1  24
TORSDOF 17
ENDMDL
