MODEL 1
REMARK VINA RESULT:     -10.6      0.000      0.000
REMARK SMILES CC(C)CN(CC(N)=O)C(=O)N1CC[C@H](C(=O)NCCCCCCNC(=O)c2ccc(-c3c4nc(c(-c5c(F)cccc5F)c5ccc([nH]5)c(-c5c(F)cccc5F)c5nc(c(-c6c(F)cccc6F)c6ccc3[nH]6)C=C5)C=C4)cc2)[C@@H]1C
REMARK SMILES IDX 20 1 19 2 18 3 16 4 17 5 15 7 12 8 13 9 82 10 14 11 83 12
REMARK SMILES IDX 10 13 11 14 5 15 4 16 2 17 1 18 3 19 6 20 7 21 8 22 9 23
REMARK SMILES IDX 21 26 22 27 23 28 24 29 25 30 26 31 27 33 28 34 29 35 81 36
REMARK SMILES IDX 30 37 80 38 31 39 32 40 33 41 74 42 34 43 79 44 73 45 75 46
REMARK SMILES IDX 35 47 78 48 72 49 71 50 36 52 62 53 45 54 61 55 46 56 49 57
REMARK SMILES IDX 60 58 76 59 47 60 48 61 59 63 77 64 50 65 37 66 38 67 43 68
REMARK SMILES IDX 39 69 40 70 42 71 44 72 41 73 63 74 64 75 69 76 65 77 66 78
REMARK SMILES IDX 68 79 70 80 67 81 51 82 52 83 57 84 53 85 54 86 56 87 58 88
REMARK SMILES IDX 55 89
REMARK H PARENT 18 6 8 24 8 25 25 32 75 51 49 62
REMARK Flexibility Score: inf
ROOT
ATOM      1  C   UNL A   1      35.569  22.771  26.125  1.00  0.00     0.021 C 
ENDROOT
BRANCH   1   2
ATOM      2  C   UNL A   1      34.138  22.338  25.813  1.00  0.00     0.116 C 
BRANCH   2   3
ATOM      3  N   UNL A   1      33.175  22.925  26.725  1.00  0.00    -0.356 N 
ATOM      4  C   UNL A   1      32.119  23.747  26.468  1.00  0.00     0.225 C 
ATOM      5  O   UNL A   1      31.383  24.069  27.399  1.00  0.00    -0.275 OA
ATOM      6  H   UNL A   1      33.304  22.696  27.674  1.00  0.00     0.163 HD
BRANCH   4   7
ATOM      7  C   UNL A   1      31.916  24.251  25.057  1.00  0.00     0.102 C 
ATOM      8  N   UNL A   1      31.992  26.349  23.977  1.00  0.00    -0.321 N 
ATOM      9  C   UNL A   1      30.677  26.269  24.572  1.00  0.00     0.122 C 
ATOM     10  C   UNL A   1      32.868  25.401  24.659  1.00  0.00     0.096 C 
ATOM     11  C   UNL A   1      30.494  24.787  24.810  1.00  0.00     0.037 C 
ATOM     12  C   UNL A   1      33.649  26.067  25.797  1.00  0.00     0.032 C 
BRANCH   8  13
ATOM     13  C   UNL A   1      32.417  27.566  23.500  1.00  0.00     0.320 C 
ATOM     14  O   UNL A   1      33.275  27.623  22.620  1.00  0.00    -0.248 OA
BRANCH  13  15
ATOM     15  N   UNL A   1      31.944  28.686  24.163  1.00  0.00    -0.315 N 
BRANCH  15  16
ATOM     16  C   UNL A   1      32.785  29.270  25.211  1.00  0.00     0.125 C 
BRANCH  16  17
ATOM     17  C   UNL A   1      31.971  29.756  26.438  1.00  0.00     0.002 C 
ATOM     18  C   UNL A   1      31.714  28.651  27.468  1.00  0.00     0.009 C 
ATOM     19  C   UNL A   1      32.699  30.910  27.130  1.00  0.00     0.009 C 
ENDBRANCH  16  17
ENDBRANCH  15  16
BRANCH  15  20
ATOM     20  C   UNL A   1      30.630  29.292  23.943  1.00  0.00     0.221 C 
BRANCH  20  21
ATOM     21  C   UNL A   1      30.270  29.362  22.450  1.00  0.00     0.237 C 
ATOM     22  N   UNL A   1      31.217  29.938  21.643  1.00  0.00    -0.368 N 
ATOM     23  O   UNL A   1      29.234  28.929  21.956  1.00  0.00    -0.273 OA
ATOM     24  H   UNL A   1      32.051  30.287  22.034  1.00  0.00     0.159 HD
ATOM     25  H   UNL A   1      31.064  30.002  20.673  1.00  0.00     0.159 HD
ENDBRANCH  20  21
ENDBRANCH  15  20
ENDBRANCH  13  15
ENDBRANCH   8  13
ENDBRANCH   4   7
ENDBRANCH   2   3
ENDBRANCH   1   2
BRANCH   1  26
ATOM     26  C   UNL A   1      36.556  22.619  24.964  1.00  0.00     0.002 C 
BRANCH  26  27
ATOM     27  C   UNL A   1      36.533  21.260  24.259  1.00  0.00     0.002 C 
BRANCH  27  28
ATOM     28  C   UNL A   1      37.372  20.167  24.924  1.00  0.00     0.021 C 
BRANCH  28  29
ATOM     29  C   UNL A   1      38.670  20.654  25.562  1.00  0.00     0.116 C 
BRANCH  29  30
ATOM     30  N   UNL A   1      39.682  19.612  25.624  1.00  0.00    -0.352 N 
ATOM     31  C   UNL A   1      41.002  19.694  25.996  1.00  0.00     0.251 C 
ATOM     32  H   UNL A   1      39.377  18.715  25.358  1.00  0.00     0.163 HD
ATOM     33  O   UNL A   1      41.753  18.743  25.813  1.00  0.00    -0.269 OA
BRANCH  31  34
ATOM     34  C   UNL A   1      41.525  20.942  26.596  1.00  0.00     0.039 A 
ATOM     35  C   UNL A   1      42.094  21.902  25.757  1.00  0.00     0.014 A 
ATOM     36  C   UNL A   1      41.459  21.164  27.974  1.00  0.00     0.014 A 
ATOM     37  C   UNL A   1      42.531  23.117  26.291  1.00  0.00     0.010 A 
ATOM     38  C   UNL A   1      41.827  22.403  28.494  1.00  0.00     0.010 A 
ATOM     39  C   UNL A   1      42.362  23.395  27.657  1.00  0.00    -0.014 A 
BRANCH  39  40
ATOM     40  C   UNL A   1      42.713  24.726  28.219  1.00  0.00     0.031 A 
ATOM     41  C   UNL A   1      41.653  25.775  28.414  1.00  0.00     0.074 A 
ATOM     42  C   UNL A   1      44.002  25.009  28.494  1.00  0.00     0.049 A 
ATOM     43  N   UNL A   1      41.783  27.010  28.829  1.00  0.00    -0.248 NA
ATOM     44  C   UNL A   1      40.272  25.399  28.076  1.00  0.00     0.031 C 
ATOM     45  C   UNL A   1      45.129  24.094  28.301  1.00  0.00     0.029 A 
ATOM     46  N   UNL A   1      44.585  26.153  28.980  1.00  0.00    -0.354 N 
ATOM     47  C   UNL A   1      40.507  27.559  28.791  1.00  0.00     0.074 A 
ATOM     48  C   UNL A   1      39.624  26.540  28.268  1.00  0.00     0.031 C 
ATOM     49  C   UNL A   1      46.263  24.705  28.682  1.00  0.00     0.029 A 
ATOM     50  C   UNL A   1      45.952  26.066  29.102  1.00  0.00     0.049 A 
ATOM     51  H   UNL A   1      44.073  26.958  29.219  1.00  0.00     0.167 HD
ATOM     52  C   UNL A   1      40.107  28.794  29.175  1.00  0.00     0.037 A 
ATOM     53  C   UNL A   1      46.856  26.985  29.494  1.00  0.00     0.037 A 
ATOM     54  C   UNL A   1      40.984  29.798  29.720  1.00  0.00     0.049 A 
ATOM     55  C   UNL A   1      46.381  28.352  29.905  1.00  0.00     0.074 A 
ATOM     56  C   UNL A   1      40.657  31.053  30.204  1.00  0.00     0.029 A 
ATOM     57  N   UNL A   1      42.359  29.667  29.844  1.00  0.00    -0.354 N 
ATOM     58  N   UNL A   1      45.159  28.828  29.941  1.00  0.00    -0.248 NA
ATOM     59  C   UNL A   1      47.410  29.310  30.335  1.00  0.00     0.031 C 
ATOM     60  C   UNL A   1      41.840  31.703  30.568  1.00  0.00     0.029 A 
ATOM     61  C   UNL A   1      42.897  30.831  30.368  1.00  0.00     0.049 A 
ATOM     62  H   UNL A   1      42.874  28.866  29.598  1.00  0.00     0.167 HD
ATOM     63  C   UNL A   1      45.271  30.126  30.424  1.00  0.00     0.074 A 
ATOM     64  C   UNL A   1      46.676  30.356  30.686  1.00  0.00     0.031 C 
ATOM     65  C   UNL A   1      44.297  31.046  30.630  1.00  0.00     0.037 A 
BRANCH  52  66
ATOM     66  C   UNL A   1      38.654  29.141  29.025  1.00  0.00     0.057 A 
ATOM     67  C   UNL A   1      37.767  29.099  30.109  1.00  0.00     0.134 A 
ATOM     68  C   UNL A   1      38.152  29.597  27.799  1.00  0.00     0.134 A 
ATOM     69  F   UNL A   1      38.180  28.664  31.309  1.00  0.00    -0.206 F 
ATOM     70  C   UNL A   1      36.432  29.484  29.975  1.00  0.00     0.040 A 
ATOM     71  C   UNL A   1      36.827  30.010  27.659  1.00  0.00     0.040 A 
ATOM     72  F   UNL A   1      38.949  29.669  26.721  1.00  0.00    -0.206 F 
ATOM     73  C   UNL A   1      35.962  29.952  28.749  1.00  0.00     0.006 A 
ENDBRANCH  52  66
BRANCH  53  74
ATOM     74  C   UNL A   1      48.304  26.653  29.513  1.00  0.00     0.057 A 
ATOM     75  C   UNL A   1      49.118  26.885  28.398  1.00  0.00     0.134 A 
ATOM     76  C   UNL A   1      48.902  26.061  30.632  1.00  0.00     0.134 A 
ATOM     77  F   UNL A   1      48.602  27.431  27.287  1.00  0.00    -0.206 F 
ATOM     78  C   UNL A   1      50.463  26.511  28.382  1.00  0.00     0.040 A 
ATOM     79  C   UNL A   1      50.252  25.711  30.642  1.00  0.00     0.040 A 
ATOM     80  F   UNL A   1      48.181  25.819  31.739  1.00  0.00    -0.206 F 
ATOM     81  C   UNL A   1      51.034  25.924  29.509  1.00  0.00     0.006 A 
ENDBRANCH  53  74
BRANCH  65  82
ATOM     82  C   UNL A   1      44.712  32.372  31.197  1.00  0.00     0.057 A 
ATOM     83  C   UNL A   1      45.039  33.460  30.378  1.00  0.00     0.134 A 
ATOM     84  C   UNL A   1      44.746  32.574  32.583  1.00  0.00     0.134 A 
ATOM     85  F   UNL A   1      45.038  33.330  29.043  1.00  0.00    -0.206 F 
ATOM     86  C   UNL A   1      45.411  34.693  30.916  1.00  0.00     0.040 A 
ATOM     87  C   UNL A   1      45.086  33.811  33.133  1.00  0.00     0.040 A 
ATOM     88  F   UNL A   1      44.433  31.578  33.426  1.00  0.00    -0.206 F 
ATOM     89  C   UNL A   1      45.427  34.873  32.298  1.00  0.00     0.006 A 
ENDBRANCH  65  82
ENDBRANCH  39  40
ENDBRANCH  31  34
ENDBRANCH  29  30
ENDBRANCH  28  29
ENDBRANCH  27  28
ENDBRANCH  26  27
ENDBRANCH   1  26
TORSDOF 19
ENDMDL
MODEL 2
REMARK VINA RESULT:     -10.5      0.904      6.123
REMARK SMILES CC(C)CN(CC(N)=O)C(=O)N1CC[C@H](C(=O)NCCCCCCNC(=O)c2ccc(-c3c4nc(c(-c5c(F)cccc5F)c5ccc([nH]5)c(-c5c(F)cccc5F)c5nc(c(-c6c(F)cccc6F)c6ccc3[nH]6)C=C5)C=C4)cc2)[C@@H]1C
REMARK SMILES IDX 20 1 19 2 18 3 16 4 17 5 15 7 12 8 13 9 82 10 14 11 83 12
REMARK SMILES IDX 10 13 11 14 5 15 4 16 2 17 1 18 3 19 6 20 7 21 8 22 9 23
REMARK SMILES IDX 21 26 22 27 23 28 24 29 25 30 26 31 27 33 28 34 29 35 81 36
REMARK SMILES IDX 30 37 80 38 31 39 32 40 33 41 74 42 34 43 79 44 73 45 75 46
REMARK SMILES IDX 35 47 78 48 72 49 71 50 36 52 62 53 45 54 61 55 46 56 49 57
REMARK SMILES IDX 60 58 76 59 47 60 48 61 59 63 77 64 50 65 37 66 38 67 43 68
REMARK SMILES IDX 39 69 40 70 42 71 44 72 41 73 63 74 64 75 69 76 65 77 66 78
REMARK SMILES IDX 68 79 70 80 67 81 51 82 52 83 57 84 53 85 54 86 56 87 58 88
REMARK SMILES IDX 55 89
REMARK H PARENT 18 6 8 24 8 25 25 32 75 51 49 62
REMARK Flexibility Score: inf
ROOT
ATOM      1  C   UNL A   1      35.949  23.084  25.404  1.00  0.00     0.021 C 
ENDROOT
BRANCH   1   2
ATOM      2  C   UNL A   1      34.576  22.420  25.318  1.00  0.00     0.116 C 
BRANCH   2   3
ATOM      3  N   UNL A   1      33.669  22.899  26.344  1.00  0.00    -0.356 N 
ATOM      4  C   UNL A   1      32.535  23.645  26.226  1.00  0.00     0.225 C 
ATOM      5  O   UNL A   1      31.875  23.877  27.237  1.00  0.00    -0.275 OA
ATOM      6  H   UNL A   1      33.910  22.649  27.265  1.00  0.00     0.163 HD
BRANCH   4   7
ATOM      7  C   UNL A   1      32.154  24.180  24.863  1.00  0.00     0.102 C 
ATOM      8  N   UNL A   1      32.023  26.308  23.851  1.00  0.00    -0.321 N 
ATOM      9  C   UNL A   1      30.788  26.155  24.587  1.00  0.00     0.122 C 
ATOM     10  C   UNL A   1      33.008  25.380  24.400  1.00  0.00     0.096 C 
ATOM     11  C   UNL A   1      30.693  24.660  24.795  1.00  0.00     0.037 C 
ATOM     12  C   UNL A   1      33.885  26.048  25.464  1.00  0.00     0.032 C 
BRANCH   8  13
ATOM     13  C   UNL A   1      32.343  27.556  23.369  1.00  0.00     0.320 C 
ATOM     14  O   UNL A   1      33.068  27.673  22.384  1.00  0.00    -0.248 OA
BRANCH  13  15
ATOM     15  N   UNL A   1      31.934  28.633  24.136  1.00  0.00    -0.315 N 
BRANCH  15  16
ATOM     16  C   UNL A   1      32.747  28.997  25.300  1.00  0.00     0.125 C 
BRANCH  16  17
ATOM     17  C   UNL A   1      31.894  29.418  26.525  1.00  0.00     0.002 C 
ATOM     18  C   UNL A   1      31.705  28.290  27.545  1.00  0.00     0.009 C 
ATOM     19  C   UNL A   1      32.539  30.613  27.230  1.00  0.00     0.009 C 
ENDBRANCH  16  17
ENDBRANCH  15  16
BRANCH  15  20
ATOM     20  C   UNL A   1      30.707  29.399  23.911  1.00  0.00     0.221 C 
BRANCH  20  21
ATOM     21  C   UNL A   1      30.215  29.287  22.459  1.00  0.00     0.237 C 
ATOM     22  N   UNL A   1      30.884  30.067  21.550  1.00  0.00    -0.368 N 
ATOM     23  O   UNL A   1      29.310  28.552  22.077  1.00  0.00    -0.273 OA
ATOM     24  H   UNL A   1      31.612  30.658  21.849  1.00  0.00     0.159 HD
ATOM     25  H   UNL A   1      30.635  30.035  20.598  1.00  0.00     0.159 HD
ENDBRANCH  20  21
ENDBRANCH  15  20
ENDBRANCH  13  15
ENDBRANCH   8  13
ENDBRANCH   4   7
ENDBRANCH   2   3
ENDBRANCH   1   2
BRANCH   1  26
ATOM     26  C   UNL A   1      37.137  22.130  25.251  1.00  0.00     0.002 C 
BRANCH  26  27
ATOM     27  C   UNL A   1      36.776  20.690  24.874  1.00  0.00     0.002 C 
BRANCH  27  28
ATOM     28  C   UNL A   1      37.922  19.682  24.981  1.00  0.00     0.021 C 
BRANCH  28  29
ATOM     29  C   UNL A   1      39.072  20.112  25.887  1.00  0.00     0.116 C 
BRANCH  29  30
ATOM     30  N   UNL A   1      40.157  19.144  25.904  1.00  0.00    -0.352 N 
ATOM     31  C   UNL A   1      41.505  19.342  26.084  1.00  0.00     0.251 C 
ATOM     32  H   UNL A   1      39.886  18.209  25.764  1.00  0.00     0.163 HD
ATOM     33  O   UNL A   1      42.292  18.424  25.886  1.00  0.00    -0.269 OA
BRANCH  31  34
ATOM     34  C   UNL A   1      42.009  20.672  26.492  1.00  0.00     0.039 A 
ATOM     35  C   UNL A   1      42.450  21.554  25.503  1.00  0.00     0.014 A 
ATOM     36  C   UNL A   1      42.050  21.047  27.837  1.00  0.00     0.014 A 
ATOM     37  C   UNL A   1      42.865  22.839  25.859  1.00  0.00     0.010 A 
ATOM     38  C   UNL A   1      42.393  22.353  28.182  1.00  0.00     0.010 A 
ATOM     39  C   UNL A   1      42.800  23.265  27.195  1.00  0.00    -0.014 A 
BRANCH  39  40
ATOM     40  C   UNL A   1      43.125  24.666  27.572  1.00  0.00     0.031 A 
ATOM     41  C   UNL A   1      44.557  25.119  27.661  1.00  0.00     0.074 A 
ATOM     42  C   UNL A   1      42.128  25.512  27.895  1.00  0.00     0.049 A 
ATOM     43  N   UNL A   1      45.032  26.280  28.035  1.00  0.00    -0.248 NA
ATOM     44  C   UNL A   1      45.591  24.134  27.310  1.00  0.00     0.031 C 
ATOM     45  C   UNL A   1      40.701  25.179  27.896  1.00  0.00     0.029 A 
ATOM     46  N   UNL A   1      42.161  26.824  28.301  1.00  0.00    -0.354 N 
ATOM     47  C   UNL A   1      46.415  26.162  27.975  1.00  0.00     0.074 A 
ATOM     48  C   UNL A   1      46.705  24.803  27.575  1.00  0.00     0.031 C 
ATOM     49  C   UNL A   1      39.997  26.261  28.265  1.00  0.00     0.029 A 
ATOM     50  C   UNL A   1      40.919  27.349  28.570  1.00  0.00     0.049 A 
ATOM     51  H   UNL A   1      42.994  27.339  28.390  1.00  0.00     0.167 HD
ATOM     52  C   UNL A   1      47.355  27.106  28.214  1.00  0.00     0.037 A 
ATOM     53  C   UNL A   1      40.563  28.565  29.026  1.00  0.00     0.037 A 
ATOM     54  C   UNL A   1      47.062  28.466  28.587  1.00  0.00     0.049 A 
ATOM     55  C   UNL A   1      41.632  29.591  29.292  1.00  0.00     0.074 A 
ATOM     56  C   UNL A   1      47.946  29.514  28.779  1.00  0.00     0.029 A 
ATOM     57  N   UNL A   1      45.792  28.965  28.832  1.00  0.00    -0.354 N 
ATOM     58  N   UNL A   1      42.931  29.487  29.150  1.00  0.00    -0.248 NA
ATOM     59  C   UNL A   1      41.185  30.905  29.776  1.00  0.00     0.031 C 
ATOM     60  C   UNL A   1      47.217  30.630  29.197  1.00  0.00     0.029 A 
ATOM     61  C   UNL A   1      45.873  30.297  29.206  1.00  0.00     0.049 A 
ATOM     62  H   UNL A   1      44.958  28.449  28.752  1.00  0.00     0.167 HD
ATOM     63  C   UNL A   1      43.452  30.728  29.499  1.00  0.00     0.074 A 
ATOM     64  C   UNL A   1      42.327  31.573  29.839  1.00  0.00     0.031 C 
ATOM     65  C   UNL A   1      44.745  31.129  29.536  1.00  0.00     0.037 A 
BRANCH  52  66
ATOM     66  C   UNL A   1      48.797  26.712  28.080  1.00  0.00     0.057 A 
ATOM     67  C   UNL A   1      49.534  26.218  29.165  1.00  0.00     0.134 A 
ATOM     68  C   UNL A   1      49.436  26.756  26.833  1.00  0.00     0.134 A 
ATOM     69  F   UNL A   1      48.985  26.158  30.388  1.00  0.00    -0.206 F 
ATOM     70  C   UNL A   1      50.856  25.794  29.017  1.00  0.00     0.040 A 
ATOM     71  C   UNL A   1      50.747  26.309  26.667  1.00  0.00     0.040 A 
ATOM     72  F   UNL A   1      48.786  27.212  25.751  1.00  0.00    -0.206 F 
ATOM     73  C   UNL A   1      51.462  25.830  27.763  1.00  0.00     0.006 A 
ENDBRANCH  52  66
BRANCH  53  74
ATOM     74  C   UNL A   1      39.133  28.887  29.269  1.00  0.00     0.057 A 
ATOM     75  C   UNL A   1      38.339  29.471  28.275  1.00  0.00     0.134 A 
ATOM     76  C   UNL A   1      38.534  28.654  30.514  1.00  0.00     0.134 A 
ATOM     77  F   UNL A   1      38.858  29.737  27.067  1.00  0.00    -0.206 F 
ATOM     78  C   UNL A   1      37.015  29.842  28.518  1.00  0.00     0.040 A 
ATOM     79  C   UNL A   1      37.203  28.990  30.761  1.00  0.00     0.040 A 
ATOM     80  F   UNL A   1      39.236  28.089  31.509  1.00  0.00    -0.206 F 
ATOM     81  C   UNL A   1      36.443  29.598  29.764  1.00  0.00     0.006 A 
ENDBRANCH  53  74
BRANCH  65  82
ATOM     82  C   UNL A   1      45.013  32.555  29.925  1.00  0.00     0.057 A 
ATOM     83  C   UNL A   1      45.283  32.925  31.249  1.00  0.00     0.134 A 
ATOM     84  C   UNL A   1      45.039  33.565  28.954  1.00  0.00     0.134 A 
ATOM     85  F   UNL A   1      45.261  32.008  32.228  1.00  0.00    -0.206 F 
ATOM     86  C   UNL A   1      45.543  34.251  31.597  1.00  0.00     0.040 A 
ATOM     87  C   UNL A   1      45.328  34.889  29.285  1.00  0.00     0.040 A 
ATOM     88  F   UNL A   1      44.800  33.277  27.665  1.00  0.00    -0.206 F 
ATOM     89  C   UNL A   1      45.574  35.236  30.611  1.00  0.00     0.006 A 
ENDBRANCH  65  82
ENDBRANCH  39  40
ENDBRANCH  31  34
ENDBRANCH  29  30
ENDBRANCH  28  29
ENDBRANCH  27  28
ENDBRANCH  26  27
ENDBRANCH   1  26
TORSDOF 19
ENDMDL
MODEL 3
REMARK VINA RESULT:     -10.4      1.980      2.630
REMARK SMILES CC(C)CN(CC(N)=O)C(=O)N1CC[C@H](C(=O)NCCCCCCNC(=O)c2ccc(-c3c4nc(c(-c5c(F)cccc5F)c5ccc([nH]5)c(-c5c(F)cccc5F)c5nc(c(-c6c(F)cccc6F)c6ccc3[nH]6)C=C5)C=C4)cc2)[C@@H]1C
REMARK SMILES IDX 20 1 19 2 18 3 16 4 17 5 15 7 12 8 13 9 82 10 14 11 83 12
REMARK SMILES IDX 10 13 11 14 5 15 4 16 2 17 1 18 3 19 6 20 7 21 8 22 9 23
REMARK SMILES IDX 21 26 22 27 23 28 24 29 25 30 26 31 27 33 28 34 29 35 81 36
REMARK SMILES IDX 30 37 80 38 31 39 32 40 33 41 74 42 34 43 79 44 73 45 75 46
REMARK SMILES IDX 35 47 78 48 72 49 71 50 36 52 62 53 45 54 61 55 46 56 49 57
REMARK SMILES IDX 60 58 76 59 47 60 48 61 59 63 77 64 50 65 37 66 38 67 43 68
REMARK SMILES IDX 39 69 40 70 42 71 44 72 41 73 63 74 64 75 69 76 65 77 66 78
REMARK SMILES IDX 68 79 70 80 67 81 51 82 52 83 57 84 53 85 54 86 56 87 58 88
REMARK SMILES IDX 55 89
REMARK H PARENT 18 6 8 24 8 25 25 32 75 51 49 62
REMARK Flexibility Score: inf
ROOT
ATOM      1  C   UNL A   1      35.076  20.313  25.008  1.00  0.00     0.021 C 
ENDROOT
BRANCH   1   2
ATOM      2  C   UNL A   1      33.612  20.465  25.415  1.00  0.00     0.116 C 
BRANCH   2   3
ATOM      3  N   UNL A   1      33.464  21.126  26.697  1.00  0.00    -0.356 N 
ATOM      4  C   UNL A   1      32.708  22.208  27.038  1.00  0.00     0.225 C 
ATOM      5  O   UNL A   1      32.678  22.558  28.216  1.00  0.00    -0.275 OA
ATOM      6  H   UNL A   1      33.990  20.737  27.432  1.00  0.00     0.163 HD
BRANCH   4   7
ATOM      7  C   UNL A   1      31.962  22.947  25.949  1.00  0.00     0.102 C 
ATOM      8  N   UNL A   1      31.853  25.176  25.180  1.00  0.00    -0.321 N 
ATOM      9  C   UNL A   1      30.959  25.116  26.315  1.00  0.00     0.122 C 
ATOM     10  C   UNL A   1      32.789  24.059  25.267  1.00  0.00     0.096 C 
ATOM     11  C   UNL A   1      30.683  23.636  26.460  1.00  0.00     0.037 C 
ATOM     12  C   UNL A   1      34.094  24.465  25.961  1.00  0.00     0.032 C 
BRANCH   8  13
ATOM     13  C   UNL A   1      32.192  26.413  24.684  1.00  0.00     0.320 C 
ATOM     14  O   UNL A   1      32.669  27.269  25.426  1.00  0.00    -0.248 OA
BRANCH  13  15
ATOM     15  N   UNL A   1      31.827  26.670  23.374  1.00  0.00    -0.315 N 
BRANCH  15  16
ATOM     16  C   UNL A   1      30.398  26.754  23.061  1.00  0.00     0.125 C 
BRANCH  16  17
ATOM     17  C   UNL A   1      29.923  28.205  22.789  1.00  0.00     0.002 C 
ATOM     18  C   UNL A   1      28.430  28.412  23.060  1.00  0.00     0.009 C 
ATOM     19  C   UNL A   1      30.719  29.189  23.649  1.00  0.00     0.009 C 
ENDBRANCH  16  17
ENDBRANCH  15  16
BRANCH  15  20
ATOM     20  C   UNL A   1      32.765  26.798  22.257  1.00  0.00     0.221 C 
BRANCH  20  21
ATOM     21  C   UNL A   1      32.819  25.523  21.400  1.00  0.00     0.237 C 
ATOM     22  N   UNL A   1      32.270  25.633  20.148  1.00  0.00    -0.368 N 
ATOM     23  O   UNL A   1      33.325  24.462  21.750  1.00  0.00    -0.273 OA
ATOM     24  H   UNL A   1      31.863  26.482  19.861  1.00  0.00     0.159 HD
ATOM     25  H   UNL A   1      32.284  24.862  19.536  1.00  0.00     0.159 HD
ENDBRANCH  20  21
ENDBRANCH  15  20
ENDBRANCH  13  15
ENDBRANCH   8  13
ENDBRANCH   4   7
ENDBRANCH   2   3
ENDBRANCH   1   2
BRANCH   1  26
ATOM     26  C   UNL A   1      35.726  21.584  24.451  1.00  0.00     0.002 C 
BRANCH  26  27
ATOM     27  C   UNL A   1      37.255  21.616  24.509  1.00  0.00     0.002 C 
BRANCH  27  28
ATOM     28  C   UNL A   1      37.920  20.299  24.915  1.00  0.00     0.021 C 
BRANCH  28  29
ATOM     29  C   UNL A   1      38.931  20.415  26.053  1.00  0.00     0.116 C 
BRANCH  29  30
ATOM     30  N   UNL A   1      39.951  19.382  25.995  1.00  0.00    -0.352 N 
ATOM     31  C   UNL A   1      41.319  19.496  26.059  1.00  0.00     0.251 C 
ATOM     32  H   UNL A   1      39.612  18.463  25.895  1.00  0.00     0.163 HD
ATOM     33  O   UNL A   1      42.029  18.528  25.812  1.00  0.00    -0.269 OA
BRANCH  31  34
ATOM     34  C   UNL A   1      41.937  20.796  26.400  1.00  0.00     0.039 A 
ATOM     35  C   UNL A   1      42.223  21.694  25.370  1.00  0.00     0.014 A 
ATOM     36  C   UNL A   1      42.236  21.129  27.724  1.00  0.00     0.014 A 
ATOM     37  C   UNL A   1      42.742  22.955  25.674  1.00  0.00     0.010 A 
ATOM     38  C   UNL A   1      42.683  22.412  28.032  1.00  0.00     0.010 A 
ATOM     39  C   UNL A   1      42.936  23.341  27.010  1.00  0.00    -0.014 A 
BRANCH  39  40
ATOM     40  C   UNL A   1      43.375  24.718  27.356  1.00  0.00     0.031 A 
ATOM     41  C   UNL A   1      42.397  25.713  27.916  1.00  0.00     0.074 A 
ATOM     42  C   UNL A   1      44.646  25.090  27.103  1.00  0.00     0.049 A 
ATOM     43  N   UNL A   1      42.583  26.974  28.214  1.00  0.00    -0.248 NA
ATOM     44  C   UNL A   1      41.023  25.240  28.148  1.00  0.00     0.031 C 
ATOM     45  C   UNL A   1      45.678  24.233  26.516  1.00  0.00     0.029 A 
ATOM     46  N   UNL A   1      45.285  26.291  27.295  1.00  0.00    -0.354 N 
ATOM     47  C   UNL A   1      41.353  27.446  28.656  1.00  0.00     0.074 A 
ATOM     48  C   UNL A   1      40.416  26.351  28.543  1.00  0.00     0.031 C 
ATOM     49  C   UNL A   1      46.822  24.928  26.412  1.00  0.00     0.029 A 
ATOM     50  C   UNL A   1      46.596  26.290  26.882  1.00  0.00     0.049 A 
ATOM     51  H   UNL A   1      44.845  27.077  27.691  1.00  0.00     0.167 HD
ATOM     52  C   UNL A   1      41.040  28.675  29.131  1.00  0.00     0.037 A 
ATOM     53  C   UNL A   1      47.510  27.279  26.868  1.00  0.00     0.037 A 
ATOM     54  C   UNL A   1      41.982  29.756  29.266  1.00  0.00     0.049 A 
ATOM     55  C   UNL A   1      47.128  28.638  27.393  1.00  0.00     0.074 A 
ATOM     56  C   UNL A   1      41.773  31.015  29.804  1.00  0.00     0.029 A 
ATOM     57  N   UNL A   1      43.305  29.711  28.854  1.00  0.00    -0.354 N 
ATOM     58  N   UNL A   1      45.982  29.043  27.885  1.00  0.00    -0.248 NA
ATOM     59  C   UNL A   1      48.169  29.676  27.365  1.00  0.00     0.031 C 
ATOM     60  C   UNL A   1      42.953  31.750  29.665  1.00  0.00     0.029 A 
ATOM     61  C   UNL A   1      43.915  30.932  29.096  1.00  0.00     0.049 A 
ATOM     62  H   UNL A   1      43.744  28.929  28.450  1.00  0.00     0.167 HD
ATOM     63  C   UNL A   1      46.174  30.369  28.251  1.00  0.00     0.074 A 
ATOM     64  C   UNL A   1      47.550  30.694  27.944  1.00  0.00     0.031 C 
ATOM     65  C   UNL A   1      45.288  31.241  28.791  1.00  0.00     0.037 A 
BRANCH  52  66
ATOM     66  C   UNL A   1      39.619  28.928  29.544  1.00  0.00     0.057 A 
ATOM     67  C   UNL A   1      38.648  29.359  28.631  1.00  0.00     0.134 A 
ATOM     68  C   UNL A   1      39.200  28.663  30.855  1.00  0.00     0.134 A 
ATOM     69  F   UNL A   1      38.984  29.639  27.362  1.00  0.00    -0.206 F 
ATOM     70  C   UNL A   1      37.315  29.531  29.009  1.00  0.00     0.040 A 
ATOM     71  C   UNL A   1      37.866  28.805  31.238  1.00  0.00     0.040 A 
ATOM     72  F   UNL A   1      40.077  28.241  31.778  1.00  0.00    -0.206 F 
ATOM     73  C   UNL A   1      36.920  29.243  30.315  1.00  0.00     0.006 A 
ENDBRANCH  52  66
BRANCH  53  74
ATOM     74  C   UNL A   1      48.875  27.034  26.336  1.00  0.00     0.057 A 
ATOM     75  C   UNL A   1      49.177  27.241  24.985  1.00  0.00     0.134 A 
ATOM     76  C   UNL A   1      49.902  26.550  27.156  1.00  0.00     0.134 A 
ATOM     77  F   UNL A   1      48.233  27.686  24.143  1.00  0.00    -0.206 F 
ATOM     78  C   UNL A   1      50.437  26.945  24.462  1.00  0.00     0.040 A 
ATOM     79  C   UNL A   1      51.175  26.279  26.654  1.00  0.00     0.040 A 
ATOM     80  F   UNL A   1      49.683  26.337  28.463  1.00  0.00    -0.206 F 
ATOM     81  C   UNL A   1      51.442  26.466  25.299  1.00  0.00     0.006 A 
ENDBRANCH  53  74
BRANCH  65  82
ATOM     82  C   UNL A   1      45.788  32.618  29.118  1.00  0.00     0.057 A 
ATOM     83  C   UNL A   1      45.679  33.682  28.212  1.00  0.00     0.134 A 
ATOM     84  C   UNL A   1      46.353  32.893  30.370  1.00  0.00     0.134 A 
ATOM     85  F   UNL A   1      45.160  33.484  26.991  1.00  0.00    -0.206 F 
ATOM     86  C   UNL A   1      46.136  34.961  28.531  1.00  0.00     0.040 A 
ATOM     87  C   UNL A   1      46.784  34.175  30.712  1.00  0.00     0.040 A 
ATOM     88  F   UNL A   1      46.477  31.923  31.289  1.00  0.00    -0.206 F 
ATOM     89  C   UNL A   1      46.683  35.212  29.788  1.00  0.00     0.006 A 
ENDBRANCH  65  82
ENDBRANCH  39  40
ENDBRANCH  31  34
ENDBRANCH  29  30
ENDBRANCH  28  29
ENDBRANCH  27  28
ENDBRANCH  26  27
ENDBRANCH   1  26
TORSDOF 19
ENDMDL
