MODEL 1
REMARK VINA RESULT:     -10.8      0.000      0.000
REMARK SMILES O=C(NCCCCCCNC(=O)[C@H]1CC[C@@H](C(F)F)[NH2+]1)c1ccc(-c2c3nc(c(-c4c(F)cccc4F)c4ccc([nH]4)c(-c4c(F)cccc4F)c4nc(c(-c5c(F)cccc5F)c5ccc2[nH]5)C=C4)C=C3)cc1
REMARK SMILES IDX 6 1 5 2 4 3 3 4 1 5 2 6 21 8 22 9 74 10 23 11 73 12 24 13
REMARK SMILES IDX 25 14 26 15 67 16 27 17 72 18 66 19 68 20 28 21 71 22 65 23
REMARK SMILES IDX 64 24 29 26 55 27 38 28 54 29 39 30 42 31 53 32 69 33 40 34
REMARK SMILES IDX 41 35 52 37 70 38 43 39 30 40 31 41 36 42 32 43 33 44 35 45
REMARK SMILES IDX 37 46 34 47 56 48 57 49 62 50 58 51 59 52 61 53 63 54 60 55
REMARK SMILES IDX 44 56 45 57 50 58 46 59 47 60 49 61 51 62 48 63 7 64 8 65
REMARK SMILES IDX 9 66 10 67 11 68 12 70 13 71 14 72 20 73 15 74 16 75 17 78
REMARK SMILES IDX 18 79 19 80
REMARK H PARENT 3 7 68 25 42 36 10 69 20 76 20 77
REMARK Flexibility Score: inf
ROOT
ATOM      1  C   UNL A   1      31.738  30.473  26.791  1.00  0.00     0.002 C 
ENDROOT
BRANCH   1   2
ATOM      2  C   UNL A   1      31.508  31.983  26.814  1.00  0.00     0.021 C 
BRANCH   2   3
ATOM      3  C   UNL A   1      32.769  32.806  27.045  1.00  0.00     0.116 C 
BRANCH   3   4
ATOM      4  N   UNL A   1      32.478  34.109  27.620  1.00  0.00    -0.352 N 
ATOM      5  O   UNL A   1      32.530  35.732  29.188  1.00  0.00    -0.269 OA
ATOM      6  C   UNL A   1      33.028  34.710  28.723  1.00  0.00     0.251 C 
ATOM      7  H   UNL A   1      31.787  34.631  27.153  1.00  0.00     0.163 HD
BRANCH   6   8
ATOM      8  C   UNL A   1      34.213  34.109  29.365  1.00  0.00     0.039 A 
ATOM      9  C   UNL A   1      35.503  34.496  28.987  1.00  0.00     0.014 A 
ATOM     10  C   UNL A   1      34.030  33.149  30.363  1.00  0.00     0.014 A 
ATOM     11  C   UNL A   1      36.606  33.831  29.510  1.00  0.00     0.010 A 
ATOM     12  C   UNL A   1      35.141  32.541  30.947  1.00  0.00     0.010 A 
ATOM     13  C   UNL A   1      36.437  32.857  30.506  1.00  0.00    -0.014 A 
BRANCH  13  14
ATOM     14  C   UNL A   1      37.621  32.207  31.119  1.00  0.00     0.031 A 
ATOM     15  C   UNL A   1      38.364  31.123  30.396  1.00  0.00     0.074 A 
ATOM     16  C   UNL A   1      38.007  32.589  32.351  1.00  0.00     0.049 A 
ATOM     17  N   UNL A   1      39.370  30.394  30.809  1.00  0.00    -0.248 NA
ATOM     18  C   UNL A   1      37.914  30.808  29.031  1.00  0.00     0.031 C 
ATOM     19  C   UNL A   1      37.363  33.632  33.152  1.00  0.00     0.029 A 
ATOM     20  N   UNL A   1      39.027  32.138  33.149  1.00  0.00    -0.354 N 
ATOM     21  C   UNL A   1      39.659  29.520  29.769  1.00  0.00     0.074 A 
ATOM     22  C   UNL A   1      38.703  29.790  28.716  1.00  0.00     0.031 C 
ATOM     23  C   UNL A   1      38.010  33.753  34.318  1.00  0.00     0.029 A 
ATOM     24  C   UNL A   1      39.070  32.753  34.376  1.00  0.00     0.049 A 
ATOM     25  H   UNL A   1      39.665  31.443  32.870  1.00  0.00     0.167 HD
ATOM     26  C   UNL A   1      40.634  28.580  29.700  1.00  0.00     0.037 A 
ATOM     27  C   UNL A   1      39.852  32.514  35.445  1.00  0.00     0.037 A 
ATOM     28  C   UNL A   1      41.578  28.318  30.759  1.00  0.00     0.049 A 
ATOM     29  C   UNL A   1      40.890  31.435  35.365  1.00  0.00     0.074 A 
ATOM     30  C   UNL A   1      42.623  27.411  30.776  1.00  0.00     0.029 A 
ATOM     31  N   UNL A   1      41.581  28.954  31.992  1.00  0.00    -0.354 N 
ATOM     32  N   UNL A   1      41.177  30.637  34.366  1.00  0.00    -0.248 NA
ATOM     33  C   UNL A   1      41.716  31.221  36.561  1.00  0.00     0.031 C 
ATOM     34  C   UNL A   1      43.220  27.454  32.040  1.00  0.00     0.029 A 
ATOM     35  C   UNL A   1      42.591  28.438  32.788  1.00  0.00     0.049 A 
ATOM     36  H   UNL A   1      40.957  29.665  32.263  1.00  0.00     0.167 HD
ATOM     37  C   UNL A   1      42.234  29.849  34.798  1.00  0.00     0.074 A 
ATOM     38  C   UNL A   1      42.541  30.269  36.150  1.00  0.00     0.031 C 
ATOM     39  C   UNL A   1      42.894  28.871  34.131  1.00  0.00     0.037 A 
BRANCH  26  40
ATOM     40  C   UNL A   1      40.704  27.744  28.453  1.00  0.00     0.057 A 
ATOM     41  C   UNL A   1      41.481  28.116  27.348  1.00  0.00     0.134 A 
ATOM     42  C   UNL A   1      39.996  26.537  28.365  1.00  0.00     0.134 A 
ATOM     43  F   UNL A   1      42.176  29.263  27.360  1.00  0.00    -0.206 F 
ATOM     44  C   UNL A   1      41.522  27.338  26.188  1.00  0.00     0.040 A 
ATOM     45  C   UNL A   1      40.054  25.736  27.223  1.00  0.00     0.040 A 
ATOM     46  F   UNL A   1      39.240  26.113  29.389  1.00  0.00    -0.206 F 
ATOM     47  C   UNL A   1      40.810  26.142  26.126  1.00  0.00     0.006 A 
ENDBRANCH  26  40
BRANCH  27  48
ATOM     48  C   UNL A   1      39.665  33.318  36.679  1.00  0.00     0.057 A 
ATOM     49  C   UNL A   1      38.754  32.927  37.665  1.00  0.00     0.134 A 
ATOM     50  C   UNL A   1      40.418  34.475  36.915  1.00  0.00     0.134 A 
ATOM     51  F   UNL A   1      37.996  31.835  37.490  1.00  0.00    -0.206 F 
ATOM     52  C   UNL A   1      38.590  33.664  38.840  1.00  0.00     0.040 A 
ATOM     53  C   UNL A   1      40.285  35.205  38.096  1.00  0.00     0.040 A 
ATOM     54  F   UNL A   1      41.317  34.894  36.012  1.00  0.00    -0.206 F 
ATOM     55  C   UNL A   1      39.364  34.802  39.061  1.00  0.00     0.006 A 
ENDBRANCH  27  48
BRANCH  39  56
ATOM     56  C   UNL A   1      44.053  28.220  34.829  1.00  0.00     0.057 A 
ATOM     57  C   UNL A   1      45.338  28.776  34.819  1.00  0.00     0.134 A 
ATOM     58  C   UNL A   1      43.863  27.044  35.567  1.00  0.00     0.134 A 
ATOM     59  F   UNL A   1      45.593  29.892  34.119  1.00  0.00    -0.206 F 
ATOM     60  C   UNL A   1      46.397  28.175  35.504  1.00  0.00     0.040 A 
ATOM     61  C   UNL A   1      44.905  26.451  36.279  1.00  0.00     0.040 A 
ATOM     62  F   UNL A   1      42.655  26.464  35.624  1.00  0.00    -0.206 F 
ATOM     63  C   UNL A   1      46.179  27.014  36.245  1.00  0.00     0.006 A 
ENDBRANCH  39  56
ENDBRANCH  13  14
ENDBRANCH   6   8
ENDBRANCH   3   4
ENDBRANCH   2   3
ENDBRANCH   1   2
BRANCH   1  64
ATOM     64  C   UNL A   1      31.791  29.853  25.392  1.00  0.00     0.002 C 
BRANCH  64  65
ATOM     65  C   UNL A   1      31.509  28.345  25.336  1.00  0.00     0.021 C 
BRANCH  65  66
ATOM     66  C   UNL A   1      30.582  27.921  24.200  1.00  0.00     0.116 C 
BRANCH  66  67
ATOM     67  N   UNL A   1      30.805  28.740  23.029  1.00  0.00    -0.351 N 
ATOM     68  C   UNL A   1      29.937  29.560  22.371  1.00  0.00     0.278 C 
ATOM     69  H   UNL A   1      31.714  28.701  22.655  1.00  0.00     0.163 HD
ATOM     70  O   UNL A   1      30.278  29.941  21.251  1.00  0.00    -0.268 OA
BRANCH  68  71
ATOM     71  C   UNL A   1      28.608  29.947  23.059  1.00  0.00     0.273 C 
ATOM     72  C   UNL A   1      28.747  31.186  23.931  1.00  0.00     0.082 C 
ATOM     73  N   UNL A   1      27.583  30.336  22.066  1.00  0.00    -0.329 N 
ATOM     74  C   UNL A   1      28.643  32.322  22.932  1.00  0.00     0.078 C 
ATOM     75  C   UNL A   1      27.657  31.812  21.885  1.00  0.00     0.251 C 
ATOM     76  H   UNL A   1      26.656  30.074  22.403  1.00  0.00     0.347 HD
ATOM     77  H   UNL A   1      27.749  29.860  21.178  1.00  0.00     0.347 HD
BRANCH  75  78
ATOM     78  C   UNL A   1      28.003  32.326  20.472  1.00  0.00     0.399 C 
ATOM     79  F   UNL A   1      27.428  31.578  19.502  1.00  0.00    -0.204 F 
ATOM     80  F   UNL A   1      27.576  33.603  20.311  1.00  0.00    -0.204 F 
ENDBRANCH  75  78
ENDBRANCH  68  71
ENDBRANCH  66  67
ENDBRANCH  65  66
ENDBRANCH  64  65
ENDBRANCH   1  64
TORSDOF 14
ENDMDL
MODEL 2
REMARK VINA RESULT:     -10.4      7.048     10.988
REMARK SMILES O=C(NCCCCCCNC(=O)[C@H]1CC[C@@H](C(F)F)[NH2+]1)c1ccc(-c2c3nc(c(-c4c(F)cccc4F)c4ccc([nH]4)c(-c4c(F)cccc4F)c4nc(c(-c5c(F)cccc5F)c5ccc2[nH]5)C=C4)C=C3)cc1
REMARK SMILES IDX 6 1 5 2 4 3 3 4 1 5 2 6 21 8 22 9 74 10 23 11 73 12 24 13
REMARK SMILES IDX 25 14 26 15 67 16 27 17 72 18 66 19 68 20 28 21 71 22 65 23
REMARK SMILES IDX 64 24 29 26 55 27 38 28 54 29 39 30 42 31 53 32 69 33 40 34
REMARK SMILES IDX 41 35 52 37 70 38 43 39 30 40 31 41 36 42 32 43 33 44 35 45
REMARK SMILES IDX 37 46 34 47 56 48 57 49 62 50 58 51 59 52 61 53 63 54 60 55
REMARK SMILES IDX 44 56 45 57 50 58 46 59 47 60 49 61 51 62 48 63 7 64 8 65
REMARK SMILES IDX 9 66 10 67 11 68 12 70 13 71 14 72 20 73 15 74 16 75 17 78
REMARK SMILES IDX 18 79 19 80
REMARK H PARENT 3 7 68 25 42 36 10 69 20 76 20 77
REMARK Flexibility Score: inf
ROOT
ATOM      1  C   UNL A   1      37.376  20.561  24.539  1.00  0.00     0.002 C 
ENDROOT
BRANCH   1   2
ATOM      2  C   UNL A   1      38.318  19.467  25.039  1.00  0.00     0.021 C 
BRANCH   2   3
ATOM      3  C   UNL A   1      39.285  19.920  26.126  1.00  0.00     0.116 C 
BRANCH   3   4
ATOM      4  N   UNL A   1      40.520  19.154  26.117  1.00  0.00    -0.352 N 
ATOM      5  O   UNL A   1      42.746  18.828  25.941  1.00  0.00    -0.269 OA
ATOM      6  C   UNL A   1      41.816  19.601  26.152  1.00  0.00     0.251 C 
ATOM      7  H   UNL A   1      40.410  18.177  26.080  1.00  0.00     0.163 HD
BRANCH   6   8
ATOM      8  C   UNL A   1      42.087  21.026  26.424  1.00  0.00     0.039 A 
ATOM      9  C   UNL A   1      42.154  21.952  25.378  1.00  0.00     0.014 A 
ATOM     10  C   UNL A   1      42.272  21.441  27.744  1.00  0.00     0.014 A 
ATOM     11  C   UNL A   1      42.535  23.263  25.637  1.00  0.00     0.010 A 
ATOM     12  C   UNL A   1      42.573  22.777  28.011  1.00  0.00     0.010 A 
ATOM     13  C   UNL A   1      42.734  23.693  26.958  1.00  0.00    -0.014 A 
BRANCH  13  14
ATOM     14  C   UNL A   1      43.062  25.112  27.237  1.00  0.00     0.031 A 
ATOM     15  C   UNL A   1      44.443  25.646  26.993  1.00  0.00     0.074 A 
ATOM     16  C   UNL A   1      42.103  25.914  27.739  1.00  0.00     0.049 A 
ATOM     17  N   UNL A   1      44.926  26.835  27.250  1.00  0.00    -0.248 NA
ATOM     18  C   UNL A   1      45.413  24.720  26.388  1.00  0.00     0.031 C 
ATOM     19  C   UNL A   1      40.724  25.508  28.018  1.00  0.00     0.029 A 
ATOM     20  N   UNL A   1      42.145  27.233  28.112  1.00  0.00    -0.354 N 
ATOM     21  C   UNL A   1      46.259  26.795  26.862  1.00  0.00     0.074 A 
ATOM     22  C   UNL A   1      46.516  25.455  26.378  1.00  0.00     0.031 C 
ATOM     23  C   UNL A   1      40.048  26.557  28.502  1.00  0.00     0.029 A 
ATOM     24  C   UNL A   1      40.959  27.689  28.631  1.00  0.00     0.049 A 
ATOM     25  H   UNL A   1      42.946  27.797  28.017  1.00  0.00     0.167 HD
ATOM     26  C   UNL A   1      47.181  27.788  26.904  1.00  0.00     0.037 A 
ATOM     27  C   UNL A   1      40.646  28.875  29.185  1.00  0.00     0.037 A 
ATOM     28  C   UNL A   1      46.914  29.118  27.393  1.00  0.00     0.049 A 
ATOM     29  C   UNL A   1      41.697  29.942  29.269  1.00  0.00     0.074 A 
ATOM     30  C   UNL A   1      47.770  30.205  27.449  1.00  0.00     0.029 A 
ATOM     31  N   UNL A   1      45.702  29.538  27.923  1.00  0.00    -0.354 N 
ATOM     32  N   UNL A   1      42.945  29.906  28.869  1.00  0.00    -0.248 NA
ATOM     33  C   UNL A   1      41.299  31.216  29.881  1.00  0.00     0.031 C 
ATOM     34  C   UNL A   1      47.095  31.263  28.067  1.00  0.00     0.029 A 
ATOM     35  C   UNL A   1      45.797  30.858  28.334  1.00  0.00     0.049 A 
ATOM     36  H   UNL A   1      44.894  28.980  27.997  1.00  0.00     0.167 HD
ATOM     37  C   UNL A   1      43.472  31.158  29.150  1.00  0.00     0.074 A 
ATOM     38  C   UNL A   1      42.406  31.934  29.751  1.00  0.00     0.031 C 
ATOM     39  C   UNL A   1      44.725  31.624  28.923  1.00  0.00     0.037 A 
BRANCH  26  40
ATOM     40  C   UNL A   1      48.574  27.460  26.443  1.00  0.00     0.057 A 
ATOM     41  C   UNL A   1      48.941  27.501  25.091  1.00  0.00     0.134 A 
ATOM     42  C   UNL A   1      49.568  27.117  27.369  1.00  0.00     0.134 A 
ATOM     43  F   UNL A   1      48.038  27.813  24.149  1.00  0.00    -0.206 F 
ATOM     44  C   UNL A   1      50.234  27.176  24.675  1.00  0.00     0.040 A 
ATOM     45  C   UNL A   1      50.872  26.819  26.967  1.00  0.00     0.040 A 
ATOM     46  F   UNL A   1      49.291  27.068  28.681  1.00  0.00    -0.206 F 
ATOM     47  C   UNL A   1      51.205  26.838  25.616  1.00  0.00     0.006 A 
ENDBRANCH  26  40
BRANCH  27  48
ATOM     48  C   UNL A   1      39.275  29.098  29.706  1.00  0.00     0.057 A 
ATOM     49  C   UNL A   1      38.944  28.789  31.029  1.00  0.00     0.134 A 
ATOM     50  C   UNL A   1      38.273  29.658  28.903  1.00  0.00     0.134 A 
ATOM     51  F   UNL A   1      39.858  28.240  31.843  1.00  0.00    -0.206 F 
ATOM     52  C   UNL A   1      37.663  29.019  31.534  1.00  0.00     0.040 A 
ATOM     53  C   UNL A   1      36.997  29.919  29.402  1.00  0.00     0.040 A 
ATOM     54  F   UNL A   1      38.532  29.987  27.628  1.00  0.00    -0.206 F 
ATOM     55  C   UNL A   1      36.688  29.594  30.720  1.00  0.00     0.006 A 
ENDBRANCH  27  48
BRANCH  39  56
ATOM     56  C   UNL A   1      45.002  33.057  29.274  1.00  0.00     0.057 A 
ATOM     57  C   UNL A   1      44.748  34.106  28.383  1.00  0.00     0.134 A 
ATOM     58  C   UNL A   1      45.483  33.392  30.547  1.00  0.00     0.134 A 
ATOM     59  F   UNL A   1      44.302  33.854  27.143  1.00  0.00    -0.206 F 
ATOM     60  C   UNL A   1      44.979  35.437  28.740  1.00  0.00     0.040 A 
ATOM     61  C   UNL A   1      45.689  34.718  30.926  1.00  0.00     0.040 A 
ATOM     62  F   UNL A   1      45.740  32.435  31.452  1.00  0.00    -0.206 F 
ATOM     63  C   UNL A   1      45.442  35.746  30.018  1.00  0.00     0.006 A 
ENDBRANCH  39  56
ENDBRANCH  13  14
ENDBRANCH   6   8
ENDBRANCH   3   4
ENDBRANCH   2   3
ENDBRANCH   1   2
BRANCH   1  64
ATOM     64  C   UNL A   1      36.112  20.753  25.381  1.00  0.00     0.002 C 
BRANCH  64  65
ATOM     65  C   UNL A   1      35.120  21.793  24.839  1.00  0.00     0.021 C 
BRANCH  65  66
ATOM     66  C   UNL A   1      33.859  21.194  24.222  1.00  0.00     0.116 C 
BRANCH  66  67
ATOM     67  N   UNL A   1      33.218  20.290  25.151  1.00  0.00    -0.351 N 
ATOM     68  C   UNL A   1      32.940  18.963  25.012  1.00  0.00     0.278 C 
ATOM     69  H   UNL A   1      32.945  20.690  26.008  1.00  0.00     0.163 HD
ATOM     70  O   UNL A   1      32.153  18.474  25.823  1.00  0.00    -0.268 OA
BRANCH  68  71
ATOM     71  C   UNL A   1      33.616  18.175  23.866  1.00  0.00     0.273 C 
ATOM     72  C   UNL A   1      35.000  17.671  24.248  1.00  0.00     0.082 C 
ATOM     73  N   UNL A   1      32.870  16.936  23.554  1.00  0.00    -0.329 N 
ATOM     74  C   UNL A   1      34.700  16.409  25.034  1.00  0.00     0.078 C 
ATOM     75  C   UNL A   1      33.460  15.830  24.358  1.00  0.00     0.251 C 
ATOM     76  H   UNL A   1      32.952  16.723  22.559  1.00  0.00     0.347 HD
ATOM     77  H   UNL A   1      31.881  17.050  23.779  1.00  0.00     0.347 HD
BRANCH  75  78
ATOM     78  C   UNL A   1      32.530  15.128  25.370  1.00  0.00     0.399 C 
ATOM     79  F   UNL A   1      32.936  13.867  25.644  1.00  0.00    -0.204 F 
ATOM     80  F   UNL A   1      32.497  15.812  26.540  1.00  0.00    -0.204 F 
ENDBRANCH  75  78
ENDBRANCH  68  71
ENDBRANCH  66  67
ENDBRANCH  65  66
ENDBRANCH  64  65
ENDBRANCH   1  64
TORSDOF 14
ENDMDL
MODEL 3
REMARK VINA RESULT:     -10.4      2.278      7.306
REMARK SMILES O=C(NCCCCCCNC(=O)[C@H]1CC[C@@H](C(F)F)[NH2+]1)c1ccc(-c2c3nc(c(-c4c(F)cccc4F)c4ccc([nH]4)c(-c4c(F)cccc4F)c4nc(c(-c5c(F)cccc5F)c5ccc2[nH]5)C=C4)C=C3)cc1
REMARK SMILES IDX 6 1 5 2 4 3 3 4 1 5 2 6 21 8 22 9 74 10 23 11 73 12 24 13
REMARK SMILES IDX 25 14 26 15 67 16 27 17 72 18 66 19 68 20 28 21 71 22 65 23
REMARK SMILES IDX 64 24 29 26 55 27 38 28 54 29 39 30 42 31 53 32 69 33 40 34
REMARK SMILES IDX 41 35 52 37 70 38 43 39 30 40 31 41 36 42 32 43 33 44 35 45
REMARK SMILES IDX 37 46 34 47 56 48 57 49 62 50 58 51 59 52 61 53 63 54 60 55
REMARK SMILES IDX 44 56 45 57 50 58 46 59 47 60 49 61 51 62 48 63 7 64 8 65
REMARK SMILES IDX 9 66 10 67 11 68 12 70 13 71 14 72 20 73 15 74 16 75 17 78
REMARK SMILES IDX 18 79 19 80
REMARK H PARENT 3 7 68 25 42 36 10 69 20 76 20 77
REMARK Flexibility Score: inf
ROOT
ATOM      1  C   UNL A   1      34.462  34.515  28.042  1.00  0.00     0.002 C 
ENDROOT
BRANCH   1   2
ATOM      2  C   UNL A   1      33.224  35.004  28.793  1.00  0.00     0.021 C 
BRANCH   2   3
ATOM      3  C   UNL A   1      33.458  36.239  29.652  1.00  0.00     0.116 C 
BRANCH   3   4
ATOM      4  N   UNL A   1      32.503  36.339  30.743  1.00  0.00    -0.352 N 
ATOM      5  O   UNL A   1      31.541  35.768  32.704  1.00  0.00    -0.269 OA
ATOM      6  C   UNL A   1      32.527  35.730  31.972  1.00  0.00     0.251 C 
ATOM      7  H   UNL A   1      31.730  36.924  30.576  1.00  0.00     0.163 HD
BRANCH   6   8
ATOM      8  C   UNL A   1      33.739  35.007  32.403  1.00  0.00     0.039 A 
ATOM      9  C   UNL A   1      34.996  35.615  32.331  1.00  0.00     0.014 A 
ATOM     10  C   UNL A   1      33.613  33.704  32.890  1.00  0.00     0.014 A 
ATOM     11  C   UNL A   1      36.139  34.878  32.621  1.00  0.00     0.010 A 
ATOM     12  C   UNL A   1      34.755  32.993  33.260  1.00  0.00     0.010 A 
ATOM     13  C   UNL A   1      36.029  33.564  33.102  1.00  0.00    -0.014 A 
BRANCH  13  14
ATOM     14  C   UNL A   1      37.246  32.809  33.486  1.00  0.00     0.031 A 
ATOM     15  C   UNL A   1      37.966  33.110  34.769  1.00  0.00     0.074 A 
ATOM     16  C   UNL A   1      37.714  31.862  32.652  1.00  0.00     0.049 A 
ATOM     17  N   UNL A   1      39.084  32.605  35.227  1.00  0.00    -0.248 NA
ATOM     18  C   UNL A   1      37.355  34.116  35.650  1.00  0.00     0.031 C 
ATOM     19  C   UNL A   1      37.100  31.482  31.378  1.00  0.00     0.029 A 
ATOM     20  N   UNL A   1      38.818  31.054  32.745  1.00  0.00    -0.354 N 
ATOM     21  C   UNL A   1      39.324  33.246  36.435  1.00  0.00     0.074 A 
ATOM     22  C   UNL A   1      38.249  34.198  36.626  1.00  0.00     0.031 C 
ATOM     23  C   UNL A   1      37.825  30.505  30.816  1.00  0.00     0.029 A 
ATOM     24  C   UNL A   1      38.988  30.238  31.653  1.00  0.00     0.049 A 
ATOM     25  H   UNL A   1      39.428  31.058  33.517  1.00  0.00     0.167 HD
ATOM     26  C   UNL A   1      40.346  33.055  37.304  1.00  0.00     0.037 A 
ATOM     27  C   UNL A   1      39.989  29.394  31.341  1.00  0.00     0.037 A 
ATOM     28  C   UNL A   1      41.412  32.106  37.101  1.00  0.00     0.049 A 
ATOM     29  C   UNL A   1      41.136  29.236  32.295  1.00  0.00     0.074 A 
ATOM     30  C   UNL A   1      42.477  31.813  37.936  1.00  0.00     0.029 A 
ATOM     31  N   UNL A   1      41.556  31.305  35.976  1.00  0.00    -0.354 N 
ATOM     32  N   UNL A   1      41.337  29.822  33.450  1.00  0.00    -0.248 NA
ATOM     33  C   UNL A   1      42.197  28.299  31.903  1.00  0.00     0.031 C 
ATOM     34  C   UNL A   1      43.296  30.881  37.290  1.00  0.00     0.029 A 
ATOM     35  C   UNL A   1      42.707  30.542  36.083  1.00  0.00     0.049 A 
ATOM     36  H   UNL A   1      40.933  31.285  35.214  1.00  0.00     0.167 HD
ATOM     37  C   UNL A   1      42.527  29.304  33.938  1.00  0.00     0.074 A 
ATOM     38  C   UNL A   1      43.002  28.351  32.955  1.00  0.00     0.031 C 
ATOM     39  C   UNL A   1      43.165  29.588  35.101  1.00  0.00     0.037 A 
BRANCH  26  40
ATOM     40  C   UNL A   1      40.377  33.915  38.537  1.00  0.00     0.057 A 
ATOM     41  C   UNL A   1      41.081  35.125  38.586  1.00  0.00     0.134 A 
ATOM     42  C   UNL A   1      39.674  33.533  39.689  1.00  0.00     0.134 A 
ATOM     43  F   UNL A   1      41.783  35.547  37.523  1.00  0.00    -0.206 F 
ATOM     44  C   UNL A   1      41.117  35.904  39.745  1.00  0.00     0.040 A 
ATOM     45  C   UNL A   1      39.677  34.319  40.843  1.00  0.00     0.040 A 
ATOM     46  F   UNL A   1      38.969  32.391  39.711  1.00  0.00    -0.206 F 
ATOM     47  C   UNL A   1      40.409  35.503  40.876  1.00  0.00     0.006 A 
ENDBRANCH  26  40
BRANCH  27  48
ATOM     48  C   UNL A   1      39.938  28.645  30.062  1.00  0.00     0.057 A 
ATOM     49  C   UNL A   1      40.580  29.126  28.916  1.00  0.00     0.134 A 
ATOM     50  C   UNL A   1      39.278  27.413  29.964  1.00  0.00     0.134 A 
ATOM     51  F   UNL A   1      41.218  30.305  28.944  1.00  0.00    -0.206 F 
ATOM     52  C   UNL A   1      40.558  28.415  27.714  1.00  0.00     0.040 A 
ATOM     53  C   UNL A   1      39.272  26.679  28.778  1.00  0.00     0.040 A 
ATOM     54  F   UNL A   1      38.655  26.893  31.031  1.00  0.00    -0.206 F 
ATOM     55  C   UNL A   1      39.909  27.183  27.647  1.00  0.00     0.006 A 
ENDBRANCH  27  48
BRANCH  39  56
ATOM     56  C   UNL A   1      44.420  28.822  35.405  1.00  0.00     0.057 A 
ATOM     57  C   UNL A   1      44.401  27.604  36.095  1.00  0.00     0.134 A 
ATOM     58  C   UNL A   1      45.660  29.290  34.951  1.00  0.00     0.134 A 
ATOM     59  F   UNL A   1      43.249  27.107  36.570  1.00  0.00    -0.206 F 
ATOM     60  C   UNL A   1      45.576  26.887  36.337  1.00  0.00     0.040 A 
ATOM     61  C   UNL A   1      46.835  28.569  35.161  1.00  0.00     0.040 A 
ATOM     62  F   UNL A   1      45.747  30.446  34.277  1.00  0.00    -0.206 F 
ATOM     63  C   UNL A   1      46.796  27.364  35.862  1.00  0.00     0.006 A 
ENDBRANCH  39  56
ENDBRANCH  13  14
ENDBRANCH   6   8
ENDBRANCH   3   4
ENDBRANCH   2   3
ENDBRANCH   1   2
BRANCH   1  64
ATOM     64  C   UNL A   1      35.304  33.483  28.796  1.00  0.00     0.002 C 
BRANCH  64  65
ATOM     65  C   UNL A   1      34.647  32.106  28.968  1.00  0.00     0.021 C 
BRANCH  65  66
ATOM     66  C   UNL A   1      34.424  31.350  27.661  1.00  0.00     0.116 C 
BRANCH  66  67
ATOM     67  N   UNL A   1      33.265  30.491  27.761  1.00  0.00    -0.351 N 
ATOM     68  C   UNL A   1      32.820  29.537  26.895  1.00  0.00     0.278 C 
ATOM     69  H   UNL A   1      32.721  30.611  28.572  1.00  0.00     0.163 HD
ATOM     70  O   UNL A   1      31.671  29.128  27.065  1.00  0.00    -0.268 OA
BRANCH  68  71
ATOM     71  C   UNL A   1      33.766  29.042  25.777  1.00  0.00     0.273 C 
ATOM     72  C   UNL A   1      33.704  27.533  25.591  1.00  0.00     0.082 C 
ATOM     73  N   UNL A   1      33.360  29.572  24.456  1.00  0.00    -0.329 N 
ATOM     74  C   UNL A   1      32.471  27.345  24.728  1.00  0.00     0.078 C 
ATOM     75  C   UNL A   1      32.456  28.573  23.821  1.00  0.00     0.251 C 
ATOM     76  H   UNL A   1      34.184  29.715  23.872  1.00  0.00     0.347 HD
ATOM     77  H   UNL A   1      32.881  30.466  24.564  1.00  0.00     0.347 HD
BRANCH  75  78
ATOM     78  C   UNL A   1      31.018  29.034  23.503  1.00  0.00     0.399 C 
ATOM     79  F   UNL A   1      30.706  28.864  22.199  1.00  0.00    -0.204 F 
ATOM     80  F   UNL A   1      30.120  28.330  24.235  1.00  0.00    -0.204 F 
ENDBRANCH  75  78
ENDBRANCH  68  71
ENDBRANCH  66  67
ENDBRANCH  65  66
ENDBRANCH  64  65
ENDBRANCH   1  64
TORSDOF 14
ENDMDL
