MODEL 1
REMARK VINA RESULT:      -9.2      0.000      0.000
REMARK SMILES COCCCOc1cccc(F)c1C(=O)NCCCCCCNC(=O)c1ccc(-c2c3nc(c(-c4c(F)cccc4F)c4ccc([nH]4)c(-c4c(F)cccc4F)c4nc(c(-c5c(F)cccc5F)c5ccc2[nH]5)C=C4)C=C3)cc1
REMARK SMILES IDX 18 1 17 2 16 3 14 4 15 5 13 7 7 8 8 9 9 10 11 11 10 12 12 13
REMARK SMILES IDX 6 14 5 15 4 16 3 17 2 18 1 19 19 20 20 21 21 22 22 23 23 24
REMARK SMILES IDX 24 25 25 27 26 28 27 29 79 30 28 31 78 32 29 33 30 34 31 35
REMARK SMILES IDX 72 36 32 37 77 38 71 39 73 40 33 41 76 42 70 43 69 44 34 46
REMARK SMILES IDX 60 47 43 48 59 49 44 50 47 51 58 52 74 53 45 54 46 55 57 57
REMARK SMILES IDX 75 58 48 59 35 60 36 61 41 62 37 63 38 64 40 65 42 66 39 67
REMARK SMILES IDX 61 68 62 69 67 70 63 71 64 72 66 73 68 74 65 75 49 76 50 77
REMARK SMILES IDX 55 78 51 79 52 80 54 81 56 82 53 83
REMARK H PARENT 16 6 23 26 73 45 47 56
REMARK Flexibility Score: inf
ROOT
ATOM      1  C   UNL A   1      34.812  34.262  33.896  1.00  0.00     0.021 C 
ENDROOT
BRANCH   1   2
ATOM      2  C   UNL A   1      35.764  34.020  35.063  1.00  0.00     0.116 C 
BRANCH   2   3
ATOM      3  N   UNL A   1      36.880  33.141  34.758  1.00  0.00    -0.352 N 
ATOM      4  C   UNL A   1      37.966  32.783  35.532  1.00  0.00     0.258 C 
ATOM      5  O   UNL A   1      38.735  31.929  35.092  1.00  0.00    -0.269 OA
ATOM      6  H   UNL A   1      36.857  32.738  33.861  1.00  0.00     0.163 HD
BRANCH   4   7
ATOM      7  C   UNL A   1      38.227  33.431  36.843  1.00  0.00     0.117 A 
ATOM      8  C   UNL A   1      37.912  32.805  38.058  1.00  0.00     0.135 A 
ATOM      9  C   UNL A   1      38.424  33.304  39.264  1.00  0.00     0.047 A 
ATOM     10  C   UNL A   1      39.104  34.518  39.291  1.00  0.00     0.007 A 
ATOM     11  C   UNL A   1      38.822  34.692  36.902  1.00  0.00     0.139 A 
ATOM     12  C   UNL A   1      39.262  35.236  38.110  1.00  0.00     0.040 A 
ATOM     13  F   UNL A   1      38.994  35.425  35.791  1.00  0.00    -0.206 F 
BRANCH   8  14
ATOM     14  O   UNL A   1      37.126  31.690  38.176  1.00  0.00    -0.493 OA
BRANCH  14  15
ATOM     15  C   UNL A   1      36.841  31.365  39.555  1.00  0.00     0.232 C 
BRANCH  15  16
ATOM     16  C   UNL A   1      35.390  31.642  39.969  1.00  0.00     0.070 C 
BRANCH  16  17
ATOM     17  C   UNL A   1      35.180  32.765  40.993  1.00  0.00     0.163 C 
BRANCH  17  18
ATOM     18  O   UNL A   1      34.100  32.523  41.891  1.00  0.00    -0.385 OA
ATOM     19  C   UNL A   1      33.322  33.670  42.206  1.00  0.00     0.194 C 
ENDBRANCH  17  18
ENDBRANCH  16  17
ENDBRANCH  15  16
ENDBRANCH  14  15
ENDBRANCH   8  14
ENDBRANCH   4   7
ENDBRANCH   2   3
ENDBRANCH   1   2
BRANCH   1  20
ATOM     20  C   UNL A   1      34.990  35.568  33.119  1.00  0.00     0.002 C 
BRANCH  20  21
ATOM     21  C   UNL A   1      33.825  36.561  33.158  1.00  0.00     0.002 C 
BRANCH  21  22
ATOM     22  C   UNL A   1      32.830  36.508  31.994  1.00  0.00     0.021 C 
BRANCH  22  23
ATOM     23  C   UNL A   1      33.408  36.674  30.591  1.00  0.00     0.116 C 
BRANCH  23  24
ATOM     24  N   UNL A   1      32.748  35.848  29.597  1.00  0.00    -0.352 N 
ATOM     25  C   UNL A   1      33.163  34.694  28.981  1.00  0.00     0.251 C 
ATOM     26  H   UNL A   1      31.859  36.167  29.320  1.00  0.00     0.163 HD
ATOM     27  O   UNL A   1      32.477  34.218  28.075  1.00  0.00    -0.269 OA
BRANCH  25  28
ATOM     28  C   UNL A   1      34.430  34.022  29.359  1.00  0.00     0.039 A 
ATOM     29  C   UNL A   1      35.573  34.294  28.599  1.00  0.00     0.014 A 
ATOM     30  C   UNL A   1      34.502  33.097  30.405  1.00  0.00     0.014 A 
ATOM     31  C   UNL A   1      36.789  33.684  28.917  1.00  0.00     0.010 A 
ATOM     32  C   UNL A   1      35.733  32.536  30.762  1.00  0.00     0.010 A 
ATOM     33  C   UNL A   1      36.889  32.821  30.021  1.00  0.00    -0.014 A 
BRANCH  33  34
ATOM     34  C   UNL A   1      38.199  32.229  30.400  1.00  0.00     0.031 A 
ATOM     35  C   UNL A   1      38.648  30.914  29.822  1.00  0.00     0.074 A 
ATOM     36  C   UNL A   1      38.990  32.879  31.278  1.00  0.00     0.049 A 
ATOM     37  N   UNL A   1      39.765  30.260  30.029  1.00  0.00    -0.248 NA
ATOM     38  C   UNL A   1      37.719  30.236  28.905  1.00  0.00     0.031 C 
ATOM     39  C   UNL A   1      38.659  34.143  31.936  1.00  0.00     0.029 A 
ATOM     40  N   UNL A   1      40.240  32.573  31.758  1.00  0.00    -0.354 N 
ATOM     41  C   UNL A   1      39.673  29.101  29.270  1.00  0.00     0.074 A 
ATOM     42  C   UNL A   1      38.372  29.113  28.638  1.00  0.00     0.031 C 
ATOM     43  C   UNL A   1      39.694  34.527  32.699  1.00  0.00     0.029 A 
ATOM     44  C   UNL A   1      40.750  33.522  32.611  1.00  0.00     0.049 A 
ATOM     45  H   UNL A   1      40.725  31.752  31.515  1.00  0.00     0.167 HD
ATOM     46  C   UNL A   1      40.600  28.130  29.091  1.00  0.00     0.037 A 
ATOM     47  C   UNL A   1      41.937  33.584  33.245  1.00  0.00     0.037 A 
ATOM     48  C   UNL A   1      41.905  28.127  29.700  1.00  0.00     0.049 A 
ATOM     49  C   UNL A   1      42.941  32.485  33.039  1.00  0.00     0.074 A 
ATOM     50  C   UNL A   1      42.922  27.200  29.550  1.00  0.00     0.029 A 
ATOM     51  N   UNL A   1      42.375  29.099  30.570  1.00  0.00    -0.354 N 
ATOM     52  N   UNL A   1      42.854  31.418  32.284  1.00  0.00    -0.248 NA
ATOM     53  C   UNL A   1      44.211  32.601  33.772  1.00  0.00     0.031 C 
ATOM     54  C   UNL A   1      43.995  27.592  30.356  1.00  0.00     0.029 A 
ATOM     55  C   UNL A   1      43.663  28.786  30.974  1.00  0.00     0.049 A 
ATOM     56  H   UNL A   1      41.870  29.893  30.857  1.00  0.00     0.167 HD
ATOM     57  C   UNL A   1      44.062  30.749  32.431  1.00  0.00     0.074 A 
ATOM     58  C   UNL A   1      44.873  31.539  33.334  1.00  0.00     0.031 C 
ATOM     59  C   UNL A   1      44.462  29.582  31.869  1.00  0.00     0.037 A 
BRANCH  46  60
ATOM     60  C   UNL A   1      40.254  26.991  28.178  1.00  0.00     0.057 A 
ATOM     61  C   UNL A   1      39.461  25.926  28.624  1.00  0.00     0.134 A 
ATOM     62  C   UNL A   1      40.780  26.908  26.883  1.00  0.00     0.134 A 
ATOM     63  F   UNL A   1      38.933  25.939  29.856  1.00  0.00    -0.206 F 
ATOM     64  C   UNL A   1      39.215  24.813  27.818  1.00  0.00     0.040 A 
ATOM     65  C   UNL A   1      40.522  25.810  26.060  1.00  0.00     0.040 A 
ATOM     66  F   UNL A   1      41.540  27.899  26.392  1.00  0.00    -0.206 F 
ATOM     67  C   UNL A   1      39.747  24.753  26.532  1.00  0.00     0.006 A 
ENDBRANCH  46  60
BRANCH  47  68
ATOM     68  C   UNL A   1      42.260  34.752  34.102  1.00  0.00     0.057 A 
ATOM     69  C   UNL A   1      42.716  35.958  33.559  1.00  0.00     0.134 A 
ATOM     70  C   UNL A   1      42.121  34.682  35.494  1.00  0.00     0.134 A 
ATOM     71  F   UNL A   1      42.875  36.087  32.233  1.00  0.00    -0.206 F 
ATOM     72  C   UNL A   1      43.032  37.050  34.368  1.00  0.00     0.040 A 
ATOM     73  C   UNL A   1      42.411  35.774  36.313  1.00  0.00     0.040 A 
ATOM     74  F   UNL A   1      41.670  33.560  36.071  1.00  0.00    -0.206 F 
ATOM     75  C   UNL A   1      42.875  36.961  35.751  1.00  0.00     0.006 A 
ENDBRANCH  47  68
BRANCH  59  76
ATOM     76  C   UNL A   1      45.842  29.094  32.196  1.00  0.00     0.057 A 
ATOM     77  C   UNL A   1      46.922  29.392  31.356  1.00  0.00     0.134 A 
ATOM     78  C   UNL A   1      46.091  28.283  33.310  1.00  0.00     0.134 A 
ATOM     79  F   UNL A   1      46.749  30.155  30.267  1.00  0.00    -0.206 F 
ATOM     80  C   UNL A   1      48.201  28.893  31.608  1.00  0.00     0.040 A 
ATOM     81  C   UNL A   1      47.371  27.799  33.586  1.00  0.00     0.040 A 
ATOM     82  F   UNL A   1      45.101  27.970  34.159  1.00  0.00    -0.206 F 
ATOM     83  C   UNL A   1      48.429  28.097  32.730  1.00  0.00     0.006 A 
ENDBRANCH  59  76
ENDBRANCH  33  34
ENDBRANCH  25  28
ENDBRANCH  23  24
ENDBRANCH  22  23
ENDBRANCH  21  22
ENDBRANCH  20  21
ENDBRANCH   1  20
TORSDOF 18
ENDMDL
MODEL 2
REMARK VINA RESULT:      -9.1      6.284     12.727
REMARK SMILES COCCCOc1cccc(F)c1C(=O)NCCCCCCNC(=O)c1ccc(-c2c3nc(c(-c4c(F)cccc4F)c4ccc([nH]4)c(-c4c(F)cccc4F)c4nc(c(-c5c(F)cccc5F)c5ccc2[nH]5)C=C4)C=C3)cc1
REMARK SMILES IDX 18 1 17 2 16 3 14 4 15 5 13 7 7 8 8 9 9 10 11 11 10 12 12 13
REMARK SMILES IDX 6 14 5 15 4 16 3 17 2 18 1 19 19 20 20 21 21 22 22 23 23 24
REMARK SMILES IDX 24 25 25 27 26 28 27 29 79 30 28 31 78 32 29 33 30 34 31 35
REMARK SMILES IDX 72 36 32 37 77 38 71 39 73 40 33 41 76 42 70 43 69 44 34 46
REMARK SMILES IDX 60 47 43 48 59 49 44 50 47 51 58 52 74 53 45 54 46 55 57 57
REMARK SMILES IDX 75 58 48 59 35 60 36 61 41 62 37 63 38 64 40 65 42 66 39 67
REMARK SMILES IDX 61 68 62 69 67 70 63 71 64 72 66 73 68 74 65 75 49 76 50 77
REMARK SMILES IDX 55 78 51 79 52 80 54 81 56 82 53 83
REMARK H PARENT 16 6 23 26 73 45 47 56
REMARK Flexibility Score: inf
ROOT
ATOM      1  C   UNL A   1      36.954  23.067  24.685  1.00  0.00     0.021 C 
ENDROOT
BRANCH   1   2
ATOM      2  C   UNL A   1      36.172  23.821  25.756  1.00  0.00     0.116 C 
BRANCH   2   3
ATOM      3  N   UNL A   1      35.522  22.971  26.739  1.00  0.00    -0.352 N 
ATOM      4  C   UNL A   1      34.354  22.240  26.648  1.00  0.00     0.258 C 
ATOM      5  O   UNL A   1      34.057  21.502  27.586  1.00  0.00    -0.269 OA
ATOM      6  H   UNL A   1      35.986  22.907  27.603  1.00  0.00     0.163 HD
BRANCH   4   7
ATOM      7  C   UNL A   1      33.457  22.362  25.469  1.00  0.00     0.117 A 
ATOM      8  C   UNL A   1      33.364  21.353  24.499  1.00  0.00     0.135 A 
ATOM      9  C   UNL A   1      32.316  21.363  23.568  1.00  0.00     0.047 A 
ATOM     10  C   UNL A   1      31.461  22.457  23.484  1.00  0.00     0.007 A 
ATOM     11  C   UNL A   1      32.655  23.492  25.306  1.00  0.00     0.139 A 
ATOM     12  C   UNL A   1      31.661  23.545  24.327  1.00  0.00     0.040 A 
ATOM     13  F   UNL A   1      32.813  24.568  26.092  1.00  0.00    -0.206 F 
BRANCH   8  14
ATOM     14  O   UNL A   1      34.235  20.304  24.383  1.00  0.00    -0.493 OA
BRANCH  14  15
ATOM     15  C   UNL A   1      33.611  19.036  24.687  1.00  0.00     0.232 C 
BRANCH  15  16
ATOM     16  C   UNL A   1      34.435  17.819  24.250  1.00  0.00     0.070 C 
BRANCH  16  17
ATOM     17  C   UNL A   1      33.640  16.585  23.808  1.00  0.00     0.163 C 
BRANCH  17  18
ATOM     18  O   UNL A   1      33.813  15.457  24.663  1.00  0.00    -0.385 OA
ATOM     19  C   UNL A   1      32.649  15.069  25.377  1.00  0.00     0.194 C 
ENDBRANCH  17  18
ENDBRANCH  16  17
ENDBRANCH  15  16
ENDBRANCH  14  15
ENDBRANCH   8  14
ENDBRANCH   4   7
ENDBRANCH   2   3
ENDBRANCH   1   2
BRANCH   1  20
ATOM     20  C   UNL A   1      37.831  21.906  25.159  1.00  0.00     0.002 C 
BRANCH  20  21
ATOM     21  C   UNL A   1      37.375  20.495  24.784  1.00  0.00     0.002 C 
BRANCH  21  22
ATOM     22  C   UNL A   1      38.383  19.361  24.993  1.00  0.00     0.021 C 
BRANCH  22  23
ATOM     23  C   UNL A   1      39.387  19.539  26.130  1.00  0.00     0.116 C 
BRANCH  23  24
ATOM     24  N   UNL A   1      40.670  18.914  25.866  1.00  0.00    -0.352 N 
ATOM     25  C   UNL A   1      41.938  19.435  25.902  1.00  0.00     0.251 C 
ATOM     26  H   UNL A   1      40.622  17.961  25.622  1.00  0.00     0.163 HD
ATOM     27  O   UNL A   1      42.883  18.739  25.528  1.00  0.00    -0.269 OA
BRANCH  25  28
ATOM     28  C   UNL A   1      42.196  20.824  26.352  1.00  0.00     0.039 A 
ATOM     29  C   UNL A   1      42.220  21.078  27.729  1.00  0.00     0.014 A 
ATOM     30  C   UNL A   1      42.363  21.883  25.455  1.00  0.00     0.014 A 
ATOM     31  C   UNL A   1      42.460  22.371  28.201  1.00  0.00     0.010 A 
ATOM     32  C   UNL A   1      42.666  23.164  25.928  1.00  0.00     0.010 A 
ATOM     33  C   UNL A   1      42.715  23.422  27.305  1.00  0.00    -0.014 A 
BRANCH  33  34
ATOM     34  C   UNL A   1      43.040  24.782  27.812  1.00  0.00     0.031 A 
ATOM     35  C   UNL A   1      44.468  25.217  27.994  1.00  0.00     0.074 A 
ATOM     36  C   UNL A   1      42.037  25.632  28.117  1.00  0.00     0.049 A 
ATOM     37  N   UNL A   1      44.933  26.370  28.409  1.00  0.00    -0.248 NA
ATOM     38  C   UNL A   1      45.512  24.228  27.685  1.00  0.00     0.031 C 
ATOM     39  C   UNL A   1      40.610  25.323  28.018  1.00  0.00     0.029 A 
ATOM     40  N   UNL A   1      42.065  26.931  28.559  1.00  0.00    -0.354 N 
ATOM     41  C   UNL A   1      46.316  26.245  28.408  1.00  0.00     0.074 A 
ATOM     42  C   UNL A   1      46.617  24.889  28.003  1.00  0.00     0.031 C 
ATOM     43  C   UNL A   1      39.900  26.414  28.347  1.00  0.00     0.029 A 
ATOM     44  C   UNL A   1      40.817  27.489  28.710  1.00  0.00     0.049 A 
ATOM     45  H   UNL A   1      42.899  27.418  28.751  1.00  0.00     0.167 HD
ATOM     46  C   UNL A   1      47.252  27.183  28.690  1.00  0.00     0.037 A 
ATOM     47  C   UNL A   1      40.452  28.729  29.089  1.00  0.00     0.037 A 
ATOM     48  C   UNL A   1      46.956  28.539  29.072  1.00  0.00     0.049 A 
ATOM     49  C   UNL A   1      41.511  29.745  29.410  1.00  0.00     0.074 A 
ATOM     50  C   UNL A   1      47.841  29.569  29.345  1.00  0.00     0.029 A 
ATOM     51  N   UNL A   1      45.680  29.059  29.229  1.00  0.00    -0.354 N 
ATOM     52  N   UNL A   1      42.815  29.622  29.363  1.00  0.00    -0.248 NA
ATOM     53  C   UNL A   1      41.048  31.075  29.834  1.00  0.00     0.031 C 
ATOM     54  C   UNL A   1      47.102  30.700  29.702  1.00  0.00     0.029 A 
ATOM     55  C   UNL A   1      45.756  30.389  29.608  1.00  0.00     0.049 A 
ATOM     56  H   UNL A   1      44.845  28.557  29.090  1.00  0.00     0.167 HD
ATOM     57  C   UNL A   1      43.327  30.860  29.727  1.00  0.00     0.074 A 
ATOM     58  C   UNL A   1      42.194  31.727  29.976  1.00  0.00     0.031 C 
ATOM     59  C   UNL A   1      44.622  31.243  29.847  1.00  0.00     0.037 A 
BRANCH  46  60
ATOM     60  C   UNL A   1      48.695  26.789  28.576  1.00  0.00     0.057 A 
ATOM     61  C   UNL A   1      49.391  26.277  29.678  1.00  0.00     0.134 A 
ATOM     62  C   UNL A   1      49.417  26.999  27.395  1.00  0.00     0.134 A 
ATOM     63  F   UNL A   1      48.761  26.059  30.842  1.00  0.00    -0.206 F 
ATOM     64  C   UNL A   1      50.758  26.002  29.613  1.00  0.00     0.040 A 
ATOM     65  C   UNL A   1      50.780  26.706  27.311  1.00  0.00     0.040 A 
ATOM     66  F   UNL A   1      48.807  27.479  26.301  1.00  0.00    -0.206 F 
ATOM     67  C   UNL A   1      51.456  26.216  28.426  1.00  0.00     0.006 A 
ENDBRANCH  46  60
BRANCH  47  68
ATOM     68  C   UNL A   1      39.014  29.093  29.144  1.00  0.00     0.057 A 
ATOM     69  C   UNL A   1      38.274  28.989  30.327  1.00  0.00     0.134 A 
ATOM     70  C   UNL A   1      38.345  29.553  28.003  1.00  0.00     0.134 A 
ATOM     71  F   UNL A   1      38.856  28.549  31.453  1.00  0.00    -0.206 F 
ATOM     72  C   UNL A   1      36.919  29.319  30.373  1.00  0.00     0.040 A 
ATOM     73  C   UNL A   1      36.996  29.909  28.039  1.00  0.00     0.040 A 
ATOM     74  F   UNL A   1      39.005  29.692  26.844  1.00  0.00    -0.206 F 
ATOM     75  C   UNL A   1      36.277  29.785  29.226  1.00  0.00     0.006 A 
ENDBRANCH  47  68
BRANCH  59  76
ATOM     76  C   UNL A   1      44.889  32.664  30.247  1.00  0.00     0.057 A 
ATOM     77  C   UNL A   1      45.085  33.002  31.592  1.00  0.00     0.134 A 
ATOM     78  C   UNL A   1      44.895  33.704  29.309  1.00  0.00     0.134 A 
ATOM     79  F   UNL A   1      45.080  32.055  32.541  1.00  0.00    -0.206 F 
ATOM     80  C   UNL A   1      45.270  34.327  31.991  1.00  0.00     0.040 A 
ATOM     81  C   UNL A   1      45.105  35.029  29.693  1.00  0.00     0.040 A 
ATOM     82  F   UNL A   1      44.724  33.443  28.004  1.00  0.00    -0.206 F 
ATOM     83  C   UNL A   1      45.285  35.345  31.039  1.00  0.00     0.006 A 
ENDBRANCH  59  76
ENDBRANCH  33  34
ENDBRANCH  25  28
ENDBRANCH  23  24
ENDBRANCH  22  23
ENDBRANCH  21  22
ENDBRANCH  20  21
ENDBRANCH   1  20
TORSDOF 18
ENDMDL
MODEL 3
REMARK VINA RESULT:      -9.0      0.512      6.283
REMARK SMILES COCCCOc1cccc(F)c1C(=O)NCCCCCCNC(=O)c1ccc(-c2c3nc(c(-c4c(F)cccc4F)c4ccc([nH]4)c(-c4c(F)cccc4F)c4nc(c(-c5c(F)cccc5F)c5ccc2[nH]5)C=C4)C=C3)cc1
REMARK SMILES IDX 18 1 17 2 16 3 14 4 15 5 13 7 7 8 8 9 9 10 11 11 10 12 12 13
REMARK SMILES IDX 6 14 5 15 4 16 3 17 2 18 1 19 19 20 20 21 21 22 22 23 23 24
REMARK SMILES IDX 24 25 25 27 26 28 27 29 79 30 28 31 78 32 29 33 30 34 31 35
REMARK SMILES IDX 72 36 32 37 77 38 71 39 73 40 33 41 76 42 70 43 69 44 34 46
REMARK SMILES IDX 60 47 43 48 59 49 44 50 47 51 58 52 74 53 45 54 46 55 57 57
REMARK SMILES IDX 75 58 48 59 35 60 36 61 41 62 37 63 38 64 40 65 42 66 39 67
REMARK SMILES IDX 61 68 62 69 67 70 63 71 64 72 66 73 68 74 65 75 49 76 50 77
REMARK SMILES IDX 55 78 51 79 52 80 54 81 56 82 53 83
REMARK H PARENT 16 6 23 26 73 45 47 56
REMARK Flexibility Score: inf
ROOT
ATOM      1  C   UNL A   1      34.790  34.282  33.740  1.00  0.00     0.021 C 
ENDROOT
BRANCH   1   2
ATOM      2  C   UNL A   1      35.690  33.956  34.928  1.00  0.00     0.116 C 
BRANCH   2   3
ATOM      3  N   UNL A   1      36.844  33.135  34.601  1.00  0.00    -0.352 N 
ATOM      4  C   UNL A   1      37.966  32.841  35.351  1.00  0.00     0.258 C 
ATOM      5  O   UNL A   1      38.769  32.026  34.897  1.00  0.00    -0.269 OA
ATOM      6  H   UNL A   1      36.823  32.726  33.707  1.00  0.00     0.163 HD
BRANCH   4   7
ATOM      7  C   UNL A   1      38.223  33.510  36.652  1.00  0.00     0.117 A 
ATOM      8  C   UNL A   1      37.883  32.912  37.875  1.00  0.00     0.135 A 
ATOM      9  C   UNL A   1      38.389  33.426  39.077  1.00  0.00     0.047 A 
ATOM     10  C   UNL A   1      39.089  34.629  39.089  1.00  0.00     0.007 A 
ATOM     11  C   UNL A   1      38.838  34.762  36.694  1.00  0.00     0.139 A 
ATOM     12  C   UNL A   1      39.273  35.321  37.896  1.00  0.00     0.040 A 
ATOM     13  F   UNL A   1      39.035  35.470  35.571  1.00  0.00    -0.206 F 
BRANCH   8  14
ATOM     14  O   UNL A   1      37.077  31.814  38.006  1.00  0.00    -0.493 OA
BRANCH  14  15
ATOM     15  C   UNL A   1      36.981  31.364  39.375  1.00  0.00     0.232 C 
BRANCH  15  16
ATOM     16  C   UNL A   1      35.556  31.404  39.942  1.00  0.00     0.070 C 
BRANCH  16  17
ATOM     17  C   UNL A   1      35.183  32.654  40.749  1.00  0.00     0.163 C 
BRANCH  17  18
ATOM     18  O   UNL A   1      35.756  32.683  42.054  1.00  0.00    -0.385 OA
ATOM     19  C   UNL A   1      36.584  33.807  42.315  1.00  0.00     0.194 C 
ENDBRANCH  17  18
ENDBRANCH  16  17
ENDBRANCH  15  16
ENDBRANCH  14  15
ENDBRANCH   8  14
ENDBRANCH   4   7
ENDBRANCH   2   3
ENDBRANCH   1   2
BRANCH   1  20
ATOM     20  C   UNL A   1      35.047  35.609  33.023  1.00  0.00     0.002 C 
BRANCH  20  21
ATOM     21  C   UNL A   1      33.908  36.630  33.026  1.00  0.00     0.002 C 
BRANCH  21  22
ATOM     22  C   UNL A   1      32.870  36.517  31.905  1.00  0.00     0.021 C 
BRANCH  22  23
ATOM     23  C   UNL A   1      33.396  36.619  30.475  1.00  0.00     0.116 C 
BRANCH  23  24
ATOM     24  N   UNL A   1      32.746  35.700  29.558  1.00  0.00    -0.352 N 
ATOM     25  C   UNL A   1      33.215  34.558  28.960  1.00  0.00     0.251 C 
ATOM     26  H   UNL A   1      31.817  35.935  29.328  1.00  0.00     0.163 HD
ATOM     27  O   UNL A   1      32.516  33.990  28.120  1.00  0.00    -0.269 OA
BRANCH  25  28
ATOM     28  C   UNL A   1      34.554  34.006  29.279  1.00  0.00     0.039 A 
ATOM     29  C   UNL A   1      34.656  33.094  30.336  1.00  0.00     0.014 A 
ATOM     30  C   UNL A   1      35.709  34.404  28.599  1.00  0.00     0.014 A 
ATOM     31  C   UNL A   1      35.897  32.547  30.674  1.00  0.00     0.010 A 
ATOM     32  C   UNL A   1      36.939  33.809  28.896  1.00  0.00     0.010 A 
ATOM     33  C   UNL A   1      37.047  32.876  29.938  1.00  0.00    -0.014 A 
BRANCH  33  34
ATOM     34  C   UNL A   1      38.353  32.239  30.254  1.00  0.00     0.031 A 
ATOM     35  C   UNL A   1      39.321  32.892  31.202  1.00  0.00     0.074 A 
ATOM     36  C   UNL A   1      38.673  31.064  29.675  1.00  0.00     0.049 A 
ATOM     37  N   UNL A   1      40.495  32.470  31.603  1.00  0.00    -0.248 NA
ATOM     38  C   UNL A   1      38.930  34.194  31.764  1.00  0.00     0.031 C 
ATOM     39  C   UNL A   1      37.839  30.342  28.712  1.00  0.00     0.029 A 
ATOM     40  N   UNL A   1      39.778  30.262  29.821  1.00  0.00    -0.354 N 
ATOM     41  C   UNL A   1      40.979  33.449  32.461  1.00  0.00     0.074 A 
ATOM     42  C   UNL A   1      39.998  34.512  32.484  1.00  0.00     0.031 C 
ATOM     43  C   UNL A   1      38.440  29.187  28.388  1.00  0.00     0.029 A 
ATOM     44  C   UNL A   1      39.716  29.098  29.092  1.00  0.00     0.049 A 
ATOM     45  H   UNL A   1      40.544  30.498  30.394  1.00  0.00     0.167 HD
ATOM     46  C   UNL A   1      42.123  33.450  33.187  1.00  0.00     0.037 A 
ATOM     47  C   UNL A   1      40.582  28.070  29.006  1.00  0.00     0.037 A 
ATOM     48  C   UNL A   1      43.090  32.383  33.183  1.00  0.00     0.049 A 
ATOM     49  C   UNL A   1      41.850  28.104  29.813  1.00  0.00     0.074 A 
ATOM     50  C   UNL A   1      44.262  32.283  33.914  1.00  0.00     0.029 A 
ATOM     51  N   UNL A   1      42.996  31.230  32.419  1.00  0.00    -0.354 N 
ATOM     52  N   UNL A   1      42.271  29.018  30.651  1.00  0.00    -0.248 NA
ATOM     53  C   UNL A   1      42.762  26.960  29.663  1.00  0.00     0.031 C 
ATOM     54  C   UNL A   1      44.896  31.087  33.564  1.00  0.00     0.029 A 
ATOM     55  C   UNL A   1      44.097  30.421  32.650  1.00  0.00     0.049 A 
ATOM     56  H   UNL A   1      42.258  31.019  31.805  1.00  0.00     0.167 HD
ATOM     57  C   UNL A   1      43.481  28.552  31.146  1.00  0.00     0.074 A 
ATOM     58  C   UNL A   1      43.720  27.264  30.527  1.00  0.00     0.031 C 
ATOM     59  C   UNL A   1      44.321  29.140  32.033  1.00  0.00     0.037 A 
BRANCH  46  60
ATOM     60  C   UNL A   1      42.389  34.631  34.073  1.00  0.00     0.057 A 
ATOM     61  C   UNL A   1      42.166  34.560  35.453  1.00  0.00     0.134 A 
ATOM     62  C   UNL A   1      42.784  35.865  33.543  1.00  0.00     0.134 A 
ATOM     63  F   UNL A   1      41.779  33.410  36.024  1.00  0.00    -0.206 F 
ATOM     64  C   UNL A   1      42.314  35.681  36.274  1.00  0.00     0.040 A 
ATOM     65  C   UNL A   1      42.957  36.987  34.357  1.00  0.00     0.040 A 
ATOM     66  F   UNL A   1      43.023  35.997  32.230  1.00  0.00    -0.206 F 
ATOM     67  C   UNL A   1      42.710  36.898  35.725  1.00  0.00     0.006 A 
ENDBRANCH  46  60
BRANCH  47  68
ATOM     68  C   UNL A   1      40.259  26.898  28.155  1.00  0.00     0.057 A 
ATOM     69  C   UNL A   1      39.424  25.869  28.608  1.00  0.00     0.134 A 
ATOM     70  C   UNL A   1      40.785  26.781  26.863  1.00  0.00     0.134 A 
ATOM     71  F   UNL A   1      38.893  25.920  29.838  1.00  0.00    -0.206 F 
ATOM     72  C   UNL A   1      39.134  24.761  27.810  1.00  0.00     0.040 A 
ATOM     73  C   UNL A   1      40.484  25.691  26.046  1.00  0.00     0.040 A 
ATOM     74  F   UNL A   1      41.575  27.744  26.367  1.00  0.00    -0.206 F 
ATOM     75  C   UNL A   1      39.661  24.672  26.523  1.00  0.00     0.006 A 
ENDBRANCH  47  68
BRANCH  59  76
ATOM     76  C   UNL A   1      45.568  28.394  32.404  1.00  0.00     0.057 A 
ATOM     77  C   UNL A   1      46.746  28.560  31.665  1.00  0.00     0.134 A 
ATOM     78  C   UNL A   1      45.588  27.470  33.456  1.00  0.00     0.134 A 
ATOM     79  F   UNL A   1      46.791  29.421  30.638  1.00  0.00    -0.206 F 
ATOM     80  C   UNL A   1      47.898  27.827  31.954  1.00  0.00     0.040 A 
ATOM     81  C   UNL A   1      46.740  26.750  33.771  1.00  0.00     0.040 A 
ATOM     82  F   UNL A   1      44.494  27.274  34.209  1.00  0.00    -0.206 F 
ATOM     83  C   UNL A   1      47.898  26.921  33.014  1.00  0.00     0.006 A 
ENDBRANCH  59  76
ENDBRANCH  33  34
ENDBRANCH  25  28
ENDBRANCH  23  24
ENDBRANCH  22  23
ENDBRANCH  21  22
ENDBRANCH  20  21
ENDBRANCH   1  20
TORSDOF 18
ENDMDL
