MODEL 1
REMARK VINA RESULT:     -11.3      0.000      0.000
REMARK SMILES O=C(NCCCCCCNC(=O)c1cc2ncoc2cn1)c1ccc(-c2c3nc(c(-c4c(F)cccc4F)c4ccc([nH]4)c(-c4c(F)cccc4F)c4nc(c(-c5c(F)cccc5F)c5ccc2[nH]5)C=C4)C=C3)cc1
REMARK SMILES IDX 5 1 4 2 3 3 1 4 2 5 22 7 23 8 75 9 24 10 74 11 25 12 26 13
REMARK SMILES IDX 27 14 68 15 28 16 73 17 67 18 69 19 29 20 72 21 66 22 65 23
REMARK SMILES IDX 30 25 56 26 39 27 55 28 40 29 43 30 54 31 70 32 41 33 42 34
REMARK SMILES IDX 53 36 71 37 44 38 31 39 32 40 37 41 33 42 34 43 36 44 38 45
REMARK SMILES IDX 35 46 57 47 58 48 63 49 59 50 60 51 62 52 64 53 61 54 45 55
REMARK SMILES IDX 46 56 51 57 47 58 48 59 50 60 52 61 49 62 6 63 7 64 8 65
REMARK SMILES IDX 9 66 10 67 11 68 12 70 13 71 14 72 21 73 15 74 20 75 16 76
REMARK SMILES IDX 19 77 17 78 18 79
REMARK H PARENT 3 6 69 24 43 35 10 69
REMARK Flexibility Score: inf
ROOT
ATOM      1  C   UNL A   1      36.527  32.803  30.190  1.00  0.00     0.021 C 
ENDROOT
BRANCH   1   2
ATOM      2  C   UNL A   1      36.475  31.340  30.586  1.00  0.00     0.116 C 
BRANCH   2   3
ATOM      3  N   UNL A   1      35.741  30.485  29.639  1.00  0.00    -0.352 N 
ATOM      4  O   UNL A   1      35.586  29.247  27.726  1.00  0.00    -0.269 OA
ATOM      5  C   UNL A   1      36.253  29.621  28.671  1.00  0.00     0.251 C 
ATOM      6  H   UNL A   1      34.758  30.530  29.697  1.00  0.00     0.163 HD
BRANCH   5   7
ATOM      7  C   UNL A   1      37.639  29.145  28.845  1.00  0.00     0.039 A 
ATOM      8  C   UNL A   1      38.055  28.205  29.790  1.00  0.00     0.014 A 
ATOM      9  C   UNL A   1      38.541  29.644  27.930  1.00  0.00     0.014 A 
ATOM     10  C   UNL A   1      39.397  27.818  29.764  1.00  0.00     0.010 A 
ATOM     11  C   UNL A   1      39.600  28.867  27.610  1.00  0.00     0.010 A 
ATOM     12  C   UNL A   1      40.174  28.204  28.662  1.00  0.00    -0.014 A 
BRANCH  12  13
ATOM     13  C   UNL A   1      41.593  27.948  28.505  1.00  0.00     0.031 A 
ATOM     14  C   UNL A   1      41.880  26.717  27.749  1.00  0.00     0.074 A 
ATOM     15  C   UNL A   1      42.544  28.857  28.835  1.00  0.00     0.049 A 
ATOM     16  N   UNL A   1      42.306  25.599  28.222  1.00  0.00    -0.248 NA
ATOM     17  C   UNL A   1      41.450  26.656  26.344  1.00  0.00     0.031 C 
ATOM     18  C   UNL A   1      42.395  30.248  29.301  1.00  0.00     0.029 A 
ATOM     19  N   UNL A   1      43.896  28.728  28.756  1.00  0.00    -0.354 N 
ATOM     20  C   UNL A   1      42.418  24.749  27.129  1.00  0.00     0.074 A 
ATOM     21  C   UNL A   1      41.682  25.374  26.061  1.00  0.00     0.031 C 
ATOM     22  C   UNL A   1      43.589  30.885  29.256  1.00  0.00     0.029 A 
ATOM     23  C   UNL A   1      44.613  29.912  28.933  1.00  0.00     0.049 A 
ATOM     24  H   UNL A   1      44.336  27.863  28.587  1.00  0.00     0.167 HD
ATOM     25  C   UNL A   1      43.325  23.735  27.137  1.00  0.00     0.037 A 
ATOM     26  C   UNL A   1      45.957  30.058  28.812  1.00  0.00     0.037 A 
ATOM     27  C   UNL A   1      43.811  23.499  28.478  1.00  0.00     0.049 A 
ATOM     28  C   UNL A   1      46.550  28.701  28.938  1.00  0.00     0.074 A 
ATOM     29  C   UNL A   1      43.227  23.107  29.666  1.00  0.00     0.029 A 
ATOM     30  N   UNL A   1      45.008  24.081  28.826  1.00  0.00    -0.354 N 
ATOM     31  N   UNL A   1      46.525  28.008  30.043  1.00  0.00    -0.248 NA
ATOM     32  C   UNL A   1      46.695  27.923  27.716  1.00  0.00     0.031 C 
ATOM     33  C   UNL A   1      43.863  23.895  30.671  1.00  0.00     0.029 A 
ATOM     34  C   UNL A   1      44.855  24.663  30.059  1.00  0.00     0.049 A 
ATOM     35  H   UNL A   1      45.830  24.081  28.284  1.00  0.00     0.167 HD
ATOM     36  C   UNL A   1      46.219  26.712  29.647  1.00  0.00     0.074 A 
ATOM     37  C   UNL A   1      46.399  26.710  28.194  1.00  0.00     0.031 C 
ATOM     38  C   UNL A   1      45.562  25.853  30.483  1.00  0.00     0.037 A 
BRANCH  25  39
ATOM     39  C   UNL A   1      44.063  23.239  25.919  1.00  0.00     0.057 A 
ATOM     40  C   UNL A   1      45.050  23.965  25.222  1.00  0.00     0.134 A 
ATOM     41  C   UNL A   1      44.006  21.868  25.611  1.00  0.00     0.134 A 
ATOM     42  F   UNL A   1      45.272  25.268  25.425  1.00  0.00    -0.206 F 
ATOM     43  C   UNL A   1      45.947  23.366  24.335  1.00  0.00     0.040 A 
ATOM     44  C   UNL A   1      44.931  21.250  24.761  1.00  0.00     0.040 A 
ATOM     45  F   UNL A   1      43.100  21.068  26.193  1.00  0.00    -0.206 F 
ATOM     46  C   UNL A   1      45.916  21.998  24.133  1.00  0.00     0.006 A 
ENDBRANCH  25  39
BRANCH  26  47
ATOM     47  C   UNL A   1      46.719  31.216  28.289  1.00  0.00     0.057 A 
ATOM     48  C   UNL A   1      47.312  32.147  29.161  1.00  0.00     0.134 A 
ATOM     49  C   UNL A   1      46.650  31.599  26.942  1.00  0.00     0.134 A 
ATOM     50  F   UNL A   1      47.364  31.917  30.482  1.00  0.00    -0.206 F 
ATOM     51  C   UNL A   1      47.787  33.389  28.727  1.00  0.00     0.040 A 
ATOM     52  C   UNL A   1      47.122  32.841  26.492  1.00  0.00     0.040 A 
ATOM     53  F   UNL A   1      46.063  30.799  26.038  1.00  0.00    -0.206 F 
ATOM     54  C   UNL A   1      47.682  33.746  27.388  1.00  0.00     0.006 A 
ENDBRANCH  26  47
BRANCH  38  55
ATOM     55  C   UNL A   1      45.373  26.284  31.915  1.00  0.00     0.057 A 
ATOM     56  C   UNL A   1      46.325  25.900  32.865  1.00  0.00     0.134 A 
ATOM     57  C   UNL A   1      44.228  26.936  32.403  1.00  0.00     0.134 A 
ATOM     58  F   UNL A   1      47.418  25.221  32.486  1.00  0.00    -0.206 F 
ATOM     59  C   UNL A   1      46.158  26.161  34.228  1.00  0.00     0.040 A 
ATOM     60  C   UNL A   1      44.062  27.231  33.761  1.00  0.00     0.040 A 
ATOM     61  F   UNL A   1      43.215  27.256  31.591  1.00  0.00    -0.206 F 
ATOM     62  C   UNL A   1      45.029  26.840  34.679  1.00  0.00     0.006 A 
ENDBRANCH  38  55
ENDBRANCH  12  13
ENDBRANCH   5   7
ENDBRANCH   2   3
ENDBRANCH   1   2
BRANCH   1  63
ATOM     63  C   UNL A   1      35.202  33.349  29.638  1.00  0.00     0.002 C 
BRANCH  63  64
ATOM     64  C   UNL A   1      35.288  34.429  28.547  1.00  0.00     0.002 C 
BRANCH  64  65
ATOM     65  C   UNL A   1      34.222  35.528  28.592  1.00  0.00     0.021 C 
BRANCH  65  66
ATOM     66  C   UNL A   1      33.020  35.230  29.485  1.00  0.00     0.116 C 
BRANCH  66  67
ATOM     67  N   UNL A   1      32.732  36.335  30.384  1.00  0.00    -0.351 N 
ATOM     68  C   UNL A   1      33.005  36.434  31.728  1.00  0.00     0.269 C 
ATOM     69  H   UNL A   1      32.285  37.111  29.978  1.00  0.00     0.163 HD
ATOM     70  O   UNL A   1      32.526  37.357  32.384  1.00  0.00    -0.268 OA
BRANCH  68  71
ATOM     71  C   UNL A   1      33.847  35.401  32.394  1.00  0.00     0.130 A 
ATOM     72  C   UNL A   1      35.167  35.728  32.685  1.00  0.00     0.066 A 
ATOM     73  N   UNL A   1      33.243  34.207  32.683  1.00  0.00    -0.247 NA
ATOM     74  C   UNL A   1      35.876  34.746  33.371  1.00  0.00     0.113 A 
ATOM     75  C   UNL A   1      33.954  33.250  33.328  1.00  0.00     0.161 A 
ATOM     76  N   UNL A   1      37.161  34.733  33.856  1.00  0.00    -0.216 NA
ATOM     77  C   UNL A   1      35.258  33.543  33.673  1.00  0.00     0.172 A 
ATOM     78  C   UNL A   1      37.265  33.547  34.415  1.00  0.00     0.309 A 
ATOM     79  O   UNL A   1      36.151  32.764  34.347  1.00  0.00    -0.442 OA
ENDBRANCH  68  71
ENDBRANCH  66  67
ENDBRANCH  65  66
ENDBRANCH  64  65
ENDBRANCH  63  64
ENDBRANCH   1  63
TORSDOF 13
ENDMDL
MODEL 2
REMARK VINA RESULT:     -10.8      4.536      9.853
REMARK SMILES O=C(NCCCCCCNC(=O)c1cc2ncoc2cn1)c1ccc(-c2c3nc(c(-c4c(F)cccc4F)c4ccc([nH]4)c(-c4c(F)cccc4F)c4nc(c(-c5c(F)cccc5F)c5ccc2[nH]5)C=C4)C=C3)cc1
REMARK SMILES IDX 5 1 4 2 3 3 1 4 2 5 22 7 23 8 75 9 24 10 74 11 25 12 26 13
REMARK SMILES IDX 27 14 68 15 28 16 73 17 67 18 69 19 29 20 72 21 66 22 65 23
REMARK SMILES IDX 30 25 56 26 39 27 55 28 40 29 43 30 54 31 70 32 41 33 42 34
REMARK SMILES IDX 53 36 71 37 44 38 31 39 32 40 37 41 33 42 34 43 36 44 38 45
REMARK SMILES IDX 35 46 57 47 58 48 63 49 59 50 60 51 62 52 64 53 61 54 45 55
REMARK SMILES IDX 46 56 51 57 47 58 48 59 50 60 52 61 49 62 6 63 7 64 8 65
REMARK SMILES IDX 9 66 10 67 11 68 12 70 13 71 14 72 21 73 15 74 20 75 16 76
REMARK SMILES IDX 19 77 17 78 18 79
REMARK H PARENT 3 6 69 24 43 35 10 69
REMARK Flexibility Score: inf
ROOT
ATOM      1  C   UNL A   1      42.017  19.201  25.979  1.00  0.00     0.021 C 
ENDROOT
BRANCH   1   2
ATOM      2  C   UNL A   1      43.472  18.779  25.916  1.00  0.00     0.116 C 
BRANCH   2   3
ATOM      3  N   UNL A   1      44.125  19.058  24.627  1.00  0.00    -0.352 N 
ATOM      4  O   UNL A   1      44.637  20.421  22.867  1.00  0.00    -0.269 OA
ATOM      5  C   UNL A   1      44.434  20.295  24.059  1.00  0.00     0.251 C 
ATOM      6  H   UNL A   1      44.377  18.268  24.096  1.00  0.00     0.163 HD
BRANCH   5   7
ATOM      7  C   UNL A   1      44.537  21.455  24.964  1.00  0.00     0.039 A 
ATOM      8  C   UNL A   1      45.645  21.765  25.755  1.00  0.00     0.014 A 
ATOM      9  C   UNL A   1      43.455  22.309  24.934  1.00  0.00     0.014 A 
ATOM     10  C   UNL A   1      45.594  22.946  26.499  1.00  0.00     0.010 A 
ATOM     11  C   UNL A   1      43.683  23.614  25.202  1.00  0.00     0.010 A 
ATOM     12  C   UNL A   1      44.559  23.853  26.227  1.00  0.00    -0.014 A 
BRANCH  12  13
ATOM     13  C   UNL A   1      44.318  25.090  26.946  1.00  0.00     0.031 A 
ATOM     14  C   UNL A   1      45.358  26.107  26.715  1.00  0.00     0.074 A 
ATOM     15  C   UNL A   1      43.151  25.350  27.587  1.00  0.00     0.049 A 
ATOM     16  N   UNL A   1      46.280  26.472  27.535  1.00  0.00    -0.248 NA
ATOM     17  C   UNL A   1      45.519  26.629  25.351  1.00  0.00     0.031 C 
ATOM     18  C   UNL A   1      41.905  24.563  27.632  1.00  0.00     0.029 A 
ATOM     19  N   UNL A   1      42.815  26.454  28.308  1.00  0.00    -0.354 N 
ATOM     20  C   UNL A   1      47.010  27.445  26.867  1.00  0.00     0.074 A 
ATOM     21  C   UNL A   1      46.639  27.341  25.480  1.00  0.00     0.031 C 
ATOM     22  C   UNL A   1      40.903  25.307  28.156  1.00  0.00     0.029 A 
ATOM     23  C   UNL A   1      41.464  26.549  28.645  1.00  0.00     0.049 A 
ATOM     24  H   UNL A   1      43.475  27.135  28.573  1.00  0.00     0.167 HD
ATOM     25  C   UNL A   1      47.660  28.417  27.564  1.00  0.00     0.037 A 
ATOM     26  C   UNL A   1      40.870  27.592  29.279  1.00  0.00     0.037 A 
ATOM     27  C   UNL A   1      47.756  28.061  28.962  1.00  0.00     0.049 A 
ATOM     28  C   UNL A   1      41.951  28.357  29.955  1.00  0.00     0.074 A 
ATOM     29  C   UNL A   1      48.356  27.032  29.661  1.00  0.00     0.029 A 
ATOM     30  N   UNL A   1      46.815  28.591  29.814  1.00  0.00    -0.354 N 
ATOM     31  N   UNL A   1      42.643  27.885  30.956  1.00  0.00    -0.248 NA
ATOM     32  C   UNL A   1      42.599  29.411  29.188  1.00  0.00     0.031 C 
ATOM     33  C   UNL A   1      47.429  26.692  30.690  1.00  0.00     0.029 A 
ATOM     34  C   UNL A   1      46.354  27.580  30.620  1.00  0.00     0.049 A 
ATOM     35  H   UNL A   1      46.523  29.530  29.840  1.00  0.00     0.167 HD
ATOM     36  C   UNL A   1      43.954  28.261  30.693  1.00  0.00     0.074 A 
ATOM     37  C   UNL A   1      43.854  29.255  29.622  1.00  0.00     0.031 C 
ATOM     38  C   UNL A   1      45.008  27.520  31.149  1.00  0.00     0.037 A 
BRANCH  25  39
ATOM     39  C   UNL A   1      47.842  29.835  27.085  1.00  0.00     0.057 A 
ATOM     40  C   UNL A   1      46.795  30.747  26.842  1.00  0.00     0.134 A 
ATOM     41  C   UNL A   1      49.124  30.410  27.161  1.00  0.00     0.134 A 
ATOM     42  F   UNL A   1      45.510  30.379  26.784  1.00  0.00    -0.206 F 
ATOM     43  C   UNL A   1      46.997  32.125  26.743  1.00  0.00     0.040 A 
ATOM     44  C   UNL A   1      49.331  31.793  27.110  1.00  0.00     0.040 A 
ATOM     45  F   UNL A   1      50.209  29.650  27.371  1.00  0.00    -0.206 F 
ATOM     46  C   UNL A   1      48.262  32.657  26.916  1.00  0.00     0.006 A 
ENDBRANCH  25  39
BRANCH  26  47
ATOM     47  C   UNL A   1      39.508  28.142  29.081  1.00  0.00     0.057 A 
ATOM     48  C   UNL A   1      39.187  28.884  27.930  1.00  0.00     0.134 A 
ATOM     49  C   UNL A   1      38.576  28.201  30.127  1.00  0.00     0.134 A 
ATOM     50  F   UNL A   1      40.040  28.959  26.898  1.00  0.00    -0.206 F 
ATOM     51  C   UNL A   1      38.023  29.654  27.832  1.00  0.00     0.040 A 
ATOM     52  C   UNL A   1      37.406  28.969  30.043  1.00  0.00     0.040 A 
ATOM     53  F   UNL A   1      38.812  27.563  31.283  1.00  0.00    -0.206 F 
ATOM     54  C   UNL A   1      37.132  29.709  28.896  1.00  0.00     0.006 A 
ENDBRANCH  26  47
BRANCH  38  55
ATOM     55  C   UNL A   1      44.708  26.408  32.122  1.00  0.00     0.057 A 
ATOM     56  C   UNL A   1      44.747  26.684  33.493  1.00  0.00     0.134 A 
ATOM     57  C   UNL A   1      44.521  25.064  31.758  1.00  0.00     0.134 A 
ATOM     58  F   UNL A   1      44.979  27.933  33.922  1.00  0.00    -0.206 F 
ATOM     59  C   UNL A   1      44.595  25.681  34.454  1.00  0.00     0.040 A 
ATOM     60  C   UNL A   1      44.338  24.054  32.709  1.00  0.00     0.040 A 
ATOM     61  F   UNL A   1      44.568  24.682  30.477  1.00  0.00    -0.206 F 
ATOM     62  C   UNL A   1      44.377  24.363  34.064  1.00  0.00     0.006 A 
ENDBRANCH  38  55
ENDBRANCH  12  13
ENDBRANCH   5   7
ENDBRANCH   2   3
ENDBRANCH   1   2
BRANCH   1  63
ATOM     63  C   UNL A   1      41.577  19.730  27.351  1.00  0.00     0.002 C 
BRANCH  63  64
ATOM     64  C   UNL A   1      40.892  21.106  27.388  1.00  0.00     0.002 C 
BRANCH  64  65
ATOM     65  C   UNL A   1      40.338  21.626  26.058  1.00  0.00     0.021 C 
BRANCH  65  66
ATOM     66  C   UNL A   1      38.833  21.883  26.038  1.00  0.00     0.116 C 
BRANCH  66  67
ATOM     67  N   UNL A   1      38.105  20.762  25.471  1.00  0.00    -0.351 N 
ATOM     68  C   UNL A   1      36.792  20.714  25.068  1.00  0.00     0.269 C 
ATOM     69  H   UNL A   1      38.618  19.929  25.361  1.00  0.00     0.163 HD
ATOM     70  O   UNL A   1      36.275  19.634  24.785  1.00  0.00    -0.268 OA
BRANCH  68  71
ATOM     71  C   UNL A   1      35.985  21.965  25.011  1.00  0.00     0.130 A 
ATOM     72  C   UNL A   1      35.748  22.529  23.762  1.00  0.00     0.066 A 
ATOM     73  N   UNL A   1      35.524  22.455  26.204  1.00  0.00    -0.247 NA
ATOM     74  C   UNL A   1      34.929  23.655  23.774  1.00  0.00     0.113 A 
ATOM     75  C   UNL A   1      34.750  23.567  26.202  1.00  0.00     0.161 A 
ATOM     76  N   UNL A   1      34.451  24.434  22.749  1.00  0.00    -0.216 NA
ATOM     77  C   UNL A   1      34.454  24.141  24.982  1.00  0.00     0.172 A 
ATOM     78  C   UNL A   1      33.726  25.341  23.367  1.00  0.00     0.309 A 
ATOM     79  O   UNL A   1      33.676  25.231  24.725  1.00  0.00    -0.442 OA
ENDBRANCH  68  71
ENDBRANCH  66  67
ENDBRANCH  65  66
ENDBRANCH  64  65
ENDBRANCH  63  64
ENDBRANCH   1  63
TORSDOF 13
ENDMDL
MODEL 3
REMARK VINA RESULT:     -10.8      0.837      2.242
REMARK SMILES O=C(NCCCCCCNC(=O)c1cc2ncoc2cn1)c1ccc(-c2c3nc(c(-c4c(F)cccc4F)c4ccc([nH]4)c(-c4c(F)cccc4F)c4nc(c(-c5c(F)cccc5F)c5ccc2[nH]5)C=C4)C=C3)cc1
REMARK SMILES IDX 5 1 4 2 3 3 1 4 2 5 22 7 23 8 75 9 24 10 74 11 25 12 26 13
REMARK SMILES IDX 27 14 68 15 28 16 73 17 67 18 69 19 29 20 72 21 66 22 65 23
REMARK SMILES IDX 30 25 56 26 39 27 55 28 40 29 43 30 54 31 70 32 41 33 42 34
REMARK SMILES IDX 53 36 71 37 44 38 31 39 32 40 37 41 33 42 34 43 36 44 38 45
REMARK SMILES IDX 35 46 57 47 58 48 63 49 59 50 60 51 62 52 64 53 61 54 45 55
REMARK SMILES IDX 46 56 51 57 47 58 48 59 50 60 52 61 49 62 6 63 7 64 8 65
REMARK SMILES IDX 9 66 10 67 11 68 12 70 13 71 14 72 21 73 15 74 20 75 16 76
REMARK SMILES IDX 19 77 17 78 18 79
REMARK H PARENT 3 6 69 24 43 35 10 69
REMARK Flexibility Score: inf
ROOT
ATOM      1  C   UNL A   1      37.027  32.946  29.380  1.00  0.00     0.021 C 
ENDROOT
BRANCH   1   2
ATOM      2  C   UNL A   1      36.717  31.639  30.083  1.00  0.00     0.116 C 
BRANCH   2   3
ATOM      3  N   UNL A   1      35.913  30.701  29.282  1.00  0.00    -0.352 N 
ATOM      4  O   UNL A   1      35.636  29.225  27.561  1.00  0.00    -0.269 OA
ATOM      5  C   UNL A   1      36.353  29.690  28.427  1.00  0.00     0.251 C 
ATOM      6  H   UNL A   1      34.936  30.801  29.361  1.00  0.00     0.163 HD
BRANCH   5   7
ATOM      7  C   UNL A   1      37.720  29.174  28.626  1.00  0.00     0.039 A 
ATOM      8  C   UNL A   1      38.091  28.216  29.573  1.00  0.00     0.014 A 
ATOM      9  C   UNL A   1      38.654  29.654  27.733  1.00  0.00     0.014 A 
ATOM     10  C   UNL A   1      39.421  27.792  29.572  1.00  0.00     0.010 A 
ATOM     11  C   UNL A   1      39.698  28.849  27.430  1.00  0.00     0.010 A 
ATOM     12  C   UNL A   1      40.231  28.163  28.488  1.00  0.00    -0.014 A 
BRANCH  12  13
ATOM     13  C   UNL A   1      41.646  27.868  28.358  1.00  0.00     0.031 A 
ATOM     14  C   UNL A   1      41.913  26.628  27.611  1.00  0.00     0.074 A 
ATOM     15  C   UNL A   1      42.614  28.753  28.704  1.00  0.00     0.049 A 
ATOM     16  N   UNL A   1      42.300  25.500  28.095  1.00  0.00    -0.248 NA
ATOM     17  C   UNL A   1      41.508  26.574  26.199  1.00  0.00     0.031 C 
ATOM     18  C   UNL A   1      42.495  30.149  29.162  1.00  0.00     0.029 A 
ATOM     19  N   UNL A   1      43.964  28.587  28.650  1.00  0.00    -0.354 N 
ATOM     20  C   UNL A   1      42.409  24.644  27.008  1.00  0.00     0.074 A 
ATOM     21  C   UNL A   1      41.710  25.285  25.924  1.00  0.00     0.031 C 
ATOM     22  C   UNL A   1      43.706  30.753  29.138  1.00  0.00     0.029 A 
ATOM     23  C   UNL A   1      44.709  29.751  28.837  1.00  0.00     0.049 A 
ATOM     24  H   UNL A   1      44.384  27.710  28.492  1.00  0.00     0.167 HD
ATOM     25  C   UNL A   1      43.288  23.605  27.034  1.00  0.00     0.037 A 
ATOM     26  C   UNL A   1      46.058  29.861  28.741  1.00  0.00     0.037 A 
ATOM     27  C   UNL A   1      43.743  23.361  28.385  1.00  0.00     0.049 A 
ATOM     28  C   UNL A   1      46.612  28.489  28.881  1.00  0.00     0.074 A 
ATOM     29  C   UNL A   1      43.126  22.989  29.563  1.00  0.00     0.029 A 
ATOM     30  N   UNL A   1      44.949  23.912  28.754  1.00  0.00    -0.354 N 
ATOM     31  N   UNL A   1      46.549  27.801  29.988  1.00  0.00    -0.248 NA
ATOM     32  C   UNL A   1      46.759  27.703  27.664  1.00  0.00     0.031 C 
ATOM     33  C   UNL A   1      43.765  23.763  30.577  1.00  0.00     0.029 A 
ATOM     34  C   UNL A   1      44.789  24.502  29.982  1.00  0.00     0.049 A 
ATOM     35  H   UNL A   1      45.780  23.888  28.227  1.00  0.00     0.167 HD
ATOM     36  C   UNL A   1      46.215  26.512  29.590  1.00  0.00     0.074 A 
ATOM     37  C   UNL A   1      46.421  26.500  28.140  1.00  0.00     0.031 C 
ATOM     38  C   UNL A   1      45.519  25.674  30.416  1.00  0.00     0.037 A 
BRANCH  25  39
ATOM     39  C   UNL A   1      44.035  23.086  25.833  1.00  0.00     0.057 A 
ATOM     40  C   UNL A   1      45.019  23.803  25.122  1.00  0.00     0.134 A 
ATOM     41  C   UNL A   1      43.990  21.707  25.558  1.00  0.00     0.134 A 
ATOM     42  F   UNL A   1      45.231  25.112  25.293  1.00  0.00    -0.206 F 
ATOM     43  C   UNL A   1      45.925  23.188  24.253  1.00  0.00     0.040 A 
ATOM     44  C   UNL A   1      44.922  21.076  24.727  1.00  0.00     0.040 A 
ATOM     45  F   UNL A   1      43.088  20.914  26.155  1.00  0.00    -0.206 F 
ATOM     46  C   UNL A   1      45.905  21.816  24.084  1.00  0.00     0.006 A 
ENDBRANCH  25  39
BRANCH  26  47
ATOM     47  C   UNL A   1      46.861  30.997  28.228  1.00  0.00     0.057 A 
ATOM     48  C   UNL A   1      47.578  31.831  29.106  1.00  0.00     0.134 A 
ATOM     49  C   UNL A   1      46.724  31.465  26.914  1.00  0.00     0.134 A 
ATOM     50  F   UNL A   1      47.707  31.517  30.404  1.00  0.00    -0.206 F 
ATOM     51  C   UNL A   1      48.108  33.063  28.708  1.00  0.00     0.040 A 
ATOM     52  C   UNL A   1      47.249  32.699  26.501  1.00  0.00     0.040 A 
ATOM     53  F   UNL A   1      46.020  30.763  26.013  1.00  0.00    -0.206 F 
ATOM     54  C   UNL A   1      47.933  33.508  27.403  1.00  0.00     0.006 A 
ENDBRANCH  26  47
BRANCH  38  55
ATOM     55  C   UNL A   1      45.316  26.115  31.843  1.00  0.00     0.057 A 
ATOM     56  C   UNL A   1      46.258  25.737  32.806  1.00  0.00     0.134 A 
ATOM     57  C   UNL A   1      44.166  26.770  32.314  1.00  0.00     0.134 A 
ATOM     58  F   UNL A   1      47.354  25.055  32.443  1.00  0.00    -0.206 F 
ATOM     59  C   UNL A   1      46.076  26.008  34.165  1.00  0.00     0.040 A 
ATOM     60  C   UNL A   1      43.986  27.075  33.669  1.00  0.00     0.040 A 
ATOM     61  F   UNL A   1      43.161  27.084  31.489  1.00  0.00    -0.206 F 
ATOM     62  C   UNL A   1      44.943  26.689  34.599  1.00  0.00     0.006 A 
ENDBRANCH  38  55
ENDBRANCH  12  13
ENDBRANCH   5   7
ENDBRANCH   2   3
ENDBRANCH   1   2
BRANCH   1  63
ATOM     63  C   UNL A   1      38.384  33.556  29.762  1.00  0.00     0.002 C 
BRANCH  63  64
ATOM     64  C   UNL A   1      39.214  32.814  30.823  1.00  0.00     0.002 C 
BRANCH  64  65
ATOM     65  C   UNL A   1      39.243  33.436  32.222  1.00  0.00     0.021 C 
BRANCH  65  66
ATOM     66  C   UNL A   1      38.030  34.294  32.576  1.00  0.00     0.116 C 
BRANCH  66  67
ATOM     67  N   UNL A   1      37.258  33.711  33.659  1.00  0.00    -0.351 N 
ATOM     68  C   UNL A   1      35.960  33.980  34.023  1.00  0.00     0.269 C 
ATOM     69  H   UNL A   1      37.725  33.036  34.203  1.00  0.00     0.163 HD
ATOM     70  O   UNL A   1      35.515  33.539  35.081  1.00  0.00    -0.268 OA
BRANCH  68  71
ATOM     71  C   UNL A   1      35.107  34.839  33.153  1.00  0.00     0.130 A 
ATOM     72  C   UNL A   1      34.699  34.320  31.929  1.00  0.00     0.066 A 
ATOM     73  N   UNL A   1      34.779  36.075  33.642  1.00  0.00    -0.247 NA
ATOM     74  C   UNL A   1      33.847  35.145  31.200  1.00  0.00     0.113 A 
ATOM     75  C   UNL A   1      33.970  36.877  32.907  1.00  0.00     0.161 A 
ATOM     76  N   UNL A   1      33.219  34.952  29.994  1.00  0.00    -0.216 NA
ATOM     77  C   UNL A   1      33.506  36.391  31.702  1.00  0.00     0.172 A 
ATOM     78  C   UNL A   1      32.542  36.066  29.819  1.00  0.00     0.309 A 
ATOM     79  O   UNL A   1      32.664  36.991  30.814  1.00  0.00    -0.442 OA
ENDBRANCH  68  71
ENDBRANCH  66  67
ENDBRANCH  65  66
ENDBRANCH  64  65
ENDBRANCH  63  64
ENDBRANCH   1  63
TORSDOF 13
ENDMDL
