MODEL 1
REMARK VINA RESULT:     -10.3      0.000      0.000
REMARK SMILES C[C@H]1[C@H](C(=O)NCCCCCCNC(=O)c2ccc(-c3c4nc(c(-c5c(F)cccc5F)c5ccc([nH]5)c(-c5c(F)cccc5F)c5nc(c(-c6c(F)cccc6F)c6ccc3[nH]6)C=C5)C=C4)cc2)CCN1C(=O)[C@](C)([NH3+])C1CC1
REMARK SMILES IDX 9 1 8 2 7 3 6 4 4 5 5 6 3 8 1 9 2 10 72 11 70 12 71 13 73 14
REMARK SMILES IDX 74 15 75 16 76 17 77 18 78 22 79 23 80 24 10 25 11 26 12 27
REMARK SMILES IDX 13 28 14 29 15 31 16 32 17 33 69 34 18 35 68 36 19 37 20 38
REMARK SMILES IDX 21 39 62 40 22 41 67 42 61 43 63 44 23 45 66 46 60 47 59 48
REMARK SMILES IDX 24 50 50 51 33 52 49 53 34 54 37 55 48 56 64 57 35 58 36 59
REMARK SMILES IDX 47 61 65 62 38 63 25 64 26 65 31 66 27 67 28 68 30 69 32 70
REMARK SMILES IDX 29 71 51 72 52 73 57 74 53 75 54 76 56 77 58 78 55 79 39 80
REMARK SMILES IDX 40 81 45 82 41 83 42 84 44 85 46 86 43 87
REMARK H PARENT 6 7 77 19 77 20 77 21 13 30 63 49 37 60
REMARK Flexibility Score: inf
ROOT
ATOM      1  C   UNL A   1      33.992  30.743  27.455  1.00  0.00     0.002 C 
ENDROOT
BRANCH   1   2
ATOM      2  C   UNL A   1      34.658  29.365  27.446  1.00  0.00     0.021 C 
BRANCH   2   3
ATOM      3  C   UNL A   1      34.035  28.371  26.472  1.00  0.00     0.116 C 
BRANCH   3   4
ATOM      4  N   UNL A   1      34.490  28.600  25.116  1.00  0.00    -0.356 N 
ATOM      5  C   UNL A   1      33.946  28.265  23.918  1.00  0.00     0.225 C 
ATOM      6  O   UNL A   1      34.578  28.581  22.905  1.00  0.00    -0.275 OA
ATOM      7  H   UNL A   1      35.345  29.085  25.051  1.00  0.00     0.163 HD
BRANCH   5   8
ATOM      8  C   UNL A   1      32.625  27.522  23.784  1.00  0.00     0.102 C 
ATOM      9  C   UNL A   1      30.531  27.808  25.137  1.00  0.00     0.032 C 
ATOM     10  C   UNL A   1      31.396  28.421  24.032  1.00  0.00     0.094 C 
ATOM     11  N   UNL A   1      30.672  28.430  22.764  1.00  0.00    -0.334 N 
ATOM     12  C   UNL A   1      32.413  26.851  22.428  1.00  0.00     0.037 C 
ATOM     13  C   UNL A   1      31.000  27.223  22.016  1.00  0.00     0.121 C 
BRANCH  11  14
ATOM     14  C   UNL A   1      29.842  29.368  22.200  1.00  0.00     0.284 C 
ATOM     15  O   UNL A   1      30.270  29.995  21.209  1.00  0.00    -0.268 OA
BRANCH  14  16
ATOM     16  C   UNL A   1      28.367  29.714  22.654  1.00  0.00     0.174 C 
ATOM     17  C   UNL A   1      27.713  28.407  23.126  1.00  0.00     0.090 C 
BRANCH  16  18
ATOM     18  N   UNL A   1      27.653  30.068  21.375  1.00  0.00    -0.345 N 
ATOM     19  H   UNL A   1      28.294  30.558  20.751  1.00  0.00     0.345 HD
ATOM     20  H   UNL A   1      26.857  30.670  21.585  1.00  0.00     0.345 HD
ATOM     21  H   UNL A   1      27.323  29.215  20.921  1.00  0.00     0.345 HD
ENDBRANCH  16  18
BRANCH  16  22
ATOM     22  C   UNL A   1      28.041  30.933  23.510  1.00  0.00     0.060 C 
ATOM     23  C   UNL A   1      29.160  31.682  24.236  1.00  0.00     0.011 C 
ATOM     24  C   UNL A   1      28.323  32.397  23.232  1.00  0.00     0.011 C 
ENDBRANCH  16  22
ENDBRANCH  14  16
ENDBRANCH  11  14
ENDBRANCH   5   8
ENDBRANCH   3   4
ENDBRANCH   2   3
ENDBRANCH   1   2
BRANCH   1  25
ATOM     25  C   UNL A   1      32.480  30.737  27.211  1.00  0.00     0.002 C 
BRANCH  25  26
ATOM     26  C   UNL A   1      31.811  32.112  27.252  1.00  0.00     0.021 C 
BRANCH  26  27
ATOM     27  C   UNL A   1      32.721  33.275  26.872  1.00  0.00     0.116 C 
BRANCH  27  28
ATOM     28  N   UNL A   1      32.535  34.422  27.746  1.00  0.00    -0.352 N 
ATOM     29  C   UNL A   1      33.131  34.708  28.948  1.00  0.00     0.251 C 
ATOM     30  H   UNL A   1      31.888  35.091  27.428  1.00  0.00     0.163 HD
ATOM     31  O   UNL A   1      32.706  35.622  29.644  1.00  0.00    -0.269 OA
BRANCH  29  32
ATOM     32  C   UNL A   1      34.276  33.898  29.414  1.00  0.00     0.039 A 
ATOM     33  C   UNL A   1      35.557  34.215  28.954  1.00  0.00     0.014 A 
ATOM     34  C   UNL A   1      34.088  32.825  30.291  1.00  0.00     0.014 A 
ATOM     35  C   UNL A   1      36.657  33.492  29.421  1.00  0.00     0.010 A 
ATOM     36  C   UNL A   1      35.192  32.155  30.811  1.00  0.00     0.010 A 
ATOM     37  C   UNL A   1      36.487  32.478  30.378  1.00  0.00    -0.014 A 
BRANCH  37  38
ATOM     38  C   UNL A   1      37.653  31.749  30.938  1.00  0.00     0.031 A 
ATOM     39  C   UNL A   1      38.183  32.101  32.300  1.00  0.00     0.074 A 
ATOM     40  C   UNL A   1      38.269  30.810  30.195  1.00  0.00     0.049 A 
ATOM     41  N   UNL A   1      39.222  31.617  32.933  1.00  0.00    -0.248 NA
ATOM     42  C   UNL A   1      37.468  33.154  33.038  1.00  0.00     0.031 C 
ATOM     43  C   UNL A   1      37.879  30.411  28.842  1.00  0.00     0.029 A 
ATOM     44  N   UNL A   1      39.363  30.029  30.470  1.00  0.00    -0.354 N 
ATOM     45  C   UNL A   1      39.289  32.311  34.135  1.00  0.00     0.074 A 
ATOM     46  C   UNL A   1      38.223  33.288  34.119  1.00  0.00     0.031 C 
ATOM     47  C   UNL A   1      38.704  29.442  28.414  1.00  0.00     0.029 A 
ATOM     48  C   UNL A   1      39.705  29.180  29.444  1.00  0.00     0.049 A 
ATOM     49  H   UNL A   1      39.857  30.072  31.320  1.00  0.00     0.167 HD
ATOM     50  C   UNL A   1      40.148  32.135  35.167  1.00  0.00     0.037 A 
ATOM     51  C   UNL A   1      40.715  28.296  29.343  1.00  0.00     0.037 A 
ATOM     52  C   UNL A   1      41.199  31.151  35.186  1.00  0.00     0.049 A 
ATOM     53  C   UNL A   1      41.668  28.134  30.495  1.00  0.00     0.074 A 
ATOM     54  C   UNL A   1      42.084  30.856  36.208  1.00  0.00     0.029 A 
ATOM     55  N   UNL A   1      41.511  30.308  34.131  1.00  0.00    -0.354 N 
ATOM     56  N   UNL A   1      41.676  28.746  31.654  1.00  0.00    -0.248 NA
ATOM     57  C   UNL A   1      42.749  27.153  30.325  1.00  0.00     0.031 C 
ATOM     58  C   UNL A   1      42.964  29.867  35.753  1.00  0.00     0.029 A 
ATOM     59  C   UNL A   1      42.592  29.509  34.467  1.00  0.00     0.049 A 
ATOM     60  H   UNL A   1      41.034  30.279  33.270  1.00  0.00     0.167 HD
ATOM     61  C   UNL A   1      42.743  28.208  32.360  1.00  0.00     0.074 A 
ATOM     62  C   UNL A   1      43.349  27.207  31.507  1.00  0.00     0.031 C 
ATOM     63  C   UNL A   1      43.182  28.515  33.606  1.00  0.00     0.037 A 
BRANCH  50  64
ATOM     64  C   UNL A   1      39.984  33.028  36.364  1.00  0.00     0.057 A 
ATOM     65  C   UNL A   1      39.079  32.728  37.391  1.00  0.00     0.134 A 
ATOM     66  C   UNL A   1      40.759  34.186  36.505  1.00  0.00     0.134 A 
ATOM     67  F   UNL A   1      38.299  31.640  37.314  1.00  0.00    -0.206 F 
ATOM     68  C   UNL A   1      38.931  33.563  38.501  1.00  0.00     0.040 A 
ATOM     69  C   UNL A   1      40.640  35.013  37.624  1.00  0.00     0.040 A 
ATOM     70  F   UNL A   1      41.650  34.530  35.562  1.00  0.00    -0.206 F 
ATOM     71  C   UNL A   1      39.718  34.706  38.622  1.00  0.00     0.006 A 
ENDBRANCH  50  64
BRANCH  51  72
ATOM     72  C   UNL A   1      40.869  27.482  28.111  1.00  0.00     0.057 A 
ATOM     73  C   UNL A   1      41.641  27.938  27.037  1.00  0.00     0.134 A 
ATOM     74  C   UNL A   1      40.244  26.236  27.973  1.00  0.00     0.134 A 
ATOM     75  F   UNL A   1      42.250  29.132  27.102  1.00  0.00    -0.206 F 
ATOM     76  C   UNL A   1      41.773  27.196  25.862  1.00  0.00     0.040 A 
ATOM     77  C   UNL A   1      40.388  25.472  26.814  1.00  0.00     0.040 A 
ATOM     78  F   UNL A   1      39.496  25.739  28.968  1.00  0.00    -0.206 F 
ATOM     79  C   UNL A   1      41.148  25.955  25.750  1.00  0.00     0.006 A 
ENDBRANCH  51  72
BRANCH  63  80
ATOM     80  C   UNL A   1      44.355  27.739  34.132  1.00  0.00     0.057 A 
ATOM     81  C   UNL A   1      44.193  26.543  34.845  1.00  0.00     0.134 A 
ATOM     82  C   UNL A   1      45.664  28.174  33.890  1.00  0.00     0.134 A 
ATOM     83  F   UNL A   1      42.965  26.079  35.122  1.00  0.00    -0.206 F 
ATOM     84  C   UNL A   1      45.290  25.822  35.317  1.00  0.00     0.040 A 
ATOM     85  C   UNL A   1      46.769  27.446  34.332  1.00  0.00     0.040 A 
ATOM     86  F   UNL A   1      45.891  29.306  33.205  1.00  0.00    -0.206 F 
ATOM     87  C   UNL A   1      46.584  26.268  35.054  1.00  0.00     0.006 A 
ENDBRANCH  63  80
ENDBRANCH  37  38
ENDBRANCH  29  32
ENDBRANCH  27  28
ENDBRANCH  26  27
ENDBRANCH  25  26
ENDBRANCH   1  25
TORSDOF 17
ENDMDL
MODEL 2
REMARK VINA RESULT:     -10.2      1.176      6.415
REMARK SMILES C[C@H]1[C@H](C(=O)NCCCCCCNC(=O)c2ccc(-c3c4nc(c(-c5c(F)cccc5F)c5ccc([nH]5)c(-c5c(F)cccc5F)c5nc(c(-c6c(F)cccc6F)c6ccc3[nH]6)C=C5)C=C4)cc2)CCN1C(=O)[C@](C)([NH3+])C1CC1
REMARK SMILES IDX 9 1 8 2 7 3 6 4 4 5 5 6 3 8 1 9 2 10 72 11 70 12 71 13 73 14
REMARK SMILES IDX 74 15 75 16 76 17 77 18 78 22 79 23 80 24 10 25 11 26 12 27
REMARK SMILES IDX 13 28 14 29 15 31 16 32 17 33 69 34 18 35 68 36 19 37 20 38
REMARK SMILES IDX 21 39 62 40 22 41 67 42 61 43 63 44 23 45 66 46 60 47 59 48
REMARK SMILES IDX 24 50 50 51 33 52 49 53 34 54 37 55 48 56 64 57 35 58 36 59
REMARK SMILES IDX 47 61 65 62 38 63 25 64 26 65 31 66 27 67 28 68 30 69 32 70
REMARK SMILES IDX 29 71 51 72 52 73 57 74 53 75 54 76 56 77 58 78 55 79 39 80
REMARK SMILES IDX 40 81 45 82 41 83 42 84 44 85 46 86 43 87
REMARK H PARENT 6 7 77 19 77 20 77 21 13 30 63 49 37 60
REMARK Flexibility Score: inf
ROOT
ATOM      1  C   UNL A   1      32.977  30.141  27.250  1.00  0.00     0.002 C 
ENDROOT
BRANCH   1   2
ATOM      2  C   UNL A   1      33.047  28.615  27.338  1.00  0.00     0.021 C 
BRANCH   2   3
ATOM      3  C   UNL A   1      34.051  27.974  26.387  1.00  0.00     0.116 C 
BRANCH   3   4
ATOM      4  N   UNL A   1      34.137  28.700  25.136  1.00  0.00    -0.356 N 
ATOM      5  C   UNL A   1      33.462  28.557  23.967  1.00  0.00     0.225 C 
ATOM      6  O   UNL A   1      33.763  29.323  23.046  1.00  0.00    -0.275 OA
ATOM      7  H   UNL A   1      34.802  29.426  25.133  1.00  0.00     0.163 HD
BRANCH   5   8
ATOM      8  C   UNL A   1      32.382  27.507  23.754  1.00  0.00     0.102 C 
ATOM      9  C   UNL A   1      30.458  26.920  25.255  1.00  0.00     0.032 C 
ATOM     10  C   UNL A   1      30.994  27.952  24.258  1.00  0.00     0.094 C 
ATOM     11  N   UNL A   1      30.153  27.992  23.066  1.00  0.00    -0.334 N 
ATOM     12  C   UNL A   1      32.204  27.071  22.300  1.00  0.00     0.037 C 
ATOM     13  C   UNL A   1      30.704  27.093  22.059  1.00  0.00     0.121 C 
BRANCH  11  14
ATOM     14  C   UNL A   1      29.042  28.742  22.763  1.00  0.00     0.284 C 
ATOM     15  O   UNL A   1      27.931  28.288  23.103  1.00  0.00    -0.268 OA
BRANCH  14  16
ATOM     16  C   UNL A   1      29.026  30.156  22.056  1.00  0.00     0.174 C 
ATOM     17  C   UNL A   1      28.098  30.050  20.837  1.00  0.00     0.090 C 
BRANCH  16  18
ATOM     18  N   UNL A   1      30.411  30.304  21.480  1.00  0.00    -0.345 N 
ATOM     19  H   UNL A   1      30.499  29.716  20.651  1.00  0.00     0.345 HD
ATOM     20  H   UNL A   1      31.101  30.018  22.174  1.00  0.00     0.345 HD
ATOM     21  H   UNL A   1      30.571  31.279  21.223  1.00  0.00     0.345 HD
ENDBRANCH  16  18
BRANCH  16  22
ATOM     22  C   UNL A   1      28.901  31.459  22.838  1.00  0.00     0.060 C 
ATOM     23  C   UNL A   1      27.765  31.642  23.846  1.00  0.00     0.011 C 
ATOM     24  C   UNL A   1      29.179  31.721  24.306  1.00  0.00     0.011 C 
ENDBRANCH  16  22
ENDBRANCH  14  16
ENDBRANCH  11  14
ENDBRANCH   5   8
ENDBRANCH   3   4
ENDBRANCH   2   3
ENDBRANCH   1   2
BRANCH   1  25
ATOM     25  C   UNL A   1      31.666  30.701  26.689  1.00  0.00     0.002 C 
BRANCH  25  26
ATOM     26  C   UNL A   1      31.483  32.211  26.852  1.00  0.00     0.021 C 
BRANCH  26  27
ATOM     27  C   UNL A   1      32.758  32.974  27.197  1.00  0.00     0.116 C 
BRANCH  27  28
ATOM     28  N   UNL A   1      32.481  34.335  27.626  1.00  0.00    -0.352 N 
ATOM     29  C   UNL A   1      33.029  35.051  28.661  1.00  0.00     0.251 C 
ATOM     30  H   UNL A   1      31.803  34.812  27.097  1.00  0.00     0.163 HD
ATOM     31  O   UNL A   1      32.532  36.117  29.003  1.00  0.00    -0.269 OA
BRANCH  29  32
ATOM     32  C   UNL A   1      34.209  34.524  29.378  1.00  0.00     0.039 A 
ATOM     33  C   UNL A   1      34.025  33.911  30.620  1.00  0.00     0.014 A 
ATOM     34  C   UNL A   1      35.492  34.645  28.835  1.00  0.00     0.014 A 
ATOM     35  C   UNL A   1      35.122  33.365  31.290  1.00  0.00     0.010 A 
ATOM     36  C   UNL A   1      36.572  34.035  29.469  1.00  0.00     0.010 A 
ATOM     37  C   UNL A   1      36.398  33.393  30.704  1.00  0.00    -0.014 A 
BRANCH  37  38
ATOM     38  C   UNL A   1      37.561  32.753  31.369  1.00  0.00     0.031 A 
ATOM     39  C   UNL A   1      38.233  31.563  30.742  1.00  0.00     0.074 A 
ATOM     40  C   UNL A   1      37.975  33.208  32.568  1.00  0.00     0.049 A 
ATOM     41  N   UNL A   1      39.223  30.837  31.197  1.00  0.00    -0.248 NA
ATOM     42  C   UNL A   1      37.706  31.112  29.445  1.00  0.00     0.031 C 
ATOM     43  C   UNL A   1      37.378  34.326  33.301  1.00  0.00     0.029 A 
ATOM     44  N   UNL A   1      38.990  32.779  33.385  1.00  0.00    -0.354 N 
ATOM     45  C   UNL A   1      39.429  29.843  30.250  1.00  0.00     0.074 A 
ATOM     46  C   UNL A   1      38.426  30.023  29.223  1.00  0.00     0.031 C 
ATOM     47  C   UNL A   1      38.052  34.510  34.447  1.00  0.00     0.029 A 
ATOM     48  C   UNL A   1      39.102  33.500  34.549  1.00  0.00     0.049 A 
ATOM     49  H   UNL A   1      39.582  32.025  33.160  1.00  0.00     0.167 HD
ATOM     50  C   UNL A   1      40.382  28.880  30.226  1.00  0.00     0.037 A 
ATOM     51  C   UNL A   1      39.950  33.360  35.585  1.00  0.00     0.037 A 
ATOM     52  C   UNL A   1      41.388  28.713  31.241  1.00  0.00     0.049 A 
ATOM     53  C   UNL A   1      40.986  32.271  35.544  1.00  0.00     0.074 A 
ATOM     54  C   UNL A   1      42.432  27.806  31.279  1.00  0.00     0.029 A 
ATOM     55  N   UNL A   1      41.471  29.467  32.403  1.00  0.00    -0.354 N 
ATOM     56  N   UNL A   1      41.216  31.383  34.607  1.00  0.00    -0.248 NA
ATOM     57  C   UNL A   1      41.884  32.168  36.704  1.00  0.00     0.031 C 
ATOM     58  C   UNL A   1      43.118  27.977  32.487  1.00  0.00     0.029 A 
ATOM     59  C   UNL A   1      42.534  29.027  33.177  1.00  0.00     0.049 A 
ATOM     60  H   UNL A   1      40.866  30.205  32.642  1.00  0.00     0.167 HD
ATOM     61  C   UNL A   1      42.298  30.634  35.051  1.00  0.00     0.074 A 
ATOM     62  C   UNL A   1      42.690  31.184  36.332  1.00  0.00     0.031 C 
ATOM     63  C   UNL A   1      42.913  29.586  34.450  1.00  0.00     0.037 A 
BRANCH  50  64
ATOM     64  C   UNL A   1      40.380  27.933  29.060  1.00  0.00     0.057 A 
ATOM     65  C   UNL A   1      41.137  28.179  27.906  1.00  0.00     0.134 A 
ATOM     66  C   UNL A   1      39.635  26.748  29.101  1.00  0.00     0.134 A 
ATOM     67  F   UNL A   1      41.865  29.301  27.797  1.00  0.00    -0.206 F 
ATOM     68  C   UNL A   1      41.131  27.295  26.826  1.00  0.00     0.040 A 
ATOM     69  C   UNL A   1      39.643  25.842  28.039  1.00  0.00     0.040 A 
ATOM     70  F   UNL A   1      38.893  26.446  30.178  1.00  0.00    -0.206 F 
ATOM     71  C   UNL A   1      40.387  26.119  26.893  1.00  0.00     0.006 A 
ENDBRANCH  50  64
BRANCH  51  72
ATOM     72  C   UNL A   1      39.869  34.286  36.743  1.00  0.00     0.057 A 
ATOM     73  C   UNL A   1      40.587  35.487  36.757  1.00  0.00     0.134 A 
ATOM     74  C   UNL A   1      39.081  33.993  37.863  1.00  0.00     0.134 A 
ATOM     75  F   UNL A   1      41.374  35.815  35.721  1.00  0.00    -0.206 F 
ATOM     76  C   UNL A   1      40.542  36.354  37.850  1.00  0.00     0.040 A 
ATOM     77  C   UNL A   1      39.006  34.863  38.951  1.00  0.00     0.040 A 
ATOM     78  F   UNL A   1      38.362  32.862  37.908  1.00  0.00    -0.206 F 
ATOM     79  C   UNL A   1      39.744  36.045  38.950  1.00  0.00     0.006 A 
ENDBRANCH  51  72
BRANCH  63  80
ATOM     80  C   UNL A   1      44.093  28.985  35.157  1.00  0.00     0.057 A 
ATOM     81  C   UNL A   1      45.397  29.454  34.953  1.00  0.00     0.134 A 
ATOM     82  C   UNL A   1      43.917  27.946  36.080  1.00  0.00     0.134 A 
ATOM     83  F   UNL A   1      45.636  30.438  34.072  1.00  0.00    -0.206 F 
ATOM     84  C   UNL A   1      46.486  28.897  35.626  1.00  0.00     0.040 A 
ATOM     85  C   UNL A   1      44.993  27.401  36.780  1.00  0.00     0.040 A 
ATOM     86  F   UNL A   1      42.693  27.455  36.329  1.00  0.00    -0.206 F 
ATOM     87  C   UNL A   1      46.285  27.873  36.549  1.00  0.00     0.006 A 
ENDBRANCH  63  80
ENDBRANCH  37  38
ENDBRANCH  29  32
ENDBRANCH  27  28
ENDBRANCH  26  27
ENDBRANCH  25  26
ENDBRANCH   1  25
TORSDOF 17
ENDMDL
MODEL 3
REMARK VINA RESULT:     -10.2      4.159      6.465
REMARK SMILES C[C@H]1[C@H](C(=O)NCCCCCCNC(=O)c2ccc(-c3c4nc(c(-c5c(F)cccc5F)c5ccc([nH]5)c(-c5c(F)cccc5F)c5nc(c(-c6c(F)cccc6F)c6ccc3[nH]6)C=C5)C=C4)cc2)CCN1C(=O)[C@](C)([NH3+])C1CC1
REMARK SMILES IDX 9 1 8 2 7 3 6 4 4 5 5 6 3 8 1 9 2 10 72 11 70 12 71 13 73 14
REMARK SMILES IDX 74 15 75 16 76 17 77 18 78 22 79 23 80 24 10 25 11 26 12 27
REMARK SMILES IDX 13 28 14 29 15 31 16 32 17 33 69 34 18 35 68 36 19 37 20 38
REMARK SMILES IDX 21 39 62 40 22 41 67 42 61 43 63 44 23 45 66 46 60 47 59 48
REMARK SMILES IDX 24 50 50 51 33 52 49 53 34 54 37 55 48 56 64 57 35 58 36 59
REMARK SMILES IDX 47 61 65 62 38 63 25 64 26 65 31 66 27 67 28 68 30 69 32 70
REMARK SMILES IDX 29 71 51 72 52 73 57 74 53 75 54 76 56 77 58 78 55 79 39 80
REMARK SMILES IDX 40 81 45 82 41 83 42 84 44 85 46 86 43 87
REMARK H PARENT 6 7 77 19 77 20 77 21 13 30 63 49 37 60
REMARK Flexibility Score: inf
ROOT
ATOM      1  C   UNL A   1      32.307  26.761  25.868  1.00  0.00     0.002 C 
ENDROOT
BRANCH   1   2
ATOM      2  C   UNL A   1      30.799  26.885  25.642  1.00  0.00     0.021 C 
BRANCH   2   3
ATOM      3  C   UNL A   1      30.031  25.574  25.772  1.00  0.00     0.116 C 
BRANCH   3   4
ATOM      4  N   UNL A   1      30.667  24.677  26.715  1.00  0.00    -0.356 N 
ATOM      5  C   UNL A   1      31.336  23.510  26.533  1.00  0.00     0.225 C 
ATOM      6  O   UNL A   1      31.763  22.943  27.543  1.00  0.00    -0.275 OA
ATOM      7  H   UNL A   1      30.603  24.965  27.655  1.00  0.00     0.163 HD
BRANCH   5   8
ATOM      8  C   UNL A   1      31.562  22.887  25.164  1.00  0.00     0.102 C 
ATOM      9  C   UNL A   1      32.025  24.039  22.983  1.00  0.00     0.032 C 
ATOM     10  C   UNL A   1      32.628  23.627  24.329  1.00  0.00     0.094 C 
ATOM     11  N   UNL A   1      33.697  22.652  24.131  1.00  0.00    -0.334 N 
ATOM     12  C   UNL A   1      31.974  21.416  25.200  1.00  0.00     0.037 C 
ATOM     13  C   UNL A   1      33.147  21.307  24.241  1.00  0.00     0.121 C 
BRANCH  11  14
ATOM     14  C   UNL A   1      35.047  22.814  23.933  1.00  0.00     0.284 C 
ATOM     15  O   UNL A   1      35.436  23.030  22.767  1.00  0.00    -0.268 OA
BRANCH  14  16
ATOM     16  C   UNL A   1      36.170  22.796  25.046  1.00  0.00     0.174 C 
ATOM     17  C   UNL A   1      35.704  23.717  26.184  1.00  0.00     0.090 C 
BRANCH  16  18
ATOM     18  N   UNL A   1      37.336  23.515  24.417  1.00  0.00    -0.345 N 
ATOM     19  H   UNL A   1      38.208  23.077  24.718  1.00  0.00     0.345 HD
ATOM     20  H   UNL A   1      37.329  24.493  24.706  1.00  0.00     0.345 HD
ATOM     21  H   UNL A   1      37.261  23.460  23.401  1.00  0.00     0.345 HD
ENDBRANCH  16  18
BRANCH  16  22
ATOM     22  C   UNL A   1      36.843  21.508  25.507  1.00  0.00     0.060 C 
ATOM     23  C   UNL A   1      36.311  20.154  25.034  1.00  0.00     0.011 C 
ATOM     24  C   UNL A   1      37.710  20.549  24.714  1.00  0.00     0.011 C 
ENDBRANCH  16  22
ENDBRANCH  14  16
ENDBRANCH  11  14
ENDBRANCH   5   8
ENDBRANCH   3   4
ENDBRANCH   2   3
ENDBRANCH   1   2
BRANCH   1  25
ATOM     25  C   UNL A   1      33.174  27.671  24.993  1.00  0.00     0.002 C 
BRANCH  25  26
ATOM     26  C   UNL A   1      34.048  28.666  25.758  1.00  0.00     0.021 C 
BRANCH  26  27
ATOM     27  C   UNL A   1      33.798  28.708  27.262  1.00  0.00     0.116 C 
BRANCH  27  28
ATOM     28  N   UNL A   1      33.753  30.070  27.770  1.00  0.00    -0.352 N 
ATOM     29  C   UNL A   1      34.699  30.768  28.478  1.00  0.00     0.251 C 
ATOM     30  H   UNL A   1      32.923  30.562  27.578  1.00  0.00     0.163 HD
ATOM     31  O   UNL A   1      34.412  31.839  28.999  1.00  0.00    -0.269 OA
BRANCH  29  32
ATOM     32  C   UNL A   1      36.062  30.217  28.628  1.00  0.00     0.039 A 
ATOM     33  C   UNL A   1      36.938  30.277  27.541  1.00  0.00     0.014 A 
ATOM     34  C   UNL A   1      36.473  29.634  29.831  1.00  0.00     0.014 A 
ATOM     35  C   UNL A   1      38.245  29.805  27.679  1.00  0.00     0.010 A 
ATOM     36  C   UNL A   1      37.796  29.232  29.990  1.00  0.00     0.010 A 
ATOM     37  C   UNL A   1      38.694  29.310  28.914  1.00  0.00    -0.014 A 
BRANCH  37  38
ATOM     38  C   UNL A   1      40.101  28.872  29.098  1.00  0.00     0.031 A 
ATOM     39  C   UNL A   1      41.118  29.813  29.682  1.00  0.00     0.074 A 
ATOM     40  C   UNL A   1      40.475  27.646  28.685  1.00  0.00     0.049 A 
ATOM     41  N   UNL A   1      42.401  29.633  29.868  1.00  0.00    -0.248 NA
ATOM     42  C   UNL A   1      40.634  31.143  30.087  1.00  0.00     0.031 C 
ATOM     43  C   UNL A   1      39.593  26.657  28.061  1.00  0.00     0.029 A 
ATOM     44  N   UNL A   1      41.699  27.026  28.718  1.00  0.00    -0.354 N 
ATOM     45  C   UNL A   1      42.877  30.824  30.400  1.00  0.00     0.074 A 
ATOM     46  C   UNL A   1      41.758  31.740  30.454  1.00  0.00     0.031 C 
ATOM     47  C   UNL A   1      40.298  25.547  27.793  1.00  0.00     0.029 A 
ATOM     48  C   UNL A   1      41.688  25.758  28.187  1.00  0.00     0.049 A 
ATOM     49  H   UNL A   1      42.508  27.450  29.085  1.00  0.00     0.167 HD
ATOM     50  C   UNL A   1      44.128  31.122  30.826  1.00  0.00     0.037 A 
ATOM     51  C   UNL A   1      42.687  24.869  28.031  1.00  0.00     0.037 A 
ATOM     52  C   UNL A   1      45.235  30.204  30.785  1.00  0.00     0.049 A 
ATOM     53  C   UNL A   1      44.071  25.231  28.493  1.00  0.00     0.074 A 
ATOM     54  C   UNL A   1      46.527  30.390  31.245  1.00  0.00     0.029 A 
ATOM     55  N   UNL A   1      45.184  28.927  30.245  1.00  0.00    -0.354 N 
ATOM     56  N   UNL A   1      44.492  26.335  29.060  1.00  0.00    -0.248 NA
ATOM     57  C   UNL A   1      45.119  24.219  28.296  1.00  0.00     0.031 C 
ATOM     58  C   UNL A   1      47.270  29.245  30.939  1.00  0.00     0.029 A 
ATOM     59  C   UNL A   1      46.428  28.324  30.337  1.00  0.00     0.049 A 
ATOM     60  H   UNL A   1      44.382  28.510  29.854  1.00  0.00     0.167 HD
ATOM     61  C   UNL A   1      45.844  26.142  29.312  1.00  0.00     0.074 A 
ATOM     62  C   UNL A   1      46.169  24.809  28.851  1.00  0.00     0.031 C 
ATOM     63  C   UNL A   1      46.736  26.994  29.875  1.00  0.00     0.037 A 
BRANCH  50  64
ATOM     64  C   UNL A   1      44.363  32.500  31.374  1.00  0.00     0.057 A 
ATOM     65  C   UNL A   1      44.803  33.554  30.562  1.00  0.00     0.134 A 
ATOM     66  C   UNL A   1      44.117  32.786  32.723  1.00  0.00     0.134 A 
ATOM     67  F   UNL A   1      45.067  33.347  29.263  1.00  0.00    -0.206 F 
ATOM     68  C   UNL A   1      45.020  34.833  31.078  1.00  0.00     0.040 A 
ATOM     69  C   UNL A   1      44.303  34.068  33.244  1.00  0.00     0.040 A 
ATOM     70  F   UNL A   1      43.687  31.825  33.557  1.00  0.00    -0.206 F 
ATOM     71  C   UNL A   1      44.763  35.094  32.422  1.00  0.00     0.006 A 
ENDBRANCH  50  64
BRANCH  51  72
ATOM     72  C   UNL A   1      42.412  23.542  27.425  1.00  0.00     0.057 A 
ATOM     73  C   UNL A   1      42.079  22.441  28.222  1.00  0.00     0.134 A 
ATOM     74  C   UNL A   1      42.483  23.339  26.041  1.00  0.00     0.134 A 
ATOM     75  F   UNL A   1      42.013  22.568  29.555  1.00  0.00    -0.206 F 
ATOM     76  C   UNL A   1      41.844  21.181  27.668  1.00  0.00     0.040 A 
ATOM     77  C   UNL A   1      42.225  22.091  25.472  1.00  0.00     0.040 A 
ATOM     78  F   UNL A   1      42.789  24.355  25.222  1.00  0.00    -0.206 F 
ATOM     79  C   UNL A   1      41.912  21.005  26.287  1.00  0.00     0.006 A 
ENDBRANCH  51  72
BRANCH  63  80
ATOM     80  C   UNL A   1      48.142  26.497  30.052  1.00  0.00     0.057 A 
ATOM     81  C   UNL A   1      49.131  26.710  29.083  1.00  0.00     0.134 A 
ATOM     82  C   UNL A   1      48.520  25.829  31.225  1.00  0.00     0.134 A 
ATOM     83  F   UNL A   1      48.831  27.331  27.931  1.00  0.00    -0.206 F 
ATOM     84  C   UNL A   1      50.438  26.257  29.263  1.00  0.00     0.040 A 
ATOM     85  C   UNL A   1      49.830  25.397  31.428  1.00  0.00     0.040 A 
ATOM     86  F   UNL A   1      47.624  25.601  32.197  1.00  0.00    -0.206 F 
ATOM     87  C   UNL A   1      50.793  25.605  30.442  1.00  0.00     0.006 A 
ENDBRANCH  63  80
ENDBRANCH  37  38
ENDBRANCH  29  32
ENDBRANCH  27  28
ENDBRANCH  26  27
ENDBRANCH  25  26
ENDBRANCH   1  25
TORSDOF 17
ENDMDL
