MODEL 1
REMARK VINA RESULT:     -11.0      0.000      0.000
REMARK SMILES CC[C@@H](C)[C@H](NC(=O)CCc1ccc(F)c(F)c1)C(=O)NCCCCCCNC(=O)c1ccc(-c2c3nc(c(-c4c(F)cccc4F)c4ccc([nH]4)c(-c4c(F)cccc4F)c4nc(c(-c5c(F)cccc5F)c5ccc2[nH]5)C=C4)C=C3)cc1
REMARK SMILES IDX 23 1 22 2 21 3 19 4 20 5 5 7 3 8 4 9 2 10 1 11 6 12 7 13
REMARK SMILES IDX 8 15 9 16 10 17 11 18 12 19 18 20 13 21 16 22 14 23 17 24
REMARK SMILES IDX 15 25 24 26 25 27 26 28 27 29 28 30 29 31 30 33 31 34 32 35
REMARK SMILES IDX 84 36 33 37 83 38 34 39 35 40 36 41 77 42 37 43 82 44 76 45
REMARK SMILES IDX 78 46 38 47 81 48 75 49 74 50 39 52 65 53 48 54 64 55 49 56
REMARK SMILES IDX 52 57 63 58 79 59 50 60 51 61 62 63 80 64 53 65 40 66 41 67
REMARK SMILES IDX 46 68 42 69 43 70 45 71 47 72 44 73 66 74 67 75 72 76 68 77
REMARK SMILES IDX 69 78 71 79 73 80 70 81 54 82 55 83 60 84 56 85 57 86 59 87
REMARK SMILES IDX 61 88 58 89
REMARK H PARENT 21 6 6 14 28 32 78 51 52 62
REMARK Flexibility Score: inf
ROOT
ATOM      1  C   UNL A   1      35.830  23.217  24.838  1.00  0.00     0.021 C 
ENDROOT
BRANCH   1   2
ATOM      2  C   UNL A   1      34.777  24.121  24.211  1.00  0.00     0.116 C 
BRANCH   2   3
ATOM      3  N   UNL A   1      34.596  25.370  24.917  1.00  0.00    -0.354 N 
ATOM      4  C   UNL A   1      33.500  25.932  25.483  1.00  0.00     0.242 C 
ATOM      5  O   UNL A   1      33.695  26.931  26.182  1.00  0.00    -0.273 OA
ATOM      6  H   UNL A   1      35.416  25.909  25.002  1.00  0.00     0.163 HD
BRANCH   4   7
ATOM      7  C   UNL A   1      32.095  25.299  25.386  1.00  0.00     0.174 C 
BRANCH   7   8
ATOM      8  C   UNL A   1      31.064  26.326  24.801  1.00  0.00     0.018 C 
ATOM      9  C   UNL A   1      29.652  26.044  25.336  1.00  0.00     0.010 C 
BRANCH   8  10
ATOM     10  C   UNL A   1      31.075  26.411  23.258  1.00  0.00     0.002 C 
ATOM     11  C   UNL A   1      31.634  25.188  22.545  1.00  0.00     0.004 C 
ENDBRANCH   8  10
ENDBRANCH   7   8
BRANCH   7  12
ATOM     12  N   UNL A   1      31.569  24.628  26.586  1.00  0.00    -0.344 N 
ATOM     13  C   UNL A   1      31.422  23.290  26.827  1.00  0.00     0.220 C 
ATOM     14  H   UNL A   1      31.286  25.224  27.317  1.00  0.00     0.164 HD
ATOM     15  O   UNL A   1      30.538  22.939  27.613  1.00  0.00    -0.275 OA
BRANCH  13  16
ATOM     16  C   UNL A   1      32.366  22.266  26.227  1.00  0.00     0.105 C 
BRANCH  16  17
ATOM     17  C   UNL A   1      32.098  21.943  24.763  1.00  0.00     0.045 C 
BRANCH  17  18
ATOM     18  C   UNL A   1      32.346  20.492  24.447  1.00  0.00    -0.044 A 
ATOM     19  C   UNL A   1      32.847  19.616  25.423  1.00  0.00     0.007 A 
ATOM     20  C   UNL A   1      32.158  20.027  23.137  1.00  0.00     0.046 A 
ATOM     21  C   UNL A   1      33.174  18.300  25.087  1.00  0.00     0.043 A 
ATOM     22  C   UNL A   1      32.490  18.717  22.813  1.00  0.00     0.159 A 
ATOM     23  C   UNL A   1      32.998  17.860  23.780  1.00  0.00     0.158 A 
ATOM     24  F   UNL A   1      32.348  18.301  21.547  1.00  0.00    -0.204 F 
ATOM     25  F   UNL A   1      33.346  16.608  23.455  1.00  0.00    -0.204 F 
ENDBRANCH  17  18
ENDBRANCH  16  17
ENDBRANCH  13  16
ENDBRANCH   7  12
ENDBRANCH   4   7
ENDBRANCH   2   3
ENDBRANCH   1   2
BRANCH   1  26
ATOM     26  C   UNL A   1      35.871  21.767  24.347  1.00  0.00     0.002 C 
BRANCH  26  27
ATOM     27  C   UNL A   1      36.529  20.726  25.259  1.00  0.00     0.002 C 
BRANCH  27  28
ATOM     28  C   UNL A   1      37.880  20.176  24.812  1.00  0.00     0.021 C 
BRANCH  28  29
ATOM     29  C   UNL A   1      39.021  20.377  25.793  1.00  0.00     0.116 C 
BRANCH  29  30
ATOM     30  N   UNL A   1      39.944  19.259  25.818  1.00  0.00    -0.352 N 
ATOM     31  C   UNL A   1      41.286  19.281  26.100  1.00  0.00     0.251 C 
ATOM     32  H   UNL A   1      39.561  18.377  25.607  1.00  0.00     0.163 HD
ATOM     33  O   UNL A   1      41.976  18.274  25.977  1.00  0.00    -0.269 OA
BRANCH  31  34
ATOM     34  C   UNL A   1      41.900  20.558  26.517  1.00  0.00     0.039 A 
ATOM     35  C   UNL A   1      42.380  21.422  25.533  1.00  0.00     0.014 A 
ATOM     36  C   UNL A   1      41.935  20.920  27.868  1.00  0.00     0.014 A 
ATOM     37  C   UNL A   1      42.846  22.685  25.899  1.00  0.00     0.010 A 
ATOM     38  C   UNL A   1      42.344  22.203  28.224  1.00  0.00     0.010 A 
ATOM     39  C   UNL A   1      42.802  23.095  27.242  1.00  0.00    -0.014 A 
BRANCH  39  40
ATOM     40  C   UNL A   1      43.234  24.457  27.634  1.00  0.00     0.031 A 
ATOM     41  C   UNL A   1      42.210  25.499  27.987  1.00  0.00     0.074 A 
ATOM     42  C   UNL A   1      44.544  24.772  27.617  1.00  0.00     0.049 A 
ATOM     43  N   UNL A   1      42.387  26.752  28.313  1.00  0.00    -0.248 NA
ATOM     44  C   UNL A   1      40.799  25.082  27.945  1.00  0.00     0.031 C 
ATOM     45  C   UNL A   1      45.629  23.864  27.237  1.00  0.00     0.029 A 
ATOM     46  N   UNL A   1      45.185  25.947  27.917  1.00  0.00    -0.354 N 
ATOM     47  C   UNL A   1      41.115  27.277  28.500  1.00  0.00     0.074 A 
ATOM     48  C   UNL A   1      40.173  26.219  28.212  1.00  0.00     0.031 C 
ATOM     49  C   UNL A   1      46.801  24.512  27.341  1.00  0.00     0.029 A 
ATOM     50  C   UNL A   1      46.549  25.884  27.769  1.00  0.00     0.049 A 
ATOM     51  H   UNL A   1      44.711  26.759  28.209  1.00  0.00     0.167 HD
ATOM     52  C   UNL A   1      40.767  28.523  28.897  1.00  0.00     0.037 A 
ATOM     53  C   UNL A   1      47.489  26.830  27.956  1.00  0.00     0.037 A 
ATOM     54  C   UNL A   1      41.707  29.561  29.225  1.00  0.00     0.049 A 
ATOM     55  C   UNL A   1      47.073  28.200  28.417  1.00  0.00     0.074 A 
ATOM     56  C   UNL A   1      41.452  30.827  29.722  1.00  0.00     0.029 A 
ATOM     57  N   UNL A   1      43.081  29.452  29.088  1.00  0.00    -0.354 N 
ATOM     58  N   UNL A   1      45.871  28.655  28.671  1.00  0.00    -0.248 NA
ATOM     59  C   UNL A   1      48.145  29.184  28.621  1.00  0.00     0.031 C 
ATOM     60  C   UNL A   1      42.672  31.497  29.855  1.00  0.00     0.029 A 
ATOM     61  C   UNL A   1      43.688  30.637  29.470  1.00  0.00     0.049 A 
ATOM     62  H   UNL A   1      43.556  28.652  28.766  1.00  0.00     0.167 HD
ATOM     63  C   UNL A   1      46.043  29.969  29.083  1.00  0.00     0.074 A 
ATOM     64  C   UNL A   1      47.466  30.234  29.062  1.00  0.00     0.031 C 
ATOM     65  C   UNL A   1      45.106  30.878  29.444  1.00  0.00     0.037 A 
BRANCH  52  66
ATOM     66  C   UNL A   1      39.306  28.831  29.016  1.00  0.00     0.057 A 
ATOM     67  C   UNL A   1      38.612  28.647  30.218  1.00  0.00     0.134 A 
ATOM     68  C   UNL A   1      38.600  29.370  27.934  1.00  0.00     0.134 A 
ATOM     69  F   UNL A   1      39.230  28.122  31.286  1.00  0.00    -0.206 F 
ATOM     70  C   UNL A   1      37.261  28.978  30.337  1.00  0.00     0.040 A 
ATOM     71  C   UNL A   1      37.255  29.724  28.046  1.00  0.00     0.040 A 
ATOM     72  F   UNL A   1      39.210  29.572  26.756  1.00  0.00    -0.206 F 
ATOM     73  C   UNL A   1      36.582  29.527  29.250  1.00  0.00     0.006 A 
ENDBRANCH  52  66
BRANCH  53  74
ATOM     74  C   UNL A   1      48.921  26.517  27.722  1.00  0.00     0.057 A 
ATOM     75  C   UNL A   1      49.730  26.026  28.754  1.00  0.00     0.134 A 
ATOM     76  C   UNL A   1      49.518  26.725  26.474  1.00  0.00     0.134 A 
ATOM     77  F   UNL A   1      49.217  25.826  29.976  1.00  0.00    -0.206 F 
ATOM     78  C   UNL A   1      51.089  25.776  28.559  1.00  0.00     0.040 A 
ATOM     79  C   UNL A   1      50.871  26.459  26.260  1.00  0.00     0.040 A 
ATOM     80  F   UNL A   1      48.794  27.189  25.445  1.00  0.00    -0.206 F 
ATOM     81  C   UNL A   1      51.662  25.990  27.307  1.00  0.00     0.006 A 
ENDBRANCH  53  74
BRANCH  65  82
ATOM     82  C   UNL A   1      45.593  32.232  29.862  1.00  0.00     0.057 A 
ATOM     83  C   UNL A   1      45.711  33.283  28.946  1.00  0.00     0.134 A 
ATOM     84  C   UNL A   1      45.911  32.496  31.201  1.00  0.00     0.134 A 
ATOM     85  F   UNL A   1      45.434  33.088  27.648  1.00  0.00    -0.206 F 
ATOM     86  C   UNL A   1      46.146  34.549  29.343  1.00  0.00     0.040 A 
ATOM     87  C   UNL A   1      46.326  33.762  31.612  1.00  0.00     0.040 A 
ATOM     88  F   UNL A   1      45.812  31.532  32.128  1.00  0.00    -0.206 F 
ATOM     89  C   UNL A   1      46.449  34.791  30.681  1.00  0.00     0.006 A 
ENDBRANCH  65  82
ENDBRANCH  39  40
ENDBRANCH  31  34
ENDBRANCH  29  30
ENDBRANCH  28  29
ENDBRANCH  27  28
ENDBRANCH  26  27
ENDBRANCH   1  26
TORSDOF 19
ENDMDL
MODEL 2
REMARK VINA RESULT:     -10.9      4.603      8.732
REMARK SMILES CC[C@@H](C)[C@H](NC(=O)CCc1ccc(F)c(F)c1)C(=O)NCCCCCCNC(=O)c1ccc(-c2c3nc(c(-c4c(F)cccc4F)c4ccc([nH]4)c(-c4c(F)cccc4F)c4nc(c(-c5c(F)cccc5F)c5ccc2[nH]5)C=C4)C=C3)cc1
REMARK SMILES IDX 23 1 22 2 21 3 19 4 20 5 5 7 3 8 4 9 2 10 1 11 6 12 7 13
REMARK SMILES IDX 8 15 9 16 10 17 11 18 12 19 18 20 13 21 16 22 14 23 17 24
REMARK SMILES IDX 15 25 24 26 25 27 26 28 27 29 28 30 29 31 30 33 31 34 32 35
REMARK SMILES IDX 84 36 33 37 83 38 34 39 35 40 36 41 77 42 37 43 82 44 76 45
REMARK SMILES IDX 78 46 38 47 81 48 75 49 74 50 39 52 65 53 48 54 64 55 49 56
REMARK SMILES IDX 52 57 63 58 79 59 50 60 51 61 62 63 80 64 53 65 40 66 41 67
REMARK SMILES IDX 46 68 42 69 43 70 45 71 47 72 44 73 66 74 67 75 72 76 68 77
REMARK SMILES IDX 69 78 71 79 73 80 70 81 54 82 55 83 60 84 56 85 57 86 59 87
REMARK SMILES IDX 61 88 58 89
REMARK H PARENT 21 6 6 14 28 32 78 51 52 62
REMARK Flexibility Score: inf
ROOT
ATOM      1  C   UNL A   1      31.546  28.091  26.907  1.00  0.00     0.021 C 
ENDROOT
BRANCH   1   2
ATOM      2  C   UNL A   1      31.652  26.826  26.065  1.00  0.00     0.116 C 
BRANCH   2   3
ATOM      3  N   UNL A   1      31.035  25.672  26.679  1.00  0.00    -0.354 N 
ATOM      4  C   UNL A   1      31.316  24.348  26.589  1.00  0.00     0.242 C 
ATOM      5  O   UNL A   1      30.724  23.608  27.382  1.00  0.00    -0.273 OA
ATOM      6  H   UNL A   1      30.274  25.884  27.267  1.00  0.00     0.163 HD
BRANCH   4   7
ATOM      7  C   UNL A   1      32.408  23.790  25.652  1.00  0.00     0.174 C 
BRANCH   7   8
ATOM      8  C   UNL A   1      33.834  24.018  26.265  1.00  0.00     0.018 C 
ATOM      9  C   UNL A   1      34.674  24.934  25.363  1.00  0.00     0.010 C 
BRANCH   8  10
ATOM     10  C   UNL A   1      34.586  22.709  26.597  1.00  0.00     0.002 C 
ATOM     11  C   UNL A   1      33.933  21.836  27.659  1.00  0.00     0.004 C 
ENDBRANCH   8  10
ENDBRANCH   7   8
BRANCH   7  12
ATOM     12  N   UNL A   1      32.356  24.191  24.237  1.00  0.00    -0.344 N 
ATOM     13  C   UNL A   1      32.465  23.411  23.118  1.00  0.00     0.220 C 
ATOM     14  H   UNL A   1      32.225  25.152  24.071  1.00  0.00     0.164 HD
ATOM     15  O   UNL A   1      32.901  23.934  22.091  1.00  0.00    -0.275 OA
BRANCH  13  16
ATOM     16  C   UNL A   1      31.981  21.973  23.103  1.00  0.00     0.105 C 
BRANCH  16  17
ATOM     17  C   UNL A   1      32.418  21.149  24.306  1.00  0.00     0.045 C 
BRANCH  17  18
ATOM     18  C   UNL A   1      32.951  19.798  23.906  1.00  0.00    -0.044 A 
ATOM     19  C   UNL A   1      32.273  19.004  22.967  1.00  0.00     0.007 A 
ATOM     20  C   UNL A   1      34.090  19.286  24.545  1.00  0.00     0.046 A 
ATOM     21  C   UNL A   1      32.718  17.710  22.686  1.00  0.00     0.043 A 
ATOM     22  C   UNL A   1      34.523  17.997  24.260  1.00  0.00     0.159 A 
ATOM     23  C   UNL A   1      33.840  17.212  23.340  1.00  0.00     0.158 A 
ATOM     24  F   UNL A   1      35.585  17.505  24.912  1.00  0.00    -0.204 F 
ATOM     25  F   UNL A   1      34.243  15.959  23.094  1.00  0.00    -0.204 F 
ENDBRANCH  17  18
ENDBRANCH  16  17
ENDBRANCH  13  16
ENDBRANCH   7  12
ENDBRANCH   4   7
ENDBRANCH   2   3
ENDBRANCH   1   2
BRANCH   1  26
ATOM     26  C   UNL A   1      32.440  29.265  26.499  1.00  0.00     0.002 C 
BRANCH  26  27
ATOM     27  C   UNL A   1      31.763  30.493  25.883  1.00  0.00     0.002 C 
BRANCH  27  28
ATOM     28  C   UNL A   1      31.540  31.690  26.802  1.00  0.00     0.021 C 
BRANCH  28  29
ATOM     29  C   UNL A   1      32.793  32.454  27.192  1.00  0.00     0.116 C 
BRANCH  29  30
ATOM     30  N   UNL A   1      32.519  33.824  27.577  1.00  0.00    -0.352 N 
ATOM     31  C   UNL A   1      33.156  34.574  28.533  1.00  0.00     0.251 C 
ATOM     32  H   UNL A   1      31.786  34.271  27.094  1.00  0.00     0.163 HD
ATOM     33  O   UNL A   1      32.749  35.690  28.837  1.00  0.00    -0.269 OA
BRANCH  31  34
ATOM     34  C   UNL A   1      34.324  33.993  29.225  1.00  0.00     0.039 A 
ATOM     35  C   UNL A   1      34.105  33.069  30.248  1.00  0.00     0.014 A 
ATOM     36  C   UNL A   1      35.623  34.311  28.814  1.00  0.00     0.014 A 
ATOM     37  C   UNL A   1      35.193  32.416  30.825  1.00  0.00     0.010 A 
ATOM     38  C   UNL A   1      36.702  33.614  29.349  1.00  0.00     0.010 A 
ATOM     39  C   UNL A   1      36.496  32.661  30.358  1.00  0.00    -0.014 A 
BRANCH  39  40
ATOM     40  C   UNL A   1      37.654  31.925  30.920  1.00  0.00     0.031 A 
ATOM     41  C   UNL A   1      38.167  32.265  32.290  1.00  0.00     0.074 A 
ATOM     42  C   UNL A   1      38.276  30.992  30.173  1.00  0.00     0.049 A 
ATOM     43  N   UNL A   1      39.189  31.766  32.935  1.00  0.00    -0.248 NA
ATOM     44  C   UNL A   1      37.451  33.323  33.023  1.00  0.00     0.031 C 
ATOM     45  C   UNL A   1      37.907  30.614  28.808  1.00  0.00     0.029 A 
ATOM     46  N   UNL A   1      39.359  30.199  30.456  1.00  0.00    -0.354 N 
ATOM     47  C   UNL A   1      39.248  32.456  34.139  1.00  0.00     0.074 A 
ATOM     48  C   UNL A   1      38.186  33.436  34.120  1.00  0.00     0.031 C 
ATOM     49  C   UNL A   1      38.740  29.652  28.377  1.00  0.00     0.029 A 
ATOM     50  C   UNL A   1      39.715  29.364  29.425  1.00  0.00     0.049 A 
ATOM     51  H   UNL A   1      39.837  30.226  31.317  1.00  0.00     0.167 HD
ATOM     52  C   UNL A   1      40.099  32.271  35.175  1.00  0.00     0.037 A 
ATOM     53  C   UNL A   1      40.717  28.469  29.335  1.00  0.00     0.037 A 
ATOM     54  C   UNL A   1      41.128  31.267  35.210  1.00  0.00     0.049 A 
ATOM     55  C   UNL A   1      41.635  28.273  30.511  1.00  0.00     0.074 A 
ATOM     56  C   UNL A   1      41.981  30.945  36.251  1.00  0.00     0.029 A 
ATOM     57  N   UNL A   1      41.441  30.423  34.157  1.00  0.00    -0.354 N 
ATOM     58  N   UNL A   1      41.624  28.874  31.675  1.00  0.00    -0.248 NA
ATOM     59  C   UNL A   1      42.699  27.270  30.361  1.00  0.00     0.031 C 
ATOM     60  C   UNL A   1      42.835  29.926  35.815  1.00  0.00     0.029 A 
ATOM     61  C   UNL A   1      42.491  29.594  34.515  1.00  0.00     0.049 A 
ATOM     62  H   UNL A   1      40.986  30.414  33.285  1.00  0.00     0.167 HD
ATOM     63  C   UNL A   1      42.665  28.311  32.401  1.00  0.00     0.074 A 
ATOM     64  C   UNL A   1      43.275  27.308  31.554  1.00  0.00     0.031 C 
ATOM     65  C   UNL A   1      43.080  28.600  33.658  1.00  0.00     0.037 A 
BRANCH  52  66
ATOM     66  C   UNL A   1      39.946  33.165  36.367  1.00  0.00     0.057 A 
ATOM     67  C   UNL A   1      40.685  34.347  36.500  1.00  0.00     0.134 A 
ATOM     68  C   UNL A   1      39.007  32.871  37.364  1.00  0.00     0.134 A 
ATOM     69  F   UNL A   1      41.608  34.677  35.583  1.00  0.00    -0.206 F 
ATOM     70  C   UNL A   1      40.505  35.200  37.589  1.00  0.00     0.040 A 
ATOM     71  C   UNL A   1      38.804  33.725  38.448  1.00  0.00     0.040 A 
ATOM     72  F   UNL A   1      38.267  31.755  37.293  1.00  0.00    -0.206 F 
ATOM     73  C   UNL A   1      39.556  34.893  38.563  1.00  0.00     0.006 A 
ENDBRANCH  52  66
BRANCH  53  74
ATOM     74  C   UNL A   1      40.904  27.678  28.094  1.00  0.00     0.057 A 
ATOM     75  C   UNL A   1      41.669  28.174  27.031  1.00  0.00     0.134 A 
ATOM     76  C   UNL A   1      40.305  26.425  27.931  1.00  0.00     0.134 A 
ATOM     77  F   UNL A   1      42.251  29.379  27.123  1.00  0.00    -0.206 F 
ATOM     78  C   UNL A   1      41.811  27.461  25.840  1.00  0.00     0.040 A 
ATOM     79  C   UNL A   1      40.457  25.692  26.753  1.00  0.00     0.040 A 
ATOM     80  F   UNL A   1      39.565  25.894  28.915  1.00  0.00    -0.206 F 
ATOM     81  C   UNL A   1      41.205  26.214  25.700  1.00  0.00     0.006 A 
ENDBRANCH  53  74
BRANCH  65  82
ATOM     82  C   UNL A   1      44.234  27.809  34.194  1.00  0.00     0.057 A 
ATOM     83  C   UNL A   1      45.550  28.276  34.098  1.00  0.00     0.134 A 
ATOM     84  C   UNL A   1      44.023  26.587  34.846  1.00  0.00     0.134 A 
ATOM     85  F   UNL A   1      45.818  29.432  33.473  1.00  0.00    -0.206 F 
ATOM     86  C   UNL A   1      46.621  27.545  34.617  1.00  0.00     0.040 A 
ATOM     87  C   UNL A   1      45.082  25.859  35.387  1.00  0.00     0.040 A 
ATOM     88  F   UNL A   1      42.784  26.090  34.976  1.00  0.00    -0.206 F 
ATOM     89  C   UNL A   1      46.386  26.336  35.269  1.00  0.00     0.006 A 
ENDBRANCH  65  82
ENDBRANCH  39  40
ENDBRANCH  31  34
ENDBRANCH  29  30
ENDBRANCH  28  29
ENDBRANCH  27  28
ENDBRANCH  26  27
ENDBRANCH   1  26
TORSDOF 19
ENDMDL
MODEL 3
REMARK VINA RESULT:     -10.9      5.408     10.410
REMARK SMILES CC[C@@H](C)[C@H](NC(=O)CCc1ccc(F)c(F)c1)C(=O)NCCCCCCNC(=O)c1ccc(-c2c3nc(c(-c4c(F)cccc4F)c4ccc([nH]4)c(-c4c(F)cccc4F)c4nc(c(-c5c(F)cccc5F)c5ccc2[nH]5)C=C4)C=C3)cc1
REMARK SMILES IDX 23 1 22 2 21 3 19 4 20 5 5 7 3 8 4 9 2 10 1 11 6 12 7 13
REMARK SMILES IDX 8 15 9 16 10 17 11 18 12 19 18 20 13 21 16 22 14 23 17 24
REMARK SMILES IDX 15 25 24 26 25 27 26 28 27 29 28 30 29 31 30 33 31 34 32 35
REMARK SMILES IDX 84 36 33 37 83 38 34 39 35 40 36 41 77 42 37 43 82 44 76 45
REMARK SMILES IDX 78 46 38 47 81 48 75 49 74 50 39 52 65 53 48 54 64 55 49 56
REMARK SMILES IDX 52 57 63 58 79 59 50 60 51 61 62 63 80 64 53 65 40 66 41 67
REMARK SMILES IDX 46 68 42 69 43 70 45 71 47 72 44 73 66 74 67 75 72 76 68 77
REMARK SMILES IDX 69 78 71 79 73 80 70 81 54 82 55 83 60 84 56 85 57 86 59 87
REMARK SMILES IDX 61 88 58 89
REMARK H PARENT 21 6 6 14 28 32 78 51 52 62
REMARK Flexibility Score: inf
ROOT
ATOM      1  C   UNL A   1      33.722  28.953  27.131  1.00  0.00     0.021 C 
ENDROOT
BRANCH   1   2
ATOM      2  C   UNL A   1      34.032  27.654  26.398  1.00  0.00     0.116 C 
BRANCH   2   3
ATOM      3  N   UNL A   1      34.022  27.789  24.959  1.00  0.00    -0.354 N 
ATOM      4  C   UNL A   1      33.697  26.911  23.977  1.00  0.00     0.242 C 
ATOM      5  O   UNL A   1      33.608  27.376  22.836  1.00  0.00    -0.273 OA
ATOM      6  H   UNL A   1      34.300  28.675  24.633  1.00  0.00     0.163 HD
BRANCH   4   7
ATOM      7  C   UNL A   1      33.323  25.442  24.263  1.00  0.00     0.174 C 
BRANCH   7   8
ATOM      8  C   UNL A   1      34.611  24.554  24.382  1.00  0.00     0.018 C 
ATOM      9  C   UNL A   1      34.699  23.563  23.213  1.00  0.00     0.010 C 
BRANCH   8  10
ATOM     10  C   UNL A   1      34.748  23.834  25.743  1.00  0.00     0.002 C 
ATOM     11  C   UNL A   1      33.454  23.682  26.530  1.00  0.00     0.004 C 
ENDBRANCH   8  10
ENDBRANCH   7   8
BRANCH   7  12
ATOM     12  N   UNL A   1      32.315  24.817  23.391  1.00  0.00    -0.344 N 
ATOM     13  C   UNL A   1      30.955  24.965  23.406  1.00  0.00     0.220 C 
ATOM     14  H   UNL A   1      32.667  24.210  22.700  1.00  0.00     0.164 HD
ATOM     15  O   UNL A   1      30.268  24.032  22.985  1.00  0.00    -0.275 OA
BRANCH  13  16
ATOM     16  C   UNL A   1      30.303  26.265  23.837  1.00  0.00     0.105 C 
BRANCH  16  17
ATOM     17  C   UNL A   1      30.390  27.385  22.809  1.00  0.00     0.045 C 
BRANCH  17  18
ATOM     18  C   UNL A   1      29.444  28.515  23.118  1.00  0.00    -0.044 A 
ATOM     19  C   UNL A   1      28.058  28.362  22.951  1.00  0.00     0.007 A 
ATOM     20  C   UNL A   1      29.957  29.766  23.491  1.00  0.00     0.046 A 
ATOM     21  C   UNL A   1      27.201  29.449  23.137  1.00  0.00     0.043 A 
ATOM     22  C   UNL A   1      29.096  30.842  23.670  1.00  0.00     0.159 A 
ATOM     23  C   UNL A   1      27.728  30.686  23.491  1.00  0.00     0.158 A 
ATOM     24  F   UNL A   1      29.606  32.041  23.982  1.00  0.00    -0.204 F 
ATOM     25  F   UNL A   1      26.907  31.734  23.634  1.00  0.00    -0.204 F 
ENDBRANCH  17  18
ENDBRANCH  16  17
ENDBRANCH  13  16
ENDBRANCH   7  12
ENDBRANCH   4   7
ENDBRANCH   2   3
ENDBRANCH   1   2
BRANCH   1  26
ATOM     26  C   UNL A   1      33.213  30.119  26.279  1.00  0.00     0.002 C 
BRANCH  26  27
ATOM     27  C   UNL A   1      31.750  30.539  26.451  1.00  0.00     0.002 C 
BRANCH  27  28
ATOM     28  C   UNL A   1      31.489  32.007  26.772  1.00  0.00     0.021 C 
BRANCH  28  29
ATOM     29  C   UNL A   1      32.679  32.773  27.323  1.00  0.00     0.116 C 
BRANCH  29  30
ATOM     30  N   UNL A   1      32.369  34.160  27.612  1.00  0.00    -0.352 N 
ATOM     31  C   UNL A   1      32.972  34.984  28.527  1.00  0.00     0.251 C 
ATOM     32  H   UNL A   1      31.637  34.558  27.087  1.00  0.00     0.163 HD
ATOM     33  O   UNL A   1      32.536  36.109  28.750  1.00  0.00    -0.269 OA
BRANCH  31  34
ATOM     34  C   UNL A   1      34.137  34.476  29.277  1.00  0.00     0.039 A 
ATOM     35  C   UNL A   1      33.921  33.837  30.498  1.00  0.00     0.014 A 
ATOM     36  C   UNL A   1      35.425  34.572  28.739  1.00  0.00     0.014 A 
ATOM     37  C   UNL A   1      34.994  33.238  31.158  1.00  0.00     0.010 A 
ATOM     38  C   UNL A   1      36.483  33.923  29.368  1.00  0.00     0.010 A 
ATOM     39  C   UNL A   1      36.276  33.251  30.582  1.00  0.00    -0.014 A 
BRANCH  39  40
ATOM     40  C   UNL A   1      37.410  32.563  31.242  1.00  0.00     0.031 A 
ATOM     41  C   UNL A   1      38.097  31.417  30.555  1.00  0.00     0.074 A 
ATOM     42  C   UNL A   1      37.784  32.934  32.482  1.00  0.00     0.049 A 
ATOM     43  N   UNL A   1      39.077  30.665  30.986  1.00  0.00    -0.248 NA
ATOM     44  C   UNL A   1      37.602  31.052  29.218  1.00  0.00     0.031 C 
ATOM     45  C   UNL A   1      37.158  33.994  33.275  1.00  0.00     0.029 A 
ATOM     46  N   UNL A   1      38.776  32.452  33.298  1.00  0.00    -0.354 N 
ATOM     47  C   UNL A   1      39.305  29.732  29.983  1.00  0.00     0.074 A 
ATOM     48  C   UNL A   1      38.337  29.985  28.939  1.00  0.00     0.031 C 
ATOM     49  C   UNL A   1      37.790  34.092  34.456  1.00  0.00     0.029 A 
ATOM     50  C   UNL A   1      38.847  33.087  34.514  1.00  0.00     0.049 A 
ATOM     51  H   UNL A   1      39.380  31.719  33.037  1.00  0.00     0.167 HD
ATOM     52  C   UNL A   1      40.252  28.766  29.929  1.00  0.00     0.037 A 
ATOM     53  C   UNL A   1      39.670  32.879  35.559  1.00  0.00     0.037 A 
ATOM     54  C   UNL A   1      41.241  28.544  30.948  1.00  0.00     0.049 A 
ATOM     55  C   UNL A   1      40.726  31.811  35.462  1.00  0.00     0.074 A 
ATOM     56  C   UNL A   1      42.297  27.649  30.943  1.00  0.00     0.029 A 
ATOM     57  N   UNL A   1      41.297  29.224  32.154  1.00  0.00    -0.354 N 
ATOM     58  N   UNL A   1      40.983  30.994  34.471  1.00  0.00    -0.248 NA
ATOM     59  C   UNL A   1      41.606  31.642  36.626  1.00  0.00     0.031 C 
ATOM     60  C   UNL A   1      42.972  27.764  32.162  1.00  0.00     0.029 A 
ATOM     61  C   UNL A   1      42.356  28.753  32.912  1.00  0.00     0.049 A 
ATOM     62  H   UNL A   1      40.676  29.936  32.432  1.00  0.00     0.167 HD
ATOM     63  C   UNL A   1      42.065  30.228  34.883  1.00  0.00     0.074 A 
ATOM     64  C   UNL A   1      42.427  30.689  36.207  1.00  0.00     0.031 C 
ATOM     65  C   UNL A   1      42.701  29.229  34.225  1.00  0.00     0.037 A 
BRANCH  52  66
ATOM     66  C   UNL A   1      40.275  27.884  28.719  1.00  0.00     0.057 A 
ATOM     67  C   UNL A   1      40.999  28.228  27.572  1.00  0.00     0.134 A 
ATOM     68  C   UNL A   1      39.613  26.650  28.723  1.00  0.00     0.134 A 
ATOM     69  F   UNL A   1      41.644  29.403  27.503  1.00  0.00    -0.206 F 
ATOM     70  C   UNL A   1      41.055  27.381  26.464  1.00  0.00     0.040 A 
ATOM     71  C   UNL A   1      39.677  25.785  27.630  1.00  0.00     0.040 A 
ATOM     72  F   UNL A   1      38.904  26.261  29.794  1.00  0.00    -0.206 F 
ATOM     73  C   UNL A   1      40.399  26.152  26.496  1.00  0.00     0.006 A 
ENDBRANCH  52  66
BRANCH  53  74
ATOM     74  C   UNL A   1      39.545  33.703  36.786  1.00  0.00     0.057 A 
ATOM     75  C   UNL A   1      38.742  33.288  37.856  1.00  0.00     0.134 A 
ATOM     76  C   UNL A   1      40.200  34.933  36.909  1.00  0.00     0.134 A 
ATOM     77  F   UNL A   1      38.075  32.126  37.786  1.00  0.00    -0.206 F 
ATOM     78  C   UNL A   1      38.577  34.077  38.994  1.00  0.00     0.040 A 
ATOM     79  C   UNL A   1      40.061  35.723  38.050  1.00  0.00     0.040 A 
ATOM     80  F   UNL A   1      40.987  35.383  35.920  1.00  0.00    -0.206 F 
ATOM     81  C   UNL A   1      39.241  35.298  39.094  1.00  0.00     0.006 A 
ENDBRANCH  53  74
BRANCH  65  82
ATOM     82  C   UNL A   1      43.862  28.585  34.920  1.00  0.00     0.057 A 
ATOM     83  C   UNL A   1      45.154  29.116  34.833  1.00  0.00     0.134 A 
ATOM     84  C   UNL A   1      43.678  27.447  35.715  1.00  0.00     0.134 A 
ATOM     85  F   UNL A   1      45.396  30.197  34.077  1.00  0.00    -0.206 F 
ATOM     86  C   UNL A   1      46.229  28.525  35.499  1.00  0.00     0.040 A 
ATOM     87  C   UNL A   1      44.741  26.861  36.402  1.00  0.00     0.040 A 
ATOM     88  F   UNL A   1      42.462  26.895  35.844  1.00  0.00    -0.206 F 
ATOM     89  C   UNL A   1      46.022  27.397  36.291  1.00  0.00     0.006 A 
ENDBRANCH  65  82
ENDBRANCH  39  40
ENDBRANCH  31  34
ENDBRANCH  29  30
ENDBRANCH  28  29
ENDBRANCH  27  28
ENDBRANCH  26  27
ENDBRANCH   1  26
TORSDOF 19
ENDMDL
