MODEL 1
REMARK VINA RESULT:     -13.2      0.000      0.000
REMARK SMILES NS(=O)(=O)c1ccc(-n2nc(C(=O)NCCCCCCNC(=O)c3ccc(-c4c5nc(c(-c6c(F)cccc6F)c6ccc([nH]6)c(-c6c(F)cccc6F)c6nc(c(-c7c(F)cccc7F)c7ccc4[nH]7)C=C6)C=C5)cc3)c(Cl)c2-c2ccc(Cl)cc2)cc1
REMARK SMILES IDX 17 1 16 2 15 3 14 4 12 5 13 6 11 8 9 9 10 10 80 11 78 12
REMARK SMILES IDX 79 13 8 14 5 15 6 16 89 17 7 18 88 19 2 20 3 21 4 22 1 23
REMARK SMILES IDX 81 26 82 27 87 28 83 29 86 30 84 31 85 32 18 33 19 34 20 35
REMARK SMILES IDX 21 36 22 37 23 39 24 40 25 41 77 42 26 43 76 44 27 45 28 46
REMARK SMILES IDX 29 47 70 48 30 49 75 50 69 51 71 52 31 53 74 54 68 55 67 56
REMARK SMILES IDX 32 58 58 59 41 60 57 61 42 62 45 63 56 64 72 65 43 66 44 67
REMARK SMILES IDX 55 69 73 70 46 71 33 72 34 73 39 74 35 75 36 76 38 77 40 78
REMARK SMILES IDX 37 79 59 80 60 81 65 82 61 83 62 84 64 85 66 86 63 87 47 88
REMARK SMILES IDX 48 89 53 90 49 91 50 92 52 93 54 94 51 95
REMARK H PARENT 14 7 1 24 1 25 21 38 71 57 45 68
REMARK Flexibility Score: inf
ROOT
ATOM      1  C   UNL A   1      36.091  21.464  25.118  1.00  0.00     0.002 C 
ENDROOT
BRANCH   1   2
ATOM      2  C   UNL A   1      36.640  22.309  23.965  1.00  0.00     0.021 C 
BRANCH   2   3
ATOM      3  C   UNL A   1      35.576  23.032  23.128  1.00  0.00     0.116 C 
BRANCH   3   4
ATOM      4  N   UNL A   1      34.305  22.330  23.183  1.00  0.00    -0.351 N 
ATOM      5  C   UNL A   1      33.026  22.726  23.517  1.00  0.00     0.273 C 
ATOM      6  O   UNL A   1      32.150  21.868  23.387  1.00  0.00    -0.267 OA
ATOM      7  H   UNL A   1      34.369  21.380  22.932  1.00  0.00     0.163 HD
BRANCH   5   8
ATOM      8  C   UNL A   1      32.709  24.108  23.926  1.00  0.00     0.169 A 
ATOM      9  N   UNL A   1      31.989  26.131  23.694  1.00  0.00    -0.231 N 
ATOM     10  N   UNL A   1      32.056  24.930  23.072  1.00  0.00    -0.160 NA
ATOM     11  C   UNL A   1      32.708  26.133  24.876  1.00  0.00     0.094 A 
ATOM     12  C   UNL A   1      32.877  24.787  25.151  1.00  0.00     0.100 A 
ATOM     13  Cl  UNL A   1      33.157  24.163  26.709  1.00  0.00    -0.079 Cl
BRANCH   9  14
ATOM     14  C   UNL A   1      31.106  27.140  23.232  1.00  0.00     0.065 A 
ATOM     15  C   UNL A   1      29.351  29.225  22.671  1.00  0.00     0.082 A 
ATOM     16  C   UNL A   1      28.851  28.025  23.183  1.00  0.00     0.024 A 
ATOM     17  C   UNL A   1      30.716  29.376  22.399  1.00  0.00     0.024 A 
ATOM     18  C   UNL A   1      29.727  26.967  23.436  1.00  0.00     0.030 A 
ATOM     19  C   UNL A   1      31.600  28.337  22.701  1.00  0.00     0.030 A 
BRANCH  15  20
ATOM     20  S   UNL A   1      28.264  30.592  22.380  1.00  0.00     0.238 S 
ATOM     21  O   UNL A   1      29.061  31.788  22.143  1.00  0.00    -0.207 OA
ATOM     22  O   UNL A   1      27.191  30.544  23.323  1.00  0.00    -0.207 OA
BRANCH  20  23
ATOM     23  N   UNL A   1      27.602  30.220  20.877  1.00  0.00    -0.225 NA
ATOM     24  H   UNL A   1      27.964  29.321  20.560  1.00  0.00     0.137 HD
ATOM     25  H   UNL A   1      27.856  30.945  20.206  1.00  0.00     0.137 HD
ENDBRANCH  20  23
ENDBRANCH  15  20
ENDBRANCH   9  14
BRANCH  11  26
ATOM     26  C   UNL A   1      32.916  27.219  25.824  1.00  0.00     0.002 A 
ATOM     27  C   UNL A   1      31.799  27.740  26.495  1.00  0.00     0.012 A 
ATOM     28  C   UNL A   1      34.133  27.908  25.859  1.00  0.00     0.012 A 
ATOM     29  C   UNL A   1      31.881  28.974  27.138  1.00  0.00     0.021 A 
ATOM     30  C   UNL A   1      34.212  29.143  26.503  1.00  0.00     0.021 A 
ATOM     31  C   UNL A   1      33.081  29.681  27.117  1.00  0.00     0.041 A 
ATOM     32  Cl  UNL A   1      33.151  31.257  27.802  1.00  0.00    -0.084 Cl
ENDBRANCH  11  26
ENDBRANCH   5   8
ENDBRANCH   3   4
ENDBRANCH   2   3
ENDBRANCH   1   2
BRANCH   1  33
ATOM     33  C   UNL A   1      36.349  19.952  25.015  1.00  0.00     0.002 C 
BRANCH  33  34
ATOM     34  C   UNL A   1      37.782  19.514  24.673  1.00  0.00     0.021 C 
BRANCH  34  35
ATOM     35  C   UNL A   1      38.836  20.068  25.620  1.00  0.00     0.116 C 
BRANCH  35  36
ATOM     36  N   UNL A   1      39.950  19.130  25.847  1.00  0.00    -0.352 N 
ATOM     37  C   UNL A   1      41.304  19.372  26.034  1.00  0.00     0.251 C 
ATOM     38  H   UNL A   1      39.692  18.180  25.869  1.00  0.00     0.163 HD
ATOM     39  O   UNL A   1      42.131  18.486  25.862  1.00  0.00    -0.269 OA
BRANCH  37  40
ATOM     40  C   UNL A   1      41.742  20.708  26.472  1.00  0.00     0.039 A 
ATOM     41  C   UNL A   1      42.466  21.612  25.683  1.00  0.00     0.014 A 
ATOM     42  C   UNL A   1      41.352  21.074  27.741  1.00  0.00     0.014 A 
ATOM     43  C   UNL A   1      42.797  22.856  26.230  1.00  0.00     0.010 A 
ATOM     44  C   UNL A   1      41.239  22.395  27.996  1.00  0.00     0.010 A 
ATOM     45  C   UNL A   1      42.197  23.211  27.437  1.00  0.00    -0.014 A 
BRANCH  45  46
ATOM     46  C   UNL A   1      42.438  24.428  28.195  1.00  0.00     0.031 A 
ATOM     47  C   UNL A   1      41.357  25.428  28.059  1.00  0.00     0.074 A 
ATOM     48  C   UNL A   1      43.331  24.435  29.218  1.00  0.00     0.049 A 
ATOM     49  N   UNL A   1      41.397  26.562  27.446  1.00  0.00    -0.248 NA
ATOM     50  C   UNL A   1      40.003  25.029  28.486  1.00  0.00     0.031 C 
ATOM     51  C   UNL A   1      44.183  23.333  29.697  1.00  0.00     0.029 A 
ATOM     52  N   UNL A   1      43.578  25.409  30.138  1.00  0.00    -0.354 N 
ATOM     53  C   UNL A   1      40.135  27.116  27.634  1.00  0.00     0.074 A 
ATOM     54  C   UNL A   1      39.270  26.028  27.993  1.00  0.00     0.031 C 
ATOM     55  C   UNL A   1      44.681  23.631  30.920  1.00  0.00     0.029 A 
ATOM     56  C   UNL A   1      44.307  24.991  31.253  1.00  0.00     0.049 A 
ATOM     57  H   UNL A   1      43.266  26.335  30.025  1.00  0.00     0.167 HD
ATOM     58  C   UNL A   1      39.971  28.454  27.820  1.00  0.00     0.037 A 
ATOM     59  C   UNL A   1      44.534  25.719  32.378  1.00  0.00     0.037 A 
ATOM     60  C   UNL A   1      41.175  29.169  27.471  1.00  0.00     0.049 A 
ATOM     61  C   UNL A   1      44.242  27.139  32.045  1.00  0.00     0.074 A 
ATOM     62  C   UNL A   1      41.947  29.271  26.330  1.00  0.00     0.029 A 
ATOM     63  N   UNL A   1      41.979  29.589  28.505  1.00  0.00    -0.354 N 
ATOM     64  N   UNL A   1      44.951  27.844  31.206  1.00  0.00    -0.248 NA
ATOM     65  C   UNL A   1      42.879  27.604  32.252  1.00  0.00     0.031 C 
ATOM     66  C   UNL A   1      43.296  29.275  26.797  1.00  0.00     0.029 A 
ATOM     67  C   UNL A   1      43.273  29.263  28.192  1.00  0.00     0.049 A 
ATOM     68  H   UNL A   1      41.677  30.042  29.325  1.00  0.00     0.167 HD
ATOM     69  C   UNL A   1      44.020  28.559  30.465  1.00  0.00     0.074 A 
ATOM     70  C   UNL A   1      42.765  28.428  31.205  1.00  0.00     0.031 C 
ATOM     71  C   UNL A   1      44.280  28.924  29.174  1.00  0.00     0.037 A 
BRANCH  58  72
ATOM     72  C   UNL A   1      38.898  29.074  28.689  1.00  0.00     0.057 A 
ATOM     73  C   UNL A   1      38.868  28.740  30.055  1.00  0.00     0.134 A 
ATOM     74  C   UNL A   1      37.752  29.751  28.219  1.00  0.00     0.134 A 
ATOM     75  F   UNL A   1      39.892  28.089  30.627  1.00  0.00    -0.206 F 
ATOM     76  C   UNL A   1      37.753  28.989  30.866  1.00  0.00     0.040 A 
ATOM     77  C   UNL A   1      36.658  30.055  29.034  1.00  0.00     0.040 A 
ATOM     78  F   UNL A   1      37.570  30.071  26.934  1.00  0.00    -0.206 F 
ATOM     79  C   UNL A   1      36.640  29.643  30.354  1.00  0.00     0.006 A 
ENDBRANCH  58  72
BRANCH  59  80
ATOM     80  C   UNL A   1      44.675  25.251  33.779  1.00  0.00     0.057 A 
ATOM     81  C   UNL A   1      43.558  24.998  34.589  1.00  0.00     0.134 A 
ATOM     82  C   UNL A   1      45.906  24.778  34.270  1.00  0.00     0.134 A 
ATOM     83  F   UNL A   1      42.332  25.368  34.190  1.00  0.00    -0.206 F 
ATOM     84  C   UNL A   1      43.655  24.304  35.805  1.00  0.00     0.040 A 
ATOM     85  C   UNL A   1      46.019  24.087  35.482  1.00  0.00     0.040 A 
ATOM     86  F   UNL A   1      47.027  24.893  33.544  1.00  0.00    -0.206 F 
ATOM     87  C   UNL A   1      44.889  23.836  36.249  1.00  0.00     0.006 A 
ENDBRANCH  59  80
BRANCH  71  88
ATOM     88  C   UNL A   1      45.686  28.740  28.663  1.00  0.00     0.057 A 
ATOM     89  C   UNL A   1      46.137  27.602  27.975  1.00  0.00     0.134 A 
ATOM     90  C   UNL A   1      46.571  29.820  28.732  1.00  0.00     0.134 A 
ATOM     91  F   UNL A   1      45.332  26.555  27.767  1.00  0.00    -0.206 F 
ATOM     92  C   UNL A   1      47.418  27.527  27.421  1.00  0.00     0.040 A 
ATOM     93  C   UNL A   1      47.843  29.771  28.155  1.00  0.00     0.040 A 
ATOM     94  F   UNL A   1      46.194  30.965  29.322  1.00  0.00    -0.206 F 
ATOM     95  C   UNL A   1      48.274  28.618  27.504  1.00  0.00     0.006 A 
ENDBRANCH  71  88
ENDBRANCH  45  46
ENDBRANCH  37  40
ENDBRANCH  35  36
ENDBRANCH  34  35
ENDBRANCH  33  34
ENDBRANCH   1  33
TORSDOF 17
ENDMDL
MODEL 2
REMARK VINA RESULT:     -12.9      2.522      6.127
REMARK SMILES NS(=O)(=O)c1ccc(-n2nc(C(=O)NCCCCCCNC(=O)c3ccc(-c4c5nc(c(-c6c(F)cccc6F)c6ccc([nH]6)c(-c6c(F)cccc6F)c6nc(c(-c7c(F)cccc7F)c7ccc4[nH]7)C=C6)C=C5)cc3)c(Cl)c2-c2ccc(Cl)cc2)cc1
REMARK SMILES IDX 17 1 16 2 15 3 14 4 12 5 13 6 11 8 9 9 10 10 80 11 78 12
REMARK SMILES IDX 79 13 8 14 5 15 6 16 89 17 7 18 88 19 2 20 3 21 4 22 1 23
REMARK SMILES IDX 81 26 82 27 87 28 83 29 86 30 84 31 85 32 18 33 19 34 20 35
REMARK SMILES IDX 21 36 22 37 23 39 24 40 25 41 77 42 26 43 76 44 27 45 28 46
REMARK SMILES IDX 29 47 70 48 30 49 75 50 69 51 71 52 31 53 74 54 68 55 67 56
REMARK SMILES IDX 32 58 58 59 41 60 57 61 42 62 45 63 56 64 72 65 43 66 44 67
REMARK SMILES IDX 55 69 73 70 46 71 33 72 34 73 39 74 35 75 36 76 38 77 40 78
REMARK SMILES IDX 37 79 59 80 60 81 65 82 61 83 62 84 64 85 66 86 63 87 47 88
REMARK SMILES IDX 48 89 53 90 49 91 50 92 52 93 54 94 51 95
REMARK H PARENT 14 7 1 24 1 25 21 38 71 57 45 68
REMARK Flexibility Score: inf
ROOT
ATOM      1  C   UNL A   1      37.038  23.319  24.437  1.00  0.00     0.002 C 
ENDROOT
BRANCH   1   2
ATOM      2  C   UNL A   1      35.817  22.698  23.754  1.00  0.00     0.021 C 
BRANCH   2   3
ATOM      3  C   UNL A   1      34.951  21.809  24.657  1.00  0.00     0.116 C 
BRANCH   3   4
ATOM      4  N   UNL A   1      33.729  21.414  23.979  1.00  0.00    -0.351 N 
ATOM      5  C   UNL A   1      32.557  22.082  23.689  1.00  0.00     0.273 C 
ATOM      6  O   UNL A   1      31.731  21.449  23.025  1.00  0.00    -0.267 OA
ATOM      7  H   UNL A   1      33.738  20.481  23.664  1.00  0.00     0.163 HD
BRANCH   5   8
ATOM      8  C   UNL A   1      32.333  23.489  24.073  1.00  0.00     0.169 A 
ATOM      9  N   UNL A   1      31.696  25.537  23.826  1.00  0.00    -0.231 N 
ATOM     10  N   UNL A   1      31.664  24.317  23.238  1.00  0.00    -0.160 NA
ATOM     11  C   UNL A   1      32.491  25.537  24.958  1.00  0.00     0.094 A 
ATOM     12  C   UNL A   1      32.615  24.192  25.263  1.00  0.00     0.100 A 
ATOM     13  Cl  UNL A   1      32.967  23.600  26.819  1.00  0.00    -0.079 Cl
BRANCH   9  14
ATOM     14  C   UNL A   1      30.833  26.575  23.391  1.00  0.00     0.065 A 
ATOM     15  C   UNL A   1      29.168  28.744  22.874  1.00  0.00     0.082 A 
ATOM     16  C   UNL A   1      28.656  27.629  23.540  1.00  0.00     0.024 A 
ATOM     17  C   UNL A   1      30.495  28.767  22.428  1.00  0.00     0.024 A 
ATOM     18  C   UNL A   1      29.482  26.527  23.773  1.00  0.00     0.030 A 
ATOM     19  C   UNL A   1      31.337  27.687  22.706  1.00  0.00     0.030 A 
BRANCH  15  20
ATOM     20  S   UNL A   1      28.149  30.166  22.602  1.00  0.00     0.238 S 
ATOM     21  O   UNL A   1      28.957  31.367  22.777  1.00  0.00    -0.207 OA
ATOM     22  O   UNL A   1      26.892  29.971  23.253  1.00  0.00    -0.207 OA
BRANCH  20  23
ATOM     23  N   UNL A   1      27.852  30.094  20.947  1.00  0.00    -0.225 NA
ATOM     24  H   UNL A   1      26.891  29.794  20.787  1.00  0.00     0.137 HD
ATOM     25  H   UNL A   1      28.492  29.427  20.516  1.00  0.00     0.137 HD
ENDBRANCH  20  23
ENDBRANCH  15  20
ENDBRANCH   9  14
BRANCH  11  26
ATOM     26  C   UNL A   1      32.813  26.637  25.855  1.00  0.00     0.002 A 
ATOM     27  C   UNL A   1      31.789  27.162  26.660  1.00  0.00     0.012 A 
ATOM     28  C   UNL A   1      34.019  27.334  25.722  1.00  0.00     0.012 A 
ATOM     29  C   UNL A   1      31.945  28.405  27.270  1.00  0.00     0.021 A 
ATOM     30  C   UNL A   1      34.172  28.578  26.334  1.00  0.00     0.021 A 
ATOM     31  C   UNL A   1      33.127  29.119  27.083  1.00  0.00     0.041 A 
ATOM     32  Cl  UNL A   1      33.275  30.705  27.732  1.00  0.00    -0.084 Cl
ENDBRANCH  11  26
ENDBRANCH   5   8
ENDBRANCH   3   4
ENDBRANCH   2   3
ENDBRANCH   1   2
BRANCH   1  33
ATOM     33  C   UNL A   1      37.457  22.671  25.767  1.00  0.00     0.002 C 
BRANCH  33  34
ATOM     34  C   UNL A   1      38.721  21.795  25.744  1.00  0.00     0.021 C 
BRANCH  34  35
ATOM     35  C   UNL A   1      39.797  22.246  26.719  1.00  0.00     0.116 C 
BRANCH  35  36
ATOM     36  N   UNL A   1      41.148  22.220  26.130  1.00  0.00    -0.352 N 
ATOM     37  C   UNL A   1      41.994  23.263  25.777  1.00  0.00     0.251 C 
ATOM     38  H   UNL A   1      41.508  21.319  25.960  1.00  0.00     0.163 HD
ATOM     39  O   UNL A   1      42.918  23.085  24.992  1.00  0.00    -0.269 OA
BRANCH  37  40
ATOM     40  C   UNL A   1      41.789  24.591  26.379  1.00  0.00     0.039 A 
ATOM     41  C   UNL A   1      40.976  25.597  25.840  1.00  0.00     0.014 A 
ATOM     42  C   UNL A   1      42.427  24.802  27.580  1.00  0.00     0.014 A 
ATOM     43  C   UNL A   1      40.864  26.805  26.537  1.00  0.00     0.010 A 
ATOM     44  C   UNL A   1      41.887  25.717  28.415  1.00  0.00     0.010 A 
ATOM     45  C   UNL A   1      41.382  26.857  27.829  1.00  0.00    -0.014 A 
BRANCH  45  46
ATOM     46  C   UNL A   1      41.413  28.019  28.701  1.00  0.00     0.031 A 
ATOM     47  C   UNL A   1      42.517  28.955  28.394  1.00  0.00     0.074 A 
ATOM     48  C   UNL A   1      40.310  28.379  29.406  1.00  0.00     0.049 A 
ATOM     49  N   UNL A   1      43.572  29.196  29.096  1.00  0.00    -0.248 NA
ATOM     50  C   UNL A   1      42.550  29.548  27.044  1.00  0.00     0.031 C 
ATOM     51  C   UNL A   1      38.998  27.711  29.456  1.00  0.00     0.029 A 
ATOM     52  N   UNL A   1      40.086  29.505  30.139  1.00  0.00    -0.354 N 
ATOM     53  C   UNL A   1      44.269  30.160  28.374  1.00  0.00     0.074 A 
ATOM     54  C   UNL A   1      43.765  30.097  27.032  1.00  0.00     0.031 C 
ATOM     55  C   UNL A   1      38.076  28.542  29.999  1.00  0.00     0.029 A 
ATOM     56  C   UNL A   1      38.748  29.738  30.463  1.00  0.00     0.049 A 
ATOM     57  H   UNL A   1      40.812  30.108  30.418  1.00  0.00     0.167 HD
ATOM     58  C   UNL A   1      44.947  31.159  29.003  1.00  0.00     0.037 A 
ATOM     59  C   UNL A   1      38.249  30.867  31.033  1.00  0.00     0.037 A 
ATOM     60  C   UNL A   1      45.095  30.870  30.409  1.00  0.00     0.049 A 
ATOM     61  C   UNL A   1      39.399  31.605  31.617  1.00  0.00     0.074 A 
ATOM     62  C   UNL A   1      45.652  29.834  31.133  1.00  0.00     0.029 A 
ATOM     63  N   UNL A   1      44.250  31.521  31.277  1.00  0.00    -0.354 N 
ATOM     64  N   UNL A   1      40.100  31.167  32.628  1.00  0.00    -0.248 NA
ATOM     65  C   UNL A   1      40.076  32.570  30.763  1.00  0.00     0.031 C 
ATOM     66  C   UNL A   1      44.758  29.625  32.225  1.00  0.00     0.029 A 
ATOM     67  C   UNL A   1      43.756  30.595  32.159  1.00  0.00     0.049 A 
ATOM     68  H   UNL A   1      44.037  32.482  31.265  1.00  0.00     0.167 HD
ATOM     69  C   UNL A   1      41.418  31.453  32.298  1.00  0.00     0.074 A 
ATOM     70  C   UNL A   1      41.335  32.384  31.173  1.00  0.00     0.031 C 
ATOM     71  C   UNL A   1      42.442  30.673  32.759  1.00  0.00     0.037 A 
BRANCH  58  72
ATOM     72  C   UNL A   1      45.112  32.560  28.453  1.00  0.00     0.057 A 
ATOM     73  C   UNL A   1      43.963  33.351  28.282  1.00  0.00     0.134 A 
ATOM     74  C   UNL A   1      46.279  33.067  27.841  1.00  0.00     0.134 A 
ATOM     75  F   UNL A   1      42.786  32.978  28.808  1.00  0.00    -0.206 F 
ATOM     76  C   UNL A   1      43.958  34.510  27.497  1.00  0.00     0.040 A 
ATOM     77  C   UNL A   1      46.297  34.254  27.104  1.00  0.00     0.040 A 
ATOM     78  F   UNL A   1      47.442  32.409  27.829  1.00  0.00    -0.206 F 
ATOM     79  C   UNL A   1      45.127  34.963  26.899  1.00  0.00     0.006 A 
ENDBRANCH  58  72
BRANCH  59  80
ATOM     80  C   UNL A   1      36.921  31.501  30.837  1.00  0.00     0.057 A 
ATOM     81  C   UNL A   1      36.042  31.717  31.908  1.00  0.00     0.134 A 
ATOM     82  C   UNL A   1      36.596  32.157  29.636  1.00  0.00     0.134 A 
ATOM     83  F   UNL A   1      36.287  31.172  33.109  1.00  0.00    -0.206 F 
ATOM     84  C   UNL A   1      34.916  32.548  31.797  1.00  0.00     0.040 A 
ATOM     85  C   UNL A   1      35.475  32.986  29.509  1.00  0.00     0.040 A 
ATOM     86  F   UNL A   1      37.407  32.087  28.570  1.00  0.00    -0.206 F 
ATOM     87  C   UNL A   1      34.636  33.195  30.597  1.00  0.00     0.006 A 
ENDBRANCH  59  80
BRANCH  71  88
ATOM     88  C   UNL A   1      42.123  29.651  33.820  1.00  0.00     0.057 A 
ATOM     89  C   UNL A   1      41.795  28.312  33.556  1.00  0.00     0.134 A 
ATOM     90  C   UNL A   1      42.309  29.997  35.162  1.00  0.00     0.134 A 
ATOM     91  F   UNL A   1      41.693  27.858  32.303  1.00  0.00    -0.206 F 
ATOM     92  C   UNL A   1      41.619  27.374  34.578  1.00  0.00     0.040 A 
ATOM     93  C   UNL A   1      42.169  29.063  36.191  1.00  0.00     0.040 A 
ATOM     94  F   UNL A   1      42.682  31.243  35.492  1.00  0.00    -0.206 F 
ATOM     95  C   UNL A   1      41.813  27.747  35.902  1.00  0.00     0.006 A 
ENDBRANCH  71  88
ENDBRANCH  45  46
ENDBRANCH  37  40
ENDBRANCH  35  36
ENDBRANCH  34  35
ENDBRANCH  33  34
ENDBRANCH   1  33
TORSDOF 17
ENDMDL
MODEL 3
REMARK VINA RESULT:     -12.9      3.107      7.959
REMARK SMILES NS(=O)(=O)c1ccc(-n2nc(C(=O)NCCCCCCNC(=O)c3ccc(-c4c5nc(c(-c6c(F)cccc6F)c6ccc([nH]6)c(-c6c(F)cccc6F)c6nc(c(-c7c(F)cccc7F)c7ccc4[nH]7)C=C6)C=C5)cc3)c(Cl)c2-c2ccc(Cl)cc2)cc1
REMARK SMILES IDX 17 1 16 2 15 3 14 4 12 5 13 6 11 8 9 9 10 10 80 11 78 12
REMARK SMILES IDX 79 13 8 14 5 15 6 16 89 17 7 18 88 19 2 20 3 21 4 22 1 23
REMARK SMILES IDX 81 26 82 27 87 28 83 29 86 30 84 31 85 32 18 33 19 34 20 35
REMARK SMILES IDX 21 36 22 37 23 39 24 40 25 41 77 42 26 43 76 44 27 45 28 46
REMARK SMILES IDX 29 47 70 48 30 49 75 50 69 51 71 52 31 53 74 54 68 55 67 56
REMARK SMILES IDX 32 58 58 59 41 60 57 61 42 62 45 63 56 64 72 65 43 66 44 67
REMARK SMILES IDX 55 69 73 70 46 71 33 72 34 73 39 74 35 75 36 76 38 77 40 78
REMARK SMILES IDX 37 79 59 80 60 81 65 82 61 83 62 84 64 85 66 86 63 87 47 88
REMARK SMILES IDX 48 89 53 90 49 91 50 92 52 93 54 94 51 95
REMARK H PARENT 14 7 1 24 1 25 21 38 71 57 45 68
REMARK Flexibility Score: inf
ROOT
ATOM      1  C   UNL A   1      33.721  28.664  26.102  1.00  0.00     0.002 C 
ENDROOT
BRANCH   1   2
ATOM      2  C   UNL A   1      32.486  29.282  25.442  1.00  0.00     0.021 C 
BRANCH   2   3
ATOM      3  C   UNL A   1      31.217  28.422  25.508  1.00  0.00     0.116 C 
BRANCH   3   4
ATOM      4  N   UNL A   1      30.693  28.166  24.177  1.00  0.00    -0.351 N 
ATOM      5  C   UNL A   1      30.912  27.160  23.258  1.00  0.00     0.273 C 
ATOM      6  O   UNL A   1      30.234  27.220  22.229  1.00  0.00    -0.267 OA
ATOM      7  H   UNL A   1      30.054  28.849  23.868  1.00  0.00     0.163 HD
BRANCH   5   8
ATOM      8  C   UNL A   1      31.835  26.039  23.519  1.00  0.00     0.169 A 
ATOM      9  N   UNL A   1      32.414  24.021  24.025  1.00  0.00    -0.231 N 
ATOM     10  N   UNL A   1      31.342  24.798  23.739  1.00  0.00    -0.160 NA
ATOM     11  C   UNL A   1      33.573  24.769  24.127  1.00  0.00     0.094 A 
ATOM     12  C   UNL A   1      33.243  25.959  23.501  1.00  0.00     0.100 A 
ATOM     13  Cl  UNL A   1      34.382  27.016  22.809  1.00  0.00    -0.079 Cl
BRANCH   9  14
ATOM     14  C   UNL A   1      32.312  22.607  24.003  1.00  0.00     0.065 A 
ATOM     15  C   UNL A   1      32.456  19.832  23.848  1.00  0.00     0.082 A 
ATOM     16  C   UNL A   1      32.255  20.576  22.683  1.00  0.00     0.024 A 
ATOM     17  C   UNL A   1      32.545  20.462  25.095  1.00  0.00     0.024 A 
ATOM     18  C   UNL A   1      32.152  21.967  22.764  1.00  0.00     0.030 A 
ATOM     19  C   UNL A   1      32.494  21.856  25.171  1.00  0.00     0.030 A 
BRANCH  15  20
ATOM     20  S   UNL A   1      32.629  18.072  23.764  1.00  0.00     0.238 S 
ATOM     21  O   UNL A   1      31.778  17.465  24.779  1.00  0.00    -0.207 OA
ATOM     22  O   UNL A   1      34.011  17.745  23.607  1.00  0.00    -0.207 OA
BRANCH  20  23
ATOM     23  N   UNL A   1      31.877  17.700  22.304  1.00  0.00    -0.225 NA
ATOM     24  H   UNL A   1      30.926  17.377  22.484  1.00  0.00     0.137 HD
ATOM     25  H   UNL A   1      32.401  16.964  21.830  1.00  0.00     0.137 HD
ENDBRANCH  20  23
ENDBRANCH  15  20
ENDBRANCH   9  14
BRANCH  11  26
ATOM     26  C   UNL A   1      34.925  24.332  24.446  1.00  0.00     0.002 A 
ATOM     27  C   UNL A   1      35.615  23.561  23.498  1.00  0.00     0.012 A 
ATOM     28  C   UNL A   1      35.415  24.432  25.752  1.00  0.00     0.012 A 
ATOM     29  C   UNL A   1      36.749  22.841  23.872  1.00  0.00     0.021 A 
ATOM     30  C   UNL A   1      36.549  23.710  26.124  1.00  0.00     0.021 A 
ATOM     31  C   UNL A   1      37.195  22.899  25.190  1.00  0.00     0.041 A 
ATOM     32  Cl  UNL A   1      38.519  21.917  25.684  1.00  0.00    -0.084 Cl
ENDBRANCH  11  26
ENDBRANCH   5   8
ENDBRANCH   3   4
ENDBRANCH   2   3
ENDBRANCH   1   2
BRANCH   1  33
ATOM     33  C   UNL A   1      34.329  29.469  27.262  1.00  0.00     0.002 C 
BRANCH  33  34
ATOM     34  C   UNL A   1      33.758  30.877  27.505  1.00  0.00     0.021 C 
BRANCH  34  35
ATOM     35  C   UNL A   1      34.816  31.920  27.829  1.00  0.00     0.116 C 
BRANCH  35  36
ATOM     36  N   UNL A   1      34.694  32.450  29.199  1.00  0.00    -0.352 N 
ATOM     37  C   UNL A   1      35.232  31.988  30.392  1.00  0.00     0.251 C 
ATOM     38  H   UNL A   1      34.142  33.262  29.280  1.00  0.00     0.163 HD
ATOM     39  O   UNL A   1      34.759  32.330  31.470  1.00  0.00    -0.269 OA
BRANCH  37  40
ATOM     40  C   UNL A   1      36.403  31.096  30.356  1.00  0.00     0.039 A 
ATOM     41  C   UNL A   1      36.344  29.700  30.246  1.00  0.00     0.014 A 
ATOM     42  C   UNL A   1      37.627  31.725  30.391  1.00  0.00     0.014 A 
ATOM     43  C   UNL A   1      37.545  28.985  30.206  1.00  0.00     0.010 A 
ATOM     44  C   UNL A   1      38.673  31.071  29.840  1.00  0.00     0.010 A 
ATOM     45  C   UNL A   1      38.724  29.711  30.050  1.00  0.00    -0.014 A 
BRANCH  45  46
ATOM     46  C   UNL A   1      40.074  29.171  30.031  1.00  0.00     0.031 A 
ATOM     47  C   UNL A   1      40.644  28.970  31.381  1.00  0.00     0.074 A 
ATOM     48  C   UNL A   1      40.548  28.544  28.925  1.00  0.00     0.049 A 
ATOM     49  N   UNL A   1      41.601  29.628  31.945  1.00  0.00    -0.248 NA
ATOM     50  C   UNL A   1      39.931  28.057  32.293  1.00  0.00     0.031 C 
ATOM     51  C   UNL A   1      39.875  28.335  27.631  1.00  0.00     0.029 A 
ATOM     52  N   UNL A   1      41.703  27.841  28.763  1.00  0.00    -0.354 N 
ATOM     53  C   UNL A   1      41.759  29.032  33.191  1.00  0.00     0.074 A 
ATOM     54  C   UNL A   1      40.543  28.315  33.449  1.00  0.00     0.031 C 
ATOM     55  C   UNL A   1      40.535  27.398  26.912  1.00  0.00     0.029 A 
ATOM     56  C   UNL A   1      41.748  27.041  27.618  1.00  0.00     0.049 A 
ATOM     57  H   UNL A   1      42.449  27.892  29.403  1.00  0.00     0.167 HD
ATOM     58  C   UNL A   1      42.990  28.886  33.753  1.00  0.00     0.037 A 
ATOM     59  C   UNL A   1      42.706  26.123  27.322  1.00  0.00     0.037 A 
ATOM     60  C   UNL A   1      43.966  29.692  33.060  1.00  0.00     0.049 A 
ATOM     61  C   UNL A   1      43.876  26.419  28.190  1.00  0.00     0.074 A 
ATOM     62  C   UNL A   1      44.090  31.039  32.781  1.00  0.00     0.029 A 
ATOM     63  N   UNL A   1      44.799  29.049  32.176  1.00  0.00    -0.354 N 
ATOM     64  N   UNL A   1      44.599  27.500  28.085  1.00  0.00    -0.248 NA
ATOM     65  C   UNL A   1      43.925  25.762  29.488  1.00  0.00     0.031 C 
ATOM     66  C   UNL A   1      44.599  31.094  31.449  1.00  0.00     0.029 A 
ATOM     67  C   UNL A   1      44.840  29.787  31.022  1.00  0.00     0.049 A 
ATOM     68  H   UNL A   1      45.280  28.206  32.343  1.00  0.00     0.167 HD
ATOM     69  C   UNL A   1      44.838  27.898  29.393  1.00  0.00     0.074 A 
ATOM     70  C   UNL A   1      44.463  26.748  30.214  1.00  0.00     0.031 C 
ATOM     71  C   UNL A   1      45.020  29.217  29.705  1.00  0.00     0.037 A 
BRANCH  58  72
ATOM     72  C   UNL A   1      43.395  27.729  34.641  1.00  0.00     0.057 A 
ATOM     73  C   UNL A   1      43.420  26.437  34.087  1.00  0.00     0.134 A 
ATOM     74  C   UNL A   1      43.495  27.772  36.049  1.00  0.00     0.134 A 
ATOM     75  F   UNL A   1      43.326  26.255  32.761  1.00  0.00    -0.206 F 
ATOM     76  C   UNL A   1      43.461  25.280  34.875  1.00  0.00     0.040 A 
ATOM     77  C   UNL A   1      43.595  26.625  36.841  1.00  0.00     0.040 A 
ATOM     78  F   UNL A   1      43.404  28.905  36.752  1.00  0.00    -0.206 F 
ATOM     79  C   UNL A   1      43.542  25.372  36.259  1.00  0.00     0.006 A 
ENDBRANCH  58  72
BRANCH  59  80
ATOM     80  C   UNL A   1      42.573  24.841  26.586  1.00  0.00     0.057 A 
ATOM     81  C   UNL A   1      43.323  24.571  25.432  1.00  0.00     0.134 A 
ATOM     82  C   UNL A   1      41.904  23.741  27.153  1.00  0.00     0.134 A 
ATOM     83  F   UNL A   1      44.034  25.542  24.841  1.00  0.00    -0.206 F 
ATOM     84  C   UNL A   1      43.417  23.282  24.884  1.00  0.00     0.040 A 
ATOM     85  C   UNL A   1      41.985  22.451  26.616  1.00  0.00     0.040 A 
ATOM     86  F   UNL A   1      41.221  23.865  28.300  1.00  0.00    -0.206 F 
ATOM     87  C   UNL A   1      42.755  22.215  25.484  1.00  0.00     0.006 A 
ENDBRANCH  59  80
BRANCH  71  88
ATOM     88  C   UNL A   1      45.191  30.189  28.565  1.00  0.00     0.057 A 
ATOM     89  C   UNL A   1      46.389  30.377  27.857  1.00  0.00     0.134 A 
ATOM     90  C   UNL A   1      44.061  30.843  28.066  1.00  0.00     0.134 A 
ATOM     91  F   UNL A   1      47.503  29.718  28.194  1.00  0.00    -0.206 F 
ATOM     92  C   UNL A   1      46.468  31.206  26.734  1.00  0.00     0.040 A 
ATOM     93  C   UNL A   1      44.118  31.649  26.925  1.00  0.00     0.040 A 
ATOM     94  F   UNL A   1      42.866  30.667  28.651  1.00  0.00    -0.206 F 
ATOM     95  C   UNL A   1      45.326  31.840  26.260  1.00  0.00     0.006 A 
ENDBRANCH  71  88
ENDBRANCH  45  46
ENDBRANCH  37  40
ENDBRANCH  35  36
ENDBRANCH  34  35
ENDBRANCH  33  34
ENDBRANCH   1  33
TORSDOF 17
ENDMDL
