MODEL 1
REMARK VINA RESULT:     -11.2      0.000      0.000
REMARK SMILES CCOc1ccc(NC(=O)[C@@H]2[C@@H](C(=O)NCCCCCCNC(=O)c3ccc(-c4c5nc(c(-c6c(F)cccc6F)c6ccc([nH]6)c(-c6c(F)cccc6F)c6nc(c(-c7c(F)cccc7F)c7ccc4[nH]7)C=C6)C=C5)cc3)[C@H]3C=C[C@@H]2C3)cc1
REMARK SMILES IDX 17 1 16 2 15 3 13 4 14 5 12 7 11 8 82 9 79 10 81 11 83 12
REMARK SMILES IDX 80 13 9 14 8 15 10 17 7 18 4 19 5 20 85 21 6 22 84 23 3 24
REMARK SMILES IDX 2 25 1 26 18 27 19 28 20 29 21 30 22 31 23 32 24 34 25 35
REMARK SMILES IDX 26 36 78 37 27 38 77 39 28 40 29 41 30 42 71 43 31 44 76 45
REMARK SMILES IDX 70 46 72 47 32 48 75 49 69 50 68 51 33 53 59 54 42 55 58 56
REMARK SMILES IDX 43 57 46 58 57 59 73 60 44 61 45 62 56 64 74 65 47 66 34 67
REMARK SMILES IDX 35 68 40 69 36 70 37 71 39 72 41 73 38 74 60 75 61 76 66 77
REMARK SMILES IDX 62 78 63 79 65 80 67 81 64 82 48 83 49 84 54 85 50 86 51 87
REMARK SMILES IDX 53 88 55 89 52 90
REMARK H PARENT 15 6 8 16 22 33 72 52 46 63
REMARK Flexibility Score: inf
ROOT
ATOM      1  C   UNL A   1      36.799  23.355  24.674  1.00  0.00     0.021 C 
ENDROOT
BRANCH   1   2
ATOM      2  C   UNL A   1      35.636  24.210  25.188  1.00  0.00     0.116 C 
BRANCH   2   3
ATOM      3  N   UNL A   1      34.710  24.497  24.116  1.00  0.00    -0.356 N 
ATOM      4  C   UNL A   1      33.741  25.420  23.942  1.00  0.00     0.224 C 
ATOM      5  O   UNL A   1      33.036  25.251  22.935  1.00  0.00    -0.275 OA
ATOM      6  H   UNL A   1      34.807  23.889  23.348  1.00  0.00     0.163 HD
BRANCH   4   7
ATOM      7  C   UNL A   1      33.493  26.648  24.809  1.00  0.00     0.098 C 
ATOM      8  C   UNL A   1      32.001  26.932  25.149  1.00  0.00     0.099 C 
ATOM      9  C   UNL A   1      31.967  28.488  25.161  1.00  0.00     0.025 C 
ATOM     10  C   UNL A   1      34.044  28.043  24.422  1.00  0.00     0.025 C 
ATOM     11  C   UNL A   1      32.041  28.976  23.738  1.00  0.00    -0.027 C 
ATOM     12  C   UNL A   1      33.410  28.857  25.566  1.00  0.00     0.017 C 
ATOM     13  C   UNL A   1      33.286  28.721  23.303  1.00  0.00    -0.027 C 
BRANCH   8  14
ATOM     14  C   UNL A   1      31.590  26.451  26.526  1.00  0.00     0.228 C 
ATOM     15  N   UNL A   1      31.462  25.134  26.844  1.00  0.00    -0.326 N 
ATOM     16  H   UNL A   1      31.134  25.007  27.764  1.00  0.00     0.169 HD
ATOM     17  O   UNL A   1      31.319  27.253  27.427  1.00  0.00    -0.274 OA
BRANCH  15  18
ATOM     18  C   UNL A   1      31.681  23.910  26.188  1.00  0.00     0.041 A 
ATOM     19  C   UNL A   1      32.495  21.522  24.955  1.00  0.00     0.119 A 
ATOM     20  C   UNL A   1      31.496  22.300  24.380  1.00  0.00     0.048 A 
ATOM     21  C   UNL A   1      33.064  21.900  26.162  1.00  0.00     0.048 A 
ATOM     22  C   UNL A   1      31.070  23.477  25.013  1.00  0.00     0.030 A 
ATOM     23  C   UNL A   1      32.644  23.078  26.783  1.00  0.00     0.030 A 
BRANCH  19  24
ATOM     24  O   UNL A   1      32.999  20.460  24.263  1.00  0.00    -0.494 OA
BRANCH  24  25
ATOM     25  C   UNL A   1      32.816  19.218  24.951  1.00  0.00     0.226 C 
ATOM     26  C   UNL A   1      32.505  18.100  23.970  1.00  0.00     0.049 C 
ENDBRANCH  24  25
ENDBRANCH  19  24
ENDBRANCH  15  18
ENDBRANCH   8  14
ENDBRANCH   4   7
ENDBRANCH   2   3
ENDBRANCH   1   2
BRANCH   1  27
ATOM     27  C   UNL A   1      37.006  22.073  25.485  1.00  0.00     0.002 C 
BRANCH  27  28
ATOM     28  C   UNL A   1      36.824  20.782  24.676  1.00  0.00     0.002 C 
BRANCH  28  29
ATOM     29  C   UNL A   1      37.947  19.750  24.825  1.00  0.00     0.021 C 
BRANCH  29  30
ATOM     30  C   UNL A   1      38.905  20.003  25.988  1.00  0.00     0.116 C 
BRANCH  30  31
ATOM     31  N   UNL A   1      40.130  19.231  25.859  1.00  0.00    -0.352 N 
ATOM     32  C   UNL A   1      41.438  19.630  25.966  1.00  0.00     0.251 C 
ATOM     33  H   UNL A   1      40.001  18.274  25.664  1.00  0.00     0.163 HD
ATOM     34  O   UNL A   1      42.337  18.881  25.599  1.00  0.00    -0.269 OA
BRANCH  32  35
ATOM     35  C   UNL A   1      41.771  20.960  26.518  1.00  0.00     0.039 A 
ATOM     36  C   UNL A   1      41.693  21.154  27.901  1.00  0.00     0.014 A 
ATOM     37  C   UNL A   1      42.108  22.026  25.680  1.00  0.00     0.014 A 
ATOM     38  C   UNL A   1      41.998  22.404  28.445  1.00  0.00     0.010 A 
ATOM     39  C   UNL A   1      42.476  23.253  26.228  1.00  0.00     0.010 A 
ATOM     40  C   UNL A   1      42.415  23.456  27.615  1.00  0.00    -0.014 A 
BRANCH  40  41
ATOM     41  C   UNL A   1      42.777  24.780  28.181  1.00  0.00     0.031 A 
ATOM     42  C   UNL A   1      41.717  25.824  28.402  1.00  0.00     0.074 A 
ATOM     43  C   UNL A   1      44.068  25.060  28.443  1.00  0.00     0.049 A 
ATOM     44  N   UNL A   1      41.845  27.052  28.837  1.00  0.00    -0.248 NA
ATOM     45  C   UNL A   1      40.335  25.447  28.067  1.00  0.00     0.031 C 
ATOM     46  C   UNL A   1      45.193  24.148  28.227  1.00  0.00     0.029 A 
ATOM     47  N   UNL A   1      44.653  26.198  28.939  1.00  0.00    -0.354 N 
ATOM     48  C   UNL A   1      40.568  27.597  28.810  1.00  0.00     0.074 A 
ATOM     49  C   UNL A   1      39.687  26.584  28.273  1.00  0.00     0.031 C 
ATOM     50  C   UNL A   1      46.329  24.752  28.611  1.00  0.00     0.029 A 
ATOM     51  C   UNL A   1      46.018  26.104  29.067  1.00  0.00     0.049 A 
ATOM     52  H   UNL A   1      44.144  27.004  29.181  1.00  0.00     0.167 HD
ATOM     53  C   UNL A   1      40.163  28.825  29.216  1.00  0.00     0.037 A 
ATOM     54  C   UNL A   1      46.916  27.008  29.500  1.00  0.00     0.037 A 
ATOM     55  C   UNL A   1      41.037  29.819  29.781  1.00  0.00     0.049 A 
ATOM     56  C   UNL A   1      46.439  28.360  29.950  1.00  0.00     0.074 A 
ATOM     57  C   UNL A   1      40.711  31.065  30.289  1.00  0.00     0.029 A 
ATOM     58  N   UNL A   1      42.410  29.680  29.912  1.00  0.00    -0.354 N 
ATOM     59  N   UNL A   1      45.219  28.836  29.988  1.00  0.00    -0.248 NA
ATOM     60  C   UNL A   1      47.466  29.301  30.422  1.00  0.00     0.031 C 
ATOM     61  C   UNL A   1      41.894  31.696  30.689  1.00  0.00     0.029 A 
ATOM     62  C   UNL A   1      42.950  30.825  30.472  1.00  0.00     0.049 A 
ATOM     63  H   UNL A   1      42.925  28.883  29.646  1.00  0.00     0.167 HD
ATOM     64  C   UNL A   1      45.326  30.116  30.517  1.00  0.00     0.074 A 
ATOM     65  C   UNL A   1      46.729  30.338  30.794  1.00  0.00     0.031 C 
ATOM     66  C   UNL A   1      44.349  31.025  30.752  1.00  0.00     0.037 A 
BRANCH  53  67
ATOM     67  C   UNL A   1      38.707  29.160  29.068  1.00  0.00     0.057 A 
ATOM     68  C   UNL A   1      37.822  29.103  30.152  1.00  0.00     0.134 A 
ATOM     69  C   UNL A   1      38.193  29.581  27.835  1.00  0.00     0.134 A 
ATOM     70  F   UNL A   1      38.248  28.698  31.358  1.00  0.00    -0.206 F 
ATOM     71  C   UNL A   1      36.472  29.430  30.010  1.00  0.00     0.040 A 
ATOM     72  C   UNL A   1      36.850  29.934  27.686  1.00  0.00     0.040 A 
ATOM     73  F   UNL A   1      38.987  29.662  26.757  1.00  0.00    -0.206 F 
ATOM     74  C   UNL A   1      35.984  29.854  28.775  1.00  0.00     0.006 A 
ENDBRANCH  53  67
BRANCH  54  75
ATOM     75  C   UNL A   1      48.357  26.656  29.556  1.00  0.00     0.057 A 
ATOM     76  C   UNL A   1      49.219  26.976  28.500  1.00  0.00     0.134 A 
ATOM     77  C   UNL A   1      48.906  25.986  30.655  1.00  0.00     0.134 A 
ATOM     78  F   UNL A   1      48.747  27.603  27.412  1.00  0.00    -0.206 F 
ATOM     79  C   UNL A   1      50.569  26.623  28.524  1.00  0.00     0.040 A 
ATOM     80  C   UNL A   1      50.260  25.648  30.705  1.00  0.00     0.040 A 
ATOM     81  F   UNL A   1      48.135  25.659  31.704  1.00  0.00    -0.206 F 
ATOM     82  C   UNL A   1      51.093  25.960  29.632  1.00  0.00     0.006 A 
ENDBRANCH  54  75
BRANCH  66  83
ATOM     83  C   UNL A   1      44.759  32.327  31.372  1.00  0.00     0.057 A 
ATOM     84  C   UNL A   1      44.824  32.498  32.760  1.00  0.00     0.134 A 
ATOM     85  C   UNL A   1      45.132  33.412  30.567  1.00  0.00     0.134 A 
ATOM     86  F   UNL A   1      44.467  31.502  33.585  1.00  0.00    -0.206 F 
ATOM     87  C   UNL A   1      45.224  33.709  33.326  1.00  0.00     0.040 A 
ATOM     88  C   UNL A   1      45.558  34.620  31.122  1.00  0.00     0.040 A 
ATOM     89  F   UNL A   1      45.100  33.311  29.230  1.00  0.00    -0.206 F 
ATOM     90  C   UNL A   1      45.599  34.773  32.506  1.00  0.00     0.006 A 
ENDBRANCH  66  83
ENDBRANCH  40  41
ENDBRANCH  32  35
ENDBRANCH  30  31
ENDBRANCH  29  30
ENDBRANCH  28  29
ENDBRANCH  27  28
ENDBRANCH   1  27
TORSDOF 17
ENDMDL
MODEL 2
REMARK VINA RESULT:     -11.2      1.060      6.223
REMARK SMILES CCOc1ccc(NC(=O)[C@@H]2[C@@H](C(=O)NCCCCCCNC(=O)c3ccc(-c4c5nc(c(-c6c(F)cccc6F)c6ccc([nH]6)c(-c6c(F)cccc6F)c6nc(c(-c7c(F)cccc7F)c7ccc4[nH]7)C=C6)C=C5)cc3)[C@H]3C=C[C@@H]2C3)cc1
REMARK SMILES IDX 17 1 16 2 15 3 13 4 14 5 12 7 11 8 82 9 79 10 81 11 83 12
REMARK SMILES IDX 80 13 9 14 8 15 10 17 7 18 4 19 5 20 85 21 6 22 84 23 3 24
REMARK SMILES IDX 2 25 1 26 18 27 19 28 20 29 21 30 22 31 23 32 24 34 25 35
REMARK SMILES IDX 26 36 78 37 27 38 77 39 28 40 29 41 30 42 71 43 31 44 76 45
REMARK SMILES IDX 70 46 72 47 32 48 75 49 69 50 68 51 33 53 59 54 42 55 58 56
REMARK SMILES IDX 43 57 46 58 57 59 73 60 44 61 45 62 56 64 74 65 47 66 34 67
REMARK SMILES IDX 35 68 40 69 36 70 37 71 39 72 41 73 38 74 60 75 61 76 66 77
REMARK SMILES IDX 62 78 63 79 65 80 67 81 64 82 48 83 49 84 54 85 50 86 51 87
REMARK SMILES IDX 53 88 55 89 52 90
REMARK H PARENT 15 6 8 16 22 33 72 52 46 63
REMARK Flexibility Score: inf
ROOT
ATOM      1  C   UNL A   1      37.611  23.576  25.460  1.00  0.00     0.021 C 
ENDROOT
BRANCH   1   2
ATOM      2  C   UNL A   1      36.152  24.022  25.598  1.00  0.00     0.116 C 
BRANCH   2   3
ATOM      3  N   UNL A   1      35.499  24.014  24.309  1.00  0.00    -0.356 N 
ATOM      4  C   UNL A   1      34.238  24.274  23.899  1.00  0.00     0.224 C 
ATOM      5  O   UNL A   1      34.012  24.003  22.711  1.00  0.00    -0.275 OA
ATOM      6  H   UNL A   1      36.101  23.767  23.571  1.00  0.00     0.163 HD
BRANCH   4   7
ATOM      7  C   UNL A   1      33.130  24.914  24.727  1.00  0.00     0.098 C 
ATOM      8  C   UNL A   1      31.870  24.029  24.948  1.00  0.00     0.099 C 
ATOM      9  C   UNL A   1      30.729  25.088  24.933  1.00  0.00     0.025 C 
ATOM     10  C   UNL A   1      32.537  26.297  24.361  1.00  0.00     0.025 C 
ATOM     11  C   UNL A   1      30.522  25.544  23.513  1.00  0.00    -0.027 C 
ATOM     12  C   UNL A   1      31.441  26.360  25.441  1.00  0.00     0.017 C 
ATOM     13  C   UNL A   1      31.597  26.276  23.178  1.00  0.00    -0.027 C 
BRANCH   8  14
ATOM     14  C   UNL A   1      31.842  23.338  26.297  1.00  0.00     0.228 C 
ATOM     15  N   UNL A   1      32.275  22.062  26.486  1.00  0.00    -0.326 N 
ATOM     16  H   UNL A   1      32.131  21.757  27.411  1.00  0.00     0.169 HD
ATOM     17  O   UNL A   1      31.386  23.908  27.295  1.00  0.00    -0.274 OA
BRANCH  15  18
ATOM     18  C   UNL A   1      32.874  21.070  25.691  1.00  0.00     0.041 A 
ATOM     19  C   UNL A   1      33.770  18.863  24.204  1.00  0.00     0.119 A 
ATOM     20  C   UNL A   1      34.678  19.641  24.913  1.00  0.00     0.048 A 
ATOM     21  C   UNL A   1      32.424  19.197  24.193  1.00  0.00     0.048 A 
ATOM     22  C   UNL A   1      34.232  20.761  25.631  1.00  0.00     0.030 A 
ATOM     23  C   UNL A   1      31.984  20.306  24.918  1.00  0.00     0.030 A 
BRANCH  19  24
ATOM     24  O   UNL A   1      34.191  17.700  23.628  1.00  0.00    -0.494 OA
BRANCH  24  25
ATOM     25  C   UNL A   1      33.381  16.579  23.996  1.00  0.00     0.226 C 
ATOM     26  C   UNL A   1      33.946  15.886  25.224  1.00  0.00     0.049 C 
ENDBRANCH  24  25
ENDBRANCH  19  24
ENDBRANCH  15  18
ENDBRANCH   8  14
ENDBRANCH   4   7
ENDBRANCH   2   3
ENDBRANCH   1   2
BRANCH   1  27
ATOM     27  C   UNL A   1      37.825  22.103  25.816  1.00  0.00     0.002 C 
BRANCH  27  28
ATOM     28  C   UNL A   1      37.883  21.165  24.604  1.00  0.00     0.002 C 
BRANCH  28  29
ATOM     29  C   UNL A   1      38.468  19.775  24.876  1.00  0.00     0.021 C 
BRANCH  29  30
ATOM     30  C   UNL A   1      39.271  19.656  26.170  1.00  0.00     0.116 C 
BRANCH  30  31
ATOM     31  N   UNL A   1      40.542  18.982  25.959  1.00  0.00    -0.352 N 
ATOM     32  C   UNL A   1      41.817  19.486  25.957  1.00  0.00     0.251 C 
ATOM     33  H   UNL A   1      40.477  18.013  25.792  1.00  0.00     0.163 HD
ATOM     34  O   UNL A   1      42.744  18.803  25.534  1.00  0.00    -0.269 OA
BRANCH  32  35
ATOM     35  C   UNL A   1      42.082  20.851  26.458  1.00  0.00     0.039 A 
ATOM     36  C   UNL A   1      42.059  21.079  27.837  1.00  0.00     0.014 A 
ATOM     37  C   UNL A   1      42.301  21.914  25.577  1.00  0.00     0.014 A 
ATOM     38  C   UNL A   1      42.301  22.361  28.334  1.00  0.00     0.010 A 
ATOM     39  C   UNL A   1      42.608  23.178  26.074  1.00  0.00     0.010 A 
ATOM     40  C   UNL A   1      42.601  23.416  27.457  1.00  0.00    -0.014 A 
BRANCH  40  41
ATOM     41  C   UNL A   1      42.896  24.778  27.970  1.00  0.00     0.031 A 
ATOM     42  C   UNL A   1      44.309  25.174  28.295  1.00  0.00     0.074 A 
ATOM     43  C   UNL A   1      41.883  25.636  28.195  1.00  0.00     0.049 A 
ATOM     44  N   UNL A   1      44.757  26.297  28.800  1.00  0.00    -0.248 NA
ATOM     45  C   UNL A   1      45.354  24.170  28.045  1.00  0.00     0.031 C 
ATOM     46  C   UNL A   1      40.465  25.353  27.963  1.00  0.00     0.029 A 
ATOM     47  N   UNL A   1      41.891  26.920  28.678  1.00  0.00    -0.354 N 
ATOM     48  C   UNL A   1      46.129  26.126  28.943  1.00  0.00     0.074 A 
ATOM     49  C   UNL A   1      46.433  24.777  28.517  1.00  0.00     0.031 C 
ATOM     50  C   UNL A   1      39.742  26.439  28.281  1.00  0.00     0.029 A 
ATOM     51  C   UNL A   1      40.639  27.481  28.770  1.00  0.00     0.049 A 
ATOM     52  H   UNL A   1      42.714  27.396  28.933  1.00  0.00     0.167 HD
ATOM     53  C   UNL A   1      47.053  27.019  29.371  1.00  0.00     0.037 A 
ATOM     54  C   UNL A   1      40.260  28.698  29.206  1.00  0.00     0.037 A 
ATOM     55  C   UNL A   1      46.751  28.371  29.762  1.00  0.00     0.049 A 
ATOM     56  C   UNL A   1      41.306  29.671  29.669  1.00  0.00     0.074 A 
ATOM     57  C   UNL A   1      47.625  29.374  30.141  1.00  0.00     0.029 A 
ATOM     58  N   UNL A   1      45.474  28.907  29.825  1.00  0.00    -0.354 N 
ATOM     59  N   UNL A   1      42.607  29.522  29.729  1.00  0.00    -0.248 NA
ATOM     60  C   UNL A   1      40.831  30.987  30.121  1.00  0.00     0.031 C 
ATOM     61  C   UNL A   1      46.873  30.506  30.474  1.00  0.00     0.029 A 
ATOM     62  C   UNL A   1      45.534  30.221  30.258  1.00  0.00     0.049 A 
ATOM     63  H   UNL A   1      44.646  28.425  29.595  1.00  0.00     0.167 HD
ATOM     64  C   UNL A   1      43.108  30.730  30.194  1.00  0.00     0.074 A 
ATOM     65  C   UNL A   1      41.972  31.606  30.390  1.00  0.00     0.031 C 
ATOM     66  C   UNL A   1      44.394  31.083  30.437  1.00  0.00     0.037 A 
BRANCH  53  67
ATOM     67  C   UNL A   1      48.482  26.563  29.434  1.00  0.00     0.057 A 
ATOM     68  C   UNL A   1      49.018  25.969  30.584  1.00  0.00     0.134 A 
ATOM     69  C   UNL A   1      49.320  26.685  28.319  1.00  0.00     0.134 A 
ATOM     70  F   UNL A   1      48.270  25.832  31.690  1.00  0.00    -0.206 F 
ATOM     71  C   UNL A   1      50.343  25.535  30.631  1.00  0.00     0.040 A 
ATOM     72  C   UNL A   1      50.640  26.232  28.345  1.00  0.00     0.040 A 
ATOM     73  F   UNL A   1      48.869  27.240  27.184  1.00  0.00    -0.206 F 
ATOM     74  C   UNL A   1      51.157  25.659  29.506  1.00  0.00     0.006 A 
ENDBRANCH  53  67
BRANCH  54  75
ATOM     75  C   UNL A   1      38.825  29.076  29.196  1.00  0.00     0.057 A 
ATOM     76  C   UNL A   1      38.039  28.950  30.349  1.00  0.00     0.134 A 
ATOM     77  C   UNL A   1      38.201  29.560  28.041  1.00  0.00     0.134 A 
ATOM     78  F   UNL A   1      38.577  28.475  31.482  1.00  0.00    -0.206 F 
ATOM     79  C   UNL A   1      36.681  29.271  30.347  1.00  0.00     0.040 A 
ATOM     80  C   UNL A   1      36.849  29.908  28.030  1.00  0.00     0.040 A 
ATOM     81  F   UNL A   1      38.900  29.712  26.906  1.00  0.00    -0.206 F 
ATOM     82  C   UNL A   1      36.084  29.755  29.185  1.00  0.00     0.006 A 
ENDBRANCH  54  75
BRANCH  66  83
ATOM     83  C   UNL A   1      44.643  32.485  30.904  1.00  0.00     0.057 A 
ATOM     84  C   UNL A   1      44.717  32.810  32.264  1.00  0.00     0.134 A 
ATOM     85  C   UNL A   1      44.850  33.517  29.979  1.00  0.00     0.134 A 
ATOM     86  F   UNL A   1      44.514  31.870  33.200  1.00  0.00    -0.206 F 
ATOM     87  C   UNL A   1      44.966  34.116  32.689  1.00  0.00     0.040 A 
ATOM     88  C   UNL A   1      45.124  34.822  30.392  1.00  0.00     0.040 A 
ATOM     89  F   UNL A   1      44.800  33.271  28.662  1.00  0.00    -0.206 F 
ATOM     90  C   UNL A   1      45.177  35.125  31.751  1.00  0.00     0.006 A 
ENDBRANCH  66  83
ENDBRANCH  40  41
ENDBRANCH  32  35
ENDBRANCH  30  31
ENDBRANCH  29  30
ENDBRANCH  28  29
ENDBRANCH  27  28
ENDBRANCH   1  27
TORSDOF 17
ENDMDL
MODEL 3
REMARK VINA RESULT:     -11.1      1.818      4.099
REMARK SMILES CCOc1ccc(NC(=O)[C@@H]2[C@@H](C(=O)NCCCCCCNC(=O)c3ccc(-c4c5nc(c(-c6c(F)cccc6F)c6ccc([nH]6)c(-c6c(F)cccc6F)c6nc(c(-c7c(F)cccc7F)c7ccc4[nH]7)C=C6)C=C5)cc3)[C@H]3C=C[C@@H]2C3)cc1
REMARK SMILES IDX 17 1 16 2 15 3 13 4 14 5 12 7 11 8 82 9 79 10 81 11 83 12
REMARK SMILES IDX 80 13 9 14 8 15 10 17 7 18 4 19 5 20 85 21 6 22 84 23 3 24
REMARK SMILES IDX 2 25 1 26 18 27 19 28 20 29 21 30 22 31 23 32 24 34 25 35
REMARK SMILES IDX 26 36 78 37 27 38 77 39 28 40 29 41 30 42 71 43 31 44 76 45
REMARK SMILES IDX 70 46 72 47 32 48 75 49 69 50 68 51 33 53 59 54 42 55 58 56
REMARK SMILES IDX 43 57 46 58 57 59 73 60 44 61 45 62 56 64 74 65 47 66 34 67
REMARK SMILES IDX 35 68 40 69 36 70 37 71 39 72 41 73 38 74 60 75 61 76 66 77
REMARK SMILES IDX 62 78 63 79 65 80 67 81 64 82 48 83 49 84 54 85 50 86 51 87
REMARK SMILES IDX 53 88 55 89 52 90
REMARK H PARENT 15 6 8 16 22 33 72 52 46 63
REMARK Flexibility Score: inf
ROOT
ATOM      1  C   UNL A   1      36.518  22.592  23.671  1.00  0.00     0.021 C 
ENDROOT
BRANCH   1   2
ATOM      2  C   UNL A   1      35.264  23.473  23.642  1.00  0.00     0.116 C 
BRANCH   2   3
ATOM      3  N   UNL A   1      34.250  22.876  22.803  1.00  0.00    -0.356 N 
ATOM      4  C   UNL A   1      32.967  22.508  23.007  1.00  0.00     0.224 C 
ATOM      5  O   UNL A   1      32.454  21.871  22.075  1.00  0.00    -0.275 OA
ATOM      6  H   UNL A   1      34.561  22.701  21.885  1.00  0.00     0.163 HD
BRANCH   4   7
ATOM      7  C   UNL A   1      32.106  22.855  24.215  1.00  0.00     0.098 C 
ATOM      8  C   UNL A   1      32.342  24.272  24.815  1.00  0.00     0.099 C 
ATOM      9  C   UNL A   1      32.132  24.014  26.335  1.00  0.00     0.025 C 
ATOM     10  C   UNL A   1      32.052  21.942  25.465  1.00  0.00     0.025 C 
ATOM     11  C   UNL A   1      33.330  23.270  26.862  1.00  0.00    -0.027 C 
ATOM     12  C   UNL A   1      31.147  22.825  26.346  1.00  0.00     0.017 C 
ATOM     13  C   UNL A   1      33.273  22.029  26.351  1.00  0.00    -0.027 C 
BRANCH   8  14
ATOM     14  C   UNL A   1      31.316  25.296  24.373  1.00  0.00     0.228 C 
ATOM     15  N   UNL A   1      31.334  26.591  24.790  1.00  0.00    -0.326 N 
ATOM     16  H   UNL A   1      30.562  27.099  24.449  1.00  0.00     0.169 HD
ATOM     17  O   UNL A   1      30.384  24.981  23.624  1.00  0.00    -0.274 OA
BRANCH  15  18
ATOM     18  C   UNL A   1      32.176  27.385  25.586  1.00  0.00     0.041 A 
ATOM     19  C   UNL A   1      33.598  29.254  27.127  1.00  0.00     0.119 A 
ATOM     20  C   UNL A   1      34.276  28.397  26.269  1.00  0.00     0.048 A 
ATOM     21  C   UNL A   1      32.220  29.163  27.258  1.00  0.00     0.048 A 
ATOM     22  C   UNL A   1      33.568  27.444  25.522  1.00  0.00     0.030 A 
ATOM     23  C   UNL A   1      31.517  28.219  26.505  1.00  0.00     0.030 A 
BRANCH  19  24
ATOM     24  O   UNL A   1      34.277  30.267  27.738  1.00  0.00    -0.494 OA
BRANCH  24  25
ATOM     25  C   UNL A   1      33.629  31.534  27.587  1.00  0.00     0.226 C 
ATOM     26  C   UNL A   1      34.332  32.600  28.411  1.00  0.00     0.049 C 
ENDBRANCH  24  25
ENDBRANCH  19  24
ENDBRANCH  15  18
ENDBRANCH   8  14
ENDBRANCH   4   7
ENDBRANCH   2   3
ENDBRANCH   1   2
BRANCH   1  27
ATOM     27  C   UNL A   1      36.723  21.883  25.012  1.00  0.00     0.002 C 
BRANCH  27  28
ATOM     28  C   UNL A   1      36.436  20.377  24.977  1.00  0.00     0.002 C 
BRANCH  28  29
ATOM     29  C   UNL A   1      37.673  19.472  24.968  1.00  0.00     0.021 C 
BRANCH  29  30
ATOM     30  C   UNL A   1      38.939  20.107  25.539  1.00  0.00     0.116 C 
BRANCH  30  31
ATOM     31  N   UNL A   1      39.962  19.114  25.826  1.00  0.00    -0.352 N 
ATOM     32  C   UNL A   1      41.291  19.277  26.118  1.00  0.00     0.251 C 
ATOM     33  H   UNL A   1      39.651  18.179  25.808  1.00  0.00     0.163 HD
ATOM     34  O   UNL A   1      42.044  18.309  26.106  1.00  0.00    -0.269 OA
BRANCH  32  35
ATOM     35  C   UNL A   1      41.826  20.617  26.444  1.00  0.00     0.039 A 
ATOM     36  C   UNL A   1      42.061  21.520  25.403  1.00  0.00     0.014 A 
ATOM     37  C   UNL A   1      42.142  20.967  27.760  1.00  0.00     0.014 A 
ATOM     38  C   UNL A   1      42.570  22.789  25.686  1.00  0.00     0.010 A 
ATOM     39  C   UNL A   1      42.587  22.255  28.048  1.00  0.00     0.010 A 
ATOM     40  C   UNL A   1      42.815  23.175  27.014  1.00  0.00    -0.014 A 
BRANCH  40  41
ATOM     41  C   UNL A   1      43.323  24.532  27.335  1.00  0.00     0.031 A 
ATOM     42  C   UNL A   1      42.378  25.601  27.812  1.00  0.00     0.074 A 
ATOM     43  C   UNL A   1      44.626  24.816  27.144  1.00  0.00     0.049 A 
ATOM     44  N   UNL A   1      42.624  26.856  28.093  1.00  0.00    -0.248 NA
ATOM     45  C   UNL A   1      40.967  25.216  27.971  1.00  0.00     0.031 C 
ATOM     46  C   UNL A   1      45.632  23.880  26.641  1.00  0.00     0.029 A 
ATOM     47  N   UNL A   1      45.324  25.981  27.341  1.00  0.00    -0.354 N 
ATOM     48  C   UNL A   1      41.400  27.411  28.442  1.00  0.00     0.074 A 
ATOM     49  C   UNL A   1      40.406  26.371  28.294  1.00  0.00     0.031 C 
ATOM     50  C   UNL A   1      46.823  24.498  26.593  1.00  0.00     0.029 A 
ATOM     51  C   UNL A   1      46.658  25.882  27.026  1.00  0.00     0.049 A 
ATOM     52  H   UNL A   1      44.911  26.808  27.677  1.00  0.00     0.167 HD
ATOM     53  C   UNL A   1      41.132  28.669  28.869  1.00  0.00     0.037 A 
ATOM     54  C   UNL A   1      47.636  26.806  27.078  1.00  0.00     0.037 A 
ATOM     55  C   UNL A   1      42.128  29.692  29.048  1.00  0.00     0.049 A 
ATOM     56  C   UNL A   1      47.313  28.191  27.560  1.00  0.00     0.074 A 
ATOM     57  C   UNL A   1      41.969  30.975  29.543  1.00  0.00     0.029 A 
ATOM     58  N   UNL A   1      43.471  29.548  28.736  1.00  0.00    -0.354 N 
ATOM     59  N   UNL A   1      46.165  28.682  27.958  1.00  0.00    -0.248 NA
ATOM     60  C   UNL A   1      48.425  29.152  27.606  1.00  0.00     0.031 C 
ATOM     61  C   UNL A   1      43.208  31.621  29.492  1.00  0.00     0.029 A 
ATOM     62  C   UNL A   1      44.148  30.725  29.007  1.00  0.00     0.049 A 
ATOM     63  H   UNL A   1      43.883  28.729  28.375  1.00  0.00     0.167 HD
ATOM     64  C   UNL A   1      46.420  29.995  28.330  1.00  0.00     0.074 A 
ATOM     65  C   UNL A   1      47.834  30.222  28.122  1.00  0.00     0.031 C 
ATOM     66  C   UNL A   1      45.560  30.930  28.803  1.00  0.00     0.037 A 
BRANCH  53  67
ATOM     67  C   UNL A   1      39.702  29.008  29.176  1.00  0.00     0.057 A 
ATOM     68  C   UNL A   1      39.179  28.897  30.471  1.00  0.00     0.134 A 
ATOM     69  C   UNL A   1      38.850  29.487  28.174  1.00  0.00     0.134 A 
ATOM     70  F   UNL A   1      39.939  28.434  31.475  1.00  0.00    -0.206 F 
ATOM     71  C   UNL A   1      37.852  29.228  30.753  1.00  0.00     0.040 A 
ATOM     72  C   UNL A   1      37.529  29.845  28.448  1.00  0.00     0.040 A 
ATOM     73  F   UNL A   1      39.288  29.623  26.913  1.00  0.00    -0.206 F 
ATOM     74  C   UNL A   1      37.025  29.710  29.741  1.00  0.00     0.006 A 
ENDBRANCH  53  67
BRANCH  54  75
ATOM     75  C   UNL A   1      49.022  26.443  26.690  1.00  0.00     0.057 A 
ATOM     76  C   UNL A   1      49.914  25.902  27.625  1.00  0.00     0.134 A 
ATOM     77  C   UNL A   1      49.494  26.637  25.387  1.00  0.00     0.134 A 
ATOM     78  F   UNL A   1      49.525  25.711  28.894  1.00  0.00    -0.206 F 
ATOM     79  C   UNL A   1      51.230  25.587  27.284  1.00  0.00     0.040 A 
ATOM     80  C   UNL A   1      50.800  26.303  25.024  1.00  0.00     0.040 A 
ATOM     81  F   UNL A   1      48.687  27.143  24.442  1.00  0.00    -0.206 F 
ATOM     82  C   UNL A   1      51.674  25.784  25.978  1.00  0.00     0.006 A 
ENDBRANCH  54  75
BRANCH  66  83
ATOM     83  C   UNL A   1      46.132  32.269  29.162  1.00  0.00     0.057 A 
ATOM     84  C   UNL A   1      46.209  33.313  28.233  1.00  0.00     0.134 A 
ATOM     85  C   UNL A   1      46.576  32.526  30.465  1.00  0.00     0.134 A 
ATOM     86  F   UNL A   1      45.812  33.126  26.964  1.00  0.00    -0.206 F 
ATOM     87  C   UNL A   1      46.728  34.561  28.581  1.00  0.00     0.040 A 
ATOM     88  C   UNL A   1      47.074  33.778  30.832  1.00  0.00     0.040 A 
ATOM     89  F   UNL A   1      46.522  31.571  31.405  1.00  0.00    -0.206 F 
ATOM     90  C   UNL A   1      47.156  34.798  29.887  1.00  0.00     0.006 A 
ENDBRANCH  66  83
ENDBRANCH  40  41
ENDBRANCH  32  35
ENDBRANCH  30  31
ENDBRANCH  29  30
ENDBRANCH  28  29
ENDBRANCH  27  28
ENDBRANCH   1  27
TORSDOF 17
ENDMDL
