MODEL 1
REMARK VINA RESULT:     -12.4      0.000      0.000
REMARK SMILES COc1ccc(/C=C2/C(=O)N(c3ccccc3)C(=O)[NH+]=C2NCCCCCCNC(=O)c2ccc(-c3c4nc(c(-c5c(F)cccc5F)c5ccc([nH]5)c(-c5c(F)cccc5F)c5nc(c(-c6c(F)cccc6F)c6ccc3[nH]6)C=C5)C=C4)cc2)cc1C(=O)[O-]
REMARK SMILES IDX 26 1 25 2 24 3 23 4 22 5 7 6 8 7 9 8 21 9 10 10 11 11 20 12
REMARK SMILES IDX 18 13 19 16 6 17 3 18 4 19 87 20 5 21 86 22 2 23 1 24 88 25
REMARK SMILES IDX 89 26 90 27 12 28 13 29 17 30 14 31 16 32 15 33 27 34 28 35
REMARK SMILES IDX 29 36 30 37 31 39 32 40 33 41 85 42 34 43 84 44 35 45 36 46
REMARK SMILES IDX 37 47 78 48 38 49 83 50 77 51 79 52 39 53 82 54 76 55 75 56
REMARK SMILES IDX 40 58 66 59 49 60 65 61 50 62 53 63 64 64 80 65 51 66 52 67
REMARK SMILES IDX 63 69 81 70 54 71 41 72 42 73 47 74 43 75 44 76 46 77 48 78
REMARK SMILES IDX 45 79 67 80 68 81 73 82 69 83 70 84 72 85 74 86 71 87 55 88
REMARK SMILES IDX 56 89 61 90 57 91 58 92 60 93 62 94 59 95
REMARK H PARENT 20 14 22 15 29 38 79 57 53 68
REMARK Flexibility Score: inf
ROOT
ATOM      1  C   UNL A   1      31.155  30.902  26.013  1.00  0.00     0.002 C 
ENDROOT
BRANCH   1   2
ATOM      2  C   UNL A   1      32.442  30.087  25.970  1.00  0.00     0.003 C 
BRANCH   2   3
ATOM      3  C   UNL A   1      32.456  28.641  26.479  1.00  0.00     0.037 C 
BRANCH   3   4
ATOM      4  C   UNL A   1      31.136  27.923  26.845  1.00  0.00     0.194 C 
BRANCH   4   5
ATOM      5  N   UNL A   1      31.395  26.510  26.837  1.00  0.00    -0.305 N 
ATOM      6  C   UNL A   1      31.655  25.910  23.448  1.00  0.00     0.030 C 
ATOM      7  C   UNL A   1      31.984  25.222  24.572  1.00  0.00     0.129 C 
ATOM      8  C   UNL A   1      32.676  23.901  24.242  1.00  0.00     0.328 C 
ATOM      9  C   UNL A   1      31.740  25.459  26.033  1.00  0.00     0.236 C 
ATOM     10  O   UNL A   1      33.146  23.721  23.115  1.00  0.00    -0.249 OA
ATOM     11  N   UNL A   1      32.669  22.931  25.240  1.00  0.00    -0.155 N 
ATOM     12  N   UNL A   1      31.878  24.466  26.870  1.00  0.00    -0.209 N 
ATOM     13  C   UNL A   1      32.254  23.204  26.541  1.00  0.00     0.448 C 
ATOM     14  H   UNL A   1      31.693  24.648  27.820  1.00  0.00     0.270 HD
ATOM     15  H   UNL A   1      31.283  26.171  27.755  1.00  0.00     0.256 HD
ATOM     16  O   UNL A   1      32.275  22.376  27.447  1.00  0.00    -0.212 OA
BRANCH   6  17
ATOM     17  C   UNL A   1      30.905  27.144  23.181  1.00  0.00    -0.024 A 
ATOM     18  C   UNL A   1      29.460  29.462  22.492  1.00  0.00     0.127 A 
ATOM     19  C   UNL A   1      30.850  29.440  22.435  1.00  0.00     0.048 A 
ATOM     20  C   UNL A   1      28.786  28.371  23.039  1.00  0.00     0.040 A 
ATOM     21  C   UNL A   1      31.561  28.317  22.854  1.00  0.00     0.012 A 
ATOM     22  C   UNL A   1      29.511  27.208  23.370  1.00  0.00     0.022 A 
BRANCH  18  23
ATOM     23  O   UNL A   1      28.797  30.522  21.946  1.00  0.00    -0.496 OA
ATOM     24  C   UNL A   1      29.041  31.726  22.660  1.00  0.00     0.278 C 
ENDBRANCH  18  23
BRANCH  20  25
ATOM     25  C   UNL A   1      27.362  28.448  23.435  1.00  0.00     0.075 C 
ATOM     26  O   UNL A   1      26.658  29.427  23.278  1.00  0.00    -0.545 OA
ATOM     27  O   UNL A   1      26.882  27.318  23.978  1.00  0.00    -0.545 OA
ENDBRANCH  20  25
ENDBRANCH   6  17
BRANCH  11  28
ATOM     28  C   UNL A   1      33.159  21.598  24.963  1.00  0.00     0.111 A 
ATOM     29  C   UNL A   1      32.272  20.570  24.590  1.00  0.00     0.044 A 
ATOM     30  C   UNL A   1      34.515  21.269  25.108  1.00  0.00     0.044 A 
ATOM     31  C   UNL A   1      32.714  19.257  24.403  1.00  0.00     0.004 A 
ATOM     32  C   UNL A   1      34.956  19.951  24.930  1.00  0.00     0.004 A 
ATOM     33  C   UNL A   1      34.056  18.946  24.583  1.00  0.00     0.000 A 
ENDBRANCH  11  28
ENDBRANCH   4   5
ENDBRANCH   3   4
ENDBRANCH   2   3
ENDBRANCH   1   2
BRANCH   1  34
ATOM     34  C   UNL A   1      31.256  32.358  26.470  1.00  0.00     0.021 C 
BRANCH  34  35
ATOM     35  C   UNL A   1      32.581  32.798  27.099  1.00  0.00     0.116 C 
BRANCH  35  36
ATOM     36  N   UNL A   1      32.528  34.124  27.693  1.00  0.00    -0.352 N 
ATOM     37  C   UNL A   1      33.321  34.699  28.654  1.00  0.00     0.251 C 
ATOM     38  H   UNL A   1      31.808  34.702  27.350  1.00  0.00     0.163 HD
ATOM     39  O   UNL A   1      33.027  35.803  29.106  1.00  0.00    -0.269 OA
BRANCH  37  40
ATOM     40  C   UNL A   1      34.528  34.009  29.167  1.00  0.00     0.039 A 
ATOM     41  C   UNL A   1      34.364  32.937  30.050  1.00  0.00     0.014 A 
ATOM     42  C   UNL A   1      35.812  34.458  28.856  1.00  0.00     0.014 A 
ATOM     43  C   UNL A   1      35.485  32.286  30.581  1.00  0.00     0.010 A 
ATOM     44  C   UNL A   1      36.930  33.776  29.351  1.00  0.00     0.010 A 
ATOM     45  C   UNL A   1      36.782  32.684  30.221  1.00  0.00    -0.014 A 
BRANCH  45  46
ATOM     46  C   UNL A   1      37.978  31.975  30.760  1.00  0.00     0.031 A 
ATOM     47  C   UNL A   1      38.561  32.354  32.099  1.00  0.00     0.074 A 
ATOM     48  C   UNL A   1      38.567  31.000  30.039  1.00  0.00     0.049 A 
ATOM     49  N   UNL A   1      39.598  31.851  32.723  1.00  0.00    -0.248 NA
ATOM     50  C   UNL A   1      37.906  33.457  32.819  1.00  0.00     0.031 C 
ATOM     51  C   UNL A   1      38.145  30.557  28.711  1.00  0.00     0.029 A 
ATOM     52  N   UNL A   1      39.650  30.203  30.326  1.00  0.00    -0.354 N 
ATOM     53  C   UNL A   1      39.721  32.576  33.902  1.00  0.00     0.074 A 
ATOM     54  C   UNL A   1      38.692  33.594  33.878  1.00  0.00     0.031 C 
ATOM     55  C   UNL A   1      38.935  29.547  28.312  1.00  0.00     0.029 A 
ATOM     56  C   UNL A   1      39.941  29.291  29.338  1.00  0.00     0.049 A 
ATOM     57  H   UNL A   1      40.168  30.277  31.159  1.00  0.00     0.167 HD
ATOM     58  C   UNL A   1      40.592  32.400  34.925  1.00  0.00     0.037 A 
ATOM     59  C   UNL A   1      40.906  28.354  29.267  1.00  0.00     0.037 A 
ATOM     60  C   UNL A   1      41.605  31.376  34.971  1.00  0.00     0.049 A 
ATOM     61  C   UNL A   1      41.867  28.183  30.412  1.00  0.00     0.074 A 
ATOM     62  C   UNL A   1      42.497  31.091  35.991  1.00  0.00     0.029 A 
ATOM     63  N   UNL A   1      41.861  30.471  33.954  1.00  0.00    -0.354 N 
ATOM     64  N   UNL A   1      41.925  28.833  31.549  1.00  0.00    -0.248 NA
ATOM     65  C   UNL A   1      42.895  27.141  30.265  1.00  0.00     0.031 C 
ATOM     66  C   UNL A   1      43.321  30.041  35.575  1.00  0.00     0.029 A 
ATOM     67  C   UNL A   1      42.911  29.640  34.314  1.00  0.00     0.049 A 
ATOM     68  H   UNL A   1      41.371  30.425  33.101  1.00  0.00     0.167 HD
ATOM     69  C   UNL A   1      42.969  28.256  32.264  1.00  0.00     0.074 A 
ATOM     70  C   UNL A   1      43.509  27.197  31.439  1.00  0.00     0.031 C 
ATOM     71  C   UNL A   1      43.435  28.577  33.495  1.00  0.00     0.037 A 
BRANCH  58  72
ATOM     72  C   UNL A   1      40.479  33.332  36.098  1.00  0.00     0.057 A 
ATOM     73  C   UNL A   1      41.202  34.530  36.160  1.00  0.00     0.134 A 
ATOM     74  C   UNL A   1      39.606  33.050  37.158  1.00  0.00     0.134 A 
ATOM     75  F   UNL A   1      42.061  34.857  35.182  1.00  0.00    -0.206 F 
ATOM     76  C   UNL A   1      41.084  35.401  37.245  1.00  0.00     0.040 A 
ATOM     77  C   UNL A   1      39.459  33.926  38.235  1.00  0.00     0.040 A 
ATOM     78  F   UNL A   1      38.876  31.925  37.159  1.00  0.00    -0.206 F 
ATOM     79  C   UNL A   1      40.204  35.102  38.283  1.00  0.00     0.006 A 
ENDBRANCH  58  72
BRANCH  59  80
ATOM     80  C   UNL A   1      41.004  27.473  28.074  1.00  0.00     0.057 A 
ATOM     81  C   UNL A   1      41.764  27.849  26.959  1.00  0.00     0.134 A 
ATOM     82  C   UNL A   1      40.319  26.255  28.005  1.00  0.00     0.134 A 
ATOM     83  F   UNL A   1      42.426  29.017  26.956  1.00  0.00    -0.206 F 
ATOM     84  C   UNL A   1      41.821  27.058  25.811  1.00  0.00     0.040 A 
ATOM     85  C   UNL A   1      40.388  25.441  26.874  1.00  0.00     0.040 A 
ATOM     86  F   UNL A   1      39.576  25.837  29.041  1.00  0.00    -0.206 F 
ATOM     87  C   UNL A   1      41.133  25.847  25.769  1.00  0.00     0.006 A 
ENDBRANCH  59  80
BRANCH  71  88
ATOM     88  C   UNL A   1      44.556  27.746  34.049  1.00  0.00     0.057 A 
ATOM     89  C   UNL A   1      45.900  28.101  33.875  1.00  0.00     0.134 A 
ATOM     90  C   UNL A   1      44.286  26.592  34.797  1.00  0.00     0.134 A 
ATOM     91  F   UNL A   1      46.229  29.187  33.159  1.00  0.00    -0.206 F 
ATOM     92  C   UNL A   1      46.934  27.325  34.403  1.00  0.00     0.040 A 
ATOM     93  C   UNL A   1      45.309  25.824  35.352  1.00  0.00     0.040 A 
ATOM     94  F   UNL A   1      43.020  26.199  35.009  1.00  0.00    -0.206 F 
ATOM     95  C   UNL A   1      46.639  26.186  35.150  1.00  0.00     0.006 A 
ENDBRANCH  71  88
ENDBRANCH  45  46
ENDBRANCH  37  40
ENDBRANCH  35  36
ENDBRANCH  34  35
ENDBRANCH   1  34
TORSDOF 16
ENDMDL
MODEL 2
REMARK VINA RESULT:     -12.3      0.732      6.028
REMARK SMILES COc1ccc(/C=C2/C(=O)N(c3ccccc3)C(=O)[NH+]=C2NCCCCCCNC(=O)c2ccc(-c3c4nc(c(-c5c(F)cccc5F)c5ccc([nH]5)c(-c5c(F)cccc5F)c5nc(c(-c6c(F)cccc6F)c6ccc3[nH]6)C=C5)C=C4)cc2)cc1C(=O)[O-]
REMARK SMILES IDX 26 1 25 2 24 3 23 4 22 5 7 6 8 7 9 8 21 9 10 10 11 11 20 12
REMARK SMILES IDX 18 13 19 16 6 17 3 18 4 19 87 20 5 21 86 22 2 23 1 24 88 25
REMARK SMILES IDX 89 26 90 27 12 28 13 29 17 30 14 31 16 32 15 33 27 34 28 35
REMARK SMILES IDX 29 36 30 37 31 39 32 40 33 41 85 42 34 43 84 44 35 45 36 46
REMARK SMILES IDX 37 47 78 48 38 49 83 50 77 51 79 52 39 53 82 54 76 55 75 56
REMARK SMILES IDX 40 58 66 59 49 60 65 61 50 62 53 63 64 64 80 65 51 66 52 67
REMARK SMILES IDX 63 69 81 70 54 71 41 72 42 73 47 74 43 75 44 76 46 77 48 78
REMARK SMILES IDX 45 79 67 80 68 81 73 82 69 83 70 84 72 85 74 86 71 87 55 88
REMARK SMILES IDX 56 89 61 90 57 91 58 92 60 93 62 94 59 95
REMARK H PARENT 20 14 22 15 29 38 79 57 53 68
REMARK Flexibility Score: inf
ROOT
ATOM      1  C   UNL A   1      31.234  30.882  26.044  1.00  0.00     0.002 C 
ENDROOT
BRANCH   1   2
ATOM      2  C   UNL A   1      32.522  30.069  26.103  1.00  0.00     0.003 C 
BRANCH   2   3
ATOM      3  C   UNL A   1      32.498  28.623  26.611  1.00  0.00     0.037 C 
BRANCH   3   4
ATOM      4  C   UNL A   1      31.154  27.904  26.874  1.00  0.00     0.194 C 
BRANCH   4   5
ATOM      5  N   UNL A   1      31.411  26.490  26.866  1.00  0.00    -0.305 N 
ATOM      6  C   UNL A   1      31.725  25.900  23.480  1.00  0.00     0.030 C 
ATOM      7  C   UNL A   1      32.034  25.208  24.607  1.00  0.00     0.129 C 
ATOM      8  C   UNL A   1      32.729  23.887  24.285  1.00  0.00     0.328 C 
ATOM      9  C   UNL A   1      31.767  25.441  26.064  1.00  0.00     0.236 C 
ATOM     10  O   UNL A   1      33.217  23.710  23.164  1.00  0.00    -0.249 OA
ATOM     11  N   UNL A   1      32.704  22.914  25.279  1.00  0.00    -0.155 N 
ATOM     12  N   UNL A   1      31.889  24.445  26.901  1.00  0.00    -0.209 N 
ATOM     13  C   UNL A   1      32.269  23.184  26.574  1.00  0.00     0.448 C 
ATOM     14  H   UNL A   1      31.690  24.625  27.848  1.00  0.00     0.270 HD
ATOM     15  H   UNL A   1      31.283  26.149  27.780  1.00  0.00     0.256 HD
ATOM     16  O   UNL A   1      32.274  22.353  27.478  1.00  0.00    -0.212 OA
BRANCH   6  17
ATOM     17  C   UNL A   1      30.981  27.136  23.205  1.00  0.00    -0.024 A 
ATOM     18  C   UNL A   1      29.553  29.459  22.499  1.00  0.00     0.127 A 
ATOM     19  C   UNL A   1      30.943  29.437  22.471  1.00  0.00     0.048 A 
ATOM     20  C   UNL A   1      28.867  28.365  23.025  1.00  0.00     0.040 A 
ATOM     21  C   UNL A   1      31.644  28.310  22.899  1.00  0.00     0.012 A 
ATOM     22  C   UNL A   1      29.583  27.200  23.364  1.00  0.00     0.022 A 
BRANCH  18  23
ATOM     23  O   UNL A   1      28.901  30.523  21.945  1.00  0.00    -0.496 OA
ATOM     24  C   UNL A   1      29.118  31.719  22.681  1.00  0.00     0.278 C 
ENDBRANCH  18  23
BRANCH  20  25
ATOM     25  C   UNL A   1      27.434  28.440  23.390  1.00  0.00     0.075 C 
ATOM     26  O   UNL A   1      26.733  29.419  23.219  1.00  0.00    -0.545 OA
ATOM     27  O   UNL A   1      26.944  27.310  23.923  1.00  0.00    -0.545 OA
ENDBRANCH  20  25
ENDBRANCH   6  17
BRANCH  11  28
ATOM     28  C   UNL A   1      33.197  21.580  25.006  1.00  0.00     0.111 A 
ATOM     29  C   UNL A   1      32.314  20.554  24.620  1.00  0.00     0.044 A 
ATOM     30  C   UNL A   1      34.550  21.250  25.168  1.00  0.00     0.044 A 
ATOM     31  C   UNL A   1      32.757  19.242  24.436  1.00  0.00     0.004 A 
ATOM     32  C   UNL A   1      34.993  19.932  24.993  1.00  0.00     0.004 A 
ATOM     33  C   UNL A   1      34.096  18.929  24.633  1.00  0.00     0.000 A 
ENDBRANCH  11  28
ENDBRANCH   4   5
ENDBRANCH   3   4
ENDBRANCH   2   3
ENDBRANCH   1   2
BRANCH   1  34
ATOM     34  C   UNL A   1      31.314  32.360  26.429  1.00  0.00     0.021 C 
BRANCH  34  35
ATOM     35  C   UNL A   1      32.580  32.821  27.156  1.00  0.00     0.116 C 
BRANCH  35  36
ATOM     36  N   UNL A   1      32.501  34.188  27.646  1.00  0.00    -0.352 N 
ATOM     37  C   UNL A   1      33.188  34.808  28.659  1.00  0.00     0.251 C 
ATOM     38  H   UNL A   1      31.852  34.759  27.175  1.00  0.00     0.163 HD
ATOM     39  O   UNL A   1      32.880  35.950  28.993  1.00  0.00    -0.269 OA
BRANCH  37  40
ATOM     40  C   UNL A   1      34.295  34.125  29.368  1.00  0.00     0.039 A 
ATOM     41  C   UNL A   1      35.611  34.409  28.990  1.00  0.00     0.014 A 
ATOM     42  C   UNL A   1      34.050  33.152  30.338  1.00  0.00     0.014 A 
ATOM     43  C   UNL A   1      36.679  33.754  29.615  1.00  0.00     0.010 A 
ATOM     44  C   UNL A   1      35.120  32.533  30.994  1.00  0.00     0.010 A 
ATOM     45  C   UNL A   1      36.448  32.823  30.641  1.00  0.00    -0.014 A 
BRANCH  45  46
ATOM     46  C   UNL A   1      37.584  32.146  31.331  1.00  0.00     0.031 A 
ATOM     47  C   UNL A   1      38.318  31.006  30.669  1.00  0.00     0.074 A 
ATOM     48  C   UNL A   1      37.948  32.532  32.570  1.00  0.00     0.049 A 
ATOM     49  N   UNL A   1      39.324  30.297  31.119  1.00  0.00    -0.248 NA
ATOM     50  C   UNL A   1      37.846  30.596  29.338  1.00  0.00     0.031 C 
ATOM     51  C   UNL A   1      37.302  33.585  33.352  1.00  0.00     0.029 A 
ATOM     52  N   UNL A   1      38.955  32.081  33.389  1.00  0.00    -0.354 N 
ATOM     53  C   UNL A   1      39.600  29.359  30.133  1.00  0.00     0.074 A 
ATOM     54  C   UNL A   1      38.618  29.549  29.087  1.00  0.00     0.031 C 
ATOM     55  C   UNL A   1      37.948  33.723  34.522  1.00  0.00     0.029 A 
ATOM     56  C   UNL A   1      39.032  32.749  34.589  1.00  0.00     0.049 A 
ATOM     57  H   UNL A   1      39.565  31.349  33.141  1.00  0.00     0.167 HD
ATOM     58  C   UNL A   1      40.595  28.439  30.084  1.00  0.00     0.037 A 
ATOM     59  C   UNL A   1      39.880  32.596  35.625  1.00  0.00     0.037 A 
ATOM     60  C   UNL A   1      41.592  28.258  31.108  1.00  0.00     0.049 A 
ATOM     61  C   UNL A   1      40.971  31.562  35.551  1.00  0.00     0.074 A 
ATOM     62  C   UNL A   1      42.668  27.385  31.117  1.00  0.00     0.029 A 
ATOM     63  N   UNL A   1      41.638  28.959  32.302  1.00  0.00    -0.354 N 
ATOM     64  N   UNL A   1      41.259  30.730  34.580  1.00  0.00    -0.248 NA
ATOM     65  C   UNL A   1      41.859  31.451  36.718  1.00  0.00     0.031 C 
ATOM     66  C   UNL A   1      43.339  27.528  32.336  1.00  0.00     0.029 A 
ATOM     67  C   UNL A   1      42.710  28.524  33.065  1.00  0.00     0.049 A 
ATOM     68  H   UNL A   1      41.002  29.661  32.570  1.00  0.00     0.167 HD
ATOM     69  C   UNL A   1      42.380  30.025  35.004  1.00  0.00     0.074 A 
ATOM     70  C   UNL A   1      42.726  30.533  36.314  1.00  0.00     0.031 C 
ATOM     71  C   UNL A   1      43.059  29.044  34.362  1.00  0.00     0.037 A 
BRANCH  58  72
ATOM     72  C   UNL A   1      40.665  27.560  28.868  1.00  0.00     0.057 A 
ATOM     73  C   UNL A   1      39.861  26.421  28.735  1.00  0.00     0.134 A 
ATOM     74  C   UNL A   1      41.514  27.879  27.800  1.00  0.00     0.134 A 
ATOM     75  F   UNL A   1      39.031  26.055  29.724  1.00  0.00    -0.206 F 
ATOM     76  C   UNL A   1      39.919  25.614  27.596  1.00  0.00     0.040 A 
ATOM     77  C   UNL A   1      41.561  27.095  26.645  1.00  0.00     0.040 A 
ATOM     78  F   UNL A   1      42.305  28.961  27.856  1.00  0.00    -0.206 F 
ATOM     79  C   UNL A   1      40.766  25.955  26.545  1.00  0.00     0.006 A 
ENDBRANCH  58  72
BRANCH  59  80
ATOM     80  C   UNL A   1      39.756  33.465  36.824  1.00  0.00     0.057 A 
ATOM     81  C   UNL A   1      38.878  33.138  37.864  1.00  0.00     0.134 A 
ATOM     82  C   UNL A   1      40.485  34.653  36.946  1.00  0.00     0.134 A 
ATOM     83  F   UNL A   1      38.134  32.024  37.795  1.00  0.00    -0.206 F 
ATOM     84  C   UNL A   1      38.711  33.973  38.971  1.00  0.00     0.040 A 
ATOM     85  C   UNL A   1      40.349  35.483  38.058  1.00  0.00     0.040 A 
ATOM     86  F   UNL A   1      41.347  35.020  35.984  1.00  0.00    -0.206 F 
ATOM     87  C   UNL A   1      39.452  35.148  39.071  1.00  0.00     0.006 A 
ENDBRANCH  59  80
BRANCH  71  88
ATOM     88  C   UNL A   1      44.276  28.485  35.043  1.00  0.00     0.057 A 
ATOM     89  C   UNL A   1      44.206  27.371  35.890  1.00  0.00     0.134 A 
ATOM     90  C   UNL A   1      45.539  29.049  34.821  1.00  0.00     0.134 A 
ATOM     91  F   UNL A   1      43.026  26.790  36.155  1.00  0.00    -0.206 F 
ATOM     92  C   UNL A   1      45.345  26.854  36.510  1.00  0.00     0.040 A 
ATOM     93  C   UNL A   1      46.688  28.525  35.414  1.00  0.00     0.040 A 
ATOM     94  F   UNL A   1      45.678  30.113  34.015  1.00  0.00    -0.206 F 
ATOM     95  C   UNL A   1      46.593  27.427  36.267  1.00  0.00     0.006 A 
ENDBRANCH  71  88
ENDBRANCH  45  46
ENDBRANCH  37  40
ENDBRANCH  35  36
ENDBRANCH  34  35
ENDBRANCH   1  34
TORSDOF 16
ENDMDL
MODEL 3
REMARK VINA RESULT:     -12.1      3.975      9.361
REMARK SMILES COc1ccc(/C=C2/C(=O)N(c3ccccc3)C(=O)[NH+]=C2NCCCCCCNC(=O)c2ccc(-c3c4nc(c(-c5c(F)cccc5F)c5ccc([nH]5)c(-c5c(F)cccc5F)c5nc(c(-c6c(F)cccc6F)c6ccc3[nH]6)C=C5)C=C4)cc2)cc1C(=O)[O-]
REMARK SMILES IDX 26 1 25 2 24 3 23 4 22 5 7 6 8 7 9 8 21 9 10 10 11 11 20 12
REMARK SMILES IDX 18 13 19 16 6 17 3 18 4 19 87 20 5 21 86 22 2 23 1 24 88 25
REMARK SMILES IDX 89 26 90 27 12 28 13 29 17 30 14 31 16 32 15 33 27 34 28 35
REMARK SMILES IDX 29 36 30 37 31 39 32 40 33 41 85 42 34 43 84 44 35 45 36 46
REMARK SMILES IDX 37 47 78 48 38 49 83 50 77 51 79 52 39 53 82 54 76 55 75 56
REMARK SMILES IDX 40 58 66 59 49 60 65 61 50 62 53 63 64 64 80 65 51 66 52 67
REMARK SMILES IDX 63 69 81 70 54 71 41 72 42 73 47 74 43 75 44 76 46 77 48 78
REMARK SMILES IDX 45 79 67 80 68 81 73 82 69 83 70 84 72 85 74 86 71 87 55 88
REMARK SMILES IDX 56 89 61 90 57 91 58 92 60 93 62 94 59 95
REMARK H PARENT 20 14 22 15 29 38 79 57 53 68
REMARK Flexibility Score: inf
ROOT
ATOM      1  C   UNL A   1      36.401  20.056  24.998  1.00  0.00     0.002 C 
ENDROOT
BRANCH   1   2
ATOM      2  C   UNL A   1      36.372  21.422  25.674  1.00  0.00     0.003 C 
BRANCH   2   3
ATOM      3  C   UNL A   1      36.114  22.686  24.846  1.00  0.00     0.037 C 
BRANCH   3   4
ATOM      4  C   UNL A   1      35.702  22.581  23.359  1.00  0.00     0.194 C 
BRANCH   4   5
ATOM      5  N   UNL A   1      34.996  23.786  23.020  1.00  0.00    -0.305 N 
ATOM      6  C   UNL A   1      31.961  23.222  24.563  1.00  0.00     0.030 C 
ATOM      7  C   UNL A   1      32.582  24.309  24.037  1.00  0.00     0.129 C 
ATOM      8  C   UNL A   1      31.755  25.579  24.228  1.00  0.00     0.328 C 
ATOM      9  C   UNL A   1      33.850  24.494  23.259  1.00  0.00     0.236 C 
ATOM     10  O   UNL A   1      30.838  25.593  25.055  1.00  0.00    -0.249 OA
ATOM     11  N   UNL A   1      32.050  26.645  23.384  1.00  0.00    -0.155 N 
ATOM     12  N   UNL A   1      34.033  25.604  22.595  1.00  0.00    -0.209 N 
ATOM     13  C   UNL A   1      33.170  26.651  22.557  1.00  0.00     0.448 C 
ATOM     14  H   UNL A   1      34.868  25.688  22.079  1.00  0.00     0.270 HD
ATOM     15  H   UNL A   1      35.540  24.291  22.374  1.00  0.00     0.256 HD
ATOM     16  O   UNL A   1      33.472  27.595  21.832  1.00  0.00    -0.212 OA
BRANCH   6  17
ATOM     17  C   UNL A   1      32.242  21.780  24.569  1.00  0.00    -0.024 A 
ATOM     18  C   UNL A   1      32.609  18.989  24.641  1.00  0.00     0.127 A 
ATOM     19  C   UNL A   1      32.868  19.775  25.759  1.00  0.00     0.048 A 
ATOM     20  C   UNL A   1      32.307  19.610  23.430  1.00  0.00     0.040 A 
ATOM     21  C   UNL A   1      32.762  21.163  25.691  1.00  0.00     0.012 A 
ATOM     22  C   UNL A   1      32.110  21.005  23.400  1.00  0.00     0.022 A 
BRANCH  18  23
ATOM     23  O   UNL A   1      32.589  17.632  24.782  1.00  0.00    -0.496 OA
ATOM     24  C   UNL A   1      33.848  17.123  25.201  1.00  0.00     0.278 C 
ENDBRANCH  18  23
BRANCH  20  25
ATOM     25  C   UNL A   1      32.342  18.878  22.143  1.00  0.00     0.075 C 
ATOM     26  O   UNL A   1      32.680  17.715  22.024  1.00  0.00    -0.545 OA
ATOM     27  O   UNL A   1      31.945  19.606  21.087  1.00  0.00    -0.545 OA
ENDBRANCH  20  25
ENDBRANCH   6  17
BRANCH  11  28
ATOM     28  C   UNL A   1      31.216  27.828  23.385  1.00  0.00     0.111 A 
ATOM     29  C   UNL A   1      31.488  28.897  24.258  1.00  0.00     0.044 A 
ATOM     30  C   UNL A   1      30.084  27.928  22.563  1.00  0.00     0.044 A 
ATOM     31  C   UNL A   1      30.644  30.009  24.335  1.00  0.00     0.004 A 
ATOM     32  C   UNL A   1      29.232  29.038  22.647  1.00  0.00     0.004 A 
ATOM     33  C   UNL A   1      29.510  30.074  23.535  1.00  0.00     0.000 A 
ENDBRANCH  11  28
ENDBRANCH   4   5
ENDBRANCH   3   4
ENDBRANCH   2   3
ENDBRANCH   1   2
BRANCH   1  34
ATOM     34  C   UNL A   1      37.742  19.322  24.949  1.00  0.00     0.021 C 
BRANCH  34  35
ATOM     35  C   UNL A   1      38.932  20.002  25.633  1.00  0.00     0.116 C 
BRANCH  35  36
ATOM     36  N   UNL A   1      40.100  19.144  25.750  1.00  0.00    -0.352 N 
ATOM     37  C   UNL A   1      41.383  19.440  26.138  1.00  0.00     0.251 C 
ATOM     38  H   UNL A   1      39.945  18.201  25.514  1.00  0.00     0.163 HD
ATOM     39  O   UNL A   1      42.258  18.582  26.050  1.00  0.00    -0.269 OA
BRANCH  37  40
ATOM     40  C   UNL A   1      41.739  20.781  26.655  1.00  0.00     0.039 A 
ATOM     41  C   UNL A   1      42.188  21.752  25.753  1.00  0.00     0.014 A 
ATOM     42  C   UNL A   1      41.717  21.067  28.021  1.00  0.00     0.014 A 
ATOM     43  C   UNL A   1      42.566  23.019  26.213  1.00  0.00     0.010 A 
ATOM     44  C   UNL A   1      42.051  22.348  28.473  1.00  0.00     0.010 A 
ATOM     45  C   UNL A   1      42.482  23.340  27.578  1.00  0.00    -0.014 A 
BRANCH  45  46
ATOM     46  C   UNL A   1      42.855  24.698  28.069  1.00  0.00     0.031 A 
ATOM     47  C   UNL A   1      41.802  25.756  28.284  1.00  0.00     0.074 A 
ATOM     48  C   UNL A   1      44.149  25.000  28.301  1.00  0.00     0.049 A 
ATOM     49  N   UNL A   1      41.942  26.991  28.701  1.00  0.00    -0.248 NA
ATOM     50  C   UNL A   1      40.414  25.386  27.968  1.00  0.00     0.031 C 
ATOM     51  C   UNL A   1      45.279  24.095  28.094  1.00  0.00     0.029 A 
ATOM     52  N   UNL A   1      44.730  26.156  28.765  1.00  0.00    -0.354 N 
ATOM     53  C   UNL A   1      40.668  27.542  28.693  1.00  0.00     0.074 A 
ATOM     54  C   UNL A   1      39.776  26.528  28.173  1.00  0.00     0.031 C 
ATOM     55  C   UNL A   1      46.412  24.716  28.461  1.00  0.00     0.029 A 
ATOM     56  C   UNL A   1      46.096  26.072  28.898  1.00  0.00     0.049 A 
ATOM     57  H   UNL A   1      44.217  26.967  28.983  1.00  0.00     0.167 HD
ATOM     58  C   UNL A   1      40.266  28.770  29.105  1.00  0.00     0.037 A 
ATOM     59  C   UNL A   1      46.993  26.983  29.324  1.00  0.00     0.037 A 
ATOM     60  C   UNL A   1      41.141  29.778  29.647  1.00  0.00     0.049 A 
ATOM     61  C   UNL A   1      46.524  28.342  29.767  1.00  0.00     0.074 A 
ATOM     62  C   UNL A   1      40.813  31.031  30.137  1.00  0.00     0.029 A 
ATOM     63  N   UNL A   1      42.516  29.651  29.770  1.00  0.00    -0.354 N 
ATOM     64  N   UNL A   1      45.305  28.823  29.818  1.00  0.00    -0.248 NA
ATOM     65  C   UNL A   1      47.558  29.285  30.220  1.00  0.00     0.031 C 
ATOM     66  C   UNL A   1      41.993  31.678  30.518  1.00  0.00     0.029 A 
ATOM     67  C   UNL A   1      43.052  30.810  30.309  1.00  0.00     0.049 A 
ATOM     68  H   UNL A   1      43.035  28.855  29.511  1.00  0.00     0.167 HD
ATOM     69  C   UNL A   1      45.424  30.106  30.339  1.00  0.00     0.074 A 
ATOM     70  C   UNL A   1      46.830  30.326  30.600  1.00  0.00     0.031 C 
ATOM     71  C   UNL A   1      44.451  31.018  30.580  1.00  0.00     0.037 A 
BRANCH  58  72
ATOM     72  C   UNL A   1      38.802  29.091  28.999  1.00  0.00     0.057 A 
ATOM     73  C   UNL A   1      37.943  28.989  30.101  1.00  0.00     0.134 A 
ATOM     74  C   UNL A   1      38.254  29.548  27.793  1.00  0.00     0.134 A 
ATOM     75  F   UNL A   1      38.403  28.550  31.283  1.00  0.00    -0.206 F 
ATOM     76  C   UNL A   1      36.586  29.301  30.001  1.00  0.00     0.040 A 
ATOM     77  C   UNL A   1      36.904  29.890  27.689  1.00  0.00     0.040 A 
ATOM     78  F   UNL A   1      39.021  29.679  26.701  1.00  0.00    -0.206 F 
ATOM     79  C   UNL A   1      36.065  29.760  28.794  1.00  0.00     0.006 A 
ENDBRANCH  58  72
BRANCH  59  80
ATOM     80  C   UNL A   1      48.436  26.637  29.383  1.00  0.00     0.057 A 
ATOM     81  C   UNL A   1      49.276  26.852  28.283  1.00  0.00     0.134 A 
ATOM     82  C   UNL A   1      49.004  26.056  30.522  1.00  0.00     0.134 A 
ATOM     83  F   UNL A   1      48.785  27.385  27.153  1.00  0.00    -0.206 F 
ATOM     84  C   UNL A   1      50.621  26.481  28.304  1.00  0.00     0.040 A 
ATOM     85  C   UNL A   1      50.354  25.705  30.568  1.00  0.00     0.040 A 
ATOM     86  F   UNL A   1      48.254  25.827  31.611  1.00  0.00    -0.206 F 
ATOM     87  C   UNL A   1      51.164  25.909  29.453  1.00  0.00     0.006 A 
ENDBRANCH  59  80
BRANCH  71  88
ATOM     88  C   UNL A   1      44.863  32.323  31.199  1.00  0.00     0.057 A 
ATOM     89  C   UNL A   1      44.936  32.496  32.587  1.00  0.00     0.134 A 
ATOM     90  C   UNL A   1      45.225  33.411  30.393  1.00  0.00     0.134 A 
ATOM     91  F   UNL A   1      44.591  31.499  33.416  1.00  0.00    -0.206 F 
ATOM     92  C   UNL A   1      45.329  33.712  33.150  1.00  0.00     0.040 A 
ATOM     93  C   UNL A   1      45.646  34.621  30.944  1.00  0.00     0.040 A 
ATOM     94  F   UNL A   1      45.186  33.310  29.055  1.00  0.00    -0.206 F 
ATOM     95  C   UNL A   1      45.693  34.777  32.328  1.00  0.00     0.006 A 
ENDBRANCH  71  88
ENDBRANCH  45  46
ENDBRANCH  37  40
ENDBRANCH  35  36
ENDBRANCH  34  35
ENDBRANCH   1  34
TORSDOF 16
ENDMDL
