MODEL 1
REMARK VINA RESULT:     -10.6      0.000      0.000
REMARK SMILES Cc1nsc(NC(=O)CC[C@H](C)CC[NH3+])c1C(=O)NCCCCCCNC(=O)c1ccc(-c2c3nc(c(-c4c(F)cccc4F)c4ccc([nH]4)c(-c4c(F)cccc4F)c4nc(c(-c5c(F)cccc5F)c5ccc2[nH]5)C=C4)C=C3)cc1
REMARK SMILES IDX 20 1 19 2 17 3 18 4 16 6 1 7 2 8 3 9 4 10 5 11 6 12 7 13
REMARK SMILES IDX 8 15 9 16 10 17 11 18 12 19 13 20 14 21 15 22 21 26 22 27
REMARK SMILES IDX 23 28 24 29 25 30 26 31 27 32 28 34 29 35 30 36 82 37 31 38
REMARK SMILES IDX 81 39 32 40 33 41 34 42 75 43 35 44 80 45 74 46 76 47 36 48
REMARK SMILES IDX 79 49 73 50 72 51 37 53 63 54 46 55 62 56 47 57 50 58 61 59
REMARK SMILES IDX 77 60 48 61 49 62 60 64 78 65 51 66 38 67 39 68 44 69 40 70
REMARK SMILES IDX 41 71 43 72 45 73 42 74 64 75 65 76 70 77 66 78 67 79 69 80
REMARK SMILES IDX 71 81 68 82 52 83 53 84 58 85 54 86 55 87 57 88 59 89 56 90
REMARK H PARENT 19 5 6 14 15 23 15 24 15 25 26 33 76 52 50 63
REMARK Flexibility Score: inf
ROOT
ATOM      1  C   UNL A   1      33.655  29.993  26.754  1.00  0.00     0.116 C 
ENDROOT
BRANCH   1   2
ATOM      2  N   UNL A   1      32.789  29.164  27.547  1.00  0.00    -0.352 N 
ATOM      3  C   UNL A   1      31.788  28.283  27.210  1.00  0.00     0.256 C 
ATOM      4  O   UNL A   1      31.199  27.793  28.181  1.00  0.00    -0.269 OA
ATOM      5  H   UNL A   1      32.940  29.243  28.517  1.00  0.00     0.163 HD
BRANCH   3   6
ATOM      6  C   UNL A   1      31.372  27.900  25.844  1.00  0.00     0.097 A 
ATOM      7  C   UNL A   1      30.783  30.072  24.360  1.00  0.00     0.069 C 
ATOM      8  C   UNL A   1      31.027  28.626  24.618  1.00  0.00     0.066 A 
ATOM      9  N   UNL A   1      30.862  27.877  23.523  1.00  0.00    -0.195 NA
ATOM     10  S   UNL A   1      31.023  26.295  23.904  1.00  0.00    -0.017 S 
ATOM     11  C   UNL A   1      31.118  26.542  25.573  1.00  0.00     0.129 A 
BRANCH  11  12
ATOM     12  N   UNL A   1      30.996  25.484  26.459  1.00  0.00    -0.316 N 
ATOM     13  C   UNL A   1      31.896  24.492  26.770  1.00  0.00     0.225 C 
ATOM     14  H   UNL A   1      30.137  25.436  26.937  1.00  0.00     0.170 HD
ATOM     15  O   UNL A   1      31.496  23.588  27.516  1.00  0.00    -0.275 OA
BRANCH  13  16
ATOM     16  C   UNL A   1      33.315  24.383  26.190  1.00  0.00     0.101 C 
BRANCH  16  17
ATOM     17  C   UNL A   1      33.901  22.948  26.119  1.00  0.00     0.013 C 
BRANCH  17  18
ATOM     18  C   UNL A   1      35.450  22.782  26.241  1.00  0.00    -0.008 C 
ATOM     19  C   UNL A   1      36.180  23.977  25.620  1.00  0.00     0.008 C 
BRANCH  18  20
ATOM     20  C   UNL A   1      35.871  21.439  25.645  1.00  0.00     0.064 C 
BRANCH  20  21
ATOM     21  C   UNL A   1      34.866  20.524  24.963  1.00  0.00     0.259 C 
BRANCH  21  22
ATOM     22  N   UNL A   1      35.283  19.136  24.934  1.00  0.00    -0.358 N 
ATOM     23  H   UNL A   1      34.508  18.554  24.614  1.00  0.00     0.344 HD
ATOM     24  H   UNL A   1      35.561  18.845  25.872  1.00  0.00     0.344 HD
ATOM     25  H   UNL A   1      36.072  19.030  24.297  1.00  0.00     0.344 HD
ENDBRANCH  21  22
ENDBRANCH  20  21
ENDBRANCH  18  20
ENDBRANCH  17  18
ENDBRANCH  16  17
ENDBRANCH  13  16
ENDBRANCH  11  12
ENDBRANCH   3   6
ENDBRANCH   1   2
BRANCH   1  26
ATOM     26  C   UNL A   1      34.697  30.806  27.520  1.00  0.00     0.021 C 
BRANCH  26  27
ATOM     27  C   UNL A   1      34.210  32.083  28.209  1.00  0.00     0.002 C 
BRANCH  27  28
ATOM     28  C   UNL A   1      35.134  33.308  28.180  1.00  0.00     0.002 C 
BRANCH  28  29
ATOM     29  C   UNL A   1      34.585  34.652  28.682  1.00  0.00     0.021 C 
BRANCH  29  30
ATOM     30  C   UNL A   1      33.244  34.586  29.392  1.00  0.00     0.116 C 
BRANCH  30  31
ATOM     31  N   UNL A   1      33.186  35.365  30.634  1.00  0.00    -0.352 N 
ATOM     32  C   UNL A   1      33.727  35.061  31.881  1.00  0.00     0.251 C 
ATOM     33  H   UNL A   1      32.696  36.217  30.580  1.00  0.00     0.163 HD
ATOM     34  O   UNL A   1      33.317  35.587  32.898  1.00  0.00    -0.269 OA
BRANCH  32  35
ATOM     35  C   UNL A   1      34.836  34.090  31.936  1.00  0.00     0.039 A 
ATOM     36  C   UNL A   1      34.654  32.705  31.902  1.00  0.00     0.014 A 
ATOM     37  C   UNL A   1      36.111  34.630  31.972  1.00  0.00     0.014 A 
ATOM     38  C   UNL A   1      35.786  31.892  31.842  1.00  0.00     0.010 A 
ATOM     39  C   UNL A   1      37.167  33.867  31.587  1.00  0.00     0.010 A 
ATOM     40  C   UNL A   1      37.043  32.494  31.677  1.00  0.00    -0.014 A 
BRANCH  40  41
ATOM     41  C   UNL A   1      38.278  31.742  31.540  1.00  0.00     0.031 A 
ATOM     42  C   UNL A   1      38.923  31.433  32.833  1.00  0.00     0.074 A 
ATOM     43  C   UNL A   1      38.643  31.156  30.375  1.00  0.00     0.049 A 
ATOM     44  N   UNL A   1      39.967  31.992  33.343  1.00  0.00    -0.248 NA
ATOM     45  C   UNL A   1      38.224  30.523  33.758  1.00  0.00     0.031 C 
ATOM     46  C   UNL A   1      37.870  31.071  29.122  1.00  0.00     0.029 A 
ATOM     47  N   UNL A   1      39.745  30.407  30.088  1.00  0.00    -0.354 N 
ATOM     48  C   UNL A   1      40.215  31.296  34.520  1.00  0.00     0.074 A 
ATOM     49  C   UNL A   1      38.997  30.606  34.844  1.00  0.00     0.031 C 
ATOM     50  C   UNL A   1      38.405  30.132  28.312  1.00  0.00     0.029 A 
ATOM     51  C   UNL A   1      39.663  29.705  28.887  1.00  0.00     0.049 A 
ATOM     52  H   UNL A   1      40.534  30.368  30.677  1.00  0.00     0.167 HD
ATOM     53  C   UNL A   1      41.497  31.063  34.915  1.00  0.00     0.037 A 
ATOM     54  C   UNL A   1      40.576  28.837  28.392  1.00  0.00     0.037 A 
ATOM     55  C   UNL A   1      42.416  31.833  34.113  1.00  0.00     0.049 A 
ATOM     56  C   UNL A   1      41.867  29.131  29.053  1.00  0.00     0.074 A 
ATOM     57  C   UNL A   1      42.820  33.145  34.027  1.00  0.00     0.029 A 
ATOM     58  N   UNL A   1      42.741  31.223  32.929  1.00  0.00    -0.354 N 
ATOM     59  N   UNL A   1      42.513  30.254  28.891  1.00  0.00    -0.248 NA
ATOM     60  C   UNL A   1      42.271  28.339  30.207  1.00  0.00     0.031 C 
ATOM     61  C   UNL A   1      43.268  33.336  32.684  1.00  0.00     0.029 A 
ATOM     62  C   UNL A   1      43.173  32.128  31.998  1.00  0.00     0.049 A 
ATOM     63  H   UNL A   1      42.673  30.254  32.769  1.00  0.00     0.167 HD
ATOM     64  C   UNL A   1      43.079  30.504  30.126  1.00  0.00     0.074 A 
ATOM     65  C   UNL A   1      43.051  29.227  30.829  1.00  0.00     0.031 C 
ATOM     66  C   UNL A   1      43.204  31.780  30.594  1.00  0.00     0.037 A 
BRANCH  53  67
ATOM     67  C   UNL A   1      41.977  29.813  35.621  1.00  0.00     0.057 A 
ATOM     68  C   UNL A   1      42.909  29.944  36.667  1.00  0.00     0.134 A 
ATOM     69  C   UNL A   1      41.813  28.501  35.132  1.00  0.00     0.134 A 
ATOM     70  F   UNL A   1      43.174  31.144  37.206  1.00  0.00    -0.206 F 
ATOM     71  C   UNL A   1      43.660  28.863  37.146  1.00  0.00     0.040 A 
ATOM     72  C   UNL A   1      42.519  27.406  35.639  1.00  0.00     0.040 A 
ATOM     73  F   UNL A   1      41.046  28.217  34.073  1.00  0.00    -0.206 F 
ATOM     74  C   UNL A   1      43.470  27.588  36.629  1.00  0.00     0.006 A 
ENDBRANCH  53  67
BRANCH  54  75
ATOM     75  C   UNL A   1      40.350  27.618  27.589  1.00  0.00     0.057 A 
ATOM     76  C   UNL A   1      41.033  27.394  26.385  1.00  0.00     0.134 A 
ATOM     77  C   UNL A   1      39.672  26.514  28.133  1.00  0.00     0.134 A 
ATOM     78  F   UNL A   1      41.735  28.380  25.809  1.00  0.00    -0.206 F 
ATOM     79  C   UNL A   1      41.065  26.133  25.773  1.00  0.00     0.040 A 
ATOM     80  C   UNL A   1      39.697  25.250  27.534  1.00  0.00     0.040 A 
ATOM     81  F   UNL A   1      39.043  26.608  29.315  1.00  0.00    -0.206 F 
ATOM     82  C   UNL A   1      40.407  25.053  26.356  1.00  0.00     0.006 A 
ENDBRANCH  54  75
BRANCH  66  83
ATOM     83  C   UNL A   1      43.217  32.891  29.589  1.00  0.00     0.057 A 
ATOM     84  C   UNL A   1      42.158  33.780  29.362  1.00  0.00     0.134 A 
ATOM     85  C   UNL A   1      44.398  33.114  28.872  1.00  0.00     0.134 A 
ATOM     86  F   UNL A   1      41.015  33.688  30.052  1.00  0.00    -0.206 F 
ATOM     87  C   UNL A   1      42.262  34.824  28.437  1.00  0.00     0.040 A 
ATOM     88  C   UNL A   1      44.526  34.170  27.970  1.00  0.00     0.040 A 
ATOM     89  F   UNL A   1      45.465  32.323  29.069  1.00  0.00    -0.206 F 
ATOM     90  C   UNL A   1      43.451  35.024  27.741  1.00  0.00     0.006 A 
ENDBRANCH  66  83
ENDBRANCH  40  41
ENDBRANCH  32  35
ENDBRANCH  30  31
ENDBRANCH  29  30
ENDBRANCH  28  29
ENDBRANCH  27  28
ENDBRANCH  26  27
ENDBRANCH   1  26
TORSDOF 20
ENDMDL
MODEL 2
REMARK VINA RESULT:     -10.6      3.917      9.439
REMARK SMILES Cc1nsc(NC(=O)CC[C@H](C)CC[NH3+])c1C(=O)NCCCCCCNC(=O)c1ccc(-c2c3nc(c(-c4c(F)cccc4F)c4ccc([nH]4)c(-c4c(F)cccc4F)c4nc(c(-c5c(F)cccc5F)c5ccc2[nH]5)C=C4)C=C3)cc1
REMARK SMILES IDX 20 1 19 2 17 3 18 4 16 6 1 7 2 8 3 9 4 10 5 11 6 12 7 13
REMARK SMILES IDX 8 15 9 16 10 17 11 18 12 19 13 20 14 21 15 22 21 26 22 27
REMARK SMILES IDX 23 28 24 29 25 30 26 31 27 32 28 34 29 35 30 36 82 37 31 38
REMARK SMILES IDX 81 39 32 40 33 41 34 42 75 43 35 44 80 45 74 46 76 47 36 48
REMARK SMILES IDX 79 49 73 50 72 51 37 53 63 54 46 55 62 56 47 57 50 58 61 59
REMARK SMILES IDX 77 60 48 61 49 62 60 64 78 65 51 66 38 67 39 68 44 69 40 70
REMARK SMILES IDX 41 71 43 72 45 73 42 74 64 75 65 76 70 77 66 78 67 79 69 80
REMARK SMILES IDX 71 81 68 82 52 83 53 84 58 85 54 86 55 87 57 88 59 89 56 90
REMARK H PARENT 19 5 6 14 15 23 15 24 15 25 26 33 76 52 50 63
REMARK Flexibility Score: inf
ROOT
ATOM      1  C   UNL A   1      37.433  22.654  25.681  1.00  0.00     0.116 C 
ENDROOT
BRANCH   1   2
ATOM      2  N   UNL A   1      37.223  22.967  24.293  1.00  0.00    -0.352 N 
ATOM      3  C   UNL A   1      36.126  22.843  23.472  1.00  0.00     0.256 C 
ATOM      4  O   UNL A   1      36.340  23.154  22.295  1.00  0.00    -0.269 OA
ATOM      5  H   UNL A   1      38.015  23.342  23.846  1.00  0.00     0.163 HD
BRANCH   3   6
ATOM      6  C   UNL A   1      34.778  22.379  23.864  1.00  0.00     0.097 A 
ATOM      7  C   UNL A   1      34.883  19.945  25.018  1.00  0.00     0.069 C 
ATOM      8  C   UNL A   1      34.244  21.216  24.579  1.00  0.00     0.066 A 
ATOM      9  N   UNL A   1      32.940  21.260  24.874  1.00  0.00    -0.195 NA
ATOM     10  S   UNL A   1      32.279  22.622  24.257  1.00  0.00    -0.017 S 
ATOM     11  C   UNL A   1      33.659  23.098  23.404  1.00  0.00     0.129 A 
BRANCH  11  12
ATOM     12  N   UNL A   1      33.596  24.094  22.445  1.00  0.00    -0.316 N 
ATOM     13  C   UNL A   1      33.647  25.460  22.594  1.00  0.00     0.225 C 
ATOM     14  H   UNL A   1      33.501  23.777  21.518  1.00  0.00     0.170 HD
ATOM     15  O   UNL A   1      33.451  26.142  21.578  1.00  0.00    -0.275 OA
BRANCH  13  16
ATOM     16  C   UNL A   1      33.837  26.189  23.934  1.00  0.00     0.101 C 
BRANCH  16  17
ATOM     17  C   UNL A   1      32.827  27.330  24.225  1.00  0.00     0.013 C 
BRANCH  17  18
ATOM     18  C   UNL A   1      32.140  27.359  25.629  1.00  0.00    -0.008 C 
ATOM     19  C   UNL A   1      33.130  27.789  26.715  1.00  0.00     0.008 C 
BRANCH  18  20
ATOM     20  C   UNL A   1      31.484  26.007  25.907  1.00  0.00     0.064 C 
BRANCH  20  21
ATOM     21  C   UNL A   1      29.982  25.809  25.768  1.00  0.00     0.259 C 
BRANCH  21  22
ATOM     22  N   UNL A   1      29.581  25.380  24.443  1.00  0.00    -0.358 N 
ATOM     23  H   UNL A   1      29.058  26.128  23.987  1.00  0.00     0.344 HD
ATOM     24  H   UNL A   1      28.991  24.551  24.519  1.00  0.00     0.344 HD
ATOM     25  H   UNL A   1      30.410  25.158  23.892  1.00  0.00     0.344 HD
ENDBRANCH  21  22
ENDBRANCH  20  21
ENDBRANCH  18  20
ENDBRANCH  17  18
ENDBRANCH  16  17
ENDBRANCH  13  16
ENDBRANCH  11  12
ENDBRANCH   3   6
ENDBRANCH   1   2
BRANCH   1  26
ATOM     26  C   UNL A   1      38.577  21.691  25.988  1.00  0.00     0.021 C 
BRANCH  26  27
ATOM     27  C   UNL A   1      39.815  22.279  26.667  1.00  0.00     0.002 C 
BRANCH  27  28
ATOM     28  C   UNL A   1      40.845  21.301  27.248  1.00  0.00     0.002 C 
BRANCH  28  29
ATOM     29  C   UNL A   1      41.443  20.230  26.324  1.00  0.00     0.021 C 
BRANCH  29  30
ATOM     30  C   UNL A   1      42.726  19.584  26.815  1.00  0.00     0.116 C 
BRANCH  30  31
ATOM     31  N   UNL A   1      43.776  19.486  25.794  1.00  0.00    -0.352 N 
ATOM     32  C   UNL A   1      44.282  20.483  24.964  1.00  0.00     0.251 C 
ATOM     33  H   UNL A   1      44.175  18.594  25.679  1.00  0.00     0.163 HD
ATOM     34  O   UNL A   1      44.873  20.214  23.936  1.00  0.00    -0.269 OA
BRANCH  32  35
ATOM     35  C   UNL A   1      44.099  21.887  25.377  1.00  0.00     0.039 A 
ATOM     36  C   UNL A   1      43.237  22.777  24.731  1.00  0.00     0.014 A 
ATOM     37  C   UNL A   1      44.803  22.283  26.502  1.00  0.00     0.014 A 
ATOM     38  C   UNL A   1      43.061  24.045  25.287  1.00  0.00     0.010 A 
ATOM     39  C   UNL A   1      44.383  23.368  27.201  1.00  0.00     0.010 A 
ATOM     40  C   UNL A   1      43.641  24.323  26.534  1.00  0.00    -0.014 A 
BRANCH  40  41
ATOM     41  C   UNL A   1      43.470  25.586  27.232  1.00  0.00     0.031 A 
ATOM     42  C   UNL A   1      44.462  26.609  26.843  1.00  0.00     0.074 A 
ATOM     43  C   UNL A   1      42.357  25.873  27.947  1.00  0.00     0.049 A 
ATOM     44  N   UNL A   1      45.485  27.006  27.519  1.00  0.00    -0.248 NA
ATOM     45  C   UNL A   1      44.425  27.124  25.462  1.00  0.00     0.031 C 
ATOM     46  C   UNL A   1      41.127  25.067  28.072  1.00  0.00     0.029 A 
ATOM     47  N   UNL A   1      42.035  27.004  28.635  1.00  0.00    -0.354 N 
ATOM     48  C   UNL A   1      46.047  28.029  26.763  1.00  0.00     0.074 A 
ATOM     49  C   UNL A   1      45.527  27.878  25.432  1.00  0.00     0.031 C 
ATOM     50  C   UNL A   1      40.129  25.825  28.577  1.00  0.00     0.029 A 
ATOM     51  C   UNL A   1      40.693  27.088  29.003  1.00  0.00     0.049 A 
ATOM     52  H   UNL A   1      42.693  27.702  28.856  1.00  0.00     0.167 HD
ATOM     53  C   UNL A   1      46.594  29.111  27.383  1.00  0.00     0.037 A 
ATOM     54  C   UNL A   1      40.087  28.125  29.628  1.00  0.00     0.037 A 
ATOM     55  C   UNL A   1      46.709  28.871  28.801  1.00  0.00     0.049 A 
ATOM     56  C   UNL A   1      41.145  28.913  30.298  1.00  0.00     0.074 A 
ATOM     57  C   UNL A   1      47.527  28.144  29.635  1.00  0.00     0.029 A 
ATOM     58  N   UNL A   1      45.556  29.144  29.490  1.00  0.00    -0.354 N 
ATOM     59  N   UNL A   1      41.867  28.449  31.281  1.00  0.00    -0.248 NA
ATOM     60  C   UNL A   1      41.680  30.094  29.633  1.00  0.00     0.031 C 
ATOM     61  C   UNL A   1      46.756  27.865  30.804  1.00  0.00     0.029 A 
ATOM     62  C   UNL A   1      45.506  28.467  30.677  1.00  0.00     0.049 A 
ATOM     63  H   UNL A   1      44.852  29.753  29.169  1.00  0.00     0.167 HD
ATOM     64  C   UNL A   1      43.118  29.001  31.077  1.00  0.00     0.074 A 
ATOM     65  C   UNL A   1      42.900  30.126  30.176  1.00  0.00     0.031 C 
ATOM     66  C   UNL A   1      44.250  28.301  31.377  1.00  0.00     0.037 A 
BRANCH  53  67
ATOM     67  C   UNL A   1      46.547  30.530  26.860  1.00  0.00     0.057 A 
ATOM     68  C   UNL A   1      47.726  31.298  26.883  1.00  0.00     0.134 A 
ATOM     69  C   UNL A   1      45.364  31.264  26.632  1.00  0.00     0.134 A 
ATOM     70  F   UNL A   1      48.917  30.723  27.112  1.00  0.00    -0.206 F 
ATOM     71  C   UNL A   1      47.719  32.693  26.748  1.00  0.00     0.040 A 
ATOM     72  C   UNL A   1      45.352  32.649  26.445  1.00  0.00     0.040 A 
ATOM     73  F   UNL A   1      44.149  30.706  26.683  1.00  0.00    -0.206 F 
ATOM     74  C   UNL A   1      46.528  33.374  26.533  1.00  0.00     0.006 A 
ENDBRANCH  53  67
BRANCH  54  75
ATOM     75  C   UNL A   1      38.704  28.617  29.470  1.00  0.00     0.057 A 
ATOM     76  C   UNL A   1      37.832  28.725  30.562  1.00  0.00     0.134 A 
ATOM     77  C   UNL A   1      38.302  29.265  28.288  1.00  0.00     0.134 A 
ATOM     78  F   UNL A   1      38.148  28.168  31.739  1.00  0.00    -0.206 F 
ATOM     79  C   UNL A   1      36.642  29.462  30.492  1.00  0.00     0.040 A 
ATOM     80  C   UNL A   1      37.118  30.004  28.205  1.00  0.00     0.040 A 
ATOM     81  F   UNL A   1      39.097  29.276  27.206  1.00  0.00    -0.206 F 
ATOM     82  C   UNL A   1      36.289  30.117  29.315  1.00  0.00     0.006 A 
ENDBRANCH  54  75
BRANCH  66  83
ATOM     83  C   UNL A   1      44.138  27.193  32.378  1.00  0.00     0.057 A 
ATOM     84  C   UNL A   1      44.134  25.826  32.066  1.00  0.00     0.134 A 
ATOM     85  C   UNL A   1      44.112  27.534  33.735  1.00  0.00     0.134 A 
ATOM     86  F   UNL A   1      44.227  25.403  30.800  1.00  0.00    -0.206 F 
ATOM     87  C   UNL A   1      44.073  24.847  33.063  1.00  0.00     0.040 A 
ATOM     88  C   UNL A   1      44.083  26.567  34.740  1.00  0.00     0.040 A 
ATOM     89  F   UNL A   1      44.153  28.824  34.106  1.00  0.00    -0.206 F 
ATOM     90  C   UNL A   1      44.053  25.217  34.405  1.00  0.00     0.006 A 
ENDBRANCH  66  83
ENDBRANCH  40  41
ENDBRANCH  32  35
ENDBRANCH  30  31
ENDBRANCH  29  30
ENDBRANCH  28  29
ENDBRANCH  27  28
ENDBRANCH  26  27
ENDBRANCH   1  26
TORSDOF 20
ENDMDL
MODEL 3
REMARK VINA RESULT:     -10.2      1.107      1.572
REMARK SMILES Cc1nsc(NC(=O)CC[C@H](C)CC[NH3+])c1C(=O)NCCCCCCNC(=O)c1ccc(-c2c3nc(c(-c4c(F)cccc4F)c4ccc([nH]4)c(-c4c(F)cccc4F)c4nc(c(-c5c(F)cccc5F)c5ccc2[nH]5)C=C4)C=C3)cc1
REMARK SMILES IDX 20 1 19 2 17 3 18 4 16 6 1 7 2 8 3 9 4 10 5 11 6 12 7 13
REMARK SMILES IDX 8 15 9 16 10 17 11 18 12 19 13 20 14 21 15 22 21 26 22 27
REMARK SMILES IDX 23 28 24 29 25 30 26 31 27 32 28 34 29 35 30 36 82 37 31 38
REMARK SMILES IDX 81 39 32 40 33 41 34 42 75 43 35 44 80 45 74 46 76 47 36 48
REMARK SMILES IDX 79 49 73 50 72 51 37 53 63 54 46 55 62 56 47 57 50 58 61 59
REMARK SMILES IDX 77 60 48 61 49 62 60 64 78 65 51 66 38 67 39 68 44 69 40 70
REMARK SMILES IDX 41 71 43 72 45 73 42 74 64 75 65 76 70 77 66 78 67 79 69 80
REMARK SMILES IDX 71 81 68 82 52 83 53 84 58 85 54 86 55 87 57 88 59 89 56 90
REMARK H PARENT 19 5 6 14 15 23 15 24 15 25 26 33 76 52 50 63
REMARK Flexibility Score: inf
ROOT
ATOM      1  C   UNL A   1      34.008  30.178  27.333  1.00  0.00     0.116 C 
ENDROOT
BRANCH   1   2
ATOM      2  N   UNL A   1      33.106  29.198  27.874  1.00  0.00    -0.352 N 
ATOM      3  C   UNL A   1      32.119  28.431  27.299  1.00  0.00     0.256 C 
ATOM      4  O   UNL A   1      31.487  27.736  28.103  1.00  0.00    -0.269 OA
ATOM      5  H   UNL A   1      33.215  29.047  28.841  1.00  0.00     0.163 HD
BRANCH   3   6
ATOM      6  C   UNL A   1      31.762  28.382  25.866  1.00  0.00     0.097 A 
ATOM      7  C   UNL A   1      30.886  30.779  24.996  1.00  0.00     0.069 C 
ATOM      8  C   UNL A   1      31.324  29.361  24.866  1.00  0.00     0.066 A 
ATOM      9  N   UNL A   1      31.264  28.923  23.605  1.00  0.00    -0.195 NA
ATOM     10  S   UNL A   1      31.638  27.331  23.554  1.00  0.00    -0.017 S 
ATOM     11  C   UNL A   1      31.695  27.127  25.231  1.00  0.00     0.129 A 
BRANCH  11  12
ATOM     12  N   UNL A   1      31.716  25.862  25.794  1.00  0.00    -0.316 N 
ATOM     13  C   UNL A   1      32.748  24.958  25.881  1.00  0.00     0.225 C 
ATOM     14  H   UNL A   1      30.866  25.568  26.193  1.00  0.00     0.170 HD
ATOM     15  O   UNL A   1      32.474  23.838  26.336  1.00  0.00    -0.275 OA
BRANCH  13  16
ATOM     16  C   UNL A   1      34.177  25.207  25.374  1.00  0.00     0.101 C 
BRANCH  16  17
ATOM     17  C   UNL A   1      34.589  24.405  24.112  1.00  0.00     0.013 C 
BRANCH  17  18
ATOM     18  C   UNL A   1      35.467  23.127  24.310  1.00  0.00    -0.008 C 
ATOM     19  C   UNL A   1      36.589  23.066  23.268  1.00  0.00     0.008 C 
BRANCH  18  20
ATOM     20  C   UNL A   1      34.574  21.887  24.313  1.00  0.00     0.064 C 
BRANCH  20  21
ATOM     21  C   UNL A   1      34.590  20.900  25.470  1.00  0.00     0.259 C 
BRANCH  21  22
ATOM     22  N   UNL A   1      34.958  19.556  25.072  1.00  0.00    -0.358 N 
ATOM     23  H   UNL A   1      34.669  19.395  24.107  1.00  0.00     0.344 HD
ATOM     24  H   UNL A   1      34.494  18.882  25.682  1.00  0.00     0.344 HD
ATOM     25  H   UNL A   1      35.969  19.443  25.148  1.00  0.00     0.344 HD
ENDBRANCH  21  22
ENDBRANCH  20  21
ENDBRANCH  18  20
ENDBRANCH  17  18
ENDBRANCH  16  17
ENDBRANCH  13  16
ENDBRANCH  11  12
ENDBRANCH   3   6
ENDBRANCH   1   2
BRANCH   1  26
ATOM     26  C   UNL A   1      33.645  31.639  27.585  1.00  0.00     0.021 C 
BRANCH  26  27
ATOM     27  C   UNL A   1      34.598  32.447  28.468  1.00  0.00     0.002 C 
BRANCH  27  28
ATOM     28  C   UNL A   1      34.937  33.879  28.031  1.00  0.00     0.002 C 
BRANCH  28  29
ATOM     29  C   UNL A   1      34.370  35.049  28.849  1.00  0.00     0.021 C 
BRANCH  29  30
ATOM     30  C   UNL A   1      32.987  34.826  29.437  1.00  0.00     0.116 C 
BRANCH  30  31
ATOM     31  N   UNL A   1      32.749  35.544  30.693  1.00  0.00    -0.352 N 
ATOM     32  C   UNL A   1      33.232  35.258  31.968  1.00  0.00     0.251 C 
ATOM     33  H   UNL A   1      32.166  36.335  30.627  1.00  0.00     0.163 HD
ATOM     34  O   UNL A   1      32.690  35.693  32.966  1.00  0.00    -0.269 OA
BRANCH  32  35
ATOM     35  C   UNL A   1      34.442  34.422  32.078  1.00  0.00     0.039 A 
ATOM     36  C   UNL A   1      34.425  33.026  32.014  1.00  0.00     0.014 A 
ATOM     37  C   UNL A   1      35.640  35.105  32.198  1.00  0.00     0.014 A 
ATOM     38  C   UNL A   1      35.647  32.351  32.012  1.00  0.00     0.010 A 
ATOM     39  C   UNL A   1      36.799  34.478  31.869  1.00  0.00     0.010 A 
ATOM     40  C   UNL A   1      36.832  33.099  31.932  1.00  0.00    -0.014 A 
BRANCH  40  41
ATOM     41  C   UNL A   1      38.153  32.499  31.861  1.00  0.00     0.031 A 
ATOM     42  C   UNL A   1      38.850  32.459  33.163  1.00  0.00     0.074 A 
ATOM     43  C   UNL A   1      38.576  31.806  30.777  1.00  0.00     0.049 A 
ATOM     44  N   UNL A   1      39.819  33.212  33.558  1.00  0.00    -0.248 NA
ATOM     45  C   UNL A   1      38.288  31.606  34.226  1.00  0.00     0.031 C 
ATOM     46  C   UNL A   1      37.803  31.448  29.572  1.00  0.00     0.029 A 
ATOM     47  N   UNL A   1      39.762  31.172  30.560  1.00  0.00    -0.354 N 
ATOM     48  C   UNL A   1      40.171  32.725  34.811  1.00  0.00     0.074 A 
ATOM     49  C   UNL A   1      39.058  31.938  35.266  1.00  0.00     0.031 C 
ATOM     50  C   UNL A   1      38.446  30.482  28.882  1.00  0.00     0.029 A 
ATOM     51  C   UNL A   1      39.756  30.303  29.471  1.00  0.00     0.049 A 
ATOM     52  H   UNL A   1      40.557  31.316  31.124  1.00  0.00     0.167 HD
ATOM     53  C   UNL A   1      41.478  32.715  35.194  1.00  0.00     0.037 A 
ATOM     54  C   UNL A   1      40.768  29.498  29.071  1.00  0.00     0.037 A 
ATOM     55  C   UNL A   1      42.278  33.476  34.265  1.00  0.00     0.049 A 
ATOM     56  C   UNL A   1      42.018  30.043  29.644  1.00  0.00     0.074 A 
ATOM     57  C   UNL A   1      42.506  34.804  33.987  1.00  0.00     0.029 A 
ATOM     58  N   UNL A   1      42.664  32.753  33.166  1.00  0.00    -0.354 N 
ATOM     59  N   UNL A   1      42.510  31.206  29.309  1.00  0.00    -0.248 NA
ATOM     60  C   UNL A   1      42.537  29.479  30.883  1.00  0.00     0.031 C 
ATOM     61  C   UNL A   1      42.907  34.861  32.618  1.00  0.00     0.029 A 
ATOM     62  C   UNL A   1      42.961  33.565  32.107  1.00  0.00     0.049 A 
ATOM     63  H   UNL A   1      42.720  31.770  33.144  1.00  0.00     0.167 HD
ATOM     64  C   UNL A   1      43.055  31.697  30.480  1.00  0.00     0.074 A 
ATOM     65  C   UNL A   1      43.203  30.538  31.352  1.00  0.00     0.031 C 
ATOM     66  C   UNL A   1      43.018  33.031  30.764  1.00  0.00     0.037 A 
BRANCH  53  67
ATOM     67  C   UNL A   1      42.127  31.649  36.049  1.00  0.00     0.057 A 
ATOM     68  C   UNL A   1      42.884  32.047  37.167  1.00  0.00     0.134 A 
ATOM     69  C   UNL A   1      42.300  30.304  35.663  1.00  0.00     0.134 A 
ATOM     70  F   UNL A   1      42.826  33.307  37.623  1.00  0.00    -0.206 F 
ATOM     71  C   UNL A   1      43.786  31.189  37.809  1.00  0.00     0.040 A 
ATOM     72  C   UNL A   1      43.158  29.424  36.329  1.00  0.00     0.040 A 
ATOM     73  F   UNL A   1      41.736  29.792  34.562  1.00  0.00    -0.206 F 
ATOM     74  C   UNL A   1      43.929  29.873  37.389  1.00  0.00     0.006 A 
ENDBRANCH  53  67
BRANCH  54  75
ATOM     75  C   UNL A   1      40.692  28.159  28.450  1.00  0.00     0.057 A 
ATOM     76  C   UNL A   1      39.985  27.109  29.050  1.00  0.00     0.134 A 
ATOM     77  C   UNL A   1      41.073  27.967  27.110  1.00  0.00     0.134 A 
ATOM     78  F   UNL A   1      39.552  27.217  30.314  1.00  0.00    -0.206 F 
ATOM     79  C   UNL A   1      39.648  25.943  28.348  1.00  0.00     0.040 A 
ATOM     80  C   UNL A   1      40.742  26.810  26.398  1.00  0.00     0.040 A 
ATOM     81  F   UNL A   1      41.696  28.939  26.426  1.00  0.00    -0.206 F 
ATOM     82  C   UNL A   1      40.014  25.798  27.012  1.00  0.00     0.006 A 
ENDBRANCH  54  75
BRANCH  66  83
ATOM     83  C   UNL A   1      42.873  33.982  29.616  1.00  0.00     0.057 A 
ATOM     84  C   UNL A   1      41.681  34.626  29.254  1.00  0.00     0.134 A 
ATOM     85  C   UNL A   1      44.022  34.319  28.892  1.00  0.00     0.134 A 
ATOM     86  F   UNL A   1      40.547  34.421  29.933  1.00  0.00    -0.206 F 
ATOM     87  C   UNL A   1      41.635  35.540  28.196  1.00  0.00     0.040 A 
ATOM     88  C   UNL A   1      43.995  35.252  27.855  1.00  0.00     0.040 A 
ATOM     89  F   UNL A   1      45.204  33.769  29.211  1.00  0.00    -0.206 F 
ATOM     90  C   UNL A   1      42.795  35.859  27.496  1.00  0.00     0.006 A 
ENDBRANCH  66  83
ENDBRANCH  40  41
ENDBRANCH  32  35
ENDBRANCH  30  31
ENDBRANCH  29  30
ENDBRANCH  28  29
ENDBRANCH  27  28
ENDBRANCH  26  27
ENDBRANCH   1  26
TORSDOF 20
ENDMDL
