MODEL 1
REMARK VINA RESULT:     -14.1      0.000      0.000
REMARK SMILES CC1(C)S[C@@H]2[C@H]([NH2+]Cn3nnc4ccccc43)C(=O)N2[C@@H]1C(=O)NCCCCCCNC(=O)c1ccc(-c2c3nc(c(-c4c(F)cccc4F)c4ccc([nH]4)c(-c4c(F)cccc4F)c4nc(c(-c5c(F)cccc5F)c5ccc2[nH]5)C=C4)C=C3)cc1
REMARK SMILES IDX 27 1 26 2 25 3 24 4 22 5 23 6 21 8 1 9 2 10 3 11 4 12 5 13
REMARK SMILES IDX 20 14 6 15 18 16 19 17 7 18 8 21 9 22 10 23 17 24 11 25
REMARK SMILES IDX 12 26 16 27 13 28 15 29 14 30 28 31 29 32 30 33 31 34 32 35
REMARK SMILES IDX 33 37 34 38 35 39 87 40 36 41 86 42 37 43 38 44 39 45 80 46
REMARK SMILES IDX 40 47 85 48 79 49 81 50 41 51 84 52 78 53 77 54 42 56 68 57
REMARK SMILES IDX 51 58 67 59 52 60 55 61 66 62 82 63 53 64 54 65 65 67 83 68
REMARK SMILES IDX 56 69 43 70 44 71 49 72 45 73 46 74 48 75 50 76 47 77 69 78
REMARK SMILES IDX 70 79 75 80 71 81 72 82 74 83 76 84 73 85 57 86 58 87 63 88
REMARK SMILES IDX 59 89 60 90 62 91 64 92 61 93
REMARK H PARENT 24 7 7 19 7 20 31 36 81 55 55 66
REMARK Flexibility Score: inf
ROOT
ATOM      1  C   UNL A   1      39.514  23.205  26.863  1.00  0.00     0.002 C 
ENDROOT
BRANCH   1   2
ATOM      2  C   UNL A   1      38.315  22.788  26.075  1.00  0.00     0.021 C 
BRANCH   2   3
ATOM      3  C   UNL A   1      37.209  23.801  25.915  1.00  0.00     0.116 C 
BRANCH   3   4
ATOM      4  N   UNL A   1      35.961  23.381  26.437  1.00  0.00    -0.354 N 
ATOM      5  C   UNL A   1      34.728  23.827  26.031  1.00  0.00     0.244 C 
ATOM      6  O   UNL A   1      33.750  23.333  26.602  1.00  0.00    -0.273 OA
ATOM      7  H   UNL A   1      35.980  22.709  27.156  1.00  0.00     0.163 HD
BRANCH   5   8
ATOM      8  C   UNL A   1      34.536  24.819  24.790  1.00  0.00     0.191 C 
ATOM      9  C   UNL A   1      32.815  25.998  26.342  1.00  0.00     0.026 C 
ATOM     10  C   UNL A   1      33.358  25.838  24.916  1.00  0.00     0.042 C 
ATOM     11  C   UNL A   1      33.648  27.220  24.313  1.00  0.00     0.026 C 
ATOM     12  S   UNL A   1      32.068  25.360  23.690  1.00  0.00    -0.121 SA
ATOM     13  C   UNL A   1      33.246  24.477  22.579  1.00  0.00     0.213 C 
ATOM     14  N   UNL A   1      34.379  24.199  23.466  1.00  0.00    -0.306 N 
ATOM     15  C   UNL A   1      33.232  22.955  22.189  1.00  0.00     0.307 C 
ATOM     16  C   UNL A   1      34.481  22.878  23.173  1.00  0.00     0.285 C 
ATOM     17  O   UNL A   1      35.258  22.066  23.616  1.00  0.00    -0.268 OA
BRANCH  15  18
ATOM     18  N   UNL A   1      31.945  22.175  22.358  1.00  0.00    -0.315 N 
ATOM     19  H   UNL A   1      31.356  22.368  21.550  1.00  0.00     0.348 HD
ATOM     20  H   UNL A   1      31.556  22.485  23.250  1.00  0.00     0.348 HD
BRANCH  18  21
ATOM     21  C   UNL A   1      32.079  20.709  22.477  1.00  0.00     0.415 C 
BRANCH  21  22
ATOM     22  N   UNL A   1      32.382  20.021  23.744  1.00  0.00    -0.194 N 
ATOM     23  N   UNL A   1      32.084  20.537  24.940  1.00  0.00    -0.061 NA
ATOM     24  C   UNL A   1      32.886  18.712  23.856  1.00  0.00     0.095 A 
ATOM     25  N   UNL A   1      32.363  19.606  25.847  1.00  0.00    -0.130 NA
ATOM     26  C   UNL A   1      32.755  18.453  25.214  1.00  0.00     0.113 A 
ATOM     27  C   UNL A   1      33.285  17.692  22.964  1.00  0.00     0.030 A 
ATOM     28  C   UNL A   1      32.868  17.123  25.670  1.00  0.00     0.032 A 
ATOM     29  C   UNL A   1      33.619  16.433  23.509  1.00  0.00     0.002 A 
ATOM     30  C   UNL A   1      33.374  16.131  24.840  1.00  0.00     0.002 A 
ENDBRANCH  21  22
ENDBRANCH  18  21
ENDBRANCH  15  18
ENDBRANCH   5   8
ENDBRANCH   3   4
ENDBRANCH   2   3
ENDBRANCH   1   2
BRANCH   1  31
ATOM     31  C   UNL A   1      39.703  24.707  26.780  1.00  0.00     0.002 C 
BRANCH  31  32
ATOM     32  C   UNL A   1      40.887  25.089  25.904  1.00  0.00     0.021 C 
BRANCH  32  33
ATOM     33  C   UNL A   1      41.785  26.277  26.245  1.00  0.00     0.116 C 
BRANCH  33  34
ATOM     34  N   UNL A   1      40.975  27.446  26.295  1.00  0.00    -0.352 N 
ATOM     35  C   UNL A   1      40.400  28.155  27.304  1.00  0.00     0.251 C 
ATOM     36  H   UNL A   1      40.793  27.825  25.405  1.00  0.00     0.163 HD
ATOM     37  O   UNL A   1      39.713  29.100  26.893  1.00  0.00    -0.269 OA
BRANCH  35  38
ATOM     38  C   UNL A   1      40.332  27.870  28.783  1.00  0.00     0.039 A 
ATOM     39  C   UNL A   1      39.432  27.140  29.515  1.00  0.00     0.014 A 
ATOM     40  C   UNL A   1      40.847  28.956  29.523  1.00  0.00     0.014 A 
ATOM     41  C   UNL A   1      38.817  27.912  30.647  1.00  0.00     0.010 A 
ATOM     42  C   UNL A   1      40.525  29.186  30.847  1.00  0.00     0.010 A 
ATOM     43  C   UNL A   1      39.196  29.371  30.915  1.00  0.00    -0.014 A 
BRANCH  43  44
ATOM     44  C   UNL A   1      38.879  30.667  32.048  1.00  0.00     0.031 A 
ATOM     45  C   UNL A   1      37.577  31.192  30.893  1.00  0.00     0.074 A 
ATOM     46  C   UNL A   1      39.562  31.204  33.680  1.00  0.00     0.049 A 
ATOM     47  N   UNL A   1      37.807  31.773  29.755  1.00  0.00    -0.248 NA
ATOM     48  C   UNL A   1      36.133  30.458  30.416  1.00  0.00     0.031 C 
ATOM     49  C   UNL A   1      40.548  30.750  35.010  1.00  0.00     0.029 A 
ATOM     50  N   UNL A   1      39.454  32.484  34.420  1.00  0.00    -0.354 N 
ATOM     51  C   UNL A   1      36.540  32.289  29.354  1.00  0.00     0.074 A 
ATOM     52  C   UNL A   1      35.546  31.332  29.563  1.00  0.00     0.031 C 
ATOM     53  C   UNL A   1      40.312  31.507  36.248  1.00  0.00     0.029 A 
ATOM     54  C   UNL A   1      39.499  32.658  35.884  1.00  0.00     0.049 A 
ATOM     55  H   UNL A   1      39.342  33.299  33.879  1.00  0.00     0.167 HD
ATOM     56  C   UNL A   1      36.300  33.595  29.528  1.00  0.00     0.037 A 
ATOM     57  C   UNL A   1      38.981  33.590  36.807  1.00  0.00     0.037 A 
ATOM     58  C   UNL A   1      37.555  34.191  29.839  1.00  0.00     0.049 A 
ATOM     59  C   UNL A   1      38.424  34.477  35.779  1.00  0.00     0.074 A 
ATOM     60  C   UNL A   1      38.744  34.209  29.142  1.00  0.00     0.029 A 
ATOM     61  N   UNL A   1      37.849  34.132  31.164  1.00  0.00    -0.354 N 
ATOM     62  N   UNL A   1      39.197  35.148  34.952  1.00  0.00    -0.248 NA
ATOM     63  C   UNL A   1      37.164  33.921  35.266  1.00  0.00     0.031 C 
ATOM     64  C   UNL A   1      39.775  34.113  30.100  1.00  0.00     0.029 A 
ATOM     65  C   UNL A   1      39.191  34.177  31.355  1.00  0.00     0.049 A 
ATOM     66  H   UNL A   1      37.181  34.066  31.884  1.00  0.00     0.167 HD
ATOM     67  C   UNL A   1      38.801  34.702  33.692  1.00  0.00     0.074 A 
ATOM     68  C   UNL A   1      37.461  33.985  33.958  1.00  0.00     0.031 C 
ATOM     69  C   UNL A   1      39.707  34.403  32.662  1.00  0.00     0.037 A 
BRANCH  56  70
ATOM     70  C   UNL A   1      35.007  34.244  29.861  1.00  0.00     0.057 A 
ATOM     71  C   UNL A   1      34.376  34.464  31.105  1.00  0.00     0.134 A 
ATOM     72  C   UNL A   1      34.468  34.886  28.753  1.00  0.00     0.134 A 
ATOM     73  F   UNL A   1      34.800  33.914  32.255  1.00  0.00    -0.206 F 
ATOM     74  C   UNL A   1      33.290  35.339  31.214  1.00  0.00     0.040 A 
ATOM     75  C   UNL A   1      33.492  35.854  28.875  1.00  0.00     0.040 A 
ATOM     76  F   UNL A   1      34.936  34.608  27.527  1.00  0.00    -0.206 F 
ATOM     77  C   UNL A   1      32.930  36.115  30.117  1.00  0.00     0.006 A 
ENDBRANCH  56  70
BRANCH  57  78
ATOM     78  C   UNL A   1      38.255  33.372  38.192  1.00  0.00     0.057 A 
ATOM     79  C   UNL A   1      38.567  34.324  39.174  1.00  0.00     0.134 A 
ATOM     80  C   UNL A   1      37.568  32.238  38.746  1.00  0.00     0.134 A 
ATOM     81  F   UNL A   1      39.240  35.423  38.822  1.00  0.00    -0.206 F 
ATOM     82  C   UNL A   1      38.279  34.207  40.546  1.00  0.00     0.040 A 
ATOM     83  C   UNL A   1      37.182  32.150  40.131  1.00  0.00     0.040 A 
ATOM     84  F   UNL A   1      37.255  31.162  38.003  1.00  0.00    -0.206 F 
ATOM     85  C   UNL A   1      37.527  33.154  41.030  1.00  0.00     0.006 A 
ENDBRANCH  57  78
BRANCH  69  86
ATOM     86  C   UNL A   1      41.255  34.521  32.734  1.00  0.00     0.057 A 
ATOM     87  C   UNL A   1      41.955  33.425  32.259  1.00  0.00     0.134 A 
ATOM     88  C   UNL A   1      42.097  35.477  33.372  1.00  0.00     0.134 A 
ATOM     89  F   UNL A   1      41.289  32.324  31.892  1.00  0.00    -0.206 F 
ATOM     90  C   UNL A   1      43.348  33.397  32.182  1.00  0.00     0.040 A 
ATOM     91  C   UNL A   1      43.481  35.558  33.148  1.00  0.00     0.040 A 
ATOM     92  F   UNL A   1      41.648  36.330  34.297  1.00  0.00    -0.206 F 
ATOM     93  C   UNL A   1      44.097  34.529  32.469  1.00  0.00     0.006 A 
ENDBRANCH  69  86
ENDBRANCH  43  44
ENDBRANCH  35  38
ENDBRANCH  33  34
ENDBRANCH  32  33
ENDBRANCH  31  32
ENDBRANCH   1  31
TORSDOF 16
ENDMDL
MODEL 2
REMARK VINA RESULT:     -13.3      2.195      4.323
REMARK SMILES CC1(C)S[C@@H]2[C@H]([NH2+]Cn3nnc4ccccc43)C(=O)N2[C@@H]1C(=O)NCCCCCCNC(=O)c1ccc(-c2c3nc(c(-c4c(F)cccc4F)c4ccc([nH]4)c(-c4c(F)cccc4F)c4nc(c(-c5c(F)cccc5F)c5ccc2[nH]5)C=C4)C=C3)cc1
REMARK SMILES IDX 27 1 26 2 25 3 24 4 22 5 23 6 21 8 1 9 2 10 3 11 4 12 5 13
REMARK SMILES IDX 20 14 6 15 18 16 19 17 7 18 8 21 9 22 10 23 17 24 11 25
REMARK SMILES IDX 12 26 16 27 13 28 15 29 14 30 28 31 29 32 30 33 31 34 32 35
REMARK SMILES IDX 33 37 34 38 35 39 87 40 36 41 86 42 37 43 38 44 39 45 80 46
REMARK SMILES IDX 40 47 85 48 79 49 81 50 41 51 84 52 78 53 77 54 42 56 68 57
REMARK SMILES IDX 51 58 67 59 52 60 55 61 66 62 82 63 53 64 54 65 65 67 83 68
REMARK SMILES IDX 56 69 43 70 44 71 49 72 45 73 46 74 48 75 50 76 47 77 69 78
REMARK SMILES IDX 70 79 75 80 71 81 72 82 74 83 76 84 73 85 57 86 58 87 63 88
REMARK SMILES IDX 59 89 60 90 62 91 64 92 61 93
REMARK H PARENT 24 7 7 19 7 20 31 36 81 55 55 66
REMARK Flexibility Score: inf
ROOT
ATOM      1  C   UNL A   1      39.242  24.566  27.314  1.00  0.00     0.002 C 
ENDROOT
BRANCH   1   2
ATOM      2  C   UNL A   1      38.569  24.078  26.072  1.00  0.00     0.021 C 
BRANCH   2   3
ATOM      3  C   UNL A   1      37.107  23.723  26.174  1.00  0.00     0.116 C 
BRANCH   3   4
ATOM      4  N   UNL A   1      36.342  24.099  25.043  1.00  0.00    -0.354 N 
ATOM      5  C   UNL A   1      34.998  23.880  24.873  1.00  0.00     0.244 C 
ATOM      6  O   UNL A   1      34.503  24.291  23.818  1.00  0.00    -0.273 OA
ATOM      7  H   UNL A   1      36.817  24.558  24.313  1.00  0.00     0.163 HD
BRANCH   5   8
ATOM      8  C   UNL A   1      34.073  23.262  26.023  1.00  0.00     0.191 C 
ATOM      9  C   UNL A   1      34.236  21.083  24.614  1.00  0.00     0.026 C 
ATOM     10  C   UNL A   1      33.516  21.829  25.745  1.00  0.00     0.042 C 
ATOM     11  C   UNL A   1      33.429  20.930  26.986  1.00  0.00     0.026 C 
ATOM     12  S   UNL A   1      31.698  21.973  25.484  1.00  0.00    -0.121 SA
ATOM     13  C   UNL A   1      31.539  23.542  26.442  1.00  0.00     0.213 C 
ATOM     14  N   UNL A   1      32.910  24.061  26.437  1.00  0.00    -0.306 N 
ATOM     15  C   UNL A   1      31.053  24.939  25.910  1.00  0.00     0.307 C 
ATOM     16  C   UNL A   1      32.597  25.313  26.017  1.00  0.00     0.285 C 
ATOM     17  O   UNL A   1      33.337  26.243  25.804  1.00  0.00    -0.268 OA
BRANCH  15  18
ATOM     18  N   UNL A   1      30.235  24.985  24.636  1.00  0.00    -0.315 N 
ATOM     19  H   UNL A   1      29.579  24.206  24.660  1.00  0.00     0.348 HD
ATOM     20  H   UNL A   1      30.915  24.943  23.876  1.00  0.00     0.348 HD
BRANCH  18  21
ATOM     21  C   UNL A   1      29.459  26.220  24.402  1.00  0.00     0.415 C 
BRANCH  21  22
ATOM     22  N   UNL A   1      30.006  27.404  23.718  1.00  0.00    -0.194 N 
ATOM     23  N   UNL A   1      31.302  27.535  23.415  1.00  0.00    -0.061 NA
ATOM     24  C   UNL A   1      29.242  28.459  23.188  1.00  0.00     0.095 A 
ATOM     25  N   UNL A   1      31.422  28.641  22.689  1.00  0.00    -0.130 NA
ATOM     26  C   UNL A   1      30.178  29.170  22.449  1.00  0.00     0.113 A 
ATOM     27  C   UNL A   1      27.872  28.799  23.129  1.00  0.00     0.030 A 
ATOM     28  C   UNL A   1      29.729  30.128  21.516  1.00  0.00     0.032 A 
ATOM     29  C   UNL A   1      27.503  29.925  22.361  1.00  0.00     0.002 A 
ATOM     30  C   UNL A   1      28.409  30.561  21.526  1.00  0.00     0.002 A 
ENDBRANCH  21  22
ENDBRANCH  18  21
ENDBRANCH  15  18
ENDBRANCH   5   8
ENDBRANCH   3   4
ENDBRANCH   2   3
ENDBRANCH   1   2
BRANCH   1  31
ATOM     31  C   UNL A   1      40.749  24.523  27.149  1.00  0.00     0.002 C 
BRANCH  31  32
ATOM     32  C   UNL A   1      41.221  25.354  25.966  1.00  0.00     0.021 C 
BRANCH  32  33
ATOM     33  C   UNL A   1      42.005  26.651  26.161  1.00  0.00     0.116 C 
BRANCH  33  34
ATOM     34  N   UNL A   1      41.074  27.722  26.259  1.00  0.00    -0.352 N 
ATOM     35  C   UNL A   1      40.395  28.294  27.291  1.00  0.00     0.251 C 
ATOM     36  H   UNL A   1      40.879  28.142  25.391  1.00  0.00     0.163 HD
ATOM     37  O   UNL A   1      39.624  29.189  26.919  1.00  0.00    -0.269 OA
BRANCH  35  38
ATOM     38  C   UNL A   1      40.313  27.899  28.744  1.00  0.00     0.039 A 
ATOM     39  C   UNL A   1      39.419  27.098  29.406  1.00  0.00     0.014 A 
ATOM     40  C   UNL A   1      40.794  28.938  29.569  1.00  0.00     0.014 A 
ATOM     41  C   UNL A   1      38.771  27.771  30.583  1.00  0.00     0.010 A 
ATOM     42  C   UNL A   1      40.448  29.062  30.902  1.00  0.00     0.010 A 
ATOM     43  C   UNL A   1      39.115  29.214  30.963  1.00  0.00    -0.014 A 
BRANCH  43  44
ATOM     44  C   UNL A   1      38.753  30.416  32.183  1.00  0.00     0.031 A 
ATOM     45  C   UNL A   1      37.537  31.071  31.001  1.00  0.00     0.074 A 
ATOM     46  C   UNL A   1      39.343  30.793  33.894  1.00  0.00     0.049 A 
ATOM     47  N   UNL A   1      37.851  31.742  29.934  1.00  0.00    -0.248 NA
ATOM     48  C   UNL A   1      36.111  30.418  30.375  1.00  0.00     0.031 C 
ATOM     49  C   UNL A   1      40.235  30.201  35.237  1.00  0.00     0.029 A 
ATOM     50  N   UNL A   1      39.215  32.007  34.735  1.00  0.00    -0.354 N 
ATOM     51  C   UNL A   1      36.622  32.322  29.503  1.00  0.00     0.074 A 
ATOM     52  C   UNL A   1      35.597  31.377  29.568  1.00  0.00     0.031 C 
ATOM     53  C   UNL A   1      39.936  30.855  36.520  1.00  0.00     0.029 A 
ATOM     54  C   UNL A   1      39.171  32.054  36.209  1.00  0.00     0.049 A 
ATOM     55  H   UNL A   1      39.154  32.868  34.262  1.00  0.00     0.167 HD
ATOM     56  C   UNL A   1      36.397  33.614  29.776  1.00  0.00     0.037 A 
ATOM     57  C   UNL A   1      38.615  32.916  37.177  1.00  0.00     0.037 A 
ATOM     58  C   UNL A   1      37.643  34.149  30.214  1.00  0.00     0.049 A 
ATOM     59  C   UNL A   1      38.142  33.902  36.198  1.00  0.00     0.074 A 
ATOM     60  C   UNL A   1      38.873  34.196  29.595  1.00  0.00     0.029 A 
ATOM     61  N   UNL A   1      37.851  33.969  31.544  1.00  0.00    -0.354 N 
ATOM     62  N   UNL A   1      38.979  34.621  35.481  1.00  0.00    -0.248 NA
ATOM     63  C   UNL A   1      36.906  33.424  35.563  1.00  0.00     0.031 C 
ATOM     64  C   UNL A   1      39.840  33.992  30.602  1.00  0.00     0.029 A 
ATOM     65  C   UNL A   1      39.179  33.963  31.820  1.00  0.00     0.049 A 
ATOM     66  H   UNL A   1      37.138  33.858  32.213  1.00  0.00     0.167 HD
ATOM     67  C   UNL A   1      38.654  34.295  34.165  1.00  0.00     0.074 A 
ATOM     68  C   UNL A   1      37.286  33.593  34.285  1.00  0.00     0.031 C 
ATOM     69  C   UNL A   1      39.616  34.062  33.170  1.00  0.00     0.037 A 
BRANCH  56  70
ATOM     70  C   UNL A   1      35.100  34.265  30.085  1.00  0.00     0.057 A 
ATOM     71  C   UNL A   1      34.448  34.489  31.318  1.00  0.00     0.134 A 
ATOM     72  C   UNL A   1      34.580  34.904  28.966  1.00  0.00     0.134 A 
ATOM     73  F   UNL A   1      34.851  33.942  32.476  1.00  0.00    -0.206 F 
ATOM     74  C   UNL A   1      33.361  35.365  31.406  1.00  0.00     0.040 A 
ATOM     75  C   UNL A   1      33.604  35.873  29.069  1.00  0.00     0.040 A 
ATOM     76  F   UNL A   1      35.069  34.623  27.749  1.00  0.00    -0.206 F 
ATOM     77  C   UNL A   1      33.020  36.138  30.300  1.00  0.00     0.006 A 
ENDBRANCH  56  70
BRANCH  57  78
ATOM     78  C   UNL A   1      37.799  32.598  38.491  1.00  0.00     0.057 A 
ATOM     79  C   UNL A   1      37.979  33.523  39.530  1.00  0.00     0.134 A 
ATOM     80  C   UNL A   1      37.140  31.405  38.944  1.00  0.00     0.134 A 
ATOM     81  F   UNL A   1      38.610  34.672  39.275  1.00  0.00    -0.206 F 
ATOM     82  C   UNL A   1      37.594  33.331  40.870  1.00  0.00     0.040 A 
ATOM     83  C   UNL A   1      36.655  31.236  40.290  1.00  0.00     0.040 A 
ATOM     84  F   UNL A   1      36.949  30.346  38.139  1.00  0.00    -0.206 F 
ATOM     85  C   UNL A   1      36.870  32.218  41.251  1.00  0.00     0.006 A 
ENDBRANCH  57  78
BRANCH  69  86
ATOM     86  C   UNL A   1      41.159  34.135  33.346  1.00  0.00     0.057 A 
ATOM     87  C   UNL A   1      41.645  35.345  33.811  1.00  0.00     0.134 A 
ATOM     88  C   UNL A   1      42.196  33.245  32.942  1.00  0.00     0.134 A 
ATOM     89  F   UNL A   1      40.808  36.379  33.961  1.00  0.00    -0.206 F 
ATOM     90  C   UNL A   1      42.994  35.556  34.096  1.00  0.00     0.040 A 
ATOM     91  C   UNL A   1      43.525  33.358  33.381  1.00  0.00     0.040 A 
ATOM     92  F   UNL A   1      42.002  32.271  32.049  1.00  0.00    -0.206 F 
ATOM     93  C   UNL A   1      43.902  34.507  34.041  1.00  0.00     0.006 A 
ENDBRANCH  69  86
ENDBRANCH  43  44
ENDBRANCH  35  38
ENDBRANCH  33  34
ENDBRANCH  32  33
ENDBRANCH  31  32
ENDBRANCH   1  31
TORSDOF 16
ENDMDL
MODEL 3
REMARK VINA RESULT:     -13.0      5.487     11.355
REMARK SMILES CC1(C)S[C@@H]2[C@H]([NH2+]Cn3nnc4ccccc43)C(=O)N2[C@@H]1C(=O)NCCCCCCNC(=O)c1ccc(-c2c3nc(c(-c4c(F)cccc4F)c4ccc([nH]4)c(-c4c(F)cccc4F)c4nc(c(-c5c(F)cccc5F)c5ccc2[nH]5)C=C4)C=C3)cc1
REMARK SMILES IDX 27 1 26 2 25 3 24 4 22 5 23 6 21 8 1 9 2 10 3 11 4 12 5 13
REMARK SMILES IDX 20 14 6 15 18 16 19 17 7 18 8 21 9 22 10 23 17 24 11 25
REMARK SMILES IDX 12 26 16 27 13 28 15 29 14 30 28 31 29 32 30 33 31 34 32 35
REMARK SMILES IDX 33 37 34 38 35 39 87 40 36 41 86 42 37 43 38 44 39 45 80 46
REMARK SMILES IDX 40 47 85 48 79 49 81 50 41 51 84 52 78 53 77 54 42 56 68 57
REMARK SMILES IDX 51 58 67 59 52 60 55 61 66 62 82 63 53 64 54 65 65 67 83 68
REMARK SMILES IDX 56 69 43 70 44 71 49 72 45 73 46 74 48 75 50 76 47 77 69 78
REMARK SMILES IDX 70 79 75 80 71 81 72 82 74 83 76 84 73 85 57 86 58 87 63 88
REMARK SMILES IDX 59 89 60 90 62 91 64 92 61 93
REMARK H PARENT 24 7 7 19 7 20 31 36 81 55 55 66
REMARK Flexibility Score: inf
ROOT
ATOM      1  C   UNL A   1      34.283  30.151  27.417  1.00  0.00     0.002 C 
ENDROOT
BRANCH   1   2
ATOM      2  C   UNL A   1      32.927  30.721  27.157  1.00  0.00     0.021 C 
BRANCH   2   3
ATOM      3  C   UNL A   1      31.825  29.749  26.815  1.00  0.00     0.116 C 
BRANCH   3   4
ATOM      4  N   UNL A   1      32.130  28.400  27.120  1.00  0.00    -0.354 N 
ATOM      5  C   UNL A   1      31.764  27.305  26.377  1.00  0.00     0.244 C 
ATOM      6  O   UNL A   1      32.133  26.206  26.801  1.00  0.00    -0.273 OA
ATOM      7  H   UNL A   1      32.651  28.232  27.937  1.00  0.00     0.163 HD
BRANCH   5   8
ATOM      8  C   UNL A   1      31.027  27.431  24.962  1.00  0.00     0.191 C 
ATOM      9  C   UNL A   1      29.517  25.523  25.879  1.00  0.00     0.026 C 
ATOM     10  C   UNL A   1      29.969  26.325  24.650  1.00  0.00     0.042 C 
ATOM     11  C   UNL A   1      28.741  26.822  23.876  1.00  0.00     0.026 C 
ATOM     12  S   UNL A   1      30.638  25.272  23.295  1.00  0.00    -0.121 SA
ATOM     13  C   UNL A   1      31.755  26.582  22.633  1.00  0.00     0.213 C 
ATOM     14  N   UNL A   1      31.889  27.495  23.772  1.00  0.00    -0.306 N 
ATOM     15  C   UNL A   1      33.324  26.539  22.538  1.00  0.00     0.307 C 
ATOM     16  C   UNL A   1      33.244  27.561  23.756  1.00  0.00     0.285 C 
ATOM     17  O   UNL A   1      33.977  28.177  24.492  1.00  0.00    -0.268 OA
BRANCH  15  18
ATOM     18  N   UNL A   1      34.016  25.194  22.579  1.00  0.00    -0.315 N 
ATOM     19  H   UNL A   1      34.960  25.319  22.214  1.00  0.00     0.348 HD
ATOM     20  H   UNL A   1      33.429  24.569  22.025  1.00  0.00     0.348 HD
BRANCH  18  21
ATOM     21  C   UNL A   1      34.128  24.555  23.905  1.00  0.00     0.415 C 
BRANCH  21  22
ATOM     22  N   UNL A   1      34.774  23.250  24.126  1.00  0.00    -0.194 N 
ATOM     23  N   UNL A   1      36.048  23.126  24.513  1.00  0.00    -0.061 NA
ATOM     24  C   UNL A   1      34.120  22.005  24.094  1.00  0.00     0.095 A 
ATOM     25  N   UNL A   1      36.259  21.835  24.751  1.00  0.00    -0.130 NA
ATOM     26  C   UNL A   1      35.083  21.144  24.603  1.00  0.00     0.113 A 
ATOM     27  C   UNL A   1      32.808  21.548  23.841  1.00  0.00     0.030 A 
ATOM     28  C   UNL A   1      34.695  19.852  25.015  1.00  0.00     0.032 A 
ATOM     29  C   UNL A   1      32.535  20.177  24.047  1.00  0.00     0.002 A 
ATOM     30  C   UNL A   1      33.450  19.342  24.668  1.00  0.00     0.002 A 
ENDBRANCH  21  22
ENDBRANCH  18  21
ENDBRANCH  15  18
ENDBRANCH   5   8
ENDBRANCH   3   4
ENDBRANCH   2   3
ENDBRANCH   1   2
BRANCH   1  31
ATOM     31  C   UNL A   1      34.959  30.897  28.551  1.00  0.00     0.002 C 
BRANCH  31  32
ATOM     32  C   UNL A   1      36.244  30.219  29.000  1.00  0.00     0.021 C 
BRANCH  32  33
ATOM     33  C   UNL A   1      36.568  30.016  30.479  1.00  0.00     0.116 C 
BRANCH  33  34
ATOM     34  N   UNL A   1      37.395  28.864  30.599  1.00  0.00    -0.352 N 
ATOM     35  C   UNL A   1      38.592  28.499  30.064  1.00  0.00     0.251 C 
ATOM     36  H   UNL A   1      37.019  28.183  31.202  1.00  0.00     0.163 HD
ATOM     37  O   UNL A   1      38.936  27.357  30.398  1.00  0.00    -0.269 OA
BRANCH  35  38
ATOM     38  C   UNL A   1      39.445  29.180  29.024  1.00  0.00     0.039 A 
ATOM     39  C   UNL A   1      39.224  29.404  27.689  1.00  0.00     0.014 A 
ATOM     40  C   UNL A   1      40.815  28.987  29.301  1.00  0.00     0.014 A 
ATOM     41  C   UNL A   1      40.321  28.880  26.807  1.00  0.00     0.010 A 
ATOM     42  C   UNL A   1      41.801  29.093  28.338  1.00  0.00     0.010 A 
ATOM     43  C   UNL A   1      41.546  28.173  27.393  1.00  0.00    -0.014 A 
BRANCH  43  44
ATOM     44  C   UNL A   1      43.066  27.459  26.895  1.00  0.00     0.031 A 
ATOM     45  C   UNL A   1      42.187  25.869  26.927  1.00  0.00     0.074 A 
ATOM     46  C   UNL A   1      44.761  28.082  26.501  1.00  0.00     0.049 A 
ATOM     47  N   UNL A   1      41.850  25.246  28.016  1.00  0.00    -0.248 NA
ATOM     48  C   UNL A   1      40.917  25.265  25.991  1.00  0.00     0.031 C 
ATOM     49  C   UNL A   1      45.704  29.477  26.166  1.00  0.00     0.029 A 
ATOM     50  N   UNL A   1      46.065  27.387  26.394  1.00  0.00    -0.354 N 
ATOM     51  C   UNL A   1      41.498  23.934  27.583  1.00  0.00     0.074 A 
ATOM     52  C   UNL A   1      40.704  24.004  26.438  1.00  0.00     0.031 C 
ATOM     53  C   UNL A   1      46.974  29.219  25.471  1.00  0.00     0.029 A 
ATOM     54  C   UNL A   1      47.205  27.784  25.545  1.00  0.00     0.049 A 
ATOM     55  H   UNL A   1      46.183  26.580  26.945  1.00  0.00     0.167 HD
ATOM     56  C   UNL A   1      42.386  22.947  27.757  1.00  0.00     0.037 A 
ATOM     57  C   UNL A   1      48.279  27.117  24.919  1.00  0.00     0.037 A 
ATOM     58  C   UNL A   1      43.391  23.465  28.623  1.00  0.00     0.049 A 
ATOM     59  C   UNL A   1      47.962  25.809  25.504  1.00  0.00     0.074 A 
ATOM     60  C   UNL A   1      43.304  23.999  29.890  1.00  0.00     0.029 A 
ATOM     61  N   UNL A   1      44.364  24.136  27.954  1.00  0.00    -0.354 N 
ATOM     62  N   UNL A   1      48.073  25.584  26.796  1.00  0.00    -0.248 NA
ATOM     63  C   UNL A   1      46.842  25.193  24.778  1.00  0.00     0.031 C 
ATOM     64  C   UNL A   1      44.236  25.056  29.949  1.00  0.00     0.029 A 
ATOM     65  C   UNL A   1      44.957  25.046  28.765  1.00  0.00     0.049 A 
ATOM     66  H   UNL A   1      44.603  23.984  27.011  1.00  0.00     0.167 HD
ATOM     67  C   UNL A   1      46.786  25.210  27.179  1.00  0.00     0.074 A 
ATOM     68  C   UNL A   1      46.075  24.910  25.844  1.00  0.00     0.031 C 
ATOM     69  C   UNL A   1      46.172  25.664  28.358  1.00  0.00     0.037 A 
BRANCH  56  70
ATOM     70  C   UNL A   1      42.619  21.770  26.883  1.00  0.00     0.057 A 
ATOM     71  C   UNL A   1      43.556  21.560  25.847  1.00  0.00     0.134 A 
ATOM     72  C   UNL A   1      41.903  20.665  27.325  1.00  0.00     0.134 A 
ATOM     73  F   UNL A   1      44.321  22.537  25.334  1.00  0.00    -0.206 F 
ATOM     74  C   UNL A   1      43.785  20.278  25.337  1.00  0.00     0.040 A 
ATOM     75  C   UNL A   1      42.222  19.384  26.928  1.00  0.00     0.040 A 
ATOM     76  F   UNL A   1      40.905  20.826  28.206  1.00  0.00    -0.206 F 
ATOM     77  C   UNL A   1      43.198  19.182  25.961  1.00  0.00     0.006 A 
ENDBRANCH  56  70
BRANCH  57  78
ATOM     78  C   UNL A   1      48.862  27.250  23.458  1.00  0.00     0.057 A 
ATOM     79  C   UNL A   1      50.245  27.040  23.356  1.00  0.00     0.134 A 
ATOM     80  C   UNL A   1      48.319  27.828  22.259  1.00  0.00     0.134 A 
ATOM     81  F   UNL A   1      50.904  26.541  24.405  1.00  0.00    -0.206 F 
ATOM     82  C   UNL A   1      51.041  27.363  22.242  1.00  0.00     0.040 A 
ATOM     83  C   UNL A   1      49.106  28.073  21.077  1.00  0.00     0.040 A 
ATOM     84  F   UNL A   1      47.030  28.200  22.167  1.00  0.00    -0.206 F 
ATOM     85  C   UNL A   1      50.473  27.820  21.069  1.00  0.00     0.006 A 
ENDBRANCH  57  78
BRANCH  69  86
ATOM     86  C   UNL A   1      46.798  26.619  29.412  1.00  0.00     0.057 A 
ATOM     87  C   UNL A   1      47.879  26.105  30.108  1.00  0.00     0.134 A 
ATOM     88  C   UNL A   1      46.352  27.868  29.934  1.00  0.00     0.134 A 
ATOM     89  F   UNL A   1      48.234  24.827  29.928  1.00  0.00    -0.206 F 
ATOM     90  C   UNL A   1      48.603  26.855  31.036  1.00  0.00     0.040 A 
ATOM     91  C   UNL A   1      47.156  28.707  30.722  1.00  0.00     0.040 A 
ATOM     92  F   UNL A   1      45.101  28.309  29.776  1.00  0.00    -0.206 F 
ATOM     93  C   UNL A   1      48.342  28.207  31.213  1.00  0.00     0.006 A 
ENDBRANCH  69  86
ENDBRANCH  43  44
ENDBRANCH  35  38
ENDBRANCH  33  34
ENDBRANCH  32  33
ENDBRANCH  31  32
ENDBRANCH   1  31
TORSDOF 16
ENDMDL
