MODEL 1
REMARK VINA RESULT:     -12.3      0.000      0.000
REMARK SMILES Cc1ccc(NC(=O)C[N@@H+]2CC[C@@H](C(=O)NCCCCCCNC(=O)c3ccc(-c4c5nc(c(-c6c(F)cccc6F)c6ccc([nH]6)c(-c6c(F)cccc6F)c6nc(c(-c7c(F)cccc7F)c7ccc4[nH]7)C=C6)C=C5)cc3)[C@@H]2C)cc1
REMARK SMILES IDX 19 1 18 2 17 3 16 4 14 5 15 6 13 8 10 9 11 10 80 11 12 13
REMARK SMILES IDX 81 14 9 15 7 16 6 17 8 19 5 20 1 21 2 22 3 23 83 24 4 25
REMARK SMILES IDX 82 26 20 27 21 28 22 29 23 30 24 31 25 33 26 34 27 35 79 36
REMARK SMILES IDX 28 37 78 38 29 39 30 40 31 41 72 42 32 43 77 44 71 45 73 46
REMARK SMILES IDX 33 47 76 48 70 49 69 50 34 52 60 53 43 54 59 55 44 56 47 57
REMARK SMILES IDX 58 58 74 59 45 60 46 61 57 63 75 64 48 65 35 66 36 67 41 68
REMARK SMILES IDX 37 69 38 70 40 71 42 72 39 73 61 74 62 75 67 76 63 77 64 78
REMARK SMILES IDX 66 79 68 80 65 81 49 82 50 83 55 84 51 85 52 86 54 87 56 88
REMARK SMILES IDX 53 89
REMARK H PARENT 16 7 10 12 6 18 23 32 73 51 47 62
REMARK Flexibility Score: inf
ROOT
ATOM      1  C   UNL A   1      39.077  23.735  26.897  1.00  0.00     0.002 C 
ENDROOT
BRANCH   1   2
ATOM      2  C   UNL A   1      37.794  23.697  26.046  1.00  0.00     0.021 C 
BRANCH   2   3
ATOM      3  C   UNL A   1      37.664  22.517  25.083  1.00  0.00     0.116 C 
BRANCH   3   4
ATOM      4  N   UNL A   1      36.882  22.751  23.867  1.00  0.00    -0.356 N 
ATOM      5  C   UNL A   1      35.531  22.826  23.644  1.00  0.00     0.229 C 
ATOM      6  O   UNL A   1      35.187  23.641  22.774  1.00  0.00    -0.275 OA
ATOM      7  H   UNL A   1      37.429  22.880  23.059  1.00  0.00     0.163 HD
BRANCH   5   8
ATOM      8  C   UNL A   1      34.427  21.955  24.293  1.00  0.00     0.142 C 
ATOM      9  N   UNL A   1      32.866  23.125  25.438  1.00  0.00    -0.324 N 
ATOM     10  C   UNL A   1      32.007  22.443  24.497  1.00  0.00     0.263 C 
ATOM     11  C   UNL A   1      34.017  22.267  25.726  1.00  0.00     0.194 C 
ATOM     12  H   UNL A   1      33.193  23.969  24.967  1.00  0.00     0.348 HD
ATOM     13  C   UNL A   1      33.070  21.879  23.530  1.00  0.00     0.081 C 
ATOM     14  C   UNL A   1      33.714  20.959  26.473  1.00  0.00     0.076 C 
BRANCH   9  15
ATOM     15  C   UNL A   1      32.331  23.983  26.464  1.00  0.00     0.364 C 
BRANCH  15  16
ATOM     16  C   UNL A   1      30.793  24.164  26.562  1.00  0.00     0.279 C 
ATOM     17  N   UNL A   1      29.948  25.110  26.058  1.00  0.00    -0.321 N 
ATOM     18  H   UNL A   1      29.062  25.024  26.480  1.00  0.00     0.170 HD
ATOM     19  O   UNL A   1      30.214  23.379  27.344  1.00  0.00    -0.268 OA
BRANCH  17  20
ATOM     20  C   UNL A   1      29.937  26.169  25.129  1.00  0.00     0.041 A 
ATOM     21  C   UNL A   1      29.826  29.607  22.454  1.00  0.00     0.044 C 
ATOM     22  C   UNL A   1      29.912  28.443  23.391  1.00  0.00    -0.051 A 
ATOM     23  C   UNL A   1      28.917  27.487  23.337  1.00  0.00     0.005 A 
ATOM     24  C   UNL A   1      30.956  28.244  24.297  1.00  0.00     0.005 A 
ATOM     25  C   UNL A   1      28.961  26.380  24.187  1.00  0.00     0.026 A 
ATOM     26  C   UNL A   1      30.962  27.123  25.160  1.00  0.00     0.026 A 
ENDBRANCH  17  20
ENDBRANCH  15  16
ENDBRANCH   9  15
ENDBRANCH   5   8
ENDBRANCH   3   4
ENDBRANCH   2   3
ENDBRANCH   1   2
BRANCH   1  27
ATOM     27  C   UNL A   1      40.004  22.501  26.896  1.00  0.00     0.002 C 
BRANCH  27  28
ATOM     28  C   UNL A   1      41.328  22.600  26.133  1.00  0.00     0.021 C 
BRANCH  28  29
ATOM     29  C   UNL A   1      42.379  21.565  26.513  1.00  0.00     0.116 C 
BRANCH  29  30
ATOM     30  N   UNL A   1      43.162  21.014  25.401  1.00  0.00    -0.352 N 
ATOM     31  C   UNL A   1      44.285  21.537  24.783  1.00  0.00     0.251 C 
ATOM     32  H   UNL A   1      42.845  20.153  25.045  1.00  0.00     0.163 HD
ATOM     33  O   UNL A   1      44.821  20.966  23.864  1.00  0.00    -0.269 OA
BRANCH  31  34
ATOM     34  C   UNL A   1      44.910  22.763  25.365  1.00  0.00     0.039 A 
ATOM     35  C   UNL A   1      45.475  22.662  26.640  1.00  0.00     0.014 A 
ATOM     36  C   UNL A   1      44.700  24.009  24.781  1.00  0.00     0.014 A 
ATOM     37  C   UNL A   1      45.554  23.803  27.433  1.00  0.00     0.010 A 
ATOM     38  C   UNL A   1      44.687  25.123  25.595  1.00  0.00     0.010 A 
ATOM     39  C   UNL A   1      45.037  25.002  26.943  1.00  0.00    -0.014 A 
BRANCH  39  40
ATOM     40  C   UNL A   1      44.696  26.123  27.809  1.00  0.00     0.031 A 
ATOM     41  C   UNL A   1      43.306  26.600  27.914  1.00  0.00     0.074 A 
ATOM     42  C   UNL A   1      45.659  26.716  28.550  1.00  0.00     0.049 A 
ATOM     43  N   UNL A   1      42.983  27.829  28.149  1.00  0.00    -0.248 NA
ATOM     44  C   UNL A   1      42.157  25.722  27.734  1.00  0.00     0.031 C 
ATOM     45  C   UNL A   1      45.474  27.699  29.614  1.00  0.00     0.029 A 
ATOM     46  N   UNL A   1      47.043  26.691  28.335  1.00  0.00    -0.354 N 
ATOM     47  C   UNL A   1      41.637  27.856  28.420  1.00  0.00     0.074 A 
ATOM     48  C   UNL A   1      41.155  26.535  28.084  1.00  0.00     0.031 C 
ATOM     49  C   UNL A   1      46.615  28.388  29.769  1.00  0.00     0.029 A 
ATOM     50  C   UNL A   1      47.530  27.954  28.729  1.00  0.00     0.049 A 
ATOM     51  H   UNL A   1      47.571  25.940  27.980  1.00  0.00     0.167 HD
ATOM     52  C   UNL A   1      41.088  28.941  29.038  1.00  0.00     0.037 A 
ATOM     53  C   UNL A   1      48.163  28.782  27.850  1.00  0.00     0.037 A 
ATOM     54  C   UNL A   1      42.091  29.960  29.327  1.00  0.00     0.049 A 
ATOM     55  C   UNL A   1      47.477  30.111  27.654  1.00  0.00     0.074 A 
ATOM     56  C   UNL A   1      42.821  30.244  30.470  1.00  0.00     0.029 A 
ATOM     57  N   UNL A   1      42.704  30.651  28.288  1.00  0.00    -0.354 N 
ATOM     58  N   UNL A   1      46.239  30.346  27.992  1.00  0.00    -0.248 NA
ATOM     59  C   UNL A   1      48.116  31.274  27.045  1.00  0.00     0.031 C 
ATOM     60  C   UNL A   1      43.905  31.078  30.109  1.00  0.00     0.029 A 
ATOM     61  C   UNL A   1      43.824  31.317  28.749  1.00  0.00     0.049 A 
ATOM     62  H   UNL A   1      42.386  30.663  27.357  1.00  0.00     0.167 HD
ATOM     63  C   UNL A   1      45.902  31.630  27.645  1.00  0.00     0.074 A 
ATOM     64  C   UNL A   1      47.119  32.177  27.076  1.00  0.00     0.031 C 
ATOM     65  C   UNL A   1      44.645  32.122  27.856  1.00  0.00     0.037 A 
BRANCH  52  66
ATOM     66  C   UNL A   1      39.715  28.899  29.660  1.00  0.00     0.057 A 
ATOM     67  C   UNL A   1      38.559  29.205  28.916  1.00  0.00     0.134 A 
ATOM     68  C   UNL A   1      39.480  28.615  31.016  1.00  0.00     0.134 A 
ATOM     69  F   UNL A   1      38.600  29.390  27.590  1.00  0.00    -0.206 F 
ATOM     70  C   UNL A   1      37.295  29.350  29.500  1.00  0.00     0.040 A 
ATOM     71  C   UNL A   1      38.231  28.807  31.625  1.00  0.00     0.040 A 
ATOM     72  F   UNL A   1      40.450  28.121  31.798  1.00  0.00    -0.206 F 
ATOM     73  C   UNL A   1      37.135  29.194  30.868  1.00  0.00     0.006 A 
ENDBRANCH  52  66
BRANCH  53  74
ATOM     74  C   UNL A   1      48.946  28.054  26.820  1.00  0.00     0.057 A 
ATOM     75  C   UNL A   1      50.225  27.584  27.165  1.00  0.00     0.134 A 
ATOM     76  C   UNL A   1      48.337  27.480  25.702  1.00  0.00     0.134 A 
ATOM     77  F   UNL A   1      50.865  28.095  28.230  1.00  0.00    -0.206 F 
ATOM     78  C   UNL A   1      50.824  26.511  26.500  1.00  0.00     0.040 A 
ATOM     79  C   UNL A   1      48.931  26.410  25.022  1.00  0.00     0.040 A 
ATOM     80  F   UNL A   1      47.108  27.862  25.324  1.00  0.00    -0.206 F 
ATOM     81  C   UNL A   1      50.156  25.897  25.446  1.00  0.00     0.006 A 
ENDBRANCH  53  74
BRANCH  65  82
ATOM     82  C   UNL A   1      44.086  33.433  27.351  1.00  0.00     0.057 A 
ATOM     83  C   UNL A   1      43.789  33.706  26.008  1.00  0.00     0.134 A 
ATOM     84  C   UNL A   1      43.691  34.440  28.263  1.00  0.00     0.134 A 
ATOM     85  F   UNL A   1      44.002  32.804  25.042  1.00  0.00    -0.206 F 
ATOM     86  C   UNL A   1      43.195  34.910  25.598  1.00  0.00     0.040 A 
ATOM     87  C   UNL A   1      43.049  35.620  27.872  1.00  0.00     0.040 A 
ATOM     88  F   UNL A   1      43.887  34.316  29.584  1.00  0.00    -0.206 F 
ATOM     89  C   UNL A   1      42.813  35.865  26.531  1.00  0.00     0.006 A 
ENDBRANCH  65  82
ENDBRANCH  39  40
ENDBRANCH  31  34
ENDBRANCH  29  30
ENDBRANCH  28  29
ENDBRANCH  27  28
ENDBRANCH   1  27
TORSDOF 16
ENDMDL
MODEL 2
REMARK VINA RESULT:     -12.2      3.609      8.749
REMARK SMILES Cc1ccc(NC(=O)C[N@@H+]2CC[C@@H](C(=O)NCCCCCCNC(=O)c3ccc(-c4c5nc(c(-c6c(F)cccc6F)c6ccc([nH]6)c(-c6c(F)cccc6F)c6nc(c(-c7c(F)cccc7F)c7ccc4[nH]7)C=C6)C=C5)cc3)[C@@H]2C)cc1
REMARK SMILES IDX 19 1 18 2 17 3 16 4 14 5 15 6 13 8 10 9 11 10 80 11 12 13
REMARK SMILES IDX 81 14 9 15 7 16 6 17 8 19 5 20 1 21 2 22 3 23 83 24 4 25
REMARK SMILES IDX 82 26 20 27 21 28 22 29 23 30 24 31 25 33 26 34 27 35 79 36
REMARK SMILES IDX 28 37 78 38 29 39 30 40 31 41 72 42 32 43 77 44 71 45 73 46
REMARK SMILES IDX 33 47 76 48 70 49 69 50 34 52 60 53 43 54 59 55 44 56 47 57
REMARK SMILES IDX 58 58 74 59 45 60 46 61 57 63 75 64 48 65 35 66 36 67 41 68
REMARK SMILES IDX 37 69 38 70 40 71 42 72 39 73 61 74 62 75 67 76 63 77 64 78
REMARK SMILES IDX 66 79 68 80 65 81 49 82 50 83 55 84 51 85 52 86 54 87 56 88
REMARK SMILES IDX 53 89
REMARK H PARENT 16 7 10 12 6 18 23 32 73 51 47 62
REMARK Flexibility Score: inf
ROOT
ATOM      1  C   UNL A   1      31.301  27.957  26.810  1.00  0.00     0.002 C 
ENDROOT
BRANCH   1   2
ATOM      2  C   UNL A   1      31.437  26.451  26.521  1.00  0.00     0.021 C 
BRANCH   2   3
ATOM      3  C   UNL A   1      30.231  25.784  25.860  1.00  0.00     0.116 C 
BRANCH   3   4
ATOM      4  N   UNL A   1      29.709  24.583  26.516  1.00  0.00    -0.356 N 
ATOM      5  C   UNL A   1      30.242  23.333  26.702  1.00  0.00     0.229 C 
ATOM      6  O   UNL A   1      29.938  22.787  27.773  1.00  0.00    -0.275 OA
ATOM      7  H   UNL A   1      28.808  24.694  26.895  1.00  0.00     0.163 HD
BRANCH   5   8
ATOM      8  C   UNL A   1      31.095  22.522  25.694  1.00  0.00     0.142 C 
ATOM      9  N   UNL A   1      33.139  23.398  25.281  1.00  0.00    -0.324 N 
ATOM     10  C   UNL A   1      33.533  22.087  25.746  1.00  0.00     0.263 C 
ATOM     11  C   UNL A   1      31.843  23.285  24.610  1.00  0.00     0.194 C 
ATOM     12  H   UNL A   1      33.029  23.976  26.115  1.00  0.00     0.348 HD
ATOM     13  C   UNL A   1      32.184  21.589  26.306  1.00  0.00     0.081 C 
ATOM     14  C   UNL A   1      31.827  22.475  23.304  1.00  0.00     0.076 C 
BRANCH   9  15
ATOM     15  C   UNL A   1      34.108  24.359  24.822  1.00  0.00     0.364 C 
BRANCH  15  16
ATOM     16  C   UNL A   1      34.094  24.781  23.329  1.00  0.00     0.279 C 
ATOM     17  N   UNL A   1      33.348  25.694  22.641  1.00  0.00    -0.321 N 
ATOM     18  H   UNL A   1      33.467  25.560  21.672  1.00  0.00     0.170 HD
ATOM     19  O   UNL A   1      34.805  24.083  22.573  1.00  0.00    -0.268 OA
BRANCH  17  20
ATOM     20  C   UNL A   1      32.462  26.765  22.872  1.00  0.00     0.041 A 
ATOM     21  C   UNL A   1      29.725  30.124  23.324  1.00  0.00     0.044 C 
ATOM     22  C   UNL A   1      30.624  28.940  23.153  1.00  0.00    -0.051 A 
ATOM     23  C   UNL A   1      31.948  29.065  23.528  1.00  0.00     0.005 A 
ATOM     24  C   UNL A   1      30.201  27.701  22.667  1.00  0.00     0.005 A 
ATOM     25  C   UNL A   1      32.819  27.983  23.393  1.00  0.00     0.026 A 
ATOM     26  C   UNL A   1      31.113  26.629  22.522  1.00  0.00     0.026 A 
ENDBRANCH  17  20
ENDBRANCH  15  16
ENDBRANCH   9  15
ENDBRANCH   5   8
ENDBRANCH   3   4
ENDBRANCH   2   3
ENDBRANCH   1   2
BRANCH   1  27
ATOM     27  C   UNL A   1      32.492  28.700  27.451  1.00  0.00     0.002 C 
BRANCH  27  28
ATOM     28  C   UNL A   1      32.582  30.216  27.252  1.00  0.00     0.021 C 
BRANCH  28  29
ATOM     29  C   UNL A   1      33.993  30.771  27.099  1.00  0.00     0.116 C 
BRANCH  29  30
ATOM     30  N   UNL A   1      34.472  31.605  28.208  1.00  0.00    -0.352 N 
ATOM     31  C   UNL A   1      35.527  31.380  29.075  1.00  0.00     0.251 C 
ATOM     32  H   UNL A   1      33.974  32.442  28.355  1.00  0.00     0.163 HD
ATOM     33  O   UNL A   1      35.797  32.163  29.954  1.00  0.00    -0.269 OA
BRANCH  31  34
ATOM     34  C   UNL A   1      36.418  30.207  28.820  1.00  0.00     0.039 A 
ATOM     35  C   UNL A   1      36.698  29.360  29.895  1.00  0.00     0.014 A 
ATOM     36  C   UNL A   1      37.148  30.118  27.639  1.00  0.00     0.014 A 
ATOM     37  C   UNL A   1      37.886  28.634  29.889  1.00  0.00     0.010 A 
ATOM     38  C   UNL A   1      38.370  29.477  27.669  1.00  0.00     0.010 A 
ATOM     39  C   UNL A   1      38.773  28.804  28.825  1.00  0.00    -0.014 A 
BRANCH  39  40
ATOM     40  C   UNL A   1      40.180  28.434  28.908  1.00  0.00     0.031 A 
ATOM     41  C   UNL A   1      40.651  27.135  28.396  1.00  0.00     0.074 A 
ATOM     42  C   UNL A   1      41.072  29.304  29.434  1.00  0.00     0.049 A 
ATOM     43  N   UNL A   1      41.654  26.489  28.890  1.00  0.00    -0.248 NA
ATOM     44  C   UNL A   1      40.003  26.444  27.289  1.00  0.00     0.031 C 
ATOM     45  C   UNL A   1      42.529  29.196  29.409  1.00  0.00     0.029 A 
ATOM     46  N   UNL A   1      40.816  30.380  30.293  1.00  0.00    -0.354 N 
ATOM     47  C   UNL A   1      41.951  25.465  28.024  1.00  0.00     0.074 A 
ATOM     48  C   UNL A   1      40.857  25.437  27.079  1.00  0.00     0.031 C 
ATOM     49  C   UNL A   1      43.033  29.944  30.403  1.00  0.00     0.029 A 
ATOM     50  C   UNL A   1      41.915  30.457  31.173  1.00  0.00     0.049 A 
ATOM     51  H   UNL A   1      40.026  30.967  30.284  1.00  0.00     0.167 HD
ATOM     52  C   UNL A   1      43.160  24.838  28.100  1.00  0.00     0.037 A 
ATOM     53  C   UNL A   1      41.763  30.315  32.520  1.00  0.00     0.037 A 
ATOM     54  C   UNL A   1      43.991  25.396  29.160  1.00  0.00     0.049 A 
ATOM     55  C   UNL A   1      42.529  29.155  33.107  1.00  0.00     0.074 A 
ATOM     56  C   UNL A   1      44.995  26.352  29.146  1.00  0.00     0.029 A 
ATOM     57  N   UNL A   1      43.630  25.226  30.493  1.00  0.00    -0.354 N 
ATOM     58  N   UNL A   1      43.007  28.169  32.399  1.00  0.00    -0.248 NA
ATOM     59  C   UNL A   1      42.800  28.997  34.533  1.00  0.00     0.031 C 
ATOM     60  C   UNL A   1      45.210  26.789  30.473  1.00  0.00     0.029 A 
ATOM     61  C   UNL A   1      44.350  26.087  31.299  1.00  0.00     0.049 A 
ATOM     62  H   UNL A   1      42.956  24.585  30.815  1.00  0.00     0.167 HD
ATOM     63  C   UNL A   1      43.610  27.256  33.228  1.00  0.00     0.074 A 
ATOM     64  C   UNL A   1      43.474  27.832  34.552  1.00  0.00     0.031 C 
ATOM     65  C   UNL A   1      44.163  26.104  32.742  1.00  0.00     0.037 A 
BRANCH  52  66
ATOM     66  C   UNL A   1      43.677  23.959  26.989  1.00  0.00     0.057 A 
ATOM     67  C   UNL A   1      44.401  24.490  25.904  1.00  0.00     0.134 A 
ATOM     68  C   UNL A   1      43.439  22.577  26.912  1.00  0.00     0.134 A 
ATOM     69  F   UNL A   1      44.804  25.767  25.880  1.00  0.00    -0.206 F 
ATOM     70  C   UNL A   1      44.739  23.737  24.774  1.00  0.00     0.040 A 
ATOM     71  C   UNL A   1      43.725  21.820  25.765  1.00  0.00     0.040 A 
ATOM     72  F   UNL A   1      42.938  21.901  27.956  1.00  0.00    -0.206 F 
ATOM     73  C   UNL A   1      44.362  22.407  24.682  1.00  0.00     0.006 A 
ENDBRANCH  52  66
BRANCH  53  74
ATOM     74  C   UNL A   1      40.467  30.836  33.021  1.00  0.00     0.057 A 
ATOM     75  C   UNL A   1      39.432  29.918  33.270  1.00  0.00     0.134 A 
ATOM     76  C   UNL A   1      40.361  32.093  33.620  1.00  0.00     0.134 A 
ATOM     77  F   UNL A   1      39.474  28.692  32.723  1.00  0.00    -0.206 F 
ATOM     78  C   UNL A   1      38.398  30.194  34.168  1.00  0.00     0.040 A 
ATOM     79  C   UNL A   1      39.325  32.385  34.515  1.00  0.00     0.040 A 
ATOM     80  F   UNL A   1      41.320  33.015  33.446  1.00  0.00    -0.206 F 
ATOM     81  C   UNL A   1      38.364  31.422  34.822  1.00  0.00     0.006 A 
ENDBRANCH  53  74
BRANCH  65  82
ATOM     82  C   UNL A   1      44.677  24.934  33.549  1.00  0.00     0.057 A 
ATOM     83  C   UNL A   1      46.026  24.565  33.644  1.00  0.00     0.134 A 
ATOM     84  C   UNL A   1      43.803  24.208  34.393  1.00  0.00     0.134 A 
ATOM     85  F   UNL A   1      46.986  25.232  32.991  1.00  0.00    -0.206 F 
ATOM     86  C   UNL A   1      46.465  23.520  34.472  1.00  0.00     0.040 A 
ATOM     87  C   UNL A   1      44.236  23.202  35.262  1.00  0.00     0.040 A 
ATOM     88  F   UNL A   1      42.486  24.459  34.432  1.00  0.00    -0.206 F 
ATOM     89  C   UNL A   1      45.572  22.843  35.292  1.00  0.00     0.006 A 
ENDBRANCH  65  82
ENDBRANCH  39  40
ENDBRANCH  31  34
ENDBRANCH  29  30
ENDBRANCH  28  29
ENDBRANCH  27  28
ENDBRANCH   1  27
TORSDOF 16
ENDMDL
MODEL 3
REMARK VINA RESULT:     -12.2      4.017      9.205
REMARK SMILES Cc1ccc(NC(=O)C[N@@H+]2CC[C@@H](C(=O)NCCCCCCNC(=O)c3ccc(-c4c5nc(c(-c6c(F)cccc6F)c6ccc([nH]6)c(-c6c(F)cccc6F)c6nc(c(-c7c(F)cccc7F)c7ccc4[nH]7)C=C6)C=C5)cc3)[C@@H]2C)cc1
REMARK SMILES IDX 19 1 18 2 17 3 16 4 14 5 15 6 13 8 10 9 11 10 80 11 12 13
REMARK SMILES IDX 81 14 9 15 7 16 6 17 8 19 5 20 1 21 2 22 3 23 83 24 4 25
REMARK SMILES IDX 82 26 20 27 21 28 22 29 23 30 24 31 25 33 26 34 27 35 79 36
REMARK SMILES IDX 28 37 78 38 29 39 30 40 31 41 72 42 32 43 77 44 71 45 73 46
REMARK SMILES IDX 33 47 76 48 70 49 69 50 34 52 60 53 43 54 59 55 44 56 47 57
REMARK SMILES IDX 58 58 74 59 45 60 46 61 57 63 75 64 48 65 35 66 36 67 41 68
REMARK SMILES IDX 37 69 38 70 40 71 42 72 39 73 61 74 62 75 67 76 63 77 64 78
REMARK SMILES IDX 66 79 68 80 65 81 49 82 50 83 55 84 51 85 52 86 54 87 56 88
REMARK SMILES IDX 53 89
REMARK H PARENT 16 7 10 12 6 18 23 32 73 51 47 62
REMARK Flexibility Score: inf
ROOT
ATOM      1  C   UNL A   1      32.464  28.769  26.808  1.00  0.00     0.002 C 
ENDROOT
BRANCH   1   2
ATOM      2  C   UNL A   1      31.566  27.564  27.147  1.00  0.00     0.021 C 
BRANCH   2   3
ATOM      3  C   UNL A   1      31.939  26.242  26.475  1.00  0.00     0.116 C 
BRANCH   3   4
ATOM      4  N   UNL A   1      30.900  25.210  26.449  1.00  0.00    -0.356 N 
ATOM      5  C   UNL A   1      30.932  23.867  26.725  1.00  0.00     0.229 C 
ATOM      6  O   UNL A   1      29.907  23.416  27.257  1.00  0.00    -0.275 OA
ATOM      7  H   UNL A   1      30.012  25.543  26.184  1.00  0.00     0.163 HD
BRANCH   5   8
ATOM      8  C   UNL A   1      32.061  22.867  26.371  1.00  0.00     0.142 C 
ATOM      9  N   UNL A   1      33.713  23.737  25.094  1.00  0.00    -0.324 N 
ATOM     10  C   UNL A   1      34.497  23.291  26.223  1.00  0.00     0.263 C 
ATOM     11  C   UNL A   1      32.569  22.837  24.936  1.00  0.00     0.194 C 
ATOM     12  H   UNL A   1      33.371  24.668  25.333  1.00  0.00     0.348 HD
ATOM     13  C   UNL A   1      33.365  22.969  27.220  1.00  0.00     0.081 C 
ATOM     14  C   UNL A   1      32.897  21.391  24.534  1.00  0.00     0.076 C 
BRANCH   9  15
ATOM     15  C   UNL A   1      34.328  24.332  23.935  1.00  0.00     0.364 C 
BRANCH  15  16
ATOM     16  C   UNL A   1      33.489  24.489  22.640  1.00  0.00     0.279 C 
ATOM     17  N   UNL A   1      32.490  25.352  22.294  1.00  0.00    -0.321 N 
ATOM     18  H   UNL A   1      32.050  25.041  21.469  1.00  0.00     0.170 HD
ATOM     19  O   UNL A   1      33.656  23.590  21.786  1.00  0.00    -0.268 OA
BRANCH  17  20
ATOM     20  C   UNL A   1      31.887  26.546  22.738  1.00  0.00     0.041 A 
ATOM     21  C   UNL A   1      29.894  30.250  23.875  1.00  0.00     0.044 C 
ATOM     22  C   UNL A   1      30.533  28.951  23.496  1.00  0.00    -0.051 A 
ATOM     23  C   UNL A   1      31.873  28.957  23.156  1.00  0.00     0.005 A 
ATOM     24  C   UNL A   1      29.868  27.723  23.495  1.00  0.00     0.005 A 
ATOM     25  C   UNL A   1      32.511  27.766  22.804  1.00  0.00     0.026 A 
ATOM     26  C   UNL A   1      30.537  26.536  23.113  1.00  0.00     0.026 A 
ENDBRANCH  17  20
ENDBRANCH  15  16
ENDBRANCH   9  15
ENDBRANCH   5   8
ENDBRANCH   3   4
ENDBRANCH   2   3
ENDBRANCH   1   2
BRANCH   1  27
ATOM     27  C   UNL A   1      33.996  28.589  26.857  1.00  0.00     0.002 C 
BRANCH  27  28
ATOM     28  C   UNL A   1      34.777  29.379  27.912  1.00  0.00     0.021 C 
BRANCH  28  29
ATOM     29  C   UNL A   1      35.125  30.811  27.528  1.00  0.00     0.116 C 
BRANCH  29  30
ATOM     30  N   UNL A   1      34.188  31.841  27.992  1.00  0.00    -0.352 N 
ATOM     31  C   UNL A   1      34.317  32.724  29.050  1.00  0.00     0.251 C 
ATOM     32  H   UNL A   1      33.351  31.915  27.478  1.00  0.00     0.163 HD
ATOM     33  O   UNL A   1      33.447  33.517  29.317  1.00  0.00    -0.269 OA
BRANCH  31  34
ATOM     34  C   UNL A   1      35.620  32.772  29.780  1.00  0.00     0.039 A 
ATOM     35  C   UNL A   1      36.645  33.545  29.229  1.00  0.00     0.014 A 
ATOM     36  C   UNL A   1      35.885  31.876  30.812  1.00  0.00     0.014 A 
ATOM     37  C   UNL A   1      37.967  33.210  29.510  1.00  0.00     0.010 A 
ATOM     38  C   UNL A   1      37.191  31.479  31.017  1.00  0.00     0.010 A 
ATOM     39  C   UNL A   1      38.224  32.093  30.304  1.00  0.00    -0.014 A 
BRANCH  39  40
ATOM     40  C   UNL A   1      39.518  31.422  30.321  1.00  0.00     0.031 A 
ATOM     41  C   UNL A   1      39.727  30.167  29.578  1.00  0.00     0.074 A 
ATOM     42  C   UNL A   1      40.549  31.971  31.003  1.00  0.00     0.049 A 
ATOM     43  N   UNL A   1      40.550  29.243  29.947  1.00  0.00    -0.248 NA
ATOM     44  C   UNL A   1      38.997  29.843  28.360  1.00  0.00     0.031 C 
ATOM     45  C   UNL A   1      41.950  31.560  30.963  1.00  0.00     0.029 A 
ATOM     46  N   UNL A   1      40.488  32.903  32.047  1.00  0.00    -0.354 N 
ATOM     47  C   UNL A   1      40.663  28.353  28.906  1.00  0.00     0.074 A 
ATOM     48  C   UNL A   1      39.629  28.732  27.969  1.00  0.00     0.031 C 
ATOM     49  C   UNL A   1      42.557  31.990  32.080  1.00  0.00     0.029 A 
ATOM     50  C   UNL A   1      41.540  32.583  32.929  1.00  0.00     0.049 A 
ATOM     51  H   UNL A   1      39.839  33.637  32.144  1.00  0.00     0.167 HD
ATOM     52  C   UNL A   1      41.710  27.479  28.867  1.00  0.00     0.037 A 
ATOM     53  C   UNL A   1      41.304  32.235  34.226  1.00  0.00     0.037 A 
ATOM     54  C   UNL A   1      42.592  27.645  30.016  1.00  0.00     0.049 A 
ATOM     55  C   UNL A   1      41.784  30.851  34.588  1.00  0.00     0.074 A 
ATOM     56  C   UNL A   1      43.774  28.350  30.183  1.00  0.00     0.029 A 
ATOM     57  N   UNL A   1      42.147  27.318  31.293  1.00  0.00    -0.354 N 
ATOM     58  N   UNL A   1      42.074  29.930  33.711  1.00  0.00    -0.248 NA
ATOM     59  C   UNL A   1      41.954  30.383  35.961  1.00  0.00     0.031 C 
ATOM     60  C   UNL A   1      44.019  28.483  31.569  1.00  0.00     0.029 A 
ATOM     61  C   UNL A   1      42.997  27.843  32.247  1.00  0.00     0.049 A 
ATOM     62  H   UNL A   1      41.341  26.788  31.487  1.00  0.00     0.167 HD
ATOM     63  C   UNL A   1      42.436  28.775  34.357  1.00  0.00     0.074 A 
ATOM     64  C   UNL A   1      42.367  29.117  35.765  1.00  0.00     0.031 C 
ATOM     65  C   UNL A   1      42.755  27.639  33.668  1.00  0.00     0.037 A 
BRANCH  52  66
ATOM     66  C   UNL A   1      42.078  26.726  27.614  1.00  0.00     0.057 A 
ATOM     67  C   UNL A   1      41.826  25.346  27.482  1.00  0.00     0.134 A 
ATOM     68  C   UNL A   1      42.740  27.307  26.520  1.00  0.00     0.134 A 
ATOM     69  F   UNL A   1      41.108  24.669  28.386  1.00  0.00    -0.206 F 
ATOM     70  C   UNL A   1      42.312  24.584  26.414  1.00  0.00     0.040 A 
ATOM     71  C   UNL A   1      43.278  26.549  25.469  1.00  0.00     0.040 A 
ATOM     72  F   UNL A   1      42.873  28.637  26.417  1.00  0.00    -0.206 F 
ATOM     73  C   UNL A   1      43.080  25.176  25.424  1.00  0.00     0.006 A 
ENDBRANCH  52  66
BRANCH  53  74
ATOM     74  C   UNL A   1      40.125  32.922  34.811  1.00  0.00     0.057 A 
ATOM     75  C   UNL A   1      38.901  32.231  34.845  1.00  0.00     0.134 A 
ATOM     76  C   UNL A   1      40.261  34.019  35.663  1.00  0.00     0.134 A 
ATOM     77  F   UNL A   1      38.707  31.167  34.049  1.00  0.00    -0.206 F 
ATOM     78  C   UNL A   1      37.901  32.544  35.768  1.00  0.00     0.040 A 
ATOM     79  C   UNL A   1      39.262  34.348  36.587  1.00  0.00     0.040 A 
ATOM     80  F   UNL A   1      41.407  34.715  35.702  1.00  0.00    -0.206 F 
ATOM     81  C   UNL A   1      38.097  33.585  36.669  1.00  0.00     0.006 A 
ENDBRANCH  53  74
BRANCH  65  82
ATOM     82  C   UNL A   1      42.977  26.259  34.245  1.00  0.00     0.057 A 
ATOM     83  C   UNL A   1      42.007  25.521  34.937  1.00  0.00     0.134 A 
ATOM     84  C   UNL A   1      44.180  25.561  33.984  1.00  0.00     0.134 A 
ATOM     85  F   UNL A   1      40.780  26.007  35.161  1.00  0.00    -0.206 F 
ATOM     86  C   UNL A   1      42.235  24.211  35.383  1.00  0.00     0.040 A 
ATOM     87  C   UNL A   1      44.398  24.237  34.376  1.00  0.00     0.040 A 
ATOM     88  F   UNL A   1      45.195  26.125  33.313  1.00  0.00    -0.206 F 
ATOM     89  C   UNL A   1      43.427  23.560  35.094  1.00  0.00     0.006 A 
ENDBRANCH  65  82
ENDBRANCH  39  40
ENDBRANCH  31  34
ENDBRANCH  29  30
ENDBRANCH  28  29
ENDBRANCH  27  28
ENDBRANCH   1  27
TORSDOF 16
ENDMDL
