MODEL 1
REMARK VINA RESULT:     -11.1      0.000      0.000
REMARK SMILES O=C(NCCCCCCNC(=O)[C@@H]1C[C@@H](O)CN1C(=O)CSc1ccc(F)cc1F)c1ccc(-c2c3nc(c(-c4c(F)cccc4F)c4ccc([nH]4)c(-c4c(F)cccc4F)c4nc(c(-c5c(F)cccc5F)c5ccc2[nH]5)C=C4)C=C3)cc1
REMARK SMILES IDX 7 1 6 2 5 3 4 4 3 5 1 6 2 7 31 9 32 10 84 11 33 12 83 13
REMARK SMILES IDX 34 14 35 15 36 16 77 17 37 18 82 19 76 20 78 21 38 22 81 23
REMARK SMILES IDX 75 24 74 25 39 27 65 28 48 29 64 30 49 31 52 32 63 33 79 34
REMARK SMILES IDX 50 35 51 36 62 38 80 39 53 40 40 41 41 42 46 43 42 44 43 45
REMARK SMILES IDX 45 46 47 47 44 48 66 49 67 50 72 51 68 52 69 53 71 54 73 55
REMARK SMILES IDX 70 56 54 57 55 58 60 59 56 60 57 61 59 62 61 63 58 64 8 65
REMARK SMILES IDX 9 66 10 67 11 68 12 70 13 71 14 72 18 73 15 74 17 75 19 76
REMARK SMILES IDX 20 77 21 78 22 79 23 80 24 81 29 82 25 83 28 84 30 85 26 86
REMARK SMILES IDX 27 87 16 88
REMARK H PARENT 3 8 78 26 52 37 10 69 16 89
REMARK Flexibility Score: inf
ROOT
ATOM      1  C   UNL A   1      33.530  30.418  26.820  1.00  0.00     0.002 C 
ENDROOT
BRANCH   1   2
ATOM      2  C   UNL A   1      32.014  30.543  27.011  1.00  0.00     0.002 C 
BRANCH   2   3
ATOM      3  C   UNL A   1      31.438  31.957  26.910  1.00  0.00     0.021 C 
BRANCH   3   4
ATOM      4  C   UNL A   1      32.453  33.065  26.639  1.00  0.00     0.116 C 
BRANCH   4   5
ATOM      5  N   UNL A   1      32.299  34.214  27.516  1.00  0.00    -0.352 N 
ATOM      6  O   UNL A   1      32.634  35.524  29.321  1.00  0.00    -0.269 OA
ATOM      7  C   UNL A   1      33.011  34.579  28.633  1.00  0.00     0.251 C 
ATOM      8  H   UNL A   1      31.570  34.828  27.270  1.00  0.00     0.163 HD
BRANCH   7   9
ATOM      9  C   UNL A   1      34.210  33.815  29.040  1.00  0.00     0.039 A 
ATOM     10  C   UNL A   1      34.096  32.586  29.691  1.00  0.00     0.014 A 
ATOM     11  C   UNL A   1      35.474  34.339  28.755  1.00  0.00     0.014 A 
ATOM     12  C   UNL A   1      35.233  31.972  30.212  1.00  0.00     0.010 A 
ATOM     13  C   UNL A   1      36.621  33.678  29.205  1.00  0.00     0.010 A 
ATOM     14  C   UNL A   1      36.508  32.515  29.983  1.00  0.00    -0.014 A 
BRANCH  14  15
ATOM     15  C   UNL A   1      37.703  31.852  30.565  1.00  0.00     0.031 A 
ATOM     16  C   UNL A   1      38.134  32.138  31.979  1.00  0.00     0.074 A 
ATOM     17  C   UNL A   1      38.378  30.948  29.829  1.00  0.00     0.049 A 
ATOM     18  N   UNL A   1      39.121  31.612  32.663  1.00  0.00    -0.248 NA
ATOM     19  C   UNL A   1      37.363  33.145  32.722  1.00  0.00     0.031 C 
ATOM     20  C   UNL A   1      38.063  30.588  28.445  1.00  0.00     0.029 A 
ATOM     21  N   UNL A   1      39.448  30.150  30.147  1.00  0.00    -0.354 N 
ATOM     22  C   UNL A   1      39.098  32.233  33.905  1.00  0.00     0.074 A 
ATOM     23  C   UNL A   1      38.020  33.198  33.873  1.00  0.00     0.031 C 
ATOM     24  C   UNL A   1      38.887  29.606  28.051  1.00  0.00     0.029 A 
ATOM     25  C   UNL A   1      39.818  29.302  29.134  1.00  0.00     0.049 A 
ATOM     26  H   UNL A   1      39.906  30.184  31.017  1.00  0.00     0.167 HD
ATOM     27  C   UNL A   1      39.894  32.012  34.979  1.00  0.00     0.037 A 
ATOM     28  C   UNL A   1      40.797  28.379  29.078  1.00  0.00     0.037 A 
ATOM     29  C   UNL A   1      40.958  31.041  35.016  1.00  0.00     0.049 A 
ATOM     30  C   UNL A   1      41.675  28.162  30.275  1.00  0.00     0.074 A 
ATOM     31  C   UNL A   1      41.806  30.732  36.067  1.00  0.00     0.029 A 
ATOM     32  N   UNL A   1      41.320  30.222  33.958  1.00  0.00    -0.354 N 
ATOM     33  N   UNL A   1      41.627  28.744  31.449  1.00  0.00    -0.248 NA
ATOM     34  C   UNL A   1      42.742  27.162  30.141  1.00  0.00     0.031 C 
ATOM     35  C   UNL A   1      42.705  29.753  35.631  1.00  0.00     0.029 A 
ATOM     36  C   UNL A   1      42.387  29.418  34.325  1.00  0.00     0.049 A 
ATOM     37  H   UNL A   1      40.883  30.213  33.075  1.00  0.00     0.167 HD
ATOM     38  C   UNL A   1      42.643  28.168  32.199  1.00  0.00     0.074 A 
ATOM     39  C   UNL A   1      43.281  27.181  31.353  1.00  0.00     0.031 C 
ATOM     40  C   UNL A   1      43.011  28.435  33.476  1.00  0.00     0.037 A 
BRANCH  27  41
ATOM     41  C   UNL A   1      39.653  32.840  36.207  1.00  0.00     0.057 A 
ATOM     42  C   UNL A   1      38.720  32.436  37.171  1.00  0.00     0.134 A 
ATOM     43  C   UNL A   1      40.305  34.062  36.414  1.00  0.00     0.134 A 
ATOM     44  F   UNL A   1      38.053  31.281  37.031  1.00  0.00    -0.206 F 
ATOM     45  C   UNL A   1      38.438  33.221  38.291  1.00  0.00     0.040 A 
ATOM     46  C   UNL A   1      40.051  34.845  37.543  1.00  0.00     0.040 A 
ATOM     47  F   UNL A   1      41.220  34.502  35.536  1.00  0.00    -0.206 F 
ATOM     48  C   UNL A   1      39.109  34.427  38.482  1.00  0.00     0.006 A 
ENDBRANCH  27  41
BRANCH  28  49
ATOM     49  C   UNL A   1      40.970  27.575  27.843  1.00  0.00     0.057 A 
ATOM     50  C   UNL A   1      40.336  26.338  27.683  1.00  0.00     0.134 A 
ATOM     51  C   UNL A   1      41.807  28.011  26.811  1.00  0.00     0.134 A 
ATOM     52  F   UNL A   1      39.527  25.862  28.642  1.00  0.00    -0.206 F 
ATOM     53  C   UNL A   1      40.545  25.551  26.551  1.00  0.00     0.040 A 
ATOM     54  C   UNL A   1      42.008  27.247  25.662  1.00  0.00     0.040 A 
ATOM     55  F   UNL A   1      42.429  29.195  26.902  1.00  0.00    -0.206 F 
ATOM     56  C   UNL A   1      41.382  26.008  25.534  1.00  0.00     0.006 A 
ENDBRANCH  28  49
BRANCH  40  57
ATOM     57  C   UNL A   1      44.139  27.630  34.051  1.00  0.00     0.057 A 
ATOM     58  C   UNL A   1      43.885  26.425  34.718  1.00  0.00     0.134 A 
ATOM     59  C   UNL A   1      45.467  28.070  33.989  1.00  0.00     0.134 A 
ATOM     60  F   UNL A   1      42.632  25.952  34.819  1.00  0.00    -0.206 F 
ATOM     61  C   UNL A   1      44.912  25.688  35.311  1.00  0.00     0.040 A 
ATOM     62  C   UNL A   1      46.505  27.330  34.558  1.00  0.00     0.040 A 
ATOM     63  F   UNL A   1      45.776  29.210  33.354  1.00  0.00    -0.206 F 
ATOM     64  C   UNL A   1      46.227  26.140  35.227  1.00  0.00     0.006 A 
ENDBRANCH  40  57
ENDBRANCH  14  15
ENDBRANCH   7   9
ENDBRANCH   4   5
ENDBRANCH   3   4
ENDBRANCH   2   3
ENDBRANCH   1   2
BRANCH   1  65
ATOM     65  C   UNL A   1      34.171  29.137  27.369  1.00  0.00     0.021 C 
BRANCH  65  66
ATOM     66  C   UNL A   1      34.246  27.977  26.386  1.00  0.00     0.116 C 
BRANCH  66  67
ATOM     67  N   UNL A   1      33.029  27.193  26.432  1.00  0.00    -0.354 N 
ATOM     68  C   UNL A   1      31.977  27.105  25.572  1.00  0.00     0.242 C 
ATOM     69  H   UNL A   1      32.949  26.621  27.229  1.00  0.00     0.163 HD
ATOM     70  O   UNL A   1      31.097  26.290  25.878  1.00  0.00    -0.273 OA
BRANCH  68  71
ATOM     71  C   UNL A   1      31.962  27.763  24.174  1.00  0.00     0.177 C 
ATOM     72  C   UNL A   1      30.663  28.561  23.988  1.00  0.00     0.069 C 
ATOM     73  N   UNL A   1      32.066  26.935  22.962  1.00  0.00    -0.327 N 
ATOM     74  C   UNL A   1      30.501  28.628  22.476  1.00  0.00     0.136 C 
ATOM     75  C   UNL A   1      31.018  27.271  21.999  1.00  0.00     0.152 C 
BRANCH  73  76
ATOM     76  C   UNL A   1      33.276  26.342  22.647  1.00  0.00     0.233 C 
ATOM     77  O   UNL A   1      33.879  26.678  21.624  1.00  0.00    -0.274 OA
BRANCH  76  78
ATOM     78  C   UNL A   1      33.814  25.190  23.492  1.00  0.00     0.175 C 
BRANCH  78  79
ATOM     79  S   UNL A   1      32.651  23.803  23.726  1.00  0.00    -0.113 SA
BRANCH  79  80
ATOM     80  C   UNL A   1      33.658  22.437  24.292  1.00  0.00     0.044 A 
ATOM     81  C   UNL A   1      35.040  22.677  24.378  1.00  0.00     0.021 A 
ATOM     82  C   UNL A   1      33.211  21.134  24.537  1.00  0.00     0.139 A 
ATOM     83  C   UNL A   1      35.932  21.637  24.660  1.00  0.00     0.040 A 
ATOM     84  C   UNL A   1      34.092  20.088  24.794  1.00  0.00     0.079 A 
ATOM     85  F   UNL A   1      31.915  20.822  24.449  1.00  0.00    -0.206 F 
ATOM     86  C   UNL A   1      35.449  20.348  24.845  1.00  0.00     0.126 A 
ATOM     87  F   UNL A   1      36.307  19.343  25.051  1.00  0.00    -0.207 F 
ENDBRANCH  79  80
ENDBRANCH  78  79
ENDBRANCH  76  78
ENDBRANCH  73  76
BRANCH  74  88
ATOM     88  O   UNL A   1      31.295  29.688  21.942  1.00  0.00    -0.391 OA
ATOM     89  H   UNL A   1      32.176  29.349  21.716  1.00  0.00     0.211 HD
ENDBRANCH  74  88
ENDBRANCH  68  71
ENDBRANCH  66  67
ENDBRANCH  65  66
ENDBRANCH   1  65
TORSDOF 18
ENDMDL
MODEL 2
REMARK VINA RESULT:     -11.1      2.285      4.308
REMARK SMILES O=C(NCCCCCCNC(=O)[C@@H]1C[C@@H](O)CN1C(=O)CSc1ccc(F)cc1F)c1ccc(-c2c3nc(c(-c4c(F)cccc4F)c4ccc([nH]4)c(-c4c(F)cccc4F)c4nc(c(-c5c(F)cccc5F)c5ccc2[nH]5)C=C4)C=C3)cc1
REMARK SMILES IDX 7 1 6 2 5 3 4 4 3 5 1 6 2 7 31 9 32 10 84 11 33 12 83 13
REMARK SMILES IDX 34 14 35 15 36 16 77 17 37 18 82 19 76 20 78 21 38 22 81 23
REMARK SMILES IDX 75 24 74 25 39 27 65 28 48 29 64 30 49 31 52 32 63 33 79 34
REMARK SMILES IDX 50 35 51 36 62 38 80 39 53 40 40 41 41 42 46 43 42 44 43 45
REMARK SMILES IDX 45 46 47 47 44 48 66 49 67 50 72 51 68 52 69 53 71 54 73 55
REMARK SMILES IDX 70 56 54 57 55 58 60 59 56 60 57 61 59 62 61 63 58 64 8 65
REMARK SMILES IDX 9 66 10 67 11 68 12 70 13 71 14 72 18 73 15 74 17 75 19 76
REMARK SMILES IDX 20 77 21 78 22 79 23 80 24 81 29 82 25 83 28 84 30 85 26 86
REMARK SMILES IDX 27 87 16 88
REMARK H PARENT 3 8 78 26 52 37 10 69 16 89
REMARK Flexibility Score: inf
ROOT
ATOM      1  C   UNL A   1      32.769  30.039  25.931  1.00  0.00     0.002 C 
ENDROOT
BRANCH   1   2
ATOM      2  C   UNL A   1      31.476  30.847  25.769  1.00  0.00     0.002 C 
BRANCH   2   3
ATOM      3  C   UNL A   1      31.257  31.975  26.780  1.00  0.00     0.021 C 
BRANCH   3   4
ATOM      4  C   UNL A   1      32.519  32.690  27.255  1.00  0.00     0.116 C 
BRANCH   4   5
ATOM      5  N   UNL A   1      32.294  34.083  27.604  1.00  0.00    -0.352 N 
ATOM      6  O   UNL A   1      32.520  36.012  28.751  1.00  0.00    -0.269 OA
ATOM      7  C   UNL A   1      32.953  34.891  28.499  1.00  0.00     0.251 C 
ATOM      8  H   UNL A   1      31.552  34.516  27.124  1.00  0.00     0.163 HD
BRANCH   7   9
ATOM      9  C   UNL A   1      34.165  34.406  29.195  1.00  0.00     0.039 A 
ATOM     10  C   UNL A   1      35.434  34.577  28.639  1.00  0.00     0.014 A 
ATOM     11  C   UNL A   1      34.025  33.772  30.433  1.00  0.00     0.014 A 
ATOM     12  C   UNL A   1      36.536  33.964  29.231  1.00  0.00     0.010 A 
ATOM     13  C   UNL A   1      35.145  33.229  31.069  1.00  0.00     0.010 A 
ATOM     14  C   UNL A   1      36.403  33.274  30.447  1.00  0.00    -0.014 A 
BRANCH  14  15
ATOM     15  C   UNL A   1      37.590  32.613  31.048  1.00  0.00     0.031 A 
ATOM     16  C   UNL A   1      38.128  33.053  32.383  1.00  0.00     0.074 A 
ATOM     17  C   UNL A   1      38.159  31.574  30.407  1.00  0.00     0.049 A 
ATOM     18  N   UNL A   1      39.122  32.555  33.077  1.00  0.00    -0.248 NA
ATOM     19  C   UNL A   1      37.469  34.202  33.023  1.00  0.00     0.031 C 
ATOM     20  C   UNL A   1      37.735  31.056  29.104  1.00  0.00     0.029 A 
ATOM     21  N   UNL A   1      39.196  30.753  30.771  1.00  0.00    -0.354 N 
ATOM     22  C   UNL A   1      39.218  33.336  34.222  1.00  0.00     0.074 A 
ATOM     23  C   UNL A   1      38.202  34.361  34.118  1.00  0.00     0.031 C 
ATOM     24  C   UNL A   1      38.470  29.975  28.803  1.00  0.00     0.029 A 
ATOM     25  C   UNL A   1      39.448  29.753  29.864  1.00  0.00     0.049 A 
ATOM     26  H   UNL A   1      39.711  30.870  31.601  1.00  0.00     0.167 HD
ATOM     27  C   UNL A   1      40.066  33.204  35.270  1.00  0.00     0.037 A 
ATOM     28  C   UNL A   1      40.362  28.766  29.881  1.00  0.00     0.037 A 
ATOM     29  C   UNL A   1      41.068  32.175  35.381  1.00  0.00     0.049 A 
ATOM     30  C   UNL A   1      41.300  28.649  31.046  1.00  0.00     0.074 A 
ATOM     31  C   UNL A   1      41.961  31.950  36.415  1.00  0.00     0.029 A 
ATOM     32  N   UNL A   1      41.310  31.200  34.426  1.00  0.00    -0.354 N 
ATOM     33  N   UNL A   1      41.363  29.384  32.130  1.00  0.00    -0.248 NA
ATOM     34  C   UNL A   1      42.293  27.568  30.991  1.00  0.00     0.031 C 
ATOM     35  C   UNL A   1      42.769  30.862  36.069  1.00  0.00     0.029 A 
ATOM     36  C   UNL A   1      42.347  30.379  34.841  1.00  0.00     0.049 A 
ATOM     37  H   UNL A   1      40.818  31.104  33.578  1.00  0.00     0.167 HD
ATOM     38  C   UNL A   1      42.388  28.843  32.895  1.00  0.00     0.074 A 
ATOM     39  C   UNL A   1      42.908  27.710  32.157  1.00  0.00     0.031 C 
ATOM     40  C   UNL A   1      42.853  29.251  34.101  1.00  0.00     0.037 A 
BRANCH  27  41
ATOM     41  C   UNL A   1      39.955  34.203  36.385  1.00  0.00     0.057 A 
ATOM     42  C   UNL A   1      39.117  33.962  37.482  1.00  0.00     0.134 A 
ATOM     43  C   UNL A   1      40.638  35.426  36.352  1.00  0.00     0.134 A 
ATOM     44  F   UNL A   1      38.428  32.815  37.573  1.00  0.00    -0.206 F 
ATOM     45  C   UNL A   1      38.956  34.904  38.500  1.00  0.00     0.040 A 
ATOM     46  C   UNL A   1      40.505  36.366  37.376  1.00  0.00     0.040 A 
ATOM     47  F   UNL A   1      41.466  35.715  35.336  1.00  0.00    -0.206 F 
ATOM     48  C   UNL A   1      39.655  36.109  38.451  1.00  0.00     0.006 A 
ENDBRANCH  27  41
BRANCH  28  49
ATOM     49  C   UNL A   1      40.405  27.794  28.761  1.00  0.00     0.057 A 
ATOM     50  C   UNL A   1      41.171  28.035  27.615  1.00  0.00     0.134 A 
ATOM     51  C   UNL A   1      39.647  26.619  28.797  1.00  0.00     0.134 A 
ATOM     52  F   UNL A   1      41.913  29.148  27.517  1.00  0.00    -0.206 F 
ATOM     53  C   UNL A   1      41.166  27.152  26.534  1.00  0.00     0.040 A 
ATOM     54  C   UNL A   1      39.649  25.716  27.735  1.00  0.00     0.040 A 
ATOM     55  F   UNL A   1      38.905  26.329  29.876  1.00  0.00    -0.206 F 
ATOM     56  C   UNL A   1      40.404  25.987  26.594  1.00  0.00     0.006 A 
ENDBRANCH  28  49
BRANCH  40  57
ATOM     57  C   UNL A   1      43.964  28.453  34.717  1.00  0.00     0.057 A 
ATOM     58  C   UNL A   1      45.300  28.828  34.527  1.00  0.00     0.134 A 
ATOM     59  C   UNL A   1      43.716  27.289  35.455  1.00  0.00     0.134 A 
ATOM     60  F   UNL A   1      45.606  29.929  33.823  1.00  0.00    -0.206 F 
ATOM     61  C   UNL A   1      46.352  28.068  35.044  1.00  0.00     0.040 A 
ATOM     62  C   UNL A   1      44.757  26.534  35.996  1.00  0.00     0.040 A 
ATOM     63  F   UNL A   1      42.457  26.884  35.682  1.00  0.00    -0.206 F 
ATOM     64  C   UNL A   1      46.080  26.920  35.784  1.00  0.00     0.006 A 
ENDBRANCH  40  57
ENDBRANCH  14  15
ENDBRANCH   7   9
ENDBRANCH   4   5
ENDBRANCH   3   4
ENDBRANCH   2   3
ENDBRANCH   1   2
BRANCH   1  65
ATOM     65  C   UNL A   1      32.818  28.698  25.188  1.00  0.00     0.021 C 
BRANCH  65  66
ATOM     66  C   UNL A   1      33.602  27.597  25.888  1.00  0.00     0.116 C 
BRANCH  66  67
ATOM     67  N   UNL A   1      34.031  26.594  24.935  1.00  0.00    -0.354 N 
ATOM     68  C   UNL A   1      33.853  25.245  24.902  1.00  0.00     0.242 C 
ATOM     69  H   UNL A   1      34.543  26.953  24.176  1.00  0.00     0.163 HD
ATOM     70  O   UNL A   1      34.309  24.665  23.908  1.00  0.00    -0.273 OA
BRANCH  68  71
ATOM     71  C   UNL A   1      32.931  24.482  25.880  1.00  0.00     0.177 C 
ATOM     72  C   UNL A   1      33.532  23.104  26.196  1.00  0.00     0.069 C 
ATOM     73  N   UNL A   1      31.532  24.203  25.519  1.00  0.00    -0.327 N 
ATOM     74  C   UNL A   1      32.327  22.281  26.627  1.00  0.00     0.136 C 
ATOM     75  C   UNL A   1      31.202  22.793  25.727  1.00  0.00     0.152 C 
BRANCH  73  76
ATOM     76  C   UNL A   1      30.617  25.239  25.496  1.00  0.00     0.233 C 
ATOM     77  O   UNL A   1      29.922  25.469  26.490  1.00  0.00    -0.274 OA
BRANCH  76  78
ATOM     78  C   UNL A   1      30.374  26.028  24.212  1.00  0.00     0.175 C 
BRANCH  78  79
ATOM     79  S   UNL A   1      28.625  26.425  23.876  1.00  0.00    -0.113 SA
BRANCH  79  80
ATOM     80  C   UNL A   1      28.647  28.058  23.144  1.00  0.00     0.044 A 
ATOM     81  C   UNL A   1      29.898  28.526  22.709  1.00  0.00     0.021 A 
ATOM     82  C   UNL A   1      27.565  28.942  23.080  1.00  0.00     0.139 A 
ATOM     83  C   UNL A   1      30.054  29.844  22.264  1.00  0.00     0.040 A 
ATOM     84  C   UNL A   1      27.715  30.262  22.663  1.00  0.00     0.079 A 
ATOM     85  F   UNL A   1      26.351  28.578  23.500  1.00  0.00    -0.206 F 
ATOM     86  C   UNL A   1      28.963  30.704  22.266  1.00  0.00     0.126 A 
ATOM     87  F   UNL A   1      29.127  31.981  21.902  1.00  0.00    -0.207 F 
ENDBRANCH  79  80
ENDBRANCH  78  79
ENDBRANCH  76  78
ENDBRANCH  73  76
BRANCH  74  88
ATOM     88  O   UNL A   1      32.027  22.528  28.001  1.00  0.00    -0.391 OA
ATOM     89  H   UNL A   1      31.128  22.884  28.077  1.00  0.00     0.211 HD
ENDBRANCH  74  88
ENDBRANCH  68  71
ENDBRANCH  66  67
ENDBRANCH  65  66
ENDBRANCH   1  65
TORSDOF 18
ENDMDL
MODEL 3
REMARK VINA RESULT:     -11.0      4.544      9.310
REMARK SMILES O=C(NCCCCCCNC(=O)[C@@H]1C[C@@H](O)CN1C(=O)CSc1ccc(F)cc1F)c1ccc(-c2c3nc(c(-c4c(F)cccc4F)c4ccc([nH]4)c(-c4c(F)cccc4F)c4nc(c(-c5c(F)cccc5F)c5ccc2[nH]5)C=C4)C=C3)cc1
REMARK SMILES IDX 7 1 6 2 5 3 4 4 3 5 1 6 2 7 31 9 32 10 84 11 33 12 83 13
REMARK SMILES IDX 34 14 35 15 36 16 77 17 37 18 82 19 76 20 78 21 38 22 81 23
REMARK SMILES IDX 75 24 74 25 39 27 65 28 48 29 64 30 49 31 52 32 63 33 79 34
REMARK SMILES IDX 50 35 51 36 62 38 80 39 53 40 40 41 41 42 46 43 42 44 43 45
REMARK SMILES IDX 45 46 47 47 44 48 66 49 67 50 72 51 68 52 69 53 71 54 73 55
REMARK SMILES IDX 70 56 54 57 55 58 60 59 56 60 57 61 59 62 61 63 58 64 8 65
REMARK SMILES IDX 9 66 10 67 11 68 12 70 13 71 14 72 18 73 15 74 17 75 19 76
REMARK SMILES IDX 20 77 21 78 22 79 23 80 24 81 29 82 25 83 28 84 30 85 26 86
REMARK SMILES IDX 27 87 16 88
REMARK H PARENT 3 8 78 26 52 37 10 69 16 89
REMARK Flexibility Score: inf
ROOT
ATOM      1  C   UNL A   1      36.929  22.164  24.446  1.00  0.00     0.002 C 
ENDROOT
BRANCH   1   2
ATOM      2  C   UNL A   1      36.694  20.746  24.980  1.00  0.00     0.002 C 
BRANCH   2   3
ATOM      3  C   UNL A   1      37.890  19.794  24.908  1.00  0.00     0.021 C 
BRANCH   3   4
ATOM      4  C   UNL A   1      39.071  20.150  25.808  1.00  0.00     0.116 C 
BRANCH   4   5
ATOM      5  N   UNL A   1      40.121  19.145  25.804  1.00  0.00    -0.352 N 
ATOM      6  O   UNL A   1      42.217  18.312  25.860  1.00  0.00    -0.269 OA
ATOM      7  C   UNL A   1      41.468  19.267  26.048  1.00  0.00     0.251 C 
ATOM      8  H   UNL A   1      39.819  18.232  25.592  1.00  0.00     0.163 HD
BRANCH   7   9
ATOM      9  C   UNL A   1      42.033  20.557  26.499  1.00  0.00     0.039 A 
ATOM     10  C   UNL A   1      42.048  20.905  27.850  1.00  0.00     0.014 A 
ATOM     11  C   UNL A   1      42.565  21.432  25.547  1.00  0.00     0.014 A 
ATOM     12  C   UNL A   1      42.429  22.191  28.229  1.00  0.00     0.010 A 
ATOM     13  C   UNL A   1      43.026  22.692  25.939  1.00  0.00     0.010 A 
ATOM     14  C   UNL A   1      42.914  23.102  27.276  1.00  0.00    -0.014 A 
BRANCH  14  15
ATOM     15  C   UNL A   1      43.295  24.474  27.702  1.00  0.00     0.031 A 
ATOM     16  C   UNL A   1      44.735  24.916  27.687  1.00  0.00     0.074 A 
ATOM     17  C   UNL A   1      42.332  25.344  28.060  1.00  0.00     0.049 A 
ATOM     18  N   UNL A   1      45.240  26.089  27.978  1.00  0.00    -0.248 NA
ATOM     19  C   UNL A   1      45.737  23.912  27.300  1.00  0.00     0.031 C 
ATOM     20  C   UNL A   1      40.902  25.035  28.122  1.00  0.00     0.029 A 
ATOM     21  N   UNL A   1      42.403  26.667  28.414  1.00  0.00    -0.354 N 
ATOM     22  C   UNL A   1      46.615  25.961  27.824  1.00  0.00     0.074 A 
ATOM     23  C   UNL A   1      46.870  24.588  27.445  1.00  0.00     0.031 C 
ATOM     24  C   UNL A   1      40.227  26.150  28.440  1.00  0.00     0.029 A 
ATOM     25  C   UNL A   1      41.178  27.237  28.653  1.00  0.00     0.049 A 
ATOM     26  H   UNL A   1      43.252  27.161  28.490  1.00  0.00     0.167 HD
ATOM     27  C   UNL A   1      47.576  26.904  27.973  1.00  0.00     0.037 A 
ATOM     28  C   UNL A   1      40.851  28.495  29.006  1.00  0.00     0.037 A 
ATOM     29  C   UNL A   1      47.322  28.275  28.337  1.00  0.00     0.049 A 
ATOM     30  C   UNL A   1      41.934  29.518  29.179  1.00  0.00     0.074 A 
ATOM     31  C   UNL A   1      48.231  29.308  28.493  1.00  0.00     0.029 A 
ATOM     32  N   UNL A   1      46.068  28.805  28.600  1.00  0.00    -0.354 N 
ATOM     33  N   UNL A   1      43.228  29.385  29.010  1.00  0.00    -0.248 NA
ATOM     34  C   UNL A   1      41.515  30.864  29.591  1.00  0.00     0.031 C 
ATOM     35  C   UNL A   1      47.532  30.453  28.888  1.00  0.00     0.029 A 
ATOM     36  C   UNL A   1      46.181  30.146  28.931  1.00  0.00     0.049 A 
ATOM     37  H   UNL A   1      45.222  28.302  28.559  1.00  0.00     0.167 HD
ATOM     38  C   UNL A   1      43.775  30.633  29.276  1.00  0.00     0.074 A 
ATOM     39  C   UNL A   1      42.672  31.513  29.603  1.00  0.00     0.031 C 
ATOM     40  C   UNL A   1      45.075  31.013  29.250  1.00  0.00     0.037 A 
BRANCH  27  41
ATOM     41  C   UNL A   1      49.001  26.487  27.751  1.00  0.00     0.057 A 
ATOM     42  C   UNL A   1      49.791  26.039  28.818  1.00  0.00     0.134 A 
ATOM     43  C   UNL A   1      49.609  26.575  26.492  1.00  0.00     0.134 A 
ATOM     44  F   UNL A   1      49.274  25.937  30.052  1.00  0.00    -0.206 F 
ATOM     45  C   UNL A   1      51.134  25.702  28.643  1.00  0.00     0.040 A 
ATOM     46  C   UNL A   1      50.945  26.218  26.298  1.00  0.00     0.040 A 
ATOM     47  F   UNL A   1      48.906  26.985  25.425  1.00  0.00    -0.206 F 
ATOM     48  C   UNL A   1      51.714  25.786  27.379  1.00  0.00     0.006 A 
ENDBRANCH  27  41
BRANCH  28  49
ATOM     49  C   UNL A   1      39.422  28.852  29.187  1.00  0.00     0.057 A 
ATOM     50  C   UNL A   1      38.787  28.715  30.426  1.00  0.00     0.134 A 
ATOM     51  C   UNL A   1      38.651  29.302  28.109  1.00  0.00     0.134 A 
ATOM     52  F   UNL A   1      39.472  28.280  31.494  1.00  0.00    -0.206 F 
ATOM     53  C   UNL A   1      37.429  28.992  30.584  1.00  0.00     0.040 A 
ATOM     54  C   UNL A   1      37.297  29.605  28.258  1.00  0.00     0.040 A 
ATOM     55  F   UNL A   1      39.209  29.467  26.902  1.00  0.00    -0.206 F 
ATOM     56  C   UNL A   1      36.681  29.441  29.497  1.00  0.00     0.006 A 
ENDBRANCH  28  49
BRANCH  40  57
ATOM     57  C   UNL A   1      45.381  32.449  29.556  1.00  0.00     0.057 A 
ATOM     58  C   UNL A   1      45.621  32.861  30.873  1.00  0.00     0.134 A 
ATOM     59  C   UNL A   1      45.387  33.432  28.558  1.00  0.00     0.134 A 
ATOM     60  F   UNL A   1      45.621  31.970  31.876  1.00  0.00    -0.206 F 
ATOM     61  C   UNL A   1      45.851  34.202  31.187  1.00  0.00     0.040 A 
ATOM     62  C   UNL A   1      45.638  34.771  28.857  1.00  0.00     0.040 A 
ATOM     63  F   UNL A   1      45.175  33.099  27.276  1.00  0.00    -0.206 F 
ATOM     64  C   UNL A   1      45.864  35.160  30.176  1.00  0.00     0.006 A 
ENDBRANCH  40  57
ENDBRANCH  14  15
ENDBRANCH   7   9
ENDBRANCH   4   5
ENDBRANCH   3   4
ENDBRANCH   2   3
ENDBRANCH   1   2
BRANCH   1  65
ATOM     65  C   UNL A   1      36.405  23.306  25.326  1.00  0.00     0.021 C 
BRANCH  65  66
ATOM     66  C   UNL A   1      35.453  24.272  24.635  1.00  0.00     0.116 C 
BRANCH  66  67
ATOM     67  N   UNL A   1      34.338  24.592  25.501  1.00  0.00    -0.354 N 
ATOM     68  C   UNL A   1      33.544  25.695  25.583  1.00  0.00     0.242 C 
ATOM     69  H   UNL A   1      34.113  23.884  26.147  1.00  0.00     0.163 HD
ATOM     70  O   UNL A   1      32.627  25.639  26.412  1.00  0.00    -0.273 OA
BRANCH  68  71
ATOM     71  C   UNL A   1      33.584  26.852  24.559  1.00  0.00     0.177 C 
ATOM     72  C   UNL A   1      33.396  28.194  25.281  1.00  0.00     0.069 C 
ATOM     73  N   UNL A   1      32.624  26.892  23.444  1.00  0.00    -0.327 N 
ATOM     74  C   UNL A   1      32.868  29.114  24.189  1.00  0.00     0.136 C 
ATOM     75  C   UNL A   1      31.976  28.200  23.350  1.00  0.00     0.152 C 
BRANCH  73  76
ATOM     76  C   UNL A   1      32.756  25.992  22.403  1.00  0.00     0.233 C 
ATOM     77  O   UNL A   1      33.782  25.991  21.715  1.00  0.00    -0.274 OA
BRANCH  76  78
ATOM     78  C   UNL A   1      31.595  25.077  22.020  1.00  0.00     0.175 C 
BRANCH  78  79
ATOM     79  S   UNL A   1      30.643  24.415  23.429  1.00  0.00    -0.113 SA
BRANCH  79  80
ATOM     80  C   UNL A   1      31.589  23.014  24.016  1.00  0.00     0.044 A 
ATOM     81  C   UNL A   1      32.537  22.487  23.124  1.00  0.00     0.021 A 
ATOM     82  C   UNL A   1      31.383  22.333  25.221  1.00  0.00     0.139 A 
ATOM     83  C   UNL A   1      33.220  21.303  23.421  1.00  0.00     0.040 A 
ATOM     84  C   UNL A   1      32.039  21.141  25.515  1.00  0.00     0.079 A 
ATOM     85  F   UNL A   1      30.480  22.758  26.108  1.00  0.00    -0.206 F 
ATOM     86  C   UNL A   1      32.947  20.630  24.606  1.00  0.00     0.126 A 
ATOM     87  F   UNL A   1      33.552  19.465  24.860  1.00  0.00    -0.207 F 
ENDBRANCH  79  80
ENDBRANCH  78  79
ENDBRANCH  76  78
ENDBRANCH  73  76
BRANCH  74  88
ATOM     88  O   UNL A   1      33.950  29.622  23.408  1.00  0.00    -0.391 OA
ATOM     89  H   UNL A   1      34.596  30.051  23.990  1.00  0.00     0.211 HD
ENDBRANCH  74  88
ENDBRANCH  68  71
ENDBRANCH  66  67
ENDBRANCH  65  66
ENDBRANCH   1  65
TORSDOF 18
ENDMDL
