MODEL 1
REMARK VINA RESULT:     -12.6      0.000      0.000
REMARK SMILES O=C(Cn1nc(C(=O)NCCCCCCNC(=O)c2ccc(-c3c4nc(c(-c5c(F)cccc5F)c5ccc([nH]5)c(-c5c(F)cccc5F)c5nc(c(-c6c(F)cccc6F)c6ccc3[nH]6)C=C5)C=C4)cc2)c2ccccc2c1=O)Nc1ccc2c(c1)C(=O)c1ccccc1C2=O
REMARK SMILES IDX 12 1 11 2 10 3 9 4 7 5 8 6 6 8 4 9 5 10 79 11 78 12 80 13
REMARK SMILES IDX 73 14 77 15 74 16 76 17 75 18 3 19 2 20 1 21 81 22 82 24
REMARK SMILES IDX 83 25 87 26 84 27 86 28 85 29 88 30 96 31 89 32 90 33 95 34
REMARK SMILES IDX 97 35 91 36 94 37 92 38 93 39 13 40 14 41 15 42 16 43 17 44
REMARK SMILES IDX 18 46 19 47 20 48 72 49 21 50 71 51 22 52 23 53 24 54 65 55
REMARK SMILES IDX 25 56 70 57 64 58 66 59 26 60 69 61 63 62 62 63 27 65 53 66
REMARK SMILES IDX 36 67 52 68 37 69 40 70 51 71 67 72 38 73 39 74 50 76 68 77
REMARK SMILES IDX 41 78 28 79 29 80 34 81 30 82 31 83 33 84 35 85 32 86 54 87
REMARK SMILES IDX 55 88 60 89 56 90 57 91 59 92 61 93 58 94 42 95 43 96 48 97
REMARK SMILES IDX 44 98 45 99 47 100 49 101 46 102
REMARK H PARENT 9 7 81 23 16 45 66 64 40 75
REMARK Flexibility Score: inf
ROOT
ATOM      1  C   UNL A   1      31.349  26.661  26.147  1.00  0.00     0.002 C 
ENDROOT
BRANCH   1   2
ATOM      2  C   UNL A   1      32.246  25.685  25.380  1.00  0.00     0.021 C 
BRANCH   2   3
ATOM      3  C   UNL A   1      31.840  24.213  25.330  1.00  0.00     0.116 C 
BRANCH   3   4
ATOM      4  N   UNL A   1      31.827  23.557  26.618  1.00  0.00    -0.351 N 
ATOM      5  C   UNL A   1      32.850  22.841  27.195  1.00  0.00     0.272 C 
ATOM      6  O   UNL A   1      32.804  22.569  28.390  1.00  0.00    -0.267 OA
ATOM      7  H   UNL A   1      30.994  23.631  27.138  1.00  0.00     0.163 HD
BRANCH   5   8
ATOM      8  C   UNL A   1      34.038  22.367  26.349  1.00  0.00     0.156 A 
ATOM      9  N   UNL A   1      36.156  22.760  25.496  1.00  0.00    -0.219 N 
ATOM     10  N   UNL A   1      35.047  23.179  26.207  1.00  0.00    -0.163 NA
ATOM     11  C   UNL A   1      36.294  21.492  24.943  1.00  0.00     0.275 A 
ATOM     12  C   UNL A   1      35.147  20.579  25.094  1.00  0.00     0.051 A 
ATOM     13  O   UNL A   1      37.281  21.121  24.312  1.00  0.00    -0.267 OA
ATOM     14  C   UNL A   1      34.006  21.008  25.762  1.00  0.00     0.020 A 
ATOM     15  C   UNL A   1      35.203  19.293  24.537  1.00  0.00     0.014 A 
ATOM     16  C   UNL A   1      32.898  20.151  25.846  1.00  0.00     0.011 A 
ATOM     17  C   UNL A   1      34.108  18.438  24.639  1.00  0.00     0.001 A 
ATOM     18  C   UNL A   1      32.954  18.870  25.288  1.00  0.00     0.001 A 
BRANCH   9  19
ATOM     19  C   UNL A   1      37.269  23.708  25.392  1.00  0.00     0.248 C 
BRANCH  19  20
ATOM     20  C   UNL A   1      38.236  23.464  26.546  1.00  0.00     0.246 C 
ATOM     21  O   UNL A   1      38.649  24.367  27.268  1.00  0.00    -0.273 OA
ATOM     22  N   UNL A   1      38.681  22.147  26.595  1.00  0.00    -0.324 N 
ATOM     23  H   UNL A   1      38.009  21.430  26.520  1.00  0.00     0.169 HD
BRANCH  22  24
ATOM     24  C   UNL A   1      40.030  21.772  26.748  1.00  0.00     0.042 A 
ATOM     25  C   UNL A   1      40.622  21.030  25.717  1.00  0.00     0.027 A 
ATOM     26  C   UNL A   1      40.828  22.288  27.771  1.00  0.00     0.039 A 
ATOM     27  C   UNL A   1      42.013  20.904  25.646  1.00  0.00     0.015 A 
ATOM     28  C   UNL A   1      42.216  22.206  27.670  1.00  0.00     0.036 A 
ATOM     29  C   UNL A   1      42.808  21.555  26.591  1.00  0.00     0.034 A 
ATOM     30  C   UNL A   1      43.048  22.963  28.620  1.00  0.00     0.194 C 
ATOM     31  C   UNL A   1      44.260  21.708  26.360  1.00  0.00     0.194 C 
ATOM     32  O   UNL A   1      42.650  23.236  29.742  1.00  0.00    -0.289 OA
ATOM     33  C   UNL A   1      44.347  23.452  28.131  1.00  0.00     0.034 A 
ATOM     34  C   UNL A   1      44.940  22.842  27.024  1.00  0.00     0.034 A 
ATOM     35  O   UNL A   1      44.848  20.990  25.562  1.00  0.00    -0.289 OA
ATOM     36  C   UNL A   1      44.932  24.572  28.724  1.00  0.00     0.013 A 
ATOM     37  C   UNL A   1      46.126  23.361  26.497  1.00  0.00     0.013 A 
ATOM     38  C   UNL A   1      46.103  25.102  28.184  1.00  0.00     0.001 A 
ATOM     39  C   UNL A   1      46.697  24.499  27.072  1.00  0.00     0.001 A 
ENDBRANCH  22  24
ENDBRANCH  19  20
ENDBRANCH   9  19
ENDBRANCH   5   8
ENDBRANCH   3   4
ENDBRANCH   2   3
ENDBRANCH   1   2
BRANCH   1  40
ATOM     40  C   UNL A   1      32.003  27.614  27.148  1.00  0.00     0.002 C 
BRANCH  40  41
ATOM     41  C   UNL A   1      31.539  29.067  27.139  1.00  0.00     0.021 C 
BRANCH  41  42
ATOM     42  C   UNL A   1      32.369  30.067  26.347  1.00  0.00     0.116 C 
BRANCH  42  43
ATOM     43  N   UNL A   1      32.135  31.452  26.710  1.00  0.00    -0.352 N 
ATOM     44  C   UNL A   1      32.952  32.327  27.391  1.00  0.00     0.251 C 
ATOM     45  H   UNL A   1      31.267  31.819  26.428  1.00  0.00     0.163 HD
ATOM     46  O   UNL A   1      32.549  33.457  27.653  1.00  0.00    -0.269 OA
BRANCH  44  47
ATOM     47  C   UNL A   1      34.296  31.905  27.857  1.00  0.00     0.039 A 
ATOM     48  C   UNL A   1      34.581  30.577  28.186  1.00  0.00     0.014 A 
ATOM     49  C   UNL A   1      35.301  32.874  27.965  1.00  0.00     0.014 A 
ATOM     50  C   UNL A   1      35.808  30.250  28.764  1.00  0.00     0.010 A 
ATOM     51  C   UNL A   1      36.553  32.534  28.489  1.00  0.00     0.010 A 
ATOM     52  C   UNL A   1      36.798  31.230  28.942  1.00  0.00    -0.014 A 
BRANCH  52  53
ATOM     53  C   UNL A   1      38.063  30.878  29.637  1.00  0.00     0.031 A 
ATOM     54  C   UNL A   1      38.271  31.251  31.082  1.00  0.00     0.074 A 
ATOM     55  C   UNL A   1      39.006  30.165  28.993  1.00  0.00     0.049 A 
ATOM     56  N   UNL A   1      39.277  30.966  31.871  1.00  0.00    -0.248 NA
ATOM     57  C   UNL A   1      37.212  32.044  31.725  1.00  0.00     0.031 C 
ATOM     58  C   UNL A   1      38.935  29.738  27.596  1.00  0.00     0.029 A 
ATOM     59  N   UNL A   1      40.197  29.653  29.440  1.00  0.00    -0.354 N 
ATOM     60  C   UNL A   1      38.983  31.559  33.092  1.00  0.00     0.074 A 
ATOM     61  C   UNL A   1      37.711  32.232  32.939  1.00  0.00     0.031 C 
ATOM     62  C   UNL A   1      40.010  28.985  27.314  1.00  0.00     0.029 A 
ATOM     63  C   UNL A   1      40.858  28.901  28.501  1.00  0.00     0.049 A 
ATOM     64  H   UNL A   1      40.545  29.808  30.348  1.00  0.00     0.167 HD
ATOM     65  C   UNL A   1      39.701  31.543  34.240  1.00  0.00     0.037 A 
ATOM     66  C   UNL A   1      42.011  28.214  28.586  1.00  0.00     0.037 A 
ATOM     67  C   UNL A   1      40.953  30.859  34.417  1.00  0.00     0.049 A 
ATOM     68  C   UNL A   1      42.789  28.213  29.868  1.00  0.00     0.074 A 
ATOM     69  C   UNL A   1      41.732  30.764  35.559  1.00  0.00     0.029 A 
ATOM     70  N   UNL A   1      41.611  30.151  33.424  1.00  0.00    -0.354 N 
ATOM     71  N   UNL A   1      42.490  28.769  31.014  1.00  0.00    -0.248 NA
ATOM     72  C   UNL A   1      44.072  27.494  29.862  1.00  0.00     0.031 C 
ATOM     73  C   UNL A   1      42.871  30.008  35.252  1.00  0.00     0.029 A 
ATOM     74  C   UNL A   1      42.790  29.623  33.924  1.00  0.00     0.049 A 
ATOM     75  H   UNL A   1      41.288  30.039  32.502  1.00  0.00     0.167 HD
ATOM     76  C   UNL A   1      43.544  28.472  31.866  1.00  0.00     0.074 A 
ATOM     77  C   UNL A   1      44.484  27.671  31.110  1.00  0.00     0.031 C 
ATOM     78  C   UNL A   1      43.719  28.837  33.159  1.00  0.00     0.037 A 
BRANCH  65  79
ATOM     79  C   UNL A   1      39.140  32.296  35.405  1.00  0.00     0.057 A 
ATOM     80  C   UNL A   1      38.316  31.657  36.338  1.00  0.00     0.134 A 
ATOM     81  C   UNL A   1      39.397  33.659  35.585  1.00  0.00     0.134 A 
ATOM     82  F   UNL A   1      38.037  30.350  36.218  1.00  0.00    -0.206 F 
ATOM     83  C   UNL A   1      37.764  32.352  37.415  1.00  0.00     0.040 A 
ATOM     84  C   UNL A   1      38.858  34.363  36.663  1.00  0.00     0.040 A 
ATOM     85  F   UNL A   1      40.193  34.320  34.731  1.00  0.00    -0.206 F 
ATOM     86  C   UNL A   1      38.036  33.709  37.580  1.00  0.00     0.006 A 
ENDBRANCH  65  79
BRANCH  66  87
ATOM     87  C   UNL A   1      42.494  27.445  27.417  1.00  0.00     0.057 A 
ATOM     88  C   UNL A   1      43.465  27.963  26.555  1.00  0.00     0.134 A 
ATOM     89  C   UNL A   1      41.987  26.171  27.141  1.00  0.00     0.134 A 
ATOM     90  F   UNL A   1      43.985  29.179  26.777  1.00  0.00    -0.206 F 
ATOM     91  C   UNL A   1      43.912  27.242  25.449  1.00  0.00     0.040 A 
ATOM     92  C   UNL A   1      42.433  25.434  26.044  1.00  0.00     0.040 A 
ATOM     93  F   UNL A   1      41.067  25.621  27.947  1.00  0.00    -0.206 F 
ATOM     94  C   UNL A   1      43.397  25.972  25.192  1.00  0.00     0.006 A 
ENDBRANCH  66  87
BRANCH  78  95
ATOM     95  C   UNL A   1      44.974  28.374  33.828  1.00  0.00     0.057 A 
ATOM     96  C   UNL A   1      46.127  29.166  33.822  1.00  0.00     0.134 A 
ATOM     97  C   UNL A   1      45.038  27.128  34.464  1.00  0.00     0.134 A 
ATOM     98  F   UNL A   1      46.123  30.370  33.231  1.00  0.00    -0.206 F 
ATOM     99  C   UNL A   1      47.307  28.734  34.430  1.00  0.00     0.040 A 
ATOM    100  C   UNL A   1      46.209  26.690  35.082  1.00  0.00     0.040 A 
ATOM    101  F   UNL A   1      43.959  26.333  34.512  1.00  0.00    -0.206 F 
ATOM    102  C   UNL A   1      47.349  27.492  35.063  1.00  0.00     0.006 A 
ENDBRANCH  78  95
ENDBRANCH  52  53
ENDBRANCH  44  47
ENDBRANCH  42  43
ENDBRANCH  41  42
ENDBRANCH  40  41
ENDBRANCH   1  40
TORSDOF 16
ENDMDL
MODEL 2
REMARK VINA RESULT:     -12.5      1.479      2.248
REMARK SMILES O=C(Cn1nc(C(=O)NCCCCCCNC(=O)c2ccc(-c3c4nc(c(-c5c(F)cccc5F)c5ccc([nH]5)c(-c5c(F)cccc5F)c5nc(c(-c6c(F)cccc6F)c6ccc3[nH]6)C=C5)C=C4)cc2)c2ccccc2c1=O)Nc1ccc2c(c1)C(=O)c1ccccc1C2=O
REMARK SMILES IDX 12 1 11 2 10 3 9 4 7 5 8 6 6 8 4 9 5 10 79 11 78 12 80 13
REMARK SMILES IDX 73 14 77 15 74 16 76 17 75 18 3 19 2 20 1 21 81 22 82 24
REMARK SMILES IDX 83 25 87 26 84 27 86 28 85 29 88 30 96 31 89 32 90 33 95 34
REMARK SMILES IDX 97 35 91 36 94 37 92 38 93 39 13 40 14 41 15 42 16 43 17 44
REMARK SMILES IDX 18 46 19 47 20 48 72 49 21 50 71 51 22 52 23 53 24 54 65 55
REMARK SMILES IDX 25 56 70 57 64 58 66 59 26 60 69 61 63 62 62 63 27 65 53 66
REMARK SMILES IDX 36 67 52 68 37 69 40 70 51 71 67 72 38 73 39 74 50 76 68 77
REMARK SMILES IDX 41 78 28 79 29 80 34 81 30 82 31 83 33 84 35 85 32 86 54 87
REMARK SMILES IDX 55 88 60 89 56 90 57 91 59 92 61 93 58 94 42 95 43 96 48 97
REMARK SMILES IDX 44 98 45 99 47 100 49 101 46 102
REMARK H PARENT 9 7 81 23 16 45 66 64 40 75
REMARK Flexibility Score: inf
ROOT
ATOM      1  C   UNL A   1      31.800  28.864  26.960  1.00  0.00     0.002 C 
ENDROOT
BRANCH   1   2
ATOM      2  C   UNL A   1      32.600  27.563  26.833  1.00  0.00     0.021 C 
BRANCH   2   3
ATOM      3  C   UNL A   1      33.859  27.569  25.970  1.00  0.00     0.116 C 
BRANCH   3   4
ATOM      4  N   UNL A   1      33.607  27.490  24.550  1.00  0.00    -0.351 N 
ATOM      5  C   UNL A   1      33.400  26.351  23.805  1.00  0.00     0.272 C 
ATOM      6  O   UNL A   1      32.934  26.439  22.674  1.00  0.00    -0.267 OA
ATOM      7  H   UNL A   1      33.579  28.345  24.062  1.00  0.00     0.163 HD
BRANCH   5   8
ATOM      8  C   UNL A   1      33.765  24.975  24.375  1.00  0.00     0.156 A 
ATOM      9  N   UNL A   1      35.321  23.276  24.631  1.00  0.00    -0.219 N 
ATOM     10  N   UNL A   1      34.940  24.489  24.088  1.00  0.00    -0.163 NA
ATOM     11  C   UNL A   1      34.540  22.539  25.514  1.00  0.00     0.275 A 
ATOM     12  C   UNL A   1      33.207  23.083  25.828  1.00  0.00     0.051 A 
ATOM     13  O   UNL A   1      34.880  21.461  25.996  1.00  0.00    -0.267 OA
ATOM     14  C   UNL A   1      32.793  24.276  25.246  1.00  0.00     0.020 A 
ATOM     15  C   UNL A   1      32.352  22.378  26.688  1.00  0.00     0.014 A 
ATOM     16  C   UNL A   1      31.499  24.752  25.505  1.00  0.00     0.011 A 
ATOM     17  C   UNL A   1      31.075  22.864  26.958  1.00  0.00     0.001 A 
ATOM     18  C   UNL A   1      30.647  24.048  26.361  1.00  0.00     0.001 A 
BRANCH   9  19
ATOM     19  C   UNL A   1      36.662  22.795  24.292  1.00  0.00     0.248 C 
BRANCH  19  20
ATOM     20  C   UNL A   1      37.581  23.007  25.490  1.00  0.00     0.246 C 
ATOM     21  O   UNL A   1      37.991  24.116  25.823  1.00  0.00    -0.273 OA
ATOM     22  N   UNL A   1      37.990  21.808  26.064  1.00  0.00    -0.324 N 
ATOM     23  H   UNL A   1      37.303  21.125  26.243  1.00  0.00     0.169 HD
BRANCH  22  24
ATOM     24  C   UNL A   1      39.323  21.508  26.407  1.00  0.00     0.042 A 
ATOM     25  C   UNL A   1      39.955  20.462  25.719  1.00  0.00     0.027 A 
ATOM     26  C   UNL A   1      40.076  22.339  27.238  1.00  0.00     0.039 A 
ATOM     27  C   UNL A   1      41.345  20.322  25.770  1.00  0.00     0.015 A 
ATOM     28  C   UNL A   1      41.466  22.229  27.246  1.00  0.00     0.036 A 
ATOM     29  C   UNL A   1      42.102  21.254  26.483  1.00  0.00     0.034 A 
ATOM     30  C   UNL A   1      42.260  23.263  27.929  1.00  0.00     0.194 C 
ATOM     31  C   UNL A   1      43.566  21.322  26.293  1.00  0.00     0.194 C 
ATOM     32  O   UNL A   1      41.810  23.898  28.871  1.00  0.00    -0.289 OA
ATOM     33  C   UNL A   1      43.592  23.560  27.376  1.00  0.00     0.034 A 
ATOM     34  C   UNL A   1      44.230  22.614  26.573  1.00  0.00     0.034 A 
ATOM     35  O   UNL A   1      44.182  20.378  25.816  1.00  0.00    -0.289 OA
ATOM     36  C   UNL A   1      44.165  24.816  27.588  1.00  0.00     0.013 A 
ATOM     37  C   UNL A   1      45.450  22.927  25.967  1.00  0.00     0.013 A 
ATOM     38  C   UNL A   1      45.370  25.134  26.966  1.00  0.00     0.001 A 
ATOM     39  C   UNL A   1      46.011  24.193  26.156  1.00  0.00     0.001 A 
ENDBRANCH  22  24
ENDBRANCH  19  20
ENDBRANCH   9  19
ENDBRANCH   5   8
ENDBRANCH   3   4
ENDBRANCH   2   3
ENDBRANCH   1   2
BRANCH   1  40
ATOM     40  C   UNL A   1      32.478  30.175  26.561  1.00  0.00     0.002 C 
BRANCH  40  41
ATOM     41  C   UNL A   1      31.758  31.473  26.913  1.00  0.00     0.021 C 
BRANCH  41  42
ATOM     42  C   UNL A   1      32.379  32.776  26.431  1.00  0.00     0.116 C 
BRANCH  42  43
ATOM     43  N   UNL A   1      32.194  33.893  27.337  1.00  0.00    -0.352 N 
ATOM     44  C   UNL A   1      32.960  34.281  28.413  1.00  0.00     0.251 C 
ATOM     45  H   UNL A   1      31.407  34.455  27.156  1.00  0.00     0.163 HD
ATOM     46  O   UNL A   1      32.605  35.236  29.100  1.00  0.00    -0.269 OA
BRANCH  44  47
ATOM     47  C   UNL A   1      34.186  33.531  28.784  1.00  0.00     0.039 A 
ATOM     48  C   UNL A   1      34.135  32.207  29.231  1.00  0.00     0.014 A 
ATOM     49  C   UNL A   1      35.424  34.177  28.679  1.00  0.00     0.014 A 
ATOM     50  C   UNL A   1      35.289  31.591  29.714  1.00  0.00     0.010 A 
ATOM     51  C   UNL A   1      36.591  33.535  29.107  1.00  0.00     0.010 A 
ATOM     52  C   UNL A   1      36.524  32.257  29.678  1.00  0.00    -0.014 A 
BRANCH  52  53
ATOM     53  C   UNL A   1      37.723  31.614  30.276  1.00  0.00     0.031 A 
ATOM     54  C   UNL A   1      38.048  31.809  31.733  1.00  0.00     0.074 A 
ATOM     55  C   UNL A   1      38.491  30.799  29.527  1.00  0.00     0.049 A 
ATOM     56  N   UNL A   1      39.009  31.271  32.443  1.00  0.00    -0.248 NA
ATOM     57  C   UNL A   1      37.182  32.724  32.493  1.00  0.00     0.031 C 
ATOM     58  C   UNL A   1      38.291  30.522  28.105  1.00  0.00     0.029 A 
ATOM     59  N   UNL A   1      39.577  30.035  29.868  1.00  0.00    -0.354 N 
ATOM     60  C   UNL A   1      38.876  31.795  33.723  1.00  0.00     0.074 A 
ATOM     61  C   UNL A   1      37.750  32.704  33.691  1.00  0.00     0.031 C 
ATOM     62  C   UNL A   1      39.193  29.610  27.707  1.00  0.00     0.029 A 
ATOM     63  C   UNL A   1      40.050  29.262  28.838  1.00  0.00     0.049 A 
ATOM     64  H   UNL A   1      39.980  30.040  30.767  1.00  0.00     0.167 HD
ATOM     65  C   UNL A   1      39.617  31.541  34.827  1.00  0.00     0.037 A 
ATOM     66  C   UNL A   1      41.054  28.367  28.806  1.00  0.00     0.037 A 
ATOM     67  C   UNL A   1      40.722  30.622  34.883  1.00  0.00     0.049 A 
ATOM     68  C   UNL A   1      41.862  28.105  30.042  1.00  0.00     0.074 A 
ATOM     69  C   UNL A   1      41.508  30.281  35.971  1.00  0.00     0.029 A 
ATOM     70  N   UNL A   1      41.198  29.898  33.802  1.00  0.00    -0.354 N 
ATOM     71  N   UNL A   1      41.714  28.601  31.244  1.00  0.00    -0.248 NA
ATOM     72  C   UNL A   1      42.984  27.164  29.911  1.00  0.00     0.031 C 
ATOM     73  C   UNL A   1      42.471  29.358  35.544  1.00  0.00     0.029 A 
ATOM     74  C   UNL A   1      42.272  29.116  34.195  1.00  0.00     0.049 A 
ATOM     75  H   UNL A   1      40.828  29.932  32.891  1.00  0.00     0.167 HD
ATOM     76  C   UNL A   1      42.722  28.037  32.014  1.00  0.00     0.074 A 
ATOM     77  C   UNL A   1      43.466  27.147  31.146  1.00  0.00     0.031 C 
ATOM     78  C   UNL A   1      43.007  28.244  33.321  1.00  0.00     0.037 A 
BRANCH  65  79
ATOM     79  C   UNL A   1      39.251  32.276  36.078  1.00  0.00     0.057 A 
ATOM     80  C   UNL A   1      38.345  31.725  36.991  1.00  0.00     0.134 A 
ATOM     81  C   UNL A   1      39.776  33.541  36.362  1.00  0.00     0.134 A 
ATOM     82  F   UNL A   1      37.810  30.513  36.772  1.00  0.00    -0.206 F 
ATOM     83  C   UNL A   1      37.972  32.410  38.148  1.00  0.00     0.040 A 
ATOM     84  C   UNL A   1      39.419  34.232  37.520  1.00  0.00     0.040 A 
ATOM     85  F   UNL A   1      40.661  34.112  35.530  1.00  0.00    -0.206 F 
ATOM     86  C   UNL A   1      38.512  33.667  38.416  1.00  0.00     0.006 A 
ENDBRANCH  65  79
BRANCH  66  87
ATOM     87  C   UNL A   1      41.341  27.631  27.555  1.00  0.00     0.057 A 
ATOM     88  C   UNL A   1      42.346  28.050  26.678  1.00  0.00     0.134 A 
ATOM     89  C   UNL A   1      40.608  26.491  27.213  1.00  0.00     0.134 A 
ATOM     90  F   UNL A   1      43.079  29.137  26.960  1.00  0.00    -0.206 F 
ATOM     91  C   UNL A   1      42.608  27.362  25.494  1.00  0.00     0.040 A 
ATOM     92  C   UNL A   1      40.868  25.786  26.037  1.00  0.00     0.040 A 
ATOM     93  F   UNL A   1      39.644  26.037  28.028  1.00  0.00    -0.206 F 
ATOM     94  C   UNL A   1      41.869  26.225  25.172  1.00  0.00     0.006 A 
ENDBRANCH  66  87
BRANCH  78  95
ATOM     95  C   UNL A   1      44.174  27.497  33.884  1.00  0.00     0.057 A 
ATOM     96  C   UNL A   1      44.011  26.229  34.451  1.00  0.00     0.134 A 
ATOM     97  C   UNL A   1      45.460  28.051  33.878  1.00  0.00     0.134 A 
ATOM     98  F   UNL A   1      42.803  25.647  34.483  1.00  0.00    -0.206 F 
ATOM     99  C   UNL A   1      45.092  25.533  34.995  1.00  0.00     0.040 A 
ATOM    100  C   UNL A   1      46.550  27.361  34.410  1.00  0.00     0.040 A 
ATOM    101  F   UNL A   1      45.677  29.258  33.335  1.00  0.00    -0.206 F 
ATOM    102  C   UNL A   1      46.366  26.099  34.974  1.00  0.00     0.006 A 
ENDBRANCH  78  95
ENDBRANCH  52  53
ENDBRANCH  44  47
ENDBRANCH  42  43
ENDBRANCH  41  42
ENDBRANCH  40  41
ENDBRANCH   1  40
TORSDOF 16
ENDMDL
MODEL 3
REMARK VINA RESULT:     -12.4      5.363     11.996
REMARK SMILES O=C(Cn1nc(C(=O)NCCCCCCNC(=O)c2ccc(-c3c4nc(c(-c5c(F)cccc5F)c5ccc([nH]5)c(-c5c(F)cccc5F)c5nc(c(-c6c(F)cccc6F)c6ccc3[nH]6)C=C5)C=C4)cc2)c2ccccc2c1=O)Nc1ccc2c(c1)C(=O)c1ccccc1C2=O
REMARK SMILES IDX 12 1 11 2 10 3 9 4 7 5 8 6 6 8 4 9 5 10 79 11 78 12 80 13
REMARK SMILES IDX 73 14 77 15 74 16 76 17 75 18 3 19 2 20 1 21 81 22 82 24
REMARK SMILES IDX 83 25 87 26 84 27 86 28 85 29 88 30 96 31 89 32 90 33 95 34
REMARK SMILES IDX 97 35 91 36 94 37 92 38 93 39 13 40 14 41 15 42 16 43 17 44
REMARK SMILES IDX 18 46 19 47 20 48 72 49 21 50 71 51 22 52 23 53 24 54 65 55
REMARK SMILES IDX 25 56 70 57 64 58 66 59 26 60 69 61 63 62 62 63 27 65 53 66
REMARK SMILES IDX 36 67 52 68 37 69 40 70 51 71 67 72 38 73 39 74 50 76 68 77
REMARK SMILES IDX 41 78 28 79 29 80 34 81 30 82 31 83 33 84 35 85 32 86 54 87
REMARK SMILES IDX 55 88 60 89 56 90 57 91 59 92 61 93 58 94 42 95 43 96 48 97
REMARK SMILES IDX 44 98 45 99 47 100 49 101 46 102
REMARK H PARENT 9 7 81 23 16 45 66 64 40 75
REMARK Flexibility Score: inf
ROOT
ATOM      1  C   UNL A   1      40.956  26.731  27.925  1.00  0.00     0.002 C 
ENDROOT
BRANCH   1   2
ATOM      2  C   UNL A   1      40.592  28.096  28.519  1.00  0.00     0.021 C 
BRANCH   2   3
ATOM      3  C   UNL A   1      39.116  28.474  28.616  1.00  0.00     0.116 C 
BRANCH   3   4
ATOM      4  N   UNL A   1      38.598  28.501  29.965  1.00  0.00    -0.351 N 
ATOM      5  C   UNL A   1      37.543  29.250  30.434  1.00  0.00     0.272 C 
ATOM      6  O   UNL A   1      37.041  28.981  31.520  1.00  0.00    -0.267 OA
ATOM      7  H   UNL A   1      39.051  27.921  30.620  1.00  0.00     0.163 HD
BRANCH   5   8
ATOM      8  C   UNL A   1      37.003  30.427  29.614  1.00  0.00     0.156 A 
ATOM      9  N   UNL A   1      35.345  31.314  28.258  1.00  0.00    -0.219 N 
ATOM     10  N   UNL A   1      35.887  30.255  28.962  1.00  0.00    -0.163 NA
ATOM     11  C   UNL A   1      35.895  32.591  28.226  1.00  0.00     0.275 A 
ATOM     12  C   UNL A   1      37.163  32.781  28.953  1.00  0.00     0.051 A 
ATOM     13  O   UNL A   1      35.413  33.531  27.600  1.00  0.00    -0.267 OA
ATOM     14  C   UNL A   1      37.744  31.708  29.621  1.00  0.00     0.020 A 
ATOM     15  C   UNL A   1      37.791  34.035  28.940  1.00  0.00     0.014 A 
ATOM     16  C   UNL A   1      38.981  31.888  30.258  1.00  0.00     0.011 A 
ATOM     17  C   UNL A   1      39.011  34.213  29.590  1.00  0.00     0.001 A 
ATOM     18  C   UNL A   1      39.608  33.137  30.243  1.00  0.00     0.001 A 
BRANCH   9  19
ATOM     19  C   UNL A   1      34.077  31.066  27.568  1.00  0.00     0.248 C 
BRANCH  19  20
ATOM     20  C   UNL A   1      33.962  29.577  27.263  1.00  0.00     0.246 C 
ATOM     21  O   UNL A   1      34.889  28.922  26.794  1.00  0.00    -0.273 OA
ATOM     22  N   UNL A   1      32.672  29.095  27.457  1.00  0.00    -0.324 N 
ATOM     23  H   UNL A   1      32.210  29.337  28.292  1.00  0.00     0.169 HD
BRANCH  22  24
ATOM     24  C   UNL A   1      31.984  28.280  26.536  1.00  0.00     0.042 A 
ATOM     25  C   UNL A   1      31.868  28.741  25.217  1.00  0.00     0.027 A 
ATOM     26  C   UNL A   1      31.613  26.970  26.843  1.00  0.00     0.039 A 
ATOM     27  C   UNL A   1      31.497  27.864  24.193  1.00  0.00     0.015 A 
ATOM     28  C   UNL A   1      31.293  26.085  25.814  1.00  0.00     0.036 A 
ATOM     29  C   UNL A   1      31.277  26.518  24.490  1.00  0.00     0.034 A 
ATOM     30  C   UNL A   1      31.145  24.653  26.122  1.00  0.00     0.194 C 
ATOM     31  C   UNL A   1      31.201  25.520  23.402  1.00  0.00     0.194 C 
ATOM     32  O   UNL A   1      30.797  24.270  27.229  1.00  0.00    -0.289 OA
ATOM     33  C   UNL A   1      31.517  23.699  25.065  1.00  0.00     0.034 A 
ATOM     34  C   UNL A   1      31.548  24.121  23.735  1.00  0.00     0.034 A 
ATOM     35  O   UNL A   1      30.970  25.864  22.250  1.00  0.00    -0.289 OA
ATOM     36  C   UNL A   1      31.916  22.406  25.410  1.00  0.00     0.013 A 
ATOM     37  C   UNL A   1      31.992  23.247  22.739  1.00  0.00     0.013 A 
ATOM     38  C   UNL A   1      32.379  21.543  24.419  1.00  0.00     0.001 A 
ATOM     39  C   UNL A   1      32.419  21.963  23.087  1.00  0.00     0.001 A 
ENDBRANCH  22  24
ENDBRANCH  19  20
ENDBRANCH   9  19
ENDBRANCH   5   8
ENDBRANCH   3   4
ENDBRANCH   2   3
ENDBRANCH   1   2
BRANCH   1  40
ATOM     40  C   UNL A   1      40.070  26.163  26.816  1.00  0.00     0.002 C 
BRANCH  40  41
ATOM     41  C   UNL A   1      39.603  24.718  26.962  1.00  0.00     0.021 C 
BRANCH  41  42
ATOM     42  C   UNL A   1      40.573  23.723  27.582  1.00  0.00     0.116 C 
BRANCH  42  43
ATOM     43  N   UNL A   1      41.234  22.861  26.621  1.00  0.00    -0.352 N 
ATOM     44  C   UNL A   1      42.395  23.071  25.912  1.00  0.00     0.251 C 
ATOM     45  H   UNL A   1      40.787  22.001  26.452  1.00  0.00     0.163 HD
ATOM     46  O   UNL A   1      42.769  22.234  25.094  1.00  0.00    -0.269 OA
BRANCH  44  47
ATOM     47  C   UNL A   1      43.178  24.320  26.088  1.00  0.00     0.039 A 
ATOM     48  C   UNL A   1      43.260  25.288  25.083  1.00  0.00     0.014 A 
ATOM     49  C   UNL A   1      43.847  24.525  27.300  1.00  0.00     0.014 A 
ATOM     50  C   UNL A   1      44.127  26.371  25.228  1.00  0.00     0.010 A 
ATOM     51  C   UNL A   1      44.670  25.644  27.469  1.00  0.00     0.010 A 
ATOM     52  C   UNL A   1      44.858  26.548  26.414  1.00  0.00    -0.014 A 
BRANCH  52  53
ATOM     53  C   UNL A   1      45.838  27.660  26.514  1.00  0.00     0.031 A 
ATOM     54  C   UNL A   1      47.312  27.397  26.348  1.00  0.00     0.074 A 
ATOM     55  C   UNL A   1      45.404  28.922  26.691  1.00  0.00     0.049 A 
ATOM     56  N   UNL A   1      48.305  28.251  26.332  1.00  0.00    -0.248 NA
ATOM     57  C   UNL A   1      47.724  25.995  26.175  1.00  0.00     0.031 C 
ATOM     58  C   UNL A   1      44.007  29.319  26.866  1.00  0.00     0.029 A 
ATOM     59  N   UNL A   1      46.096  30.106  26.725  1.00  0.00    -0.354 N 
ATOM     60  C   UNL A   1      49.457  27.492  26.168  1.00  0.00     0.074 A 
ATOM     61  C   UNL A   1      49.043  26.106  26.102  1.00  0.00     0.031 C 
ATOM     62  C   UNL A   1      43.939  30.658  26.938  1.00  0.00     0.029 A 
ATOM     63  C   UNL A   1      45.288  31.209  26.843  1.00  0.00     0.049 A 
ATOM     64  H   UNL A   1      47.077  30.160  26.669  1.00  0.00     0.167 HD
ATOM     65  C   UNL A   1      50.742  27.906  26.075  1.00  0.00     0.037 A 
ATOM     66  C   UNL A   1      45.596  32.519  26.863  1.00  0.00     0.037 A 
ATOM     67  C   UNL A   1      51.169  29.279  26.112  1.00  0.00     0.049 A 
ATOM     68  C   UNL A   1      47.028  32.953  26.761  1.00  0.00     0.074 A 
ATOM     69  C   UNL A   1      52.451  29.789  25.991  1.00  0.00     0.029 A 
ATOM     70  N   UNL A   1      50.322  30.362  26.283  1.00  0.00    -0.354 N 
ATOM     71  N   UNL A   1      48.100  32.222  26.595  1.00  0.00    -0.248 NA
ATOM     72  C   UNL A   1      47.290  34.397  26.858  1.00  0.00     0.031 C 
ATOM     73  C   UNL A   1      52.380  31.183  26.104  1.00  0.00     0.029 A 
ATOM     74  C   UNL A   1      51.053  31.538  26.279  1.00  0.00     0.049 A 
ATOM     75  H   UNL A   1      49.345  30.304  26.390  1.00  0.00     0.167 HD
ATOM     76  C   UNL A   1      49.165  33.112  26.570  1.00  0.00     0.074 A 
ATOM     77  C   UNL A   1      48.607  34.440  26.720  1.00  0.00     0.031 C 
ATOM     78  C   UNL A   1      50.487  32.849  26.439  1.00  0.00     0.037 A 
BRANCH  65  79
ATOM     79  C   UNL A   1      51.790  26.849  25.921  1.00  0.00     0.057 A 
ATOM     80  C   UNL A   1      52.428  26.307  27.042  1.00  0.00     0.134 A 
ATOM     81  C   UNL A   1      52.183  26.388  24.659  1.00  0.00     0.134 A 
ATOM     82  F   UNL A   1      52.091  26.709  28.278  1.00  0.00    -0.206 F 
ATOM     83  C   UNL A   1      53.426  25.340  26.914  1.00  0.00     0.040 A 
ATOM     84  C   UNL A   1      53.172  25.415  24.518  1.00  0.00     0.040 A 
ATOM     85  F   UNL A   1      51.594  26.860  23.550  1.00  0.00    -0.206 F 
ATOM     86  C   UNL A   1      53.799  24.890  25.648  1.00  0.00     0.006 A 
ENDBRANCH  65  79
BRANCH  66  87
ATOM     87  C   UNL A   1      44.515  33.525  26.967  1.00  0.00     0.057 A 
ATOM     88  C   UNL A   1      44.023  33.940  28.208  1.00  0.00     0.134 A 
ATOM     89  C   UNL A   1      43.952  34.089  25.818  1.00  0.00     0.134 A 
ATOM     90  F   UNL A   1      44.531  33.431  29.341  1.00  0.00    -0.206 F 
ATOM     91  C   UNL A   1      42.998  34.879  28.305  1.00  0.00     0.040 A 
ATOM     92  C   UNL A   1      42.933  35.038  25.900  1.00  0.00     0.040 A 
ATOM     93  F   UNL A   1      44.399  33.737  24.604  1.00  0.00    -0.206 F 
ATOM     94  C   UNL A   1      42.451  35.433  27.147  1.00  0.00     0.006 A 
ENDBRANCH  66  87
BRANCH  78  95
ATOM     95  C   UNL A   1      51.414  34.023  26.458  1.00  0.00     0.057 A 
ATOM     96  C   UNL A   1      51.967  34.484  27.657  1.00  0.00     0.134 A 
ATOM     97  C   UNL A   1      51.743  34.705  25.281  1.00  0.00     0.134 A 
ATOM     98  F   UNL A   1      51.689  33.868  28.817  1.00  0.00    -0.206 F 
ATOM     99  C   UNL A   1      52.819  35.589  27.686  1.00  0.00     0.040 A 
ATOM    100  C   UNL A   1      52.601  35.805  25.296  1.00  0.00     0.040 A 
ATOM    101  F   UNL A   1      51.254  34.298  24.100  1.00  0.00    -0.206 F 
ATOM    102  C   UNL A   1      53.139  36.251  26.502  1.00  0.00     0.006 A 
ENDBRANCH  78  95
ENDBRANCH  52  53
ENDBRANCH  44  47
ENDBRANCH  42  43
ENDBRANCH  41  42
ENDBRANCH  40  41
ENDBRANCH   1  40
TORSDOF 16
ENDMDL
