MODEL 1
REMARK VINA RESULT:     -13.4      0.000      0.000
REMARK SMILES O=C(CC[C@@]1(c2ccccc2)NC(=O)N(CC(=O)Nc2cccc(F)c2)C1=O)NCCCCCCNC(=O)c1ccc(-c2c3nc(c(-c4c(F)cccc4F)c4ccc([nH]4)c(-c4c(F)cccc4F)c4nc(c(-c5c(F)cccc5F)c5ccc2[nH]5)C=C4)C=C3)cc1
REMARK SMILES IDX 31 1 30 2 29 3 1 4 2 5 3 7 4 8 5 9 12 10 27 11 13 12 15 14
REMARK SMILES IDX 28 15 14 16 6 17 7 18 11 19 8 20 10 21 9 22 16 23 17 24
REMARK SMILES IDX 18 25 19 26 20 28 21 29 26 30 22 31 24 32 23 33 25 34 32 35
REMARK SMILES IDX 33 36 34 37 35 38 36 39 37 40 38 42 39 43 40 44 92 45 41 46
REMARK SMILES IDX 91 47 42 48 43 49 44 50 85 51 45 52 90 53 84 54 86 55 46 56
REMARK SMILES IDX 89 57 83 58 82 59 47 61 73 62 56 63 72 64 57 65 60 66 71 67
REMARK SMILES IDX 87 68 58 69 59 70 70 72 88 73 61 74 48 75 49 76 54 77 50 78
REMARK SMILES IDX 51 79 53 80 55 81 52 82 74 83 75 84 80 85 76 86 77 87 79 88
REMARK SMILES IDX 81 89 78 90 62 91 63 92 68 93 64 94 65 95 67 96 69 97 66 98
REMARK H PARENT 29 6 12 13 19 27 36 41 86 60 60 71
REMARK Flexibility Score: inf
ROOT
ATOM      1  C   UNL A   1      36.580  22.961  24.302  1.00  0.00     0.021 C 
ENDROOT
BRANCH   1   2
ATOM      2  C   UNL A   1      35.487  22.842  23.207  1.00  0.00     0.116 C 
BRANCH   2   3
ATOM      3  N   UNL A   1      34.314  23.751  22.971  1.00  0.00    -0.356 N 
ATOM      4  O   UNL A   1      33.322  23.407  20.896  1.00  0.00    -0.275 OA
ATOM      5  C   UNL A   1      33.388  23.968  21.980  1.00  0.00     0.220 C 
ATOM      6  H   UNL A   1      34.171  24.357  23.733  1.00  0.00     0.163 HD
BRANCH   5   7
ATOM      7  C   UNL A   1      32.411  25.111  22.149  1.00  0.00     0.103 C 
BRANCH   7   8
ATOM      8  C   UNL A   1      31.138  24.786  22.922  1.00  0.00     0.053 C 
BRANCH   8   9
ATOM      9  C   UNL A   1      30.980  25.467  24.316  1.00  0.00     0.147 C 
ATOM     10  N   UNL A   1      29.975  24.760  25.057  1.00  0.00    -0.319 N 
ATOM     11  C   UNL A   1      32.195  25.139  25.270  1.00  0.00     0.261 C 
ATOM     12  C   UNL A   1      30.466  24.277  26.237  1.00  0.00     0.325 C 
ATOM     13  H   UNL A   1      29.047  24.638  24.752  1.00  0.00     0.166 HD
ATOM     14  N   UNL A   1      31.811  24.142  26.155  1.00  0.00    -0.252 N 
ATOM     15  O   UNL A   1      33.311  25.630  25.174  1.00  0.00    -0.271 OA
ATOM     16  O   UNL A   1      29.689  24.136  27.166  1.00  0.00    -0.248 OA
BRANCH   9  17
ATOM     17  C   UNL A   1      30.509  26.933  24.195  1.00  0.00    -0.013 A 
ATOM     18  C   UNL A   1      29.371  27.285  23.423  1.00  0.00     0.007 A 
ATOM     19  C   UNL A   1      31.267  27.993  24.714  1.00  0.00     0.007 A 
ATOM     20  C   UNL A   1      29.059  28.611  23.115  1.00  0.00     0.000 A 
ATOM     21  C   UNL A   1      30.948  29.327  24.412  1.00  0.00     0.000 A 
ATOM     22  C   UNL A   1      29.857  29.634  23.602  1.00  0.00     0.000 A 
ENDBRANCH   9  17
BRANCH  14  23
ATOM     23  C   UNL A   1      32.730  23.282  26.998  1.00  0.00     0.230 C 
BRANCH  23  24
ATOM     24  C   UNL A   1      33.544  21.780  26.977  1.00  0.00     0.244 C 
ATOM     25  O   UNL A   1      34.207  21.598  28.034  1.00  0.00    -0.273 OA
ATOM     26  N   UNL A   1      33.446  20.559  26.319  1.00  0.00    -0.324 N 
ATOM     27  H   UNL A   1      33.789  19.869  26.931  1.00  0.00     0.170 HD
BRANCH  26  28
ATOM     28  C   UNL A   1      33.046  19.893  25.108  1.00  0.00     0.044 A 
ATOM     29  C   UNL A   1      32.459  20.689  24.102  1.00  0.00     0.026 A 
ATOM     30  C   UNL A   1      33.057  18.520  24.845  1.00  0.00     0.065 A 
ATOM     31  C   UNL A   1      32.140  20.172  22.827  1.00  0.00     0.005 A 
ATOM     32  C   UNL A   1      32.777  18.007  23.569  1.00  0.00     0.125 A 
ATOM     33  C   UNL A   1      32.350  18.829  22.541  1.00  0.00     0.039 A 
ATOM     34  F   UNL A   1      32.953  16.699  23.327  1.00  0.00    -0.207 F 
ENDBRANCH  26  28
ENDBRANCH  23  24
ENDBRANCH  14  23
ENDBRANCH   8   9
ENDBRANCH   7   8
ENDBRANCH   5   7
ENDBRANCH   2   3
ENDBRANCH   1   2
BRANCH   1  35
ATOM     35  C   UNL A   1      37.029  21.874  25.294  1.00  0.00     0.002 C 
BRANCH  35  36
ATOM     36  C   UNL A   1      36.653  20.442  24.948  1.00  0.00     0.002 C 
BRANCH  36  37
ATOM     37  C   UNL A   1      37.870  19.526  24.896  1.00  0.00     0.021 C 
BRANCH  37  38
ATOM     38  C   UNL A   1      39.036  19.971  25.773  1.00  0.00     0.116 C 
BRANCH  38  39
ATOM     39  N   UNL A   1      40.166  19.050  25.756  1.00  0.00    -0.352 N 
ATOM     40  C   UNL A   1      41.479  19.338  26.072  1.00  0.00     0.251 C 
ATOM     41  H   UNL A   1      39.971  18.123  25.491  1.00  0.00     0.163 HD
ATOM     42  O   UNL A   1      42.373  18.536  25.973  1.00  0.00    -0.269 OA
BRANCH  40  43
ATOM     43  C   UNL A   1      41.733  20.714  26.538  1.00  0.00     0.039 A 
ATOM     44  C   UNL A   1      42.027  20.929  27.885  1.00  0.00     0.014 A 
ATOM     45  C   UNL A   1      41.884  21.720  25.582  1.00  0.00     0.014 A 
ATOM     46  C   UNL A   1      42.525  22.171  28.275  1.00  0.00     0.010 A 
ATOM     47  C   UNL A   1      42.446  22.928  25.963  1.00  0.00     0.010 A 
ATOM     48  C   UNL A   1      42.763  23.165  27.312  1.00  0.00    -0.014 A 
BRANCH  48  49
ATOM     49  C   UNL A   1      43.284  24.498  27.690  1.00  0.00     0.031 A 
ATOM     50  C   UNL A   1      42.305  25.549  28.131  1.00  0.00     0.074 A 
ATOM     51  C   UNL A   1      44.593  24.783  27.558  1.00  0.00     0.049 A 
ATOM     52  N   UNL A   1      42.505  26.818  28.374  1.00  0.00    -0.248 NA
ATOM     53  C   UNL A   1      40.900  25.125  28.270  1.00  0.00     0.031 C 
ATOM     54  C   UNL A   1      45.626  23.855  27.090  1.00  0.00     0.029 A 
ATOM     55  N   UNL A   1      45.278  25.949  27.791  1.00  0.00    -0.354 N 
ATOM     56  C   UNL A   1      41.250  27.345  28.651  1.00  0.00     0.074 A 
ATOM     57  C   UNL A   1      40.290  26.276  28.500  1.00  0.00     0.031 C 
ATOM     58  C   UNL A   1      46.814  24.484  27.087  1.00  0.00     0.029 A 
ATOM     59  C   UNL A   1      46.624  25.864  27.523  1.00  0.00     0.049 A 
ATOM     60  H   UNL A   1      44.847  26.770  28.119  1.00  0.00     0.167 HD
ATOM     61  C   UNL A   1      40.933  28.604  29.026  1.00  0.00     0.037 A 
ATOM     62  C   UNL A   1      47.586  26.802  27.618  1.00  0.00     0.037 A 
ATOM     63  C   UNL A   1      41.903  29.639  29.247  1.00  0.00     0.049 A 
ATOM     64  C   UNL A   1      47.210  28.181  28.093  1.00  0.00     0.074 A 
ATOM     65  C   UNL A   1      41.702  30.924  29.714  1.00  0.00     0.029 A 
ATOM     66  N   UNL A   1      43.265  29.494  29.030  1.00  0.00    -0.354 N 
ATOM     67  N   UNL A   1      46.030  28.649  28.420  1.00  0.00    -0.248 NA
ATOM     68  C   UNL A   1      48.299  29.161  28.217  1.00  0.00     0.031 C 
ATOM     69  C   UNL A   1      42.943  31.567  29.758  1.00  0.00     0.029 A 
ATOM     70  C   UNL A   1      43.918  30.670  29.350  1.00  0.00     0.049 A 
ATOM     71  H   UNL A   1      43.702  28.676  28.700  1.00  0.00     0.167 HD
ATOM     72  C   UNL A   1      46.240  29.960  28.827  1.00  0.00     0.074 A 
ATOM     73  C   UNL A   1      47.661  30.212  28.710  1.00  0.00     0.031 C 
ATOM     74  C   UNL A   1      45.339  30.876  29.258  1.00  0.00     0.037 A 
BRANCH  61  75
ATOM     75  C   UNL A   1      39.484  28.922  29.238  1.00  0.00     0.057 A 
ATOM     76  C   UNL A   1      38.879  28.810  30.498  1.00  0.00     0.134 A 
ATOM     77  C   UNL A   1      38.690  29.377  28.177  1.00  0.00     0.134 A 
ATOM     78  F   UNL A   1      39.581  28.365  31.550  1.00  0.00    -0.206 F 
ATOM     79  C   UNL A   1      37.533  29.118  30.690  1.00  0.00     0.040 A 
ATOM     80  C   UNL A   1      37.349  29.712  28.363  1.00  0.00     0.040 A 
ATOM     81  F   UNL A   1      39.208  29.506  26.946  1.00  0.00    -0.206 F 
ATOM     82  C   UNL A   1      36.765  29.578  29.621  1.00  0.00     0.006 A 
ENDBRANCH  61  75
BRANCH  62  83
ATOM     83  C   UNL A   1      48.998  26.475  27.294  1.00  0.00     0.057 A 
ATOM     84  C   UNL A   1      49.507  26.683  26.006  1.00  0.00     0.134 A 
ATOM     85  C   UNL A   1      49.860  25.910  28.241  1.00  0.00     0.134 A 
ATOM     86  F   UNL A   1      48.726  27.204  25.048  1.00  0.00    -0.206 F 
ATOM     87  C   UNL A   1      50.809  26.313  25.662  1.00  0.00     0.040 A 
ATOM     88  C   UNL A   1      51.172  25.557  27.918  1.00  0.00     0.040 A 
ATOM     89  F   UNL A   1      49.438  25.692  29.495  1.00  0.00    -0.206 F 
ATOM     90  C   UNL A   1      51.646  25.749  26.621  1.00  0.00     0.006 A 
ENDBRANCH  62  83
BRANCH  74  91
ATOM     91  C   UNL A   1      45.866  32.210  29.688  1.00  0.00     0.057 A 
ATOM     92  C   UNL A   1      46.298  32.446  30.997  1.00  0.00     0.134 A 
ATOM     93  C   UNL A   1      46.009  33.247  28.756  1.00  0.00     0.134 A 
ATOM     94  F   UNL A   1      46.175  31.496  31.935  1.00  0.00    -0.206 F 
ATOM     95  C   UNL A   1      46.843  33.675  31.371  1.00  0.00     0.040 A 
ATOM     96  C   UNL A   1      46.575  34.471  29.112  1.00  0.00     0.040 A 
ATOM     97  F   UNL A   1      45.624  33.077  27.482  1.00  0.00    -0.206 F 
ATOM     98  C   UNL A   1      46.992  34.688  30.423  1.00  0.00     0.006 A 
ENDBRANCH  74  91
ENDBRANCH  48  49
ENDBRANCH  40  43
ENDBRANCH  38  39
ENDBRANCH  37  38
ENDBRANCH  36  37
ENDBRANCH  35  36
ENDBRANCH   1  35
TORSDOF 19
ENDMDL
MODEL 2
REMARK VINA RESULT:     -13.4      0.422      5.898
REMARK SMILES O=C(CC[C@@]1(c2ccccc2)NC(=O)N(CC(=O)Nc2cccc(F)c2)C1=O)NCCCCCCNC(=O)c1ccc(-c2c3nc(c(-c4c(F)cccc4F)c4ccc([nH]4)c(-c4c(F)cccc4F)c4nc(c(-c5c(F)cccc5F)c5ccc2[nH]5)C=C4)C=C3)cc1
REMARK SMILES IDX 31 1 30 2 29 3 1 4 2 5 3 7 4 8 5 9 12 10 27 11 13 12 15 14
REMARK SMILES IDX 28 15 14 16 6 17 7 18 11 19 8 20 10 21 9 22 16 23 17 24
REMARK SMILES IDX 18 25 19 26 20 28 21 29 26 30 22 31 24 32 23 33 25 34 32 35
REMARK SMILES IDX 33 36 34 37 35 38 36 39 37 40 38 42 39 43 40 44 92 45 41 46
REMARK SMILES IDX 91 47 42 48 43 49 44 50 85 51 45 52 90 53 84 54 86 55 46 56
REMARK SMILES IDX 89 57 83 58 82 59 47 61 73 62 56 63 72 64 57 65 60 66 71 67
REMARK SMILES IDX 87 68 58 69 59 70 70 72 88 73 61 74 48 75 49 76 54 77 50 78
REMARK SMILES IDX 51 79 53 80 55 81 52 82 74 83 75 84 80 85 76 86 77 87 79 88
REMARK SMILES IDX 81 89 78 90 62 91 63 92 68 93 64 94 65 95 67 96 69 97 66 98
REMARK H PARENT 29 6 12 13 19 27 36 41 86 60 60 71
REMARK Flexibility Score: inf
ROOT
ATOM      1  C   UNL A   1      36.577  23.181  24.563  1.00  0.00     0.021 C 
ENDROOT
BRANCH   1   2
ATOM      2  C   UNL A   1      35.560  23.012  23.403  1.00  0.00     0.116 C 
BRANCH   2   3
ATOM      3  N   UNL A   1      34.336  23.836  23.120  1.00  0.00    -0.356 N 
ATOM      4  O   UNL A   1      33.391  23.350  21.053  1.00  0.00    -0.275 OA
ATOM      5  C   UNL A   1      33.410  23.956  22.114  1.00  0.00     0.220 C 
ATOM      6  H   UNL A   1      34.146  24.461  23.857  1.00  0.00     0.163 HD
BRANCH   5   7
ATOM      7  C   UNL A   1      32.361  25.041  22.229  1.00  0.00     0.103 C 
BRANCH   7   8
ATOM      8  C   UNL A   1      31.117  24.679  23.031  1.00  0.00     0.053 C 
BRANCH   8   9
ATOM      9  C   UNL A   1      30.970  25.357  24.428  1.00  0.00     0.147 C 
ATOM     10  N   UNL A   1      29.898  24.716  25.134  1.00  0.00    -0.319 N 
ATOM     11  C   UNL A   1      32.133  24.934  25.409  1.00  0.00     0.261 C 
ATOM     12  C   UNL A   1      30.321  24.189  26.321  1.00  0.00     0.325 C 
ATOM     13  H   UNL A   1      28.972  24.663  24.804  1.00  0.00     0.166 HD
ATOM     14  N   UNL A   1      31.655  23.959  26.272  1.00  0.00    -0.252 N 
ATOM     15  O   UNL A   1      33.283  25.345  25.348  1.00  0.00    -0.271 OA
ATOM     16  O   UNL A   1      29.512  24.094  27.228  1.00  0.00    -0.248 OA
BRANCH   9  17
ATOM     17  C   UNL A   1      30.608  26.853  24.311  1.00  0.00    -0.013 A 
ATOM     18  C   UNL A   1      29.611  27.307  23.407  1.00  0.00     0.007 A 
ATOM     19  C   UNL A   1      31.347  27.842  24.977  1.00  0.00     0.007 A 
ATOM     20  C   UNL A   1      29.424  28.660  23.122  1.00  0.00     0.000 A 
ATOM     21  C   UNL A   1      31.152  29.204  24.696  1.00  0.00     0.000 A 
ATOM     22  C   UNL A   1      30.205  29.611  23.760  1.00  0.00     0.000 A 
ENDBRANCH   9  17
BRANCH  14  23
ATOM     23  C   UNL A   1      32.488  23.027  27.130  1.00  0.00     0.230 C 
BRANCH  23  24
ATOM     24  C   UNL A   1      33.494  21.651  27.016  1.00  0.00     0.244 C 
ATOM     25  O   UNL A   1      34.256  21.551  28.016  1.00  0.00    -0.273 OA
ATOM     26  N   UNL A   1      33.511  20.434  26.344  1.00  0.00    -0.324 N 
ATOM     27  H   UNL A   1      33.992  19.792  26.914  1.00  0.00     0.170 HD
BRANCH  26  28
ATOM     28  C   UNL A   1      33.112  19.731  25.153  1.00  0.00     0.044 A 
ATOM     29  C   UNL A   1      32.445  20.479  24.160  1.00  0.00     0.026 A 
ATOM     30  C   UNL A   1      33.197  18.359  24.903  1.00  0.00     0.065 A 
ATOM     31  C   UNL A   1      32.114  19.930  22.902  1.00  0.00     0.005 A 
ATOM     32  C   UNL A   1      32.905  17.815  23.643  1.00  0.00     0.125 A 
ATOM     33  C   UNL A   1      32.395  18.598  22.623  1.00  0.00     0.039 A 
ATOM     34  F   UNL A   1      33.152  16.517  23.407  1.00  0.00    -0.207 F 
ENDBRANCH  26  28
ENDBRANCH  23  24
ENDBRANCH  14  23
ENDBRANCH   8   9
ENDBRANCH   7   8
ENDBRANCH   5   7
ENDBRANCH   2   3
ENDBRANCH   1   2
BRANCH   1  35
ATOM     35  C   UNL A   1      36.884  22.179  25.689  1.00  0.00     0.002 C 
BRANCH  35  36
ATOM     36  C   UNL A   1      36.858  20.706  25.313  1.00  0.00     0.002 C 
BRANCH  36  37
ATOM     37  C   UNL A   1      38.216  20.214  24.825  1.00  0.00     0.021 C 
BRANCH  37  38
ATOM     38  C   UNL A   1      39.341  20.345  25.847  1.00  0.00     0.116 C 
BRANCH  38  39
ATOM     39  N   UNL A   1      40.218  19.183  25.902  1.00  0.00    -0.352 N 
ATOM     40  C   UNL A   1      41.577  19.177  26.152  1.00  0.00     0.251 C 
ATOM     41  H   UNL A   1      39.797  18.307  25.745  1.00  0.00     0.163 HD
ATOM     42  O   UNL A   1      42.251  18.178  26.118  1.00  0.00    -0.269 OA
BRANCH  40  43
ATOM     43  C   UNL A   1      42.172  20.492  26.458  1.00  0.00     0.039 A 
ATOM     44  C   UNL A   1      42.497  21.348  25.406  1.00  0.00     0.014 A 
ATOM     45  C   UNL A   1      42.188  20.919  27.787  1.00  0.00     0.014 A 
ATOM     46  C   UNL A   1      42.804  22.678  25.691  1.00  0.00     0.010 A 
ATOM     47  C   UNL A   1      42.424  22.257  28.058  1.00  0.00     0.010 A 
ATOM     48  C   UNL A   1      42.741  23.144  27.014  1.00  0.00    -0.014 A 
BRANCH  48  49
ATOM     49  C   UNL A   1      43.067  24.547  27.355  1.00  0.00     0.031 A 
ATOM     50  C   UNL A   1      44.507  24.976  27.311  1.00  0.00     0.074 A 
ATOM     51  C   UNL A   1      42.106  25.389  27.777  1.00  0.00     0.049 A 
ATOM     52  N   UNL A   1      45.048  26.101  27.699  1.00  0.00    -0.248 NA
ATOM     53  C   UNL A   1      45.475  23.986  26.806  1.00  0.00     0.031 C 
ATOM     54  C   UNL A   1      40.684  25.064  27.909  1.00  0.00     0.029 A 
ATOM     55  N   UNL A   1      42.186  26.694  28.193  1.00  0.00    -0.354 N 
ATOM     56  C   UNL A   1      46.416  25.935  27.523  1.00  0.00     0.074 A 
ATOM     57  C   UNL A   1      46.629  24.589  27.043  1.00  0.00     0.031 C 
ATOM     58  C   UNL A   1      40.025  26.147  28.357  1.00  0.00     0.029 A 
ATOM     59  C   UNL A   1      40.979  27.230  28.573  1.00  0.00     0.049 A 
ATOM     60  H   UNL A   1      43.030  27.200  28.218  1.00  0.00     0.167 HD
ATOM     61  C   UNL A   1      47.403  26.836  27.721  1.00  0.00     0.037 A 
ATOM     62  C   UNL A   1      40.686  28.458  29.044  1.00  0.00     0.037 A 
ATOM     63  C   UNL A   1      47.174  28.194  28.126  1.00  0.00     0.049 A 
ATOM     64  C   UNL A   1      41.800  29.459  29.200  1.00  0.00     0.074 A 
ATOM     65  C   UNL A   1      48.091  29.218  28.270  1.00  0.00     0.029 A 
ATOM     66  N   UNL A   1      45.928  28.719  28.436  1.00  0.00    -0.354 N 
ATOM     67  N   UNL A   1      43.082  29.313  28.964  1.00  0.00    -0.248 NA
ATOM     68  C   UNL A   1      41.429  30.798  29.681  1.00  0.00     0.031 C 
ATOM     69  C   UNL A   1      47.402  30.360  28.690  1.00  0.00     0.029 A 
ATOM     70  C   UNL A   1      46.053  30.053  28.775  1.00  0.00     0.049 A 
ATOM     71  H   UNL A   1      45.081  28.217  28.415  1.00  0.00     0.167 HD
ATOM     72  C   UNL A   1      43.662  30.547  29.228  1.00  0.00     0.074 A 
ATOM     73  C   UNL A   1      42.591  31.432  29.637  1.00  0.00     0.031 C 
ATOM     74  C   UNL A   1      44.962  30.917  29.142  1.00  0.00     0.037 A 
BRANCH  61  75
ATOM     75  C   UNL A   1      48.813  26.387  27.482  1.00  0.00     0.057 A 
ATOM     76  C   UNL A   1      49.607  25.868  28.514  1.00  0.00     0.134 A 
ATOM     77  C   UNL A   1      49.372  26.443  26.200  1.00  0.00     0.134 A 
ATOM     78  F   UNL A   1      49.135  25.803  29.767  1.00  0.00    -0.206 F 
ATOM     79  C   UNL A   1      50.915  25.442  28.283  1.00  0.00     0.040 A 
ATOM     80  C   UNL A   1      50.671  25.995  25.951  1.00  0.00     0.040 A 
ATOM     81  F   UNL A   1      48.665  26.929  25.169  1.00  0.00    -0.206 F 
ATOM     82  C   UNL A   1      51.448  25.498  26.995  1.00  0.00     0.006 A 
ENDBRANCH  61  75
BRANCH  62  83
ATOM     83  C   UNL A   1      39.287  28.830  29.372  1.00  0.00     0.057 A 
ATOM     84  C   UNL A   1      38.762  28.600  30.650  1.00  0.00     0.134 A 
ATOM     85  C   UNL A   1      38.427  29.382  28.415  1.00  0.00     0.134 A 
ATOM     86  F   UNL A   1      39.529  28.057  31.607  1.00  0.00    -0.206 F 
ATOM     87  C   UNL A   1      37.427  28.875  30.956  1.00  0.00     0.040 A 
ATOM     88  C   UNL A   1      37.096  29.684  28.714  1.00  0.00     0.040 A 
ATOM     89  F   UNL A   1      38.869  29.635  27.174  1.00  0.00    -0.206 F 
ATOM     90  C   UNL A   1      36.591  29.420  29.986  1.00  0.00     0.006 A 
ENDBRANCH  62  83
BRANCH  74  91
ATOM     91  C   UNL A   1      45.292  32.347  29.439  1.00  0.00     0.057 A 
ATOM     92  C   UNL A   1      45.213  33.342  28.458  1.00  0.00     0.134 A 
ATOM     93  C   UNL A   1      45.622  32.739  30.743  1.00  0.00     0.134 A 
ATOM     94  F   UNL A   1      44.912  33.024  27.191  1.00  0.00    -0.206 F 
ATOM     95  C   UNL A   1      45.464  34.681  28.761  1.00  0.00     0.040 A 
ATOM     96  C   UNL A   1      45.851  34.078  31.063  1.00  0.00     0.040 A 
ATOM     97  F   UNL A   1      45.703  31.833  31.728  1.00  0.00    -0.206 F 
ATOM     98  C   UNL A   1      45.774  35.052  30.069  1.00  0.00     0.006 A 
ENDBRANCH  74  91
ENDBRANCH  48  49
ENDBRANCH  40  43
ENDBRANCH  38  39
ENDBRANCH  37  38
ENDBRANCH  36  37
ENDBRANCH  35  36
ENDBRANCH   1  35
TORSDOF 19
ENDMDL
MODEL 3
REMARK VINA RESULT:     -13.3      1.235      2.247
REMARK SMILES O=C(CC[C@@]1(c2ccccc2)NC(=O)N(CC(=O)Nc2cccc(F)c2)C1=O)NCCCCCCNC(=O)c1ccc(-c2c3nc(c(-c4c(F)cccc4F)c4ccc([nH]4)c(-c4c(F)cccc4F)c4nc(c(-c5c(F)cccc5F)c5ccc2[nH]5)C=C4)C=C3)cc1
REMARK SMILES IDX 31 1 30 2 29 3 1 4 2 5 3 7 4 8 5 9 12 10 27 11 13 12 15 14
REMARK SMILES IDX 28 15 14 16 6 17 7 18 11 19 8 20 10 21 9 22 16 23 17 24
REMARK SMILES IDX 18 25 19 26 20 28 21 29 26 30 22 31 24 32 23 33 25 34 32 35
REMARK SMILES IDX 33 36 34 37 35 38 36 39 37 40 38 42 39 43 40 44 92 45 41 46
REMARK SMILES IDX 91 47 42 48 43 49 44 50 85 51 45 52 90 53 84 54 86 55 46 56
REMARK SMILES IDX 89 57 83 58 82 59 47 61 73 62 56 63 72 64 57 65 60 66 71 67
REMARK SMILES IDX 87 68 58 69 59 70 70 72 88 73 61 74 48 75 49 76 54 77 50 78
REMARK SMILES IDX 51 79 53 80 55 81 52 82 74 83 75 84 80 85 76 86 77 87 79 88
REMARK SMILES IDX 81 89 78 90 62 91 63 92 68 93 64 94 65 95 67 96 69 97 66 98
REMARK H PARENT 29 6 12 13 19 27 36 41 86 60 60 71
REMARK Flexibility Score: inf
ROOT
ATOM      1  C   UNL A   1      35.467  22.763  24.714  1.00  0.00     0.021 C 
ENDROOT
BRANCH   1   2
ATOM      2  C   UNL A   1      35.616  24.088  25.507  1.00  0.00     0.116 C 
BRANCH   2   3
ATOM      3  N   UNL A   1      34.669  25.254  25.544  1.00  0.00    -0.356 N 
ATOM      4  O   UNL A   1      33.974  25.905  23.422  1.00  0.00    -0.275 OA
ATOM      5  C   UNL A   1      33.962  26.009  24.640  1.00  0.00     0.220 C 
ATOM      6  H   UNL A   1      34.512  25.560  26.466  1.00  0.00     0.163 HD
BRANCH   5   7
ATOM      7  C   UNL A   1      33.181  27.199  25.155  1.00  0.00     0.103 C 
BRANCH   7   8
ATOM      8  C   UNL A   1      32.154  27.784  24.193  1.00  0.00     0.053 C 
BRANCH   8   9
ATOM      9  C   UNL A   1      30.781  27.049  24.112  1.00  0.00     0.147 C 
ATOM     10  N   UNL A   1      30.904  25.955  23.192  1.00  0.00    -0.319 N 
ATOM     11  C   UNL A   1      30.500  26.188  25.406  1.00  0.00     0.261 C 
ATOM     12  C   UNL A   1      30.605  24.761  23.786  1.00  0.00     0.325 C 
ATOM     13  H   UNL A   1      31.170  26.053  22.249  1.00  0.00     0.166 HD
ATOM     14  N   UNL A   1      30.780  24.859  25.125  1.00  0.00    -0.252 N 
ATOM     15  O   UNL A   1      30.174  26.645  26.492  1.00  0.00    -0.271 OA
ATOM     16  O   UNL A   1      30.163  23.867  23.085  1.00  0.00    -0.248 OA
BRANCH   9  17
ATOM     17  C   UNL A   1      29.662  27.969  23.578  1.00  0.00    -0.013 A 
ATOM     18  C   UNL A   1      29.906  29.334  23.271  1.00  0.00     0.007 A 
ATOM     19  C   UNL A   1      28.327  27.542  23.515  1.00  0.00     0.007 A 
ATOM     20  C   UNL A   1      28.874  30.235  23.004  1.00  0.00     0.000 A 
ATOM     21  C   UNL A   1      27.289  28.447  23.239  1.00  0.00     0.000 A 
ATOM     22  C   UNL A   1      27.560  29.792  23.000  1.00  0.00     0.000 A 
ENDBRANCH   9  17
BRANCH  14  23
ATOM     23  C   UNL A   1      30.991  23.749  26.136  1.00  0.00     0.230 C 
BRANCH  23  24
ATOM     24  C   UNL A   1      32.124  22.554  26.590  1.00  0.00     0.244 C 
ATOM     25  O   UNL A   1      32.554  22.745  27.760  1.00  0.00    -0.273 OA
ATOM     26  N   UNL A   1      32.472  21.262  26.212  1.00  0.00    -0.324 N 
ATOM     27  H   UNL A   1      32.823  20.809  27.012  1.00  0.00     0.170 HD
BRANCH  26  28
ATOM     28  C   UNL A   1      32.528  20.318  25.127  1.00  0.00     0.044 A 
ATOM     29  C   UNL A   1      32.861  18.986  25.453  1.00  0.00     0.026 A 
ATOM     30  C   UNL A   1      32.408  20.581  23.760  1.00  0.00     0.065 A 
ATOM     31  C   UNL A   1      32.827  17.949  24.495  1.00  0.00     0.005 A 
ATOM     32  C   UNL A   1      32.336  19.550  22.810  1.00  0.00     0.125 A 
ATOM     33  C   UNL A   1      32.510  18.226  23.171  1.00  0.00     0.039 A 
ATOM     34  F   UNL A   1      32.065  19.847  21.529  1.00  0.00    -0.207 F 
ENDBRANCH  26  28
ENDBRANCH  23  24
ENDBRANCH  14  23
ENDBRANCH   8   9
ENDBRANCH   7   8
ENDBRANCH   5   7
ENDBRANCH   2   3
ENDBRANCH   1   2
BRANCH   1  35
ATOM     35  C   UNL A   1      36.574  21.751  24.371  1.00  0.00     0.002 C 
BRANCH  35  36
ATOM     36  C   UNL A   1      36.441  20.366  24.984  1.00  0.00     0.002 C 
BRANCH  36  37
ATOM     37  C   UNL A   1      37.725  19.554  24.852  1.00  0.00     0.021 C 
BRANCH  37  38
ATOM     38  C   UNL A   1      38.901  20.095  25.658  1.00  0.00     0.116 C 
BRANCH  38  39
ATOM     39  N   UNL A   1      40.039  19.186  25.713  1.00  0.00    -0.352 N 
ATOM     40  C   UNL A   1      41.319  19.480  26.143  1.00  0.00     0.251 C 
ATOM     41  H   UNL A   1      39.878  18.263  25.412  1.00  0.00     0.163 HD
ATOM     42  O   UNL A   1      42.228  18.689  26.098  1.00  0.00    -0.269 OA
BRANCH  40  43
ATOM     43  C   UNL A   1      41.517  20.847  26.659  1.00  0.00     0.039 A 
ATOM     44  C   UNL A   1      41.616  21.041  28.037  1.00  0.00     0.014 A 
ATOM     45  C   UNL A   1      41.814  21.863  25.749  1.00  0.00     0.014 A 
ATOM     46  C   UNL A   1      42.066  22.272  28.512  1.00  0.00     0.010 A 
ATOM     47  C   UNL A   1      42.328  23.059  26.224  1.00  0.00     0.010 A 
ATOM     48  C   UNL A   1      42.451  23.275  27.607  1.00  0.00    -0.014 A 
BRANCH  48  49
ATOM     49  C   UNL A   1      42.925  24.597  28.075  1.00  0.00     0.031 A 
ATOM     50  C   UNL A   1      41.904  25.660  28.369  1.00  0.00     0.074 A 
ATOM     51  C   UNL A   1      44.243  24.863  28.150  1.00  0.00     0.049 A 
ATOM     52  N   UNL A   1      42.082  26.923  28.654  1.00  0.00    -0.248 NA
ATOM     53  C   UNL A   1      40.489  25.255  28.286  1.00  0.00     0.031 C 
ATOM     54  C   UNL A   1      45.322  23.923  27.838  1.00  0.00     0.029 A 
ATOM     55  N   UNL A   1      44.899  26.016  28.497  1.00  0.00    -0.354 N 
ATOM     56  C   UNL A   1      40.807  27.467  28.739  1.00  0.00     0.074 A 
ATOM     57  C   UNL A   1      39.867  26.414  28.430  1.00  0.00     0.031 C 
ATOM     58  C   UNL A   1      46.505  24.534  28.025  1.00  0.00     0.029 A 
ATOM     59  C   UNL A   1      46.269  25.913  28.440  1.00  0.00     0.049 A 
ATOM     60  H   UNL A   1      44.434  26.841  28.764  1.00  0.00     0.167 HD
ATOM     61  C   UNL A   1      40.452  28.728  29.073  1.00  0.00     0.037 A 
ATOM     62  C   UNL A   1      47.218  26.835  28.693  1.00  0.00     0.037 A 
ATOM     63  C   UNL A   1      41.391  29.746  29.452  1.00  0.00     0.049 A 
ATOM     64  C   UNL A   1      46.793  28.216  29.117  1.00  0.00     0.074 A 
ATOM     65  C   UNL A   1      41.139  31.031  29.896  1.00  0.00     0.029 A 
ATOM     66  N   UNL A   1      42.768  29.582  29.447  1.00  0.00    -0.354 N 
ATOM     67  N   UNL A   1      45.582  28.699  29.263  1.00  0.00    -0.248 NA
ATOM     68  C   UNL A   1      47.862  29.178  29.419  1.00  0.00     0.031 C 
ATOM     69  C   UNL A   1      42.367  31.654  30.137  1.00  0.00     0.029 A 
ATOM     70  C   UNL A   1      43.380  30.745  29.876  1.00  0.00     0.049 A 
ATOM     71  H   UNL A   1      43.240  28.760  29.179  1.00  0.00     0.167 HD
ATOM     72  C   UNL A   1      45.745  30.004  29.711  1.00  0.00     0.074 A 
ATOM     73  C   UNL A   1      47.170  30.235  29.817  1.00  0.00     0.031 C 
ATOM     74  C   UNL A   1      44.801  30.931  30.007  1.00  0.00     0.037 A 
BRANCH  61  75
ATOM     75  C   UNL A   1      38.993  29.066  29.061  1.00  0.00     0.057 A 
ATOM     76  C   UNL A   1      38.337  29.467  27.890  1.00  0.00     0.134 A 
ATOM     77  C   UNL A   1      38.226  28.960  30.229  1.00  0.00     0.134 A 
ATOM     78  F   UNL A   1      39.018  29.604  26.743  1.00  0.00    -0.206 F 
ATOM     79  C   UNL A   1      36.975  29.770  27.884  1.00  0.00     0.040 A 
ATOM     80  C   UNL A   1      36.858  29.235  30.230  1.00  0.00     0.040 A 
ATOM     81  F   UNL A   1      38.794  28.581  31.384  1.00  0.00    -0.206 F 
ATOM     82  C   UNL A   1      36.230  29.647  29.056  1.00  0.00     0.006 A 
ENDBRANCH  61  75
BRANCH  62  83
ATOM     83  C   UNL A   1      48.658  26.489  28.587  1.00  0.00     0.057 A 
ATOM     84  C   UNL A   1      49.341  25.912  29.665  1.00  0.00     0.134 A 
ATOM     85  C   UNL A   1      49.398  26.761  27.431  1.00  0.00     0.134 A 
ATOM     86  F   UNL A   1      48.692  25.643  30.808  1.00  0.00    -0.206 F 
ATOM     87  C   UNL A   1      50.711  25.648  29.610  1.00  0.00     0.040 A 
ATOM     88  C   UNL A   1      50.765  26.481  27.353  1.00  0.00     0.040 A 
ATOM     89  F   UNL A   1      48.804  27.305  26.359  1.00  0.00    -0.206 F 
ATOM     90  C   UNL A   1      51.427  25.932  28.450  1.00  0.00     0.006 A 
ENDBRANCH  62  83
BRANCH  74  91
ATOM     91  C   UNL A   1      45.274  32.253  30.526  1.00  0.00     0.057 A 
ATOM     92  C   UNL A   1      45.518  33.335  29.675  1.00  0.00     0.134 A 
ATOM     93  C   UNL A   1      45.414  32.460  31.905  1.00  0.00     0.134 A 
ATOM     94  F   UNL A   1      45.411  33.193  28.346  1.00  0.00    -0.206 F 
ATOM     95  C   UNL A   1      45.901  34.580  30.176  1.00  0.00     0.040 A 
ATOM     96  C   UNL A   1      45.773  33.706  32.419  1.00  0.00     0.040 A 
ATOM     97  F   UNL A   1      45.184  31.463  32.772  1.00  0.00    -0.206 F 
ATOM     98  C   UNL A   1      46.019  34.770  31.553  1.00  0.00     0.006 A 
ENDBRANCH  74  91
ENDBRANCH  48  49
ENDBRANCH  40  43
ENDBRANCH  38  39
ENDBRANCH  37  38
ENDBRANCH  36  37
ENDBRANCH  35  36
ENDBRANCH   1  35
TORSDOF 19
ENDMDL
