MODEL 1
REMARK VINA RESULT:     -11.9      0.000      0.000
REMARK SMILES O=C(CSc1ccc(Cl)cc1)Nc1cccc(C(=O)Nc2ccc(C(=O)NCCCCCCNC(=O)c3ccc(-c4c5nc(c(-c6c(F)cccc6F)c6ccc([nH]6)c(-c6c(F)cccc6F)c6nc(c(-c7c(F)cccc7F)c7ccc4[nH]7)C=C6)C=C5)cc3)cc2)c1
REMARK SMILES IDX 28 1 27 2 25 3 26 4 24 6 21 7 22 8 92 9 23 10 91 11 20 12
REMARK SMILES IDX 18 13 19 14 17 16 13 17 14 18 93 19 15 20 16 21 12 22 1 23
REMARK SMILES IDX 2 24 3 26 4 27 5 28 6 29 11 30 7 31 10 32 8 33 9 34 29 35
REMARK SMILES IDX 30 36 31 37 32 38 33 39 34 40 35 41 36 43 37 44 38 45 90 46
REMARK SMILES IDX 39 47 89 48 40 49 41 50 42 51 83 52 43 53 88 54 82 55 84 56
REMARK SMILES IDX 44 57 87 58 81 59 80 60 45 62 71 63 54 64 70 65 55 66 58 67
REMARK SMILES IDX 69 68 85 69 56 70 57 71 68 73 86 74 59 75 46 76 47 77 52 78
REMARK SMILES IDX 48 79 49 80 51 81 53 82 50 83 72 84 73 85 78 86 74 87 75 88
REMARK SMILES IDX 77 89 79 90 76 91 60 92 61 93 66 94 62 95 63 96 65 97 67 98
REMARK SMILES IDX 64 99
REMARK H PARENT 27 5 20 15 12 25 34 42 84 61 58 72
REMARK Flexibility Score: inf
ROOT
ATOM      1  C   UNL A   1      31.170  28.475  23.740  1.00  0.00     0.116 C 
ENDROOT
BRANCH   1   2
ATOM      2  N   UNL A   1      29.874  27.822  23.765  1.00  0.00    -0.352 N 
ATOM      3  C   UNL A   1      29.456  26.542  24.029  1.00  0.00     0.251 C 
ATOM      4  O   UNL A   1      28.245  26.324  23.948  1.00  0.00    -0.269 OA
ATOM      5  H   UNL A   1      29.132  28.430  23.542  1.00  0.00     0.163 HD
BRANCH   3   6
ATOM      6  C   UNL A   1      30.362  25.450  24.488  1.00  0.00     0.039 A 
ATOM      7  C   UNL A   1      31.609  23.082  25.310  1.00  0.00     0.041 A 
ATOM      8  C   UNL A   1      31.302  23.262  23.963  1.00  0.00     0.027 A 
ATOM      9  C   UNL A   1      31.475  24.148  26.199  1.00  0.00     0.027 A 
ATOM     10  C   UNL A   1      30.641  24.428  23.565  1.00  0.00     0.016 A 
ATOM     11  C   UNL A   1      30.899  25.350  25.771  1.00  0.00     0.016 A 
BRANCH   7  12
ATOM     12  N   UNL A   1      31.953  21.792  25.740  1.00  0.00    -0.322 N 
ATOM     13  C   UNL A   1      33.100  21.061  25.474  1.00  0.00     0.255 C 
ATOM     14  O   UNL A   1      33.118  19.857  25.734  1.00  0.00    -0.269 OA
ATOM     15  H   UNL A   1      31.287  21.344  26.310  1.00  0.00     0.170 HD
BRANCH  13  16
ATOM     16  C   UNL A   1      34.364  21.710  24.996  1.00  0.00     0.042 A 
ATOM     17  C   UNL A   1      36.715  22.313  25.313  1.00  0.00     0.041 A 
ATOM     18  C   UNL A   1      36.698  22.971  24.081  1.00  0.00     0.026 A 
ATOM     19  C   UNL A   1      35.565  21.633  25.716  1.00  0.00     0.040 A 
ATOM     20  C   UNL A   1      35.546  22.954  23.285  1.00  0.00     0.003 A 
ATOM     21  C   UNL A   1      34.377  22.342  23.748  1.00  0.00     0.014 A 
BRANCH  17  22
ATOM     22  N   UNL A   1      37.883  22.387  26.107  1.00  0.00    -0.325 N 
ATOM     23  O   UNL A   1      39.072  20.528  25.372  1.00  0.00    -0.274 OA
ATOM     24  C   UNL A   1      38.948  21.500  26.114  1.00  0.00     0.234 C 
ATOM     25  H   UNL A   1      37.947  23.154  26.722  1.00  0.00     0.169 HD
BRANCH  24  26
ATOM     26  C   UNL A   1      40.039  21.771  27.141  1.00  0.00     0.175 C 
BRANCH  26  27
ATOM     27  S   UNL A   1      41.717  21.484  26.523  1.00  0.00    -0.116 SA
BRANCH  27  28
ATOM     28  C   UNL A   1      42.575  22.933  27.117  1.00  0.00     0.008 A 
ATOM     29  C   UNL A   1      42.500  23.420  28.428  1.00  0.00     0.016 A 
ATOM     30  C   UNL A   1      43.398  23.594  26.199  1.00  0.00     0.016 A 
ATOM     31  C   UNL A   1      43.241  24.536  28.818  1.00  0.00     0.021 A 
ATOM     32  C   UNL A   1      44.137  24.714  26.586  1.00  0.00     0.021 A 
ATOM     33  C   UNL A   1      44.060  25.176  27.897  1.00  0.00     0.041 A 
ATOM     34  Cl  UNL A   1      44.986  26.539  28.384  1.00  0.00    -0.084 Cl
ENDBRANCH  27  28
ENDBRANCH  26  27
ENDBRANCH  24  26
ENDBRANCH  17  22
ENDBRANCH  13  16
ENDBRANCH   7  12
ENDBRANCH   3   6
ENDBRANCH   1   2
BRANCH   1  35
ATOM     35  C   UNL A   1      31.709  28.642  25.155  1.00  0.00     0.021 C 
BRANCH  35  36
ATOM     36  C   UNL A   1      32.127  30.088  25.470  1.00  0.00     0.002 C 
BRANCH  36  37
ATOM     37  C   UNL A   1      31.653  30.633  26.826  1.00  0.00     0.002 C 
BRANCH  37  38
ATOM     38  C   UNL A   1      31.435  32.146  26.876  1.00  0.00     0.021 C 
BRANCH  38  39
ATOM     39  C   UNL A   1      32.707  32.956  27.081  1.00  0.00     0.116 C 
BRANCH  39  40
ATOM     40  N   UNL A   1      32.432  34.275  27.626  1.00  0.00    -0.352 N 
ATOM     41  C   UNL A   1      33.000  34.901  28.707  1.00  0.00     0.251 C 
ATOM     42  H   UNL A   1      31.739  34.791  27.154  1.00  0.00     0.163 HD
ATOM     43  O   UNL A   1      32.514  35.934  29.151  1.00  0.00    -0.269 OA
BRANCH  41  44
ATOM     44  C   UNL A   1      34.194  34.308  29.345  1.00  0.00     0.039 A 
ATOM     45  C   UNL A   1      34.031  33.556  30.511  1.00  0.00     0.014 A 
ATOM     46  C   UNL A   1      35.465  34.492  28.794  1.00  0.00     0.014 A 
ATOM     47  C   UNL A   1      35.139  32.941  31.093  1.00  0.00     0.010 A 
ATOM     48  C   UNL A   1      36.554  33.813  29.329  1.00  0.00     0.010 A 
ATOM     49  C   UNL A   1      36.404  33.037  30.489  1.00  0.00    -0.014 A 
BRANCH  49  50
ATOM     50  C   UNL A   1      37.580  32.334  31.056  1.00  0.00     0.031 A 
ATOM     51  C   UNL A   1      38.241  32.852  32.303  1.00  0.00     0.074 A 
ATOM     52  C   UNL A   1      38.092  31.267  30.412  1.00  0.00     0.049 A 
ATOM     53  N   UNL A   1      39.313  32.414  32.914  1.00  0.00    -0.248 NA
ATOM     54  C   UNL A   1      37.633  34.035  32.933  1.00  0.00     0.031 C 
ATOM     55  C   UNL A   1      37.570  30.701  29.167  1.00  0.00     0.029 A 
ATOM     56  N   UNL A   1      39.174  30.478  30.708  1.00  0.00    -0.354 N 
ATOM     57  C   UNL A   1      39.514  33.274  33.987  1.00  0.00     0.074 A 
ATOM     58  C   UNL A   1      38.488  34.292  33.910  1.00  0.00     0.031 C 
ATOM     59  C   UNL A   1      38.318  29.641  28.819  1.00  0.00     0.029 A 
ATOM     60  C   UNL A   1      39.396  29.481  29.789  1.00  0.00     0.049 A 
ATOM     61  H   UNL A   1      39.738  30.611  31.504  1.00  0.00     0.167 HD
ATOM     62  C   UNL A   1      40.454  33.209  34.958  1.00  0.00     0.037 A 
ATOM     63  C   UNL A   1      40.367  28.549  29.728  1.00  0.00     0.037 A 
ATOM     64  C   UNL A   1      41.461  32.183  35.038  1.00  0.00     0.049 A 
ATOM     65  C   UNL A   1      41.408  28.505  30.813  1.00  0.00     0.074 A 
ATOM     66  C   UNL A   1      42.419  31.990  36.018  1.00  0.00     0.029 A 
ATOM     67  N   UNL A   1      41.645  31.182  34.096  1.00  0.00    -0.354 N 
ATOM     68  N   UNL A   1      41.541  29.278  31.864  1.00  0.00    -0.248 NA
ATOM     69  C   UNL A   1      42.430  27.455  30.707  1.00  0.00     0.031 C 
ATOM     70  C   UNL A   1      43.220  30.909  35.639  1.00  0.00     0.029 A 
ATOM     71  C   UNL A   1      42.722  30.388  34.455  1.00  0.00     0.049 A 
ATOM     72  H   UNL A   1      41.093  31.055  33.291  1.00  0.00     0.167 HD
ATOM     73  C   UNL A   1      42.641  28.791  32.559  1.00  0.00     0.074 A 
ATOM     74  C   UNL A   1      43.128  27.647  31.817  1.00  0.00     0.031 C 
ATOM     75  C   UNL A   1      43.195  29.249  33.708  1.00  0.00     0.037 A 
BRANCH  62  76
ATOM     76  C   UNL A   1      40.441  34.281  36.011  1.00  0.00     0.057 A 
ATOM     77  C   UNL A   1      39.683  34.163  37.184  1.00  0.00     0.134 A 
ATOM     78  C   UNL A   1      41.220  35.435  35.864  1.00  0.00     0.134 A 
ATOM     79  F   UNL A   1      38.905  33.088  37.385  1.00  0.00    -0.206 F 
ATOM     80  C   UNL A   1      39.677  35.165  38.156  1.00  0.00     0.040 A 
ATOM     81  C   UNL A   1      41.247  36.430  36.843  1.00  0.00     0.040 A 
ATOM     82  F   UNL A   1      41.976  35.613  34.769  1.00  0.00    -0.206 F 
ATOM     83  C   UNL A   1      40.467  36.300  37.989  1.00  0.00     0.006 A 
ENDBRANCH  62  76
BRANCH  63  84
ATOM     84  C   UNL A   1      40.394  27.577  28.606  1.00  0.00     0.057 A 
ATOM     85  C   UNL A   1      41.159  27.816  27.459  1.00  0.00     0.134 A 
ATOM     86  C   UNL A   1      39.653  26.389  28.650  1.00  0.00     0.134 A 
ATOM     87  F   UNL A   1      41.878  28.943  27.349  1.00  0.00    -0.206 F 
ATOM     88  C   UNL A   1      41.171  26.921  26.387  1.00  0.00     0.040 A 
ATOM     89  C   UNL A   1      39.677  25.473  27.598  1.00  0.00     0.040 A 
ATOM     90  F   UNL A   1      38.907  26.095  29.725  1.00  0.00    -0.206 F 
ATOM     91  C   UNL A   1      40.431  25.743  26.458  1.00  0.00     0.006 A 
ENDBRANCH  63  84
BRANCH  75  92
ATOM     92  C   UNL A   1      44.371  28.492  34.255  1.00  0.00     0.057 A 
ATOM     93  C   UNL A   1      44.216  27.403  35.121  1.00  0.00     0.134 A 
ATOM     94  C   UNL A   1      45.676  28.834  33.874  1.00  0.00     0.134 A 
ATOM     95  F   UNL A   1      42.995  27.031  35.534  1.00  0.00    -0.206 F 
ATOM     96  C   UNL A   1      45.316  26.696  35.607  1.00  0.00     0.040 A 
ATOM     97  C   UNL A   1      46.782  28.116  34.329  1.00  0.00     0.040 A 
ATOM     98  F   UNL A   1      45.896  29.861  33.040  1.00  0.00    -0.206 F 
ATOM     99  C   UNL A   1      46.604  27.046  35.205  1.00  0.00     0.006 A 
ENDBRANCH  75  92
ENDBRANCH  49  50
ENDBRANCH  41  44
ENDBRANCH  39  40
ENDBRANCH  38  39
ENDBRANCH  37  38
ENDBRANCH  36  37
ENDBRANCH  35  36
ENDBRANCH   1  35
TORSDOF 19
ENDMDL
MODEL 2
REMARK VINA RESULT:     -11.9      1.482      2.076
REMARK SMILES O=C(CSc1ccc(Cl)cc1)Nc1cccc(C(=O)Nc2ccc(C(=O)NCCCCCCNC(=O)c3ccc(-c4c5nc(c(-c6c(F)cccc6F)c6ccc([nH]6)c(-c6c(F)cccc6F)c6nc(c(-c7c(F)cccc7F)c7ccc4[nH]7)C=C6)C=C5)cc3)cc2)c1
REMARK SMILES IDX 28 1 27 2 25 3 26 4 24 6 21 7 22 8 92 9 23 10 91 11 20 12
REMARK SMILES IDX 18 13 19 14 17 16 13 17 14 18 93 19 15 20 16 21 12 22 1 23
REMARK SMILES IDX 2 24 3 26 4 27 5 28 6 29 11 30 7 31 10 32 8 33 9 34 29 35
REMARK SMILES IDX 30 36 31 37 32 38 33 39 34 40 35 41 36 43 37 44 38 45 90 46
REMARK SMILES IDX 39 47 89 48 40 49 41 50 42 51 83 52 43 53 88 54 82 55 84 56
REMARK SMILES IDX 44 57 87 58 81 59 80 60 45 62 71 63 54 64 70 65 55 66 58 67
REMARK SMILES IDX 69 68 85 69 56 70 57 71 68 73 86 74 59 75 46 76 47 77 52 78
REMARK SMILES IDX 48 79 49 80 51 81 53 82 50 83 72 84 73 85 78 86 74 87 75 88
REMARK SMILES IDX 77 89 79 90 76 91 60 92 61 93 66 94 62 95 63 96 65 97 67 98
REMARK SMILES IDX 64 99
REMARK H PARENT 27 5 20 15 12 25 34 42 84 61 58 72
REMARK Flexibility Score: inf
ROOT
ATOM      1  C   UNL A   1      33.340  29.137  24.009  1.00  0.00     0.116 C 
ENDROOT
BRANCH   1   2
ATOM      2  N   UNL A   1      32.134  29.166  23.201  1.00  0.00    -0.352 N 
ATOM      3  C   UNL A   1      31.307  28.199  22.688  1.00  0.00     0.251 C 
ATOM      4  O   UNL A   1      30.347  28.586  22.018  1.00  0.00    -0.269 OA
ATOM      5  H   UNL A   1      31.848  30.079  22.970  1.00  0.00     0.163 HD
BRANCH   3   6
ATOM      6  C   UNL A   1      31.456  26.742  22.970  1.00  0.00     0.039 A 
ATOM      7  C   UNL A   1      31.526  23.943  22.990  1.00  0.00     0.041 A 
ATOM      8  C   UNL A   1      32.471  24.646  22.248  1.00  0.00     0.027 A 
ATOM      9  C   UNL A   1      30.683  24.629  23.865  1.00  0.00     0.027 A 
ATOM     10  C   UNL A   1      32.406  26.042  22.207  1.00  0.00     0.016 A 
ATOM     11  C   UNL A   1      30.688  26.029  23.890  1.00  0.00     0.016 A 
BRANCH   7  12
ATOM     12  N   UNL A   1      31.392  22.567  22.753  1.00  0.00    -0.322 N 
ATOM     13  C   UNL A   1      32.165  21.521  23.232  1.00  0.00     0.255 C 
ATOM     14  O   UNL A   1      32.048  20.406  22.722  1.00  0.00    -0.269 OA
ATOM     15  H   UNL A   1      30.647  22.309  22.165  1.00  0.00     0.170 HD
BRANCH  13  16
ATOM     16  C   UNL A   1      33.050  21.671  24.433  1.00  0.00     0.042 A 
ATOM     17  C   UNL A   1      35.254  21.579  25.494  1.00  0.00     0.041 A 
ATOM     18  C   UNL A   1      34.665  21.926  26.713  1.00  0.00     0.026 A 
ATOM     19  C   UNL A   1      34.443  21.528  24.360  1.00  0.00     0.040 A 
ATOM     20  C   UNL A   1      33.294  22.198  26.785  1.00  0.00     0.003 A 
ATOM     21  C   UNL A   1      32.485  22.054  25.653  1.00  0.00     0.014 A 
BRANCH  17  22
ATOM     22  N   UNL A   1      36.633  21.272  25.469  1.00  0.00    -0.325 N 
ATOM     23  O   UNL A   1      37.589  23.358  25.849  1.00  0.00    -0.274 OA
ATOM     24  C   UNL A   1      37.692  22.157  25.611  1.00  0.00     0.234 C 
ATOM     25  H   UNL A   1      36.869  20.325  25.336  1.00  0.00     0.169 HD
BRANCH  24  26
ATOM     26  C   UNL A   1      39.085  21.566  25.449  1.00  0.00     0.175 C 
BRANCH  26  27
ATOM     27  S   UNL A   1      40.163  21.821  26.882  1.00  0.00    -0.116 SA
BRANCH  27  28
ATOM     28  C   UNL A   1      41.756  21.354  26.225  1.00  0.00     0.008 A 
ATOM     29  C   UNL A   1      42.720  22.256  25.760  1.00  0.00     0.016 A 
ATOM     30  C   UNL A   1      42.053  19.986  26.214  1.00  0.00     0.016 A 
ATOM     31  C   UNL A   1      43.960  21.805  25.303  1.00  0.00     0.021 A 
ATOM     32  C   UNL A   1      43.290  19.532  25.753  1.00  0.00     0.021 A 
ATOM     33  C   UNL A   1      44.241  20.445  25.306  1.00  0.00     0.041 A 
ATOM     34  Cl  UNL A   1      45.774  19.892  24.762  1.00  0.00    -0.084 Cl
ENDBRANCH  27  28
ENDBRANCH  26  27
ENDBRANCH  24  26
ENDBRANCH  17  22
ENDBRANCH  13  16
ENDBRANCH   7  12
ENDBRANCH   3   6
ENDBRANCH   1   2
BRANCH   1  35
ATOM     35  C   UNL A   1      32.997  28.867  25.468  1.00  0.00     0.021 C 
BRANCH  35  36
ATOM     36  C   UNL A   1      32.803  30.155  26.286  1.00  0.00     0.002 C 
BRANCH  36  37
ATOM     37  C   UNL A   1      31.403  30.784  26.206  1.00  0.00     0.002 C 
BRANCH  37  38
ATOM     38  C   UNL A   1      31.350  32.284  26.499  1.00  0.00     0.021 C 
BRANCH  38  39
ATOM     39  C   UNL A   1      32.568  32.822  27.237  1.00  0.00     0.116 C 
BRANCH  39  40
ATOM     40  N   UNL A   1      32.396  34.210  27.634  1.00  0.00    -0.352 N 
ATOM     41  C   UNL A   1      33.043  34.915  28.618  1.00  0.00     0.251 C 
ATOM     42  H   UNL A   1      31.721  34.714  27.126  1.00  0.00     0.163 HD
ATOM     43  O   UNL A   1      32.639  36.021  28.954  1.00  0.00    -0.269 OA
BRANCH  41  44
ATOM     44  C   UNL A   1      34.219  34.320  29.285  1.00  0.00     0.039 A 
ATOM     45  C   UNL A   1      34.037  33.634  30.487  1.00  0.00     0.014 A 
ATOM     46  C   UNL A   1      35.494  34.437  28.724  1.00  0.00     0.014 A 
ATOM     47  C   UNL A   1      35.127  33.016  31.100  1.00  0.00     0.010 A 
ATOM     48  C   UNL A   1      36.563  33.754  29.293  1.00  0.00     0.010 A 
ATOM     49  C   UNL A   1      36.394  33.044  30.490  1.00  0.00    -0.014 A 
BRANCH  49  50
ATOM     50  C   UNL A   1      37.550  32.335  31.092  1.00  0.00     0.031 A 
ATOM     51  C   UNL A   1      38.163  32.840  32.368  1.00  0.00     0.074 A 
ATOM     52  C   UNL A   1      38.086  31.277  30.455  1.00  0.00     0.049 A 
ATOM     53  N   UNL A   1      39.214  32.397  33.012  1.00  0.00    -0.248 NA
ATOM     54  C   UNL A   1      37.531  34.015  32.989  1.00  0.00     0.031 C 
ATOM     55  C   UNL A   1      37.610  30.724  29.186  1.00  0.00     0.029 A 
ATOM     56  N   UNL A   1      39.158  30.485  30.782  1.00  0.00    -0.354 N 
ATOM     57  C   UNL A   1      39.374  33.244  34.101  1.00  0.00     0.074 A 
ATOM     58  C   UNL A   1      38.350  34.262  33.999  1.00  0.00     0.031 C 
ATOM     59  C   UNL A   1      38.373  29.669  28.853  1.00  0.00     0.029 A 
ATOM     60  C   UNL A   1      39.415  29.499  29.860  1.00  0.00     0.049 A 
ATOM     61  H   UNL A   1      39.692  30.610  31.599  1.00  0.00     0.167 HD
ATOM     62  C   UNL A   1      40.278  33.169  35.106  1.00  0.00     0.037 A 
ATOM     63  C   UNL A   1      40.389  28.570  29.823  1.00  0.00     0.037 A 
ATOM     64  C   UNL A   1      41.284  32.144  35.210  1.00  0.00     0.049 A 
ATOM     65  C   UNL A   1      41.390  28.514  30.945  1.00  0.00     0.074 A 
ATOM     66  C   UNL A   1      42.205  31.941  36.222  1.00  0.00     0.029 A 
ATOM     67  N   UNL A   1      41.503  31.154  34.265  1.00  0.00    -0.354 N 
ATOM     68  N   UNL A   1      41.483  29.275  32.009  1.00  0.00    -0.248 NA
ATOM     69  C   UNL A   1      42.417  27.467  30.864  1.00  0.00     0.031 C 
ATOM     70  C   UNL A   1      43.021  30.866  35.861  1.00  0.00     0.029 A 
ATOM     71  C   UNL A   1      42.568  30.357  34.654  1.00  0.00     0.049 A 
ATOM     72  H   UNL A   1      40.981  31.036  33.438  1.00  0.00     0.167 HD
ATOM     73  C   UNL A   1      42.558  28.782  32.738  1.00  0.00     0.074 A 
ATOM     74  C   UNL A   1      43.074  27.647  32.001  1.00  0.00     0.031 C 
ATOM     75  C   UNL A   1      43.069  29.227  33.911  1.00  0.00     0.037 A 
BRANCH  62  76
ATOM     76  C   UNL A   1      40.225  34.230  36.169  1.00  0.00     0.057 A 
ATOM     77  C   UNL A   1      39.449  34.083  37.328  1.00  0.00     0.134 A 
ATOM     78  C   UNL A   1      40.983  35.401  36.048  1.00  0.00     0.134 A 
ATOM     79  F   UNL A   1      38.690  32.991  37.503  1.00  0.00    -0.206 F 
ATOM     80  C   UNL A   1      39.406  35.075  38.309  1.00  0.00     0.040 A 
ATOM     81  C   UNL A   1      40.973  36.385  37.038  1.00  0.00     0.040 A 
ATOM     82  F   UNL A   1      41.755  35.606  34.968  1.00  0.00    -0.206 F 
ATOM     83  C   UNL A   1      40.176  36.227  38.169  1.00  0.00     0.006 A 
ENDBRANCH  62  76
BRANCH  63  84
ATOM     84  C   UNL A   1      40.458  27.610  28.692  1.00  0.00     0.057 A 
ATOM     85  C   UNL A   1      41.281  27.852  27.587  1.00  0.00     0.134 A 
ATOM     86  C   UNL A   1      39.701  26.432  28.685  1.00  0.00     0.134 A 
ATOM     87  F   UNL A   1      42.019  28.971  27.525  1.00  0.00    -0.206 F 
ATOM     88  C   UNL A   1      41.334  26.970  26.506  1.00  0.00     0.040 A 
ATOM     89  C   UNL A   1      39.765  25.527  27.625  1.00  0.00     0.040 A 
ATOM     90  F   UNL A   1      38.900  26.135  29.720  1.00  0.00    -0.206 F 
ATOM     91  C   UNL A   1      40.577  25.800  26.526  1.00  0.00     0.006 A 
ENDBRANCH  63  84
BRANCH  75  92
ATOM     92  C   UNL A   1      44.226  28.466  34.492  1.00  0.00     0.057 A 
ATOM     93  C   UNL A   1      45.555  28.842  34.259  1.00  0.00     0.134 A 
ATOM     94  C   UNL A   1      44.003  27.367  35.332  1.00  0.00     0.134 A 
ATOM     95  F   UNL A   1      45.838  29.877  33.454  1.00  0.00    -0.206 F 
ATOM     96  C   UNL A   1      46.620  28.137  34.820  1.00  0.00     0.040 A 
ATOM     97  C   UNL A   1      45.060  26.673  35.924  1.00  0.00     0.040 A 
ATOM     98  F   UNL A   1      42.755  26.959  35.605  1.00  0.00    -0.206 F 
ATOM     99  C   UNL A   1      46.374  27.054  35.663  1.00  0.00     0.006 A 
ENDBRANCH  75  92
ENDBRANCH  49  50
ENDBRANCH  41  44
ENDBRANCH  39  40
ENDBRANCH  38  39
ENDBRANCH  37  38
ENDBRANCH  36  37
ENDBRANCH  35  36
ENDBRANCH   1  35
TORSDOF 19
ENDMDL
MODEL 3
REMARK VINA RESULT:     -11.7      4.085     10.106
REMARK SMILES O=C(CSc1ccc(Cl)cc1)Nc1cccc(C(=O)Nc2ccc(C(=O)NCCCCCCNC(=O)c3ccc(-c4c5nc(c(-c6c(F)cccc6F)c6ccc([nH]6)c(-c6c(F)cccc6F)c6nc(c(-c7c(F)cccc7F)c7ccc4[nH]7)C=C6)C=C5)cc3)cc2)c1
REMARK SMILES IDX 28 1 27 2 25 3 26 4 24 6 21 7 22 8 92 9 23 10 91 11 20 12
REMARK SMILES IDX 18 13 19 14 17 16 13 17 14 18 93 19 15 20 16 21 12 22 1 23
REMARK SMILES IDX 2 24 3 26 4 27 5 28 6 29 11 30 7 31 10 32 8 33 9 34 29 35
REMARK SMILES IDX 30 36 31 37 32 38 33 39 34 40 35 41 36 43 37 44 38 45 90 46
REMARK SMILES IDX 39 47 89 48 40 49 41 50 42 51 83 52 43 53 88 54 82 55 84 56
REMARK SMILES IDX 44 57 87 58 81 59 80 60 45 62 71 63 54 64 70 65 55 66 58 67
REMARK SMILES IDX 69 68 85 69 56 70 57 71 68 73 86 74 59 75 46 76 47 77 52 78
REMARK SMILES IDX 48 79 49 80 51 81 53 82 50 83 72 84 73 85 78 86 74 87 75 88
REMARK SMILES IDX 77 89 79 90 76 91 60 92 61 93 66 94 62 95 63 96 65 97 67 98
REMARK SMILES IDX 64 99
REMARK H PARENT 27 5 20 15 12 25 34 42 84 61 58 72
REMARK Flexibility Score: inf
ROOT
ATOM      1  C   UNL A   1      35.326  24.008  25.419  1.00  0.00     0.116 C 
ENDROOT
BRANCH   1   2
ATOM      2  N   UNL A   1      34.779  23.060  26.372  1.00  0.00    -0.352 N 
ATOM      3  C   UNL A   1      33.507  22.746  26.783  1.00  0.00     0.251 C 
ATOM      4  O   UNL A   1      33.401  21.870  27.643  1.00  0.00    -0.269 OA
ATOM      5  H   UNL A   1      35.471  22.526  26.824  1.00  0.00     0.163 HD
BRANCH   3   6
ATOM      6  C   UNL A   1      32.273  23.335  26.188  1.00  0.00     0.039 A 
ATOM      7  C   UNL A   1      30.311  24.755  24.783  1.00  0.00     0.041 A 
ATOM      8  C   UNL A   1      31.036  23.761  24.130  1.00  0.00     0.027 A 
ATOM      9  C   UNL A   1      30.426  24.900  26.166  1.00  0.00     0.027 A 
ATOM     10  C   UNL A   1      32.044  23.084  24.825  1.00  0.00     0.016 A 
ATOM     11  C   UNL A   1      31.372  24.150  26.873  1.00  0.00     0.016 A 
BRANCH   7  12
ATOM     12  N   UNL A   1      29.558  25.642  24.001  1.00  0.00    -0.322 N 
ATOM     13  C   UNL A   1      29.870  26.931  23.598  1.00  0.00     0.255 C 
ATOM     14  O   UNL A   1      28.983  27.643  23.124  1.00  0.00    -0.269 OA
ATOM     15  H   UNL A   1      28.685  25.302  23.696  1.00  0.00     0.170 HD
BRANCH  13  16
ATOM     16  C   UNL A   1      31.278  27.447  23.605  1.00  0.00     0.042 A 
ATOM     17  C   UNL A   1      33.159  28.522  24.742  1.00  0.00     0.041 A 
ATOM     18  C   UNL A   1      33.904  28.434  23.563  1.00  0.00     0.026 A 
ATOM     19  C   UNL A   1      31.882  27.960  24.760  1.00  0.00     0.040 A 
ATOM     20  C   UNL A   1      33.366  27.811  22.431  1.00  0.00     0.003 A 
ATOM     21  C   UNL A   1      32.051  27.334  22.445  1.00  0.00     0.014 A 
BRANCH  17  22
ATOM     22  N   UNL A   1      33.720  29.195  25.851  1.00  0.00    -0.325 N 
ATOM     23  O   UNL A   1      32.120  30.829  26.271  1.00  0.00    -0.274 OA
ATOM     24  C   UNL A   1      33.201  30.297  26.513  1.00  0.00     0.234 C 
ATOM     25  H   UNL A   1      34.574  28.841  26.192  1.00  0.00     0.169 HD
BRANCH  24  26
ATOM     26  C   UNL A   1      34.064  30.881  27.623  1.00  0.00     0.175 C 
BRANCH  26  27
ATOM     27  S   UNL A   1      33.700  32.614  28.002  1.00  0.00    -0.116 SA
BRANCH  27  28
ATOM     28  C   UNL A   1      35.002  33.013  29.157  1.00  0.00     0.008 A 
ATOM     29  C   UNL A   1      34.867  32.978  30.550  1.00  0.00     0.016 A 
ATOM     30  C   UNL A   1      36.245  33.350  28.609  1.00  0.00     0.016 A 
ATOM     31  C   UNL A   1      35.953  33.262  31.380  1.00  0.00     0.021 A 
ATOM     32  C   UNL A   1      37.331  33.640  29.438  1.00  0.00     0.021 A 
ATOM     33  C   UNL A   1      37.181  33.587  30.821  1.00  0.00     0.041 A 
ATOM     34  Cl  UNL A   1      38.521  33.918  31.844  1.00  0.00    -0.084 Cl
ENDBRANCH  27  28
ENDBRANCH  26  27
ENDBRANCH  24  26
ENDBRANCH  17  22
ENDBRANCH  13  16
ENDBRANCH   7  12
ENDBRANCH   3   6
ENDBRANCH   1   2
BRANCH   1  35
ATOM     35  C   UNL A   1      35.750  23.294  24.142  1.00  0.00     0.021 C 
BRANCH  35  36
ATOM     36  C   UNL A   1      36.042  21.800  24.360  1.00  0.00     0.002 C 
BRANCH  36  37
ATOM     37  C   UNL A   1      37.520  21.393  24.254  1.00  0.00     0.002 C 
BRANCH  37  38
ATOM     38  C   UNL A   1      37.878  20.069  24.931  1.00  0.00     0.021 C 
BRANCH  38  39
ATOM     39  C   UNL A   1      38.858  20.201  26.089  1.00  0.00     0.116 C 
BRANCH  39  40
ATOM     40  N   UNL A   1      39.930  19.224  26.010  1.00  0.00    -0.352 N 
ATOM     41  C   UNL A   1      41.287  19.423  26.045  1.00  0.00     0.251 C 
ATOM     42  H   UNL A   1      39.642  18.287  25.917  1.00  0.00     0.163 HD
ATOM     43  O   UNL A   1      42.055  18.511  25.768  1.00  0.00    -0.269 OA
BRANCH  41  44
ATOM     44  C   UNL A   1      41.816  20.757  26.401  1.00  0.00     0.039 A 
ATOM     45  C   UNL A   1      42.117  21.658  25.377  1.00  0.00     0.014 A 
ATOM     46  C   UNL A   1      42.012  21.115  27.737  1.00  0.00     0.014 A 
ATOM     47  C   UNL A   1      42.561  22.940  25.697  1.00  0.00     0.010 A 
ATOM     48  C   UNL A   1      42.378  22.417  28.056  1.00  0.00     0.010 A 
ATOM     49  C   UNL A   1      42.664  23.342  27.040  1.00  0.00    -0.014 A 
BRANCH  49  50
ATOM     50  C   UNL A   1      43.070  24.722  27.399  1.00  0.00     0.031 A 
ATOM     51  C   UNL A   1      44.518  25.124  27.339  1.00  0.00     0.074 A 
ATOM     52  C   UNL A   1      42.143  25.595  27.839  1.00  0.00     0.049 A 
ATOM     53  N   UNL A   1      45.075  26.260  27.674  1.00  0.00    -0.248 NA
ATOM     54  C   UNL A   1      45.470  24.104  26.868  1.00  0.00     0.031 C 
ATOM     55  C   UNL A   1      40.715  25.308  27.988  1.00  0.00     0.029 A 
ATOM     56  N   UNL A   1      42.266  26.896  28.256  1.00  0.00    -0.354 N 
ATOM     57  C   UNL A   1      46.438  26.087  27.467  1.00  0.00     0.074 A 
ATOM     58  C   UNL A   1      46.630  24.720  27.035  1.00  0.00     0.031 C 
ATOM     59  C   UNL A   1      40.092  26.408  28.441  1.00  0.00     0.029 A 
ATOM     60  C   UNL A   1      41.079  27.460  28.656  1.00  0.00     0.049 A 
ATOM     61  H   UNL A   1      43.123  27.381  28.268  1.00  0.00     0.167 HD
ATOM     62  C   UNL A   1      47.436  26.991  27.605  1.00  0.00     0.037 A 
ATOM     63  C   UNL A   1      40.817  28.685  29.152  1.00  0.00     0.037 A 
ATOM     64  C   UNL A   1      47.236  28.355  28.019  1.00  0.00     0.049 A 
ATOM     65  C   UNL A   1      41.945  29.668  29.307  1.00  0.00     0.074 A 
ATOM     66  C   UNL A   1      48.172  29.369  28.126  1.00  0.00     0.029 A 
ATOM     67  N   UNL A   1      46.017  28.894  28.400  1.00  0.00    -0.354 N 
ATOM     68  N   UNL A   1      43.218  29.516  29.034  1.00  0.00    -0.248 NA
ATOM     69  C   UNL A   1      41.598  30.996  29.832  1.00  0.00     0.031 C 
ATOM     70  C   UNL A   1      47.530  30.504  28.630  1.00  0.00     0.029 A 
ATOM     71  C   UNL A   1      46.182  30.218  28.776  1.00  0.00     0.049 A 
ATOM     72  H   UNL A   1      45.160  28.408  28.405  1.00  0.00     0.167 HD
ATOM     73  C   UNL A   1      43.819  30.734  29.327  1.00  0.00     0.074 A 
ATOM     74  C   UNL A   1      42.767  31.618  29.782  1.00  0.00     0.031 C 
ATOM     75  C   UNL A   1      45.123  31.088  29.225  1.00  0.00     0.037 A 
BRANCH  62  76
ATOM     76  C   UNL A   1      48.836  26.531  27.310  1.00  0.00     0.057 A 
ATOM     77  C   UNL A   1      49.670  26.002  28.305  1.00  0.00     0.134 A 
ATOM     78  C   UNL A   1      49.347  26.589  26.008  1.00  0.00     0.134 A 
ATOM     79  F   UNL A   1      49.247  25.927  29.577  1.00  0.00    -0.206 F 
ATOM     80  C   UNL A   1      50.969  25.578  28.022  1.00  0.00     0.040 A 
ATOM     81  C   UNL A   1      50.634  26.139  25.706  1.00  0.00     0.040 A 
ATOM     82  F   UNL A   1      48.603  27.078  25.004  1.00  0.00    -0.206 F 
ATOM     83  C   UNL A   1      51.452  25.639  26.716  1.00  0.00     0.006 A 
ENDBRANCH  62  76
BRANCH  63  84
ATOM     84  C   UNL A   1      39.428  29.053  29.526  1.00  0.00     0.057 A 
ATOM     85  C   UNL A   1      38.975  28.923  30.843  1.00  0.00     0.134 A 
ATOM     86  C   UNL A   1      38.519  29.539  28.578  1.00  0.00     0.134 A 
ATOM     87  F   UNL A   1      39.792  28.449  31.796  1.00  0.00    -0.206 F 
ATOM     88  C   UNL A   1      37.663  29.241  31.202  1.00  0.00     0.040 A 
ATOM     89  C   UNL A   1      37.214  29.887  28.926  1.00  0.00     0.040 A 
ATOM     90  F   UNL A   1      38.893  29.697  27.299  1.00  0.00    -0.206 F 
ATOM     91  C   UNL A   1      36.780  29.729  30.241  1.00  0.00     0.006 A 
ENDBRANCH  63  84
BRANCH  75  92
ATOM     92  C   UNL A   1      45.483  32.502  29.580  1.00  0.00     0.057 A 
ATOM     93  C   UNL A   1      45.913  32.860  30.864  1.00  0.00     0.134 A 
ATOM     94  C   UNL A   1      45.439  33.511  28.608  1.00  0.00     0.134 A 
ATOM     95  F   UNL A   1      45.967  31.945  31.842  1.00  0.00    -0.206 F 
ATOM     96  C   UNL A   1      46.264  34.174  31.175  1.00  0.00     0.040 A 
ATOM     97  C   UNL A   1      45.816  34.823  28.899  1.00  0.00     0.040 A 
ATOM     98  F   UNL A   1      45.046  33.236  27.356  1.00  0.00    -0.206 F 
ATOM     99  C   UNL A   1      46.224  35.159  30.189  1.00  0.00     0.006 A 
ENDBRANCH  75  92
ENDBRANCH  49  50
ENDBRANCH  41  44
ENDBRANCH  39  40
ENDBRANCH  38  39
ENDBRANCH  37  38
ENDBRANCH  36  37
ENDBRANCH  35  36
ENDBRANCH   1  35
TORSDOF 19
ENDMDL
