MODEL 1
REMARK VINA RESULT:     -11.8      0.000      0.000
REMARK SMILES Cc1cc(Cl)c2c(c1)C=C(C(=O)NCCCCCCNC(=O)c1ccc(-c3c4nc(c(-c5c(F)cccc5F)c5ccc([nH]5)c(-c5c(F)cccc5F)c5nc(c(-c6c(F)cccc6F)c6ccc3[nH]6)C=C5)C=C4)cc1)[C@@H](C(F)(F)F)O2
REMARK SMILES IDX 17 1 16 2 15 3 14 4 13 5 11 6 12 7 10 9 1 10 2 11 3 12 8 13
REMARK SMILES IDX 4 14 7 15 5 16 6 17 9 18 82 19 77 20 78 21 79 22 80 23 81 24
REMARK SMILES IDX 18 25 19 26 20 27 21 28 22 30 23 31 24 32 76 33 25 34 75 35
REMARK SMILES IDX 26 36 27 37 28 38 69 39 29 40 74 41 68 42 70 43 30 44 73 45
REMARK SMILES IDX 67 46 66 47 31 49 57 50 40 51 56 52 41 53 44 54 55 55 71 56
REMARK SMILES IDX 42 57 43 58 54 60 72 61 45 62 32 63 33 64 38 65 34 66 35 67
REMARK SMILES IDX 37 68 39 69 36 70 58 71 59 72 64 73 60 74 61 75 63 76 65 77
REMARK SMILES IDX 62 78 46 79 47 80 52 81 48 82 49 83 51 84 53 85 50 86
REMARK H PARENT 13 8 20 29 70 48 44 59
REMARK Flexibility Score: inf
ROOT
ATOM      1  C   UNL A   1      32.050  28.899  25.545  1.00  0.00     0.002 C 
ENDROOT
BRANCH   1   2
ATOM      2  C   UNL A   1      30.889  28.312  24.731  1.00  0.00     0.002 C 
BRANCH   2   3
ATOM      3  C   UNL A   1      31.187  28.092  23.245  1.00  0.00     0.021 C 
BRANCH   3   4
ATOM      4  C   UNL A   1      30.929  26.663  22.778  1.00  0.00     0.116 C 
BRANCH   4   5
ATOM      5  N   UNL A   1      31.748  26.316  21.630  1.00  0.00    -0.352 N 
ATOM      6  C   UNL A   1      32.712  25.412  21.339  1.00  0.00     0.251 C 
ATOM      7  O   UNL A   1      33.134  25.449  20.179  1.00  0.00    -0.270 OA
ATOM      8  H   UNL A   1      31.548  26.892  20.858  1.00  0.00     0.163 HD
BRANCH   6   9
ATOM      9  C   UNL A   1      33.275  24.414  22.297  1.00  0.00     0.067 C 
ATOM     10  C   UNL A   1      32.252  18.660  24.343  1.00  0.00     0.044 C 
ATOM     11  C   UNL A   1      32.971  19.970  24.218  1.00  0.00    -0.049 A 
ATOM     12  C   UNL A   1      34.173  20.183  24.903  1.00  0.00     0.028 A 
ATOM     13  C   UNL A   1      32.480  20.970  23.366  1.00  0.00     0.015 A 
ATOM     14  C   UNL A   1      34.858  21.389  24.757  1.00  0.00     0.084 A 
ATOM     15  C   UNL A   1      33.165  22.182  23.219  1.00  0.00     0.019 A 
ATOM     16  Cl  UNL A   1      36.338  21.607  25.623  1.00  0.00    -0.080 Cl
ATOM     17  C   UNL A   1      34.351  22.391  23.925  1.00  0.00     0.146 A 
ATOM     18  C   UNL A   1      32.680  23.207  22.302  1.00  0.00     0.025 C 
ATOM     19  O   UNL A   1      35.078  23.539  23.792  1.00  0.00    -0.474 OA
ATOM     20  C   UNL A   1      34.407  24.697  23.241  1.00  0.00     0.314 C 
BRANCH  20  21
ATOM     21  C   UNL A   1      34.001  25.638  24.390  1.00  0.00     0.429 C 
ATOM     22  F   UNL A   1      34.801  25.445  25.469  1.00  0.00    -0.167 F 
ATOM     23  F   UNL A   1      34.121  26.947  24.062  1.00  0.00    -0.167 F 
ATOM     24  F   UNL A   1      32.724  25.448  24.789  1.00  0.00    -0.167 F 
ENDBRANCH  20  21
ENDBRANCH   6   9
ENDBRANCH   4   5
ENDBRANCH   3   4
ENDBRANCH   2   3
ENDBRANCH   1   2
BRANCH   1  25
ATOM     25  C   UNL A   1      32.493  28.058  26.746  1.00  0.00     0.021 C 
BRANCH  25  26
ATOM     26  C   UNL A   1      33.788  28.530  27.396  1.00  0.00     0.116 C 
BRANCH  26  27
ATOM     27  N   UNL A   1      33.723  29.931  27.775  1.00  0.00    -0.352 N 
ATOM     28  C   UNL A   1      34.664  30.702  28.405  1.00  0.00     0.251 C 
ATOM     29  H   UNL A   1      32.883  30.392  27.547  1.00  0.00     0.163 HD
ATOM     30  O   UNL A   1      34.370  31.808  28.850  1.00  0.00    -0.269 OA
BRANCH  28  31
ATOM     31  C   UNL A   1      36.038  30.185  28.556  1.00  0.00     0.039 A 
ATOM     32  C   UNL A   1      36.919  30.278  27.476  1.00  0.00     0.014 A 
ATOM     33  C   UNL A   1      36.452  29.612  29.762  1.00  0.00     0.014 A 
ATOM     34  C   UNL A   1      38.234  29.842  27.625  1.00  0.00     0.010 A 
ATOM     35  C   UNL A   1      37.783  29.247  29.932  1.00  0.00     0.010 A 
ATOM     36  C   UNL A   1      38.684  29.350  28.863  1.00  0.00    -0.014 A 
BRANCH  36  37
ATOM     37  C   UNL A   1      40.092  28.923  29.047  1.00  0.00     0.031 A 
ATOM     38  C   UNL A   1      41.082  29.860  29.678  1.00  0.00     0.074 A 
ATOM     39  C   UNL A   1      40.480  27.706  28.621  1.00  0.00     0.049 A 
ATOM     40  N   UNL A   1      42.360  29.683  29.898  1.00  0.00    -0.248 NA
ATOM     41  C   UNL A   1      40.579  31.177  30.103  1.00  0.00     0.031 C 
ATOM     42  C   UNL A   1      39.613  26.723  27.967  1.00  0.00     0.029 A 
ATOM     43  N   UNL A   1      41.702  27.086  28.676  1.00  0.00    -0.354 N 
ATOM     44  C   UNL A   1      42.807  30.858  30.487  1.00  0.00     0.074 A 
ATOM     45  C   UNL A   1      41.685  31.767  30.532  1.00  0.00     0.031 C 
ATOM     46  C   UNL A   1      40.321  25.611  27.717  1.00  0.00     0.029 A 
ATOM     47  C   UNL A   1      41.700  25.815  28.153  1.00  0.00     0.049 A 
ATOM     48  H   UNL A   1      42.505  27.511  29.053  1.00  0.00     0.167 HD
ATOM     49  C   UNL A   1      44.037  31.139  30.977  1.00  0.00     0.037 A 
ATOM     50  C   UNL A   1      42.696  24.917  28.041  1.00  0.00     0.037 A 
ATOM     51  C   UNL A   1      45.146  30.224  30.948  1.00  0.00     0.049 A 
ATOM     52  C   UNL A   1      44.065  25.275  28.554  1.00  0.00     0.074 A 
ATOM     53  C   UNL A   1      46.423  30.407  31.445  1.00  0.00     0.029 A 
ATOM     54  N   UNL A   1      45.108  28.954  30.392  1.00  0.00    -0.354 N 
ATOM     55  N   UNL A   1      44.461  26.372  29.153  1.00  0.00    -0.248 NA
ATOM     56  C   UNL A   1      45.123  24.271  28.378  1.00  0.00     0.031 C 
ATOM     57  C   UNL A   1      47.173  29.265  31.152  1.00  0.00     0.029 A 
ATOM     58  C   UNL A   1      46.348  28.350  30.519  1.00  0.00     0.049 A 
ATOM     59  H   UNL A   1      44.318  28.544  29.972  1.00  0.00     0.167 HD
ATOM     60  C   UNL A   1      45.804  26.179  29.451  1.00  0.00     0.074 A 
ATOM     61  C   UNL A   1      46.151  24.855  28.980  1.00  0.00     0.031 C 
ATOM     62  C   UNL A   1      46.671  27.024  30.058  1.00  0.00     0.037 A 
BRANCH  49  63
ATOM     63  C   UNL A   1      44.246  32.480  31.616  1.00  0.00     0.057 A 
ATOM     64  C   UNL A   1      44.650  33.593  30.866  1.00  0.00     0.134 A 
ATOM     65  C   UNL A   1      43.962  32.683  32.972  1.00  0.00     0.134 A 
ATOM     66  F   UNL A   1      44.949  33.463  29.565  1.00  0.00    -0.206 F 
ATOM     67  C   UNL A   1      44.774  34.856  31.444  1.00  0.00     0.040 A 
ATOM     68  C   UNL A   1      44.057  33.948  33.556  1.00  0.00     0.040 A 
ATOM     69  F   UNL A   1      43.566  31.662  33.747  1.00  0.00    -0.206 F 
ATOM     70  C   UNL A   1      44.466  35.039  32.791  1.00  0.00     0.006 A 
ENDBRANCH  49  63
BRANCH  50  71
ATOM     71  C   UNL A   1      42.433  23.580  27.448  1.00  0.00     0.057 A 
ATOM     72  C   UNL A   1      42.141  22.478  28.260  1.00  0.00     0.134 A 
ATOM     73  C   UNL A   1      42.466  23.368  26.065  1.00  0.00     0.134 A 
ATOM     74  F   UNL A   1      42.111  22.612  29.595  1.00  0.00    -0.206 F 
ATOM     75  C   UNL A   1      41.910  21.212  27.722  1.00  0.00     0.040 A 
ATOM     76  C   UNL A   1      42.211  22.113  25.510  1.00  0.00     0.040 A 
ATOM     77  F   UNL A   1      42.733  24.384  25.230  1.00  0.00    -0.206 F 
ATOM     78  C   UNL A   1      41.939  21.028  26.341  1.00  0.00     0.006 A 
ENDBRANCH  50  71
BRANCH  62  79
ATOM     79  C   UNL A   1      48.075  26.542  30.278  1.00  0.00     0.057 A 
ATOM     80  C   UNL A   1      48.441  25.843  31.435  1.00  0.00     0.134 A 
ATOM     81  C   UNL A   1      49.048  26.704  29.283  1.00  0.00     0.134 A 
ATOM     82  F   UNL A   1      47.558  25.662  32.428  1.00  0.00    -0.206 F 
ATOM     83  C   UNL A   1      49.729  25.332  31.599  1.00  0.00     0.040 A 
ATOM     84  C   UNL A   1      50.330  26.173  29.424  1.00  0.00     0.040 A 
ATOM     85  F   UNL A   1      48.758  27.354  28.145  1.00  0.00    -0.206 F 
ATOM     86  C   UNL A   1      50.674  25.486  30.586  1.00  0.00     0.006 A 
ENDBRANCH  62  79
ENDBRANCH  36  37
ENDBRANCH  28  31
ENDBRANCH  26  27
ENDBRANCH  25  26
ENDBRANCH   1  25
TORSDOF 14
ENDMDL
MODEL 2
REMARK VINA RESULT:     -11.8      4.103      8.361
REMARK SMILES Cc1cc(Cl)c2c(c1)C=C(C(=O)NCCCCCCNC(=O)c1ccc(-c3c4nc(c(-c5c(F)cccc5F)c5ccc([nH]5)c(-c5c(F)cccc5F)c5nc(c(-c6c(F)cccc6F)c6ccc3[nH]6)C=C5)C=C4)cc1)[C@@H](C(F)(F)F)O2
REMARK SMILES IDX 17 1 16 2 15 3 14 4 13 5 11 6 12 7 10 9 1 10 2 11 3 12 8 13
REMARK SMILES IDX 4 14 7 15 5 16 6 17 9 18 82 19 77 20 78 21 79 22 80 23 81 24
REMARK SMILES IDX 18 25 19 26 20 27 21 28 22 30 23 31 24 32 76 33 25 34 75 35
REMARK SMILES IDX 26 36 27 37 28 38 69 39 29 40 74 41 68 42 70 43 30 44 73 45
REMARK SMILES IDX 67 46 66 47 31 49 57 50 40 51 56 52 41 53 44 54 55 55 71 56
REMARK SMILES IDX 42 57 43 58 54 60 72 61 45 62 32 63 33 64 38 65 34 66 35 67
REMARK SMILES IDX 37 68 39 69 36 70 58 71 59 72 64 73 60 74 61 75 63 76 65 77
REMARK SMILES IDX 62 78 46 79 47 80 52 81 48 82 49 83 51 84 53 85 50 86
REMARK H PARENT 13 8 20 29 70 48 44 59
REMARK Flexibility Score: inf
ROOT
ATOM      1  C   UNL A   1      31.761  30.394  25.831  1.00  0.00     0.002 C 
ENDROOT
BRANCH   1   2
ATOM      2  C   UNL A   1      32.914  29.591  26.450  1.00  0.00     0.002 C 
BRANCH   2   3
ATOM      3  C   UNL A   1      33.803  28.854  25.445  1.00  0.00     0.021 C 
BRANCH   3   4
ATOM      4  C   UNL A   1      33.885  27.352  25.692  1.00  0.00     0.116 C 
BRANCH   4   5
ATOM      5  N   UNL A   1      33.758  26.595  24.460  1.00  0.00    -0.352 N 
ATOM      6  C   UNL A   1      32.795  26.355  23.540  1.00  0.00     0.251 C 
ATOM      7  O   UNL A   1      33.140  25.647  22.589  1.00  0.00    -0.270 OA
ATOM      8  H   UNL A   1      34.597  26.134  24.232  1.00  0.00     0.163 HD
BRANCH   6   9
ATOM      9  C   UNL A   1      31.395  26.873  23.603  1.00  0.00     0.067 C 
ATOM     10  C   UNL A   1      28.143  31.998  22.383  1.00  0.00     0.044 C 
ATOM     11  C   UNL A   1      28.366  30.575  22.797  1.00  0.00    -0.049 A 
ATOM     12  C   UNL A   1      27.278  29.757  23.126  1.00  0.00     0.028 A 
ATOM     13  C   UNL A   1      29.658  30.031  22.800  1.00  0.00     0.015 A 
ATOM     14  C   UNL A   1      27.485  28.424  23.477  1.00  0.00     0.084 A 
ATOM     15  C   UNL A   1      29.869  28.693  23.153  1.00  0.00     0.019 A 
ATOM     16  Cl  UNL A   1      26.112  27.453  23.876  1.00  0.00    -0.080 Cl
ATOM     17  C   UNL A   1      28.778  27.894  23.501  1.00  0.00     0.146 A 
ATOM     18  C   UNL A   1      31.207  28.112  23.116  1.00  0.00     0.025 C 
ATOM     19  O   UNL A   1      28.921  26.574  23.819  1.00  0.00    -0.474 OA
ATOM     20  C   UNL A   1      30.242  26.115  24.195  1.00  0.00     0.314 C 
BRANCH  20  21
ATOM     21  C   UNL A   1      30.322  26.014  25.730  1.00  0.00     0.429 C 
ATOM     22  F   UNL A   1      31.277  25.125  26.099  1.00  0.00    -0.167 F 
ATOM     23  F   UNL A   1      30.653  27.190  26.315  1.00  0.00    -0.167 F 
ATOM     24  F   UNL A   1      29.155  25.615  26.283  1.00  0.00    -0.167 F 
ENDBRANCH  20  21
ENDBRANCH   6   9
ENDBRANCH   4   5
ENDBRANCH   3   4
ENDBRANCH   2   3
ENDBRANCH   1   2
BRANCH   1  25
ATOM     25  C   UNL A   1      31.471  31.740  26.501  1.00  0.00     0.021 C 
BRANCH  25  26
ATOM     26  C   UNL A   1      32.681  32.377  27.174  1.00  0.00     0.116 C 
BRANCH  26  27
ATOM     27  N   UNL A   1      32.446  33.775  27.495  1.00  0.00    -0.352 N 
ATOM     28  C   UNL A   1      33.024  34.548  28.467  1.00  0.00     0.251 C 
ATOM     29  H   UNL A   1      31.777  34.230  26.935  1.00  0.00     0.163 HD
ATOM     30  O   UNL A   1      32.556  35.647  28.750  1.00  0.00    -0.269 OA
BRANCH  28  31
ATOM     31  C   UNL A   1      34.210  34.041  29.184  1.00  0.00     0.039 A 
ATOM     32  C   UNL A   1      34.028  33.241  30.313  1.00  0.00     0.014 A 
ATOM     33  C   UNL A   1      35.497  34.356  28.737  1.00  0.00     0.014 A 
ATOM     34  C   UNL A   1      35.140  32.712  30.966  1.00  0.00     0.010 A 
ATOM     35  C   UNL A   1      36.601  33.768  29.344  1.00  0.00     0.010 A 
ATOM     36  C   UNL A   1      36.434  32.948  30.469  1.00  0.00    -0.014 A 
BRANCH  36  37
ATOM     37  C   UNL A   1      37.623  32.357  31.128  1.00  0.00     0.031 A 
ATOM     38  C   UNL A   1      38.294  31.156  30.525  1.00  0.00     0.074 A 
ATOM     39  C   UNL A   1      38.078  32.886  32.280  1.00  0.00     0.049 A 
ATOM     40  N   UNL A   1      39.324  30.479  30.966  1.00  0.00    -0.248 NA
ATOM     41  C   UNL A   1      37.726  30.632  29.272  1.00  0.00     0.031 C 
ATOM     42  C   UNL A   1      37.489  34.034  32.974  1.00  0.00     0.029 A 
ATOM     43  N   UNL A   1      39.141  32.531  33.071  1.00  0.00    -0.354 N 
ATOM     44  C   UNL A   1      39.526  29.459  30.046  1.00  0.00     0.074 A 
ATOM     45  C   UNL A   1      38.476  29.561  29.058  1.00  0.00     0.031 C 
ATOM     46  C   UNL A   1      38.221  34.311  34.064  1.00  0.00     0.029 A 
ATOM     47  C   UNL A   1      39.304  33.338  34.171  1.00  0.00     0.049 A 
ATOM     48  H   UNL A   1      39.731  31.769  32.869  1.00  0.00     0.167 HD
ATOM     49  C   UNL A   1      40.519  28.540  30.012  1.00  0.00     0.037 A 
ATOM     50  C   UNL A   1      40.225  33.298  35.152  1.00  0.00     0.037 A 
ATOM     51  C   UNL A   1      41.573  28.455  30.987  1.00  0.00     0.049 A 
ATOM     52  C   UNL A   1      41.292  32.236  35.112  1.00  0.00     0.074 A 
ATOM     53  C   UNL A   1      42.641  27.577  31.021  1.00  0.00     0.029 A 
ATOM     54  N   UNL A   1      41.692  29.278  32.096  1.00  0.00    -0.354 N 
ATOM     55  N   UNL A   1      41.499  31.308  34.209  1.00  0.00    -0.248 NA
ATOM     56  C   UNL A   1      42.253  32.218  36.223  1.00  0.00     0.031 C 
ATOM     57  C   UNL A   1      43.383  27.839  32.176  1.00  0.00     0.029 A 
ATOM     58  C   UNL A   1      42.807  28.914  32.832  1.00  0.00     0.049 A 
ATOM     59  H   UNL A   1      41.076  30.012  32.325  1.00  0.00     0.167 HD
ATOM     60  C   UNL A   1      42.628  30.615  34.628  1.00  0.00     0.074 A 
ATOM     61  C   UNL A   1      43.069  31.239  35.857  1.00  0.00     0.031 C 
ATOM     62  C   UNL A   1      43.241  29.557  34.046  1.00  0.00     0.037 A 
BRANCH  49  63
ATOM     63  C   UNL A   1      40.535  27.570  28.868  1.00  0.00     0.057 A 
ATOM     64  C   UNL A   1      39.690  26.452  28.845  1.00  0.00     0.134 A 
ATOM     65  C   UNL A   1      41.340  27.795  27.744  1.00  0.00     0.134 A 
ATOM     66  F   UNL A   1      38.903  26.173  29.896  1.00  0.00    -0.206 F 
ATOM     67  C   UNL A   1      39.651  25.589  27.750  1.00  0.00     0.040 A 
ATOM     68  C   UNL A   1      41.291  26.953  26.631  1.00  0.00     0.040 A 
ATOM     69  F   UNL A   1      42.169  28.848  27.699  1.00  0.00    -0.206 F 
ATOM     70  C   UNL A   1      40.445  25.845  26.633  1.00  0.00     0.006 A 
ENDBRANCH  49  63
BRANCH  50  71
ATOM     71  C   UNL A   1      40.203  34.311  36.238  1.00  0.00     0.057 A 
ATOM     72  C   UNL A   1      39.450  34.105  37.400  1.00  0.00     0.134 A 
ATOM     73  C   UNL A   1      40.928  35.505  36.146  1.00  0.00     0.134 A 
ATOM     74  F   UNL A   1      38.720  32.987  37.541  1.00  0.00    -0.206 F 
ATOM     75  C   UNL A   1      39.404  35.054  38.422  1.00  0.00     0.040 A 
ATOM     76  C   UNL A   1      40.912  36.452  37.171  1.00  0.00     0.040 A 
ATOM     77  F   UNL A   1      41.676  35.762  35.062  1.00  0.00    -0.206 F 
ATOM     78  C   UNL A   1      40.142  36.230  38.311  1.00  0.00     0.006 A 
ENDBRANCH  50  71
BRANCH  62  79
ATOM     79  C   UNL A   1      44.474  29.015  34.709  1.00  0.00     0.057 A 
ATOM     80  C   UNL A   1      44.412  27.960  35.627  1.00  0.00     0.134 A 
ATOM     81  C   UNL A   1      45.742  29.496  34.358  1.00  0.00     0.134 A 
ATOM     82  F   UNL A   1      43.228  27.460  36.011  1.00  0.00    -0.206 F 
ATOM     83  C   UNL A   1      45.568  27.410  36.182  1.00  0.00     0.040 A 
ATOM     84  C   UNL A   1      46.906  28.936  34.884  1.00  0.00     0.040 A 
ATOM     85  F   UNL A   1      45.870  30.498  33.474  1.00  0.00    -0.206 F 
ATOM     86  C   UNL A   1      46.820  27.891  35.801  1.00  0.00     0.006 A 
ENDBRANCH  62  79
ENDBRANCH  36  37
ENDBRANCH  28  31
ENDBRANCH  26  27
ENDBRANCH  25  26
ENDBRANCH   1  25
TORSDOF 14
ENDMDL
MODEL 3
REMARK VINA RESULT:     -11.7      2.456      7.616
REMARK SMILES Cc1cc(Cl)c2c(c1)C=C(C(=O)NCCCCCCNC(=O)c1ccc(-c3c4nc(c(-c5c(F)cccc5F)c5ccc([nH]5)c(-c5c(F)cccc5F)c5nc(c(-c6c(F)cccc6F)c6ccc3[nH]6)C=C5)C=C4)cc1)[C@@H](C(F)(F)F)O2
REMARK SMILES IDX 17 1 16 2 15 3 14 4 13 5 11 6 12 7 10 9 1 10 2 11 3 12 8 13
REMARK SMILES IDX 4 14 7 15 5 16 6 17 9 18 82 19 77 20 78 21 79 22 80 23 81 24
REMARK SMILES IDX 18 25 19 26 20 27 21 28 22 30 23 31 24 32 76 33 25 34 75 35
REMARK SMILES IDX 26 36 27 37 28 38 69 39 29 40 74 41 68 42 70 43 30 44 73 45
REMARK SMILES IDX 67 46 66 47 31 49 57 50 40 51 56 52 41 53 44 54 55 55 71 56
REMARK SMILES IDX 42 57 43 58 54 60 72 61 45 62 32 63 33 64 38 65 34 66 35 67
REMARK SMILES IDX 37 68 39 69 36 70 58 71 59 72 64 73 60 74 61 75 63 76 65 77
REMARK SMILES IDX 62 78 46 79 47 80 52 81 48 82 49 83 51 84 53 85 50 86
REMARK H PARENT 13 8 20 29 70 48 44 59
REMARK Flexibility Score: inf
ROOT
ATOM      1  C   UNL A   1      36.006  20.870  25.339  1.00  0.00     0.002 C 
ENDROOT
BRANCH   1   2
ATOM      2  C   UNL A   1      34.652  20.270  24.934  1.00  0.00     0.002 C 
BRANCH   2   3
ATOM      3  C   UNL A   1      33.476  20.659  25.834  1.00  0.00     0.021 C 
BRANCH   3   4
ATOM      4  C   UNL A   1      32.416  21.493  25.124  1.00  0.00     0.116 C 
BRANCH   4   5
ATOM      5  N   UNL A   1      31.493  22.104  26.063  1.00  0.00    -0.352 N 
ATOM      6  C   UNL A   1      31.086  23.355  26.380  1.00  0.00     0.251 C 
ATOM      7  O   UNL A   1      30.223  23.420  27.260  1.00  0.00    -0.270 OA
ATOM      8  H   UNL A   1      31.043  21.428  26.618  1.00  0.00     0.163 HD
BRANCH   6   9
ATOM      9  C   UNL A   1      31.598  24.612  25.755  1.00  0.00     0.067 C 
ATOM     10  C   UNL A   1      32.525  30.582  27.110  1.00  0.00     0.044 C 
ATOM     11  C   UNL A   1      32.567  29.336  26.277  1.00  0.00    -0.049 A 
ATOM     12  C   UNL A   1      33.160  29.355  25.008  1.00  0.00     0.028 A 
ATOM     13  C   UNL A   1      32.069  28.127  26.783  1.00  0.00     0.015 A 
ATOM     14  C   UNL A   1      33.228  28.188  24.249  1.00  0.00     0.084 A 
ATOM     15  C   UNL A   1      32.135  26.954  26.023  1.00  0.00     0.019 A 
ATOM     16  Cl  UNL A   1      33.968  28.259  22.690  1.00  0.00    -0.080 Cl
ATOM     17  C   UNL A   1      32.708  26.990  24.750  1.00  0.00     0.146 A 
ATOM     18  C   UNL A   1      31.658  25.685  26.563  1.00  0.00     0.025 C 
ATOM     19  O   UNL A   1      32.832  25.870  23.981  1.00  0.00    -0.474 OA
ATOM     20  C   UNL A   1      31.999  24.733  24.313  1.00  0.00     0.314 C 
BRANCH  20  21
ATOM     21  C   UNL A   1      30.794  24.694  23.355  1.00  0.00     0.429 C 
ATOM     22  F   UNL A   1      29.743  25.369  23.885  1.00  0.00    -0.167 F 
ATOM     23  F   UNL A   1      31.055  25.278  22.162  1.00  0.00    -0.167 F 
ATOM     24  F   UNL A   1      30.382  23.434  23.094  1.00  0.00    -0.167 F 
ENDBRANCH  20  21
ENDBRANCH   6   9
ENDBRANCH   4   5
ENDBRANCH   3   4
ENDBRANCH   2   3
ENDBRANCH   1   2
BRANCH   1  25
ATOM     25  C   UNL A   1      37.233  20.074  24.886  1.00  0.00     0.021 C 
BRANCH  25  26
ATOM     26  C   UNL A   1      38.559  20.624  25.397  1.00  0.00     0.116 C 
BRANCH  26  27
ATOM     27  N   UNL A   1      39.545  19.572  25.580  1.00  0.00    -0.352 N 
ATOM     28  C   UNL A   1      40.849  19.671  25.988  1.00  0.00     0.251 C 
ATOM     29  H   UNL A   1      39.232  18.660  25.383  1.00  0.00     0.163 HD
ATOM     30  O   UNL A   1      41.612  18.715  25.878  1.00  0.00    -0.269 OA
BRANCH  28  31
ATOM     31  C   UNL A   1      41.336  20.946  26.550  1.00  0.00     0.039 A 
ATOM     32  C   UNL A   1      41.931  21.878  25.698  1.00  0.00     0.014 A 
ATOM     33  C   UNL A   1      41.203  21.215  27.915  1.00  0.00     0.014 A 
ATOM     34  C   UNL A   1      42.345  23.107  26.208  1.00  0.00     0.010 A 
ATOM     35  C   UNL A   1      41.549  22.469  28.408  1.00  0.00     0.010 A 
ATOM     36  C   UNL A   1      42.131  23.423  27.561  1.00  0.00    -0.014 A 
BRANCH  36  37
ATOM     37  C   UNL A   1      42.528  24.742  28.108  1.00  0.00     0.031 A 
ATOM     38  C   UNL A   1      41.495  25.818  28.295  1.00  0.00     0.074 A 
ATOM     39  C   UNL A   1      43.820  24.978  28.408  1.00  0.00     0.049 A 
ATOM     40  N   UNL A   1      41.650  27.043  28.729  1.00  0.00    -0.248 NA
ATOM     41  C   UNL A   1      40.109  25.483  27.929  1.00  0.00     0.031 C 
ATOM     42  C   UNL A   1      44.915  24.020  28.240  1.00  0.00     0.029 A 
ATOM     43  N   UNL A   1      44.431  26.094  28.918  1.00  0.00    -0.354 N 
ATOM     44  C   UNL A   1      40.386  27.617  28.693  1.00  0.00     0.074 A 
ATOM     45  C   UNL A   1      39.486  26.634  28.133  1.00  0.00     0.031 C 
ATOM     46  C   UNL A   1      46.056  24.576  28.676  1.00  0.00     0.029 A 
ATOM     47  C   UNL A   1      45.783  25.942  29.115  1.00  0.00     0.049 A 
ATOM     48  H   UNL A   1      43.948  26.927  29.124  1.00  0.00     0.167 HD
ATOM     49  C   UNL A   1      40.006  28.843  29.120  1.00  0.00     0.037 A 
ATOM     50  C   UNL A   1      46.697  26.805  29.596  1.00  0.00     0.037 A 
ATOM     51  C   UNL A   1      40.902  29.811  29.695  1.00  0.00     0.049 A 
ATOM     52  C   UNL A   1      46.252  28.179  30.022  1.00  0.00     0.074 A 
ATOM     53  C   UNL A   1      40.606  31.070  30.184  1.00  0.00     0.029 A 
ATOM     54  N   UNL A   1      42.267  29.625  29.858  1.00  0.00    -0.354 N 
ATOM     55  N   UNL A   1      45.045  28.692  30.027  1.00  0.00    -0.248 NA
ATOM     56  C   UNL A   1      47.294  29.093  30.509  1.00  0.00     0.031 C 
ATOM     57  C   UNL A   1      41.799  31.665  30.604  1.00  0.00     0.029 A 
ATOM     58  C   UNL A   1      42.829  30.757  30.424  1.00  0.00     0.049 A 
ATOM     59  H   UNL A   1      42.760  28.811  29.610  1.00  0.00     0.167 HD
ATOM     60  C   UNL A   1      45.179  29.974  30.544  1.00  0.00     0.074 A 
ATOM     61  C   UNL A   1      46.581  30.156  30.854  1.00  0.00     0.031 C 
ATOM     62  C   UNL A   1      44.225  30.915  30.742  1.00  0.00     0.037 A 
BRANCH  49  63
ATOM     63  C   UNL A   1      38.554  29.203  29.013  1.00  0.00     0.057 A 
ATOM     64  C   UNL A   1      37.707  29.167  30.128  1.00  0.00     0.134 A 
ATOM     65  C   UNL A   1      38.015  29.667  27.806  1.00  0.00     0.134 A 
ATOM     66  F   UNL A   1      38.158  28.721  31.310  1.00  0.00    -0.206 F 
ATOM     67  C   UNL A   1      36.374  29.572  30.046  1.00  0.00     0.040 A 
ATOM     68  C   UNL A   1      36.690  30.100  27.717  1.00  0.00     0.040 A 
ATOM     69  F   UNL A   1      38.772  29.731  26.700  1.00  0.00    -0.206 F 
ATOM     70  C   UNL A   1      35.865  30.051  28.840  1.00  0.00     0.006 A 
ENDBRANCH  49  63
BRANCH  50  71
ATOM     71  C   UNL A   1      48.116  26.390  29.734  1.00  0.00     0.057 A 
ATOM     72  C   UNL A   1      49.023  26.566  28.683  1.00  0.00     0.134 A 
ATOM     73  C   UNL A   1      48.603  25.809  30.911  1.00  0.00     0.134 A 
ATOM     74  F   UNL A   1      48.615  27.102  27.522  1.00  0.00    -0.206 F 
ATOM     75  C   UNL A   1      50.355  26.165  28.788  1.00  0.00     0.040 A 
ATOM     76  C   UNL A   1      49.939  25.427  31.042  1.00  0.00     0.040 A 
ATOM     77  F   UNL A   1      47.787  25.618  31.960  1.00  0.00    -0.206 F 
ATOM     78  C   UNL A   1      50.818  25.598  29.974  1.00  0.00     0.006 A 
ENDBRANCH  50  71
BRANCH  62  79
ATOM     79  C   UNL A   1      44.650  32.222  31.346  1.00  0.00     0.057 A 
ATOM     80  C   UNL A   1      44.988  33.324  30.552  1.00  0.00     0.134 A 
ATOM     81  C   UNL A   1      44.636  32.402  32.735  1.00  0.00     0.134 A 
ATOM     82  F   UNL A   1      45.028  33.215  29.217  1.00  0.00    -0.206 F 
ATOM     83  C   UNL A   1      45.307  34.558  31.120  1.00  0.00     0.040 A 
ATOM     84  C   UNL A   1      44.926  33.637  33.313  1.00  0.00     0.040 A 
ATOM     85  F   UNL A   1      44.308  31.388  33.551  1.00  0.00    -0.206 F 
ATOM     86  C   UNL A   1      45.266  34.720  32.504  1.00  0.00     0.006 A 
ENDBRANCH  62  79
ENDBRANCH  36  37
ENDBRANCH  28  31
ENDBRANCH  26  27
ENDBRANCH  25  26
ENDBRANCH   1  25
TORSDOF 14
ENDMDL
