MODEL 1
REMARK VINA RESULT:     -12.9      0.000      0.000
REMARK SMILES O=C(NCCCCCCNC(=O)c1cc2n(n1)[C@@H](C(F)(F)F)C[C@H](c1ccc3c(c1)OCO3)N2)c1ccc(-c2c3nc(c(-c4c(F)cccc4F)c4ccc([nH]4)c(-c4c(F)cccc4F)c4nc(c(-c5c(F)cccc5F)c5ccc2[nH]5)C=C4)C=C3)cc1
REMARK SMILES IDX 6 1 5 2 4 3 3 4 1 5 2 6 35 8 36 9 88 10 37 11 87 12 38 13
REMARK SMILES IDX 39 14 40 15 81 16 41 17 86 18 80 19 82 20 42 21 85 22 79 23
REMARK SMILES IDX 78 24 43 26 69 27 52 28 68 29 53 30 56 31 67 32 83 33 54 34
REMARK SMILES IDX 55 35 66 37 84 38 57 39 44 40 45 41 50 42 46 43 47 44 49 45
REMARK SMILES IDX 51 46 48 47 70 48 71 49 76 50 72 51 73 52 75 53 77 54 74 55
REMARK SMILES IDX 58 56 59 57 64 58 60 59 61 60 63 61 65 62 62 63 7 64 8 65
REMARK SMILES IDX 9 66 10 67 11 68 12 70 13 71 14 72 17 73 15 74 16 75 34 76
REMARK SMILES IDX 18 77 24 78 23 80 19 81 20 82 21 83 22 84 25 85 26 86 30 87
REMARK SMILES IDX 27 88 29 89 28 90 31 91 33 92 32 93
REMARK H PARENT 3 7 82 25 56 36 10 69 34 79
REMARK Flexibility Score: inf
ROOT
ATOM      1  C   UNL A   1      34.713  23.811  24.298  1.00  0.00     0.002 C 
ENDROOT
BRANCH   1   2
ATOM      2  C   UNL A   1      36.175  23.382  24.426  1.00  0.00     0.021 C 
BRANCH   2   3
ATOM      3  C   UNL A   1      36.727  23.427  25.846  1.00  0.00     0.116 C 
BRANCH   3   4
ATOM      4  N   UNL A   1      37.771  22.439  26.059  1.00  0.00    -0.352 N 
ATOM      5  O   UNL A   1      39.879  21.695  26.364  1.00  0.00    -0.269 OA
ATOM      6  C   UNL A   1      39.082  22.626  26.417  1.00  0.00     0.251 C 
ATOM      7  H   UNL A   1      37.498  21.502  25.927  1.00  0.00     0.163 HD
BRANCH   6   8
ATOM      8  C   UNL A   1      39.537  23.961  26.854  1.00  0.00     0.039 A 
ATOM      9  C   UNL A   1      39.468  24.333  28.199  1.00  0.00     0.014 A 
ATOM     10  C   UNL A   1      40.057  24.843  25.904  1.00  0.00     0.014 A 
ATOM     11  C   UNL A   1      39.807  25.627  28.577  1.00  0.00     0.010 A 
ATOM     12  C   UNL A   1      40.475  26.115  26.299  1.00  0.00     0.010 A 
ATOM     13  C   UNL A   1      40.335  26.524  27.635  1.00  0.00    -0.014 A 
BRANCH  13  14
ATOM     14  C   UNL A   1      40.809  27.860  28.071  1.00  0.00     0.031 A 
ATOM     15  C   UNL A   1      42.271  28.196  28.078  1.00  0.00     0.074 A 
ATOM     16  C   UNL A   1      39.904  28.760  28.496  1.00  0.00     0.049 A 
ATOM     17  N   UNL A   1      42.864  29.286  28.496  1.00  0.00    -0.248 NA
ATOM     18  C   UNL A   1      43.189  27.172  27.560  1.00  0.00     0.031 C 
ATOM     19  C   UNL A   1      38.457  28.537  28.546  1.00  0.00     0.029 A 
ATOM     20  N   UNL A   1      40.063  30.032  28.981  1.00  0.00    -0.354 N 
ATOM     21  C   UNL A   1      44.223  29.073  28.313  1.00  0.00     0.074 A 
ATOM     22  C   UNL A   1      44.369  27.738  27.771  1.00  0.00     0.031 C 
ATOM     23  C   UNL A   1      37.861  29.636  29.028  1.00  0.00     0.029 A 
ATOM     24  C   UNL A   1      38.884  30.613  29.382  1.00  0.00     0.049 A 
ATOM     25  H   UNL A   1      40.935  30.485  29.036  1.00  0.00     0.167 HD
ATOM     26  C   UNL A   1      45.253  29.916  28.572  1.00  0.00     0.037 A 
ATOM     27  C   UNL A   1      38.653  31.782  30.004  1.00  0.00     0.037 A 
ATOM     28  C   UNL A   1      45.092  31.242  29.116  1.00  0.00     0.049 A 
ATOM     29  C   UNL A   1      39.808  32.683  30.322  1.00  0.00     0.074 A 
ATOM     30  C   UNL A   1      46.063  32.194  29.368  1.00  0.00     0.029 A 
ATOM     31  N   UNL A   1      43.881  31.795  29.512  1.00  0.00    -0.354 N 
ATOM     32  N   UNL A   1      41.085  32.494  30.093  1.00  0.00    -0.248 NA
ATOM     33  C   UNL A   1      39.496  33.957  30.982  1.00  0.00     0.031 C 
ATOM     34  C   UNL A   1      45.451  33.294  29.976  1.00  0.00     0.029 A 
ATOM     35  C   UNL A   1      44.087  33.058  30.041  1.00  0.00     0.049 A 
ATOM     36  H   UNL A   1      43.005  31.353  29.429  1.00  0.00     0.167 HD
ATOM     37  C   UNL A   1      41.728  33.633  30.560  1.00  0.00     0.074 A 
ATOM     38  C   UNL A   1      40.697  34.511  31.077  1.00  0.00     0.031 C 
ATOM     39  C   UNL A   1      43.051  33.924  30.553  1.00  0.00     0.037 A 
BRANCH  26  40
ATOM     40  C   UNL A   1      46.644  29.413  28.309  1.00  0.00     0.057 A 
ATOM     41  C   UNL A   1      47.376  28.700  29.269  1.00  0.00     0.134 A 
ATOM     42  C   UNL A   1      47.258  29.636  27.069  1.00  0.00     0.134 A 
ATOM     43  F   UNL A   1      46.854  28.456  30.480  1.00  0.00    -0.206 F 
ATOM     44  C   UNL A   1      48.679  28.264  29.019  1.00  0.00     0.040 A 
ATOM     45  C   UNL A   1      48.549  29.178  26.797  1.00  0.00     0.040 A 
ATOM     46  F   UNL A   1      46.614  30.301  26.099  1.00  0.00    -0.206 F 
ATOM     47  C   UNL A   1      49.268  28.500  27.778  1.00  0.00     0.006 A 
ENDBRANCH  26  40
BRANCH  27  48
ATOM     48  C   UNL A   1      37.262  32.136  30.380  1.00  0.00     0.057 A 
ATOM     49  C   UNL A   1      36.417  32.808  29.491  1.00  0.00     0.134 A 
ATOM     50  C   UNL A   1      36.729  31.758  31.619  1.00  0.00     0.134 A 
ATOM     51  F   UNL A   1      36.875  33.205  28.294  1.00  0.00    -0.206 F 
ATOM     52  C   UNL A   1      35.091  33.095  29.821  1.00  0.00     0.040 A 
ATOM     53  C   UNL A   1      35.398  32.014  31.951  1.00  0.00     0.040 A 
ATOM     54  F   UNL A   1      37.485  31.100  32.509  1.00  0.00    -0.206 F 
ATOM     55  C   UNL A   1      34.577  32.688  31.051  1.00  0.00     0.006 A 
ENDBRANCH  27  48
BRANCH  39  56
ATOM     56  C   UNL A   1      43.468  35.263  31.087  1.00  0.00     0.057 A 
ATOM     57  C   UNL A   1      43.785  35.459  32.437  1.00  0.00     0.134 A 
ATOM     58  C   UNL A   1      43.620  36.355  30.222  1.00  0.00     0.134 A 
ATOM     59  F   UNL A   1      43.647  34.459  33.320  1.00  0.00    -0.206 F 
ATOM     60  C   UNL A   1      44.231  36.695  32.908  1.00  0.00     0.040 A 
ATOM     61  C   UNL A   1      44.090  37.587  30.675  1.00  0.00     0.040 A 
ATOM     62  F   UNL A   1      43.337  36.234  28.915  1.00  0.00    -0.206 F 
ATOM     63  C   UNL A   1      44.395  37.760  32.024  1.00  0.00     0.006 A 
ENDBRANCH  39  56
ENDBRANCH  13  14
ENDBRANCH   6   8
ENDBRANCH   3   4
ENDBRANCH   2   3
ENDBRANCH   1   2
BRANCH   1  64
ATOM     64  C   UNL A   1      33.810  22.833  23.539  1.00  0.00     0.002 C 
BRANCH  64  65
ATOM     65  C   UNL A   1      32.631  22.281  24.341  1.00  0.00     0.021 C 
BRANCH  65  66
ATOM     66  C   UNL A   1      32.680  22.585  25.835  1.00  0.00     0.116 C 
BRANCH  66  67
ATOM     67  N   UNL A   1      31.386  22.407  26.470  1.00  0.00    -0.351 N 
ATOM     68  C   UNL A   1      30.435  23.354  26.781  1.00  0.00     0.271 C 
ATOM     69  H   UNL A   1      31.156  21.479  26.712  1.00  0.00     0.163 HD
ATOM     70  O   UNL A   1      29.494  23.023  27.505  1.00  0.00    -0.267 OA
BRANCH  68  71
ATOM     71  C   UNL A   1      30.588  24.701  26.219  1.00  0.00     0.152 A 
ATOM     72  C   UNL A   1      29.836  25.273  25.150  1.00  0.00     0.082 A 
ATOM     73  N   UNL A   1      31.507  25.576  26.680  1.00  0.00    -0.165 NA
ATOM     74  C   UNL A   1      30.429  26.477  24.897  1.00  0.00     0.126 A 
ATOM     75  N   UNL A   1      31.393  26.622  25.851  1.00  0.00    -0.237 N 
ATOM     76  N   UNL A   1      30.218  27.415  23.956  1.00  0.00    -0.363 N 
ATOM     77  C   UNL A   1      32.220  27.805  25.979  1.00  0.00     0.217 C 
ATOM     78  C   UNL A   1      30.951  28.678  23.937  1.00  0.00     0.113 C 
ATOM     79  H   UNL A   1      29.546  27.245  23.255  1.00  0.00     0.162 HD
ATOM     80  C   UNL A   1      31.481  29.004  25.352  1.00  0.00     0.066 C 
BRANCH  77  81
ATOM     81  C   UNL A   1      33.572  27.563  25.345  1.00  0.00     0.410 C 
ATOM     82  F   UNL A   1      34.322  26.771  26.158  1.00  0.00    -0.169 F 
ATOM     83  F   UNL A   1      33.495  26.926  24.158  1.00  0.00    -0.169 F 
ATOM     84  F   UNL A   1      34.284  28.696  25.158  1.00  0.00    -0.169 F 
ENDBRANCH  77  81
BRANCH  78  85
ATOM     85  C   UNL A   1      30.090  29.812  23.390  1.00  0.00    -0.022 A 
ATOM     86  C   UNL A   1      29.762  30.895  24.246  1.00  0.00     0.010 A 
ATOM     87  C   UNL A   1      29.620  29.836  22.063  1.00  0.00     0.056 A 
ATOM     88  C   UNL A   1      28.994  31.974  23.795  1.00  0.00     0.051 A 
ATOM     89  C   UNL A   1      28.886  30.925  21.640  1.00  0.00     0.166 A 
ATOM     90  C   UNL A   1      28.579  31.963  22.484  1.00  0.00     0.165 A 
ATOM     91  O   UNL A   1      28.395  31.109  20.386  1.00  0.00    -0.454 OA
ATOM     92  O   UNL A   1      27.846  32.930  21.870  1.00  0.00    -0.454 OA
ATOM     93  C   UNL A   1      27.736  32.383  20.539  1.00  0.00     0.468 C 
ENDBRANCH  78  85
ENDBRANCH  68  71
ENDBRANCH  66  67
ENDBRANCH  65  66
ENDBRANCH  64  65
ENDBRANCH   1  64
TORSDOF 15
ENDMDL
MODEL 2
REMARK VINA RESULT:     -12.9      1.673      2.211
REMARK SMILES O=C(NCCCCCCNC(=O)c1cc2n(n1)[C@@H](C(F)(F)F)C[C@H](c1ccc3c(c1)OCO3)N2)c1ccc(-c2c3nc(c(-c4c(F)cccc4F)c4ccc([nH]4)c(-c4c(F)cccc4F)c4nc(c(-c5c(F)cccc5F)c5ccc2[nH]5)C=C4)C=C3)cc1
REMARK SMILES IDX 6 1 5 2 4 3 3 4 1 5 2 6 35 8 36 9 88 10 37 11 87 12 38 13
REMARK SMILES IDX 39 14 40 15 81 16 41 17 86 18 80 19 82 20 42 21 85 22 79 23
REMARK SMILES IDX 78 24 43 26 69 27 52 28 68 29 53 30 56 31 67 32 83 33 54 34
REMARK SMILES IDX 55 35 66 37 84 38 57 39 44 40 45 41 50 42 46 43 47 44 49 45
REMARK SMILES IDX 51 46 48 47 70 48 71 49 76 50 72 51 73 52 75 53 77 54 74 55
REMARK SMILES IDX 58 56 59 57 64 58 60 59 61 60 63 61 65 62 62 63 7 64 8 65
REMARK SMILES IDX 9 66 10 67 11 68 12 70 13 71 14 72 17 73 15 74 16 75 34 76
REMARK SMILES IDX 18 77 24 78 23 80 19 81 20 82 21 83 22 84 25 85 26 86 30 87
REMARK SMILES IDX 27 88 29 89 28 90 31 91 33 92 32 93
REMARK H PARENT 3 7 82 25 56 36 10 69 34 79
REMARK Flexibility Score: inf
ROOT
ATOM      1  C   UNL A   1      35.785  21.762  24.794  1.00  0.00     0.002 C 
ENDROOT
BRANCH   1   2
ATOM      2  C   UNL A   1      35.818  23.291  24.798  1.00  0.00     0.021 C 
BRANCH   2   3
ATOM      3  C   UNL A   1      37.076  23.896  25.411  1.00  0.00     0.116 C 
BRANCH   3   4
ATOM      4  N   UNL A   1      38.119  22.904  25.612  1.00  0.00    -0.352 N 
ATOM      5  O   UNL A   1      40.188  22.154  26.107  1.00  0.00    -0.269 OA
ATOM      6  C   UNL A   1      39.353  23.048  26.193  1.00  0.00     0.251 C 
ATOM      7  H   UNL A   1      37.908  21.999  25.285  1.00  0.00     0.163 HD
BRANCH   6   8
ATOM      8  C   UNL A   1      39.681  24.296  26.911  1.00  0.00     0.039 A 
ATOM      9  C   UNL A   1      39.282  24.482  28.237  1.00  0.00     0.014 A 
ATOM     10  C   UNL A   1      40.416  25.284  26.251  1.00  0.00     0.014 A 
ATOM     11  C   UNL A   1      39.513  25.701  28.865  1.00  0.00     0.010 A 
ATOM     12  C   UNL A   1      40.719  26.476  26.911  1.00  0.00     0.010 A 
ATOM     13  C   UNL A   1      40.252  26.701  28.216  1.00  0.00    -0.014 A 
BRANCH  13  14
ATOM     14  C   UNL A   1      40.600  27.949  28.938  1.00  0.00     0.031 A 
ATOM     15  C   UNL A   1      41.924  28.102  29.625  1.00  0.00     0.074 A 
ATOM     16  C   UNL A   1      39.687  28.937  28.998  1.00  0.00     0.049 A 
ATOM     17  N   UNL A   1      42.362  29.092  30.360  1.00  0.00    -0.248 NA
ATOM     18  C   UNL A   1      42.879  26.994  29.476  1.00  0.00     0.031 C 
ATOM     19  C   UNL A   1      38.359  28.892  28.380  1.00  0.00     0.029 A 
ATOM     20  N   UNL A   1      39.727  30.158  29.618  1.00  0.00    -0.354 N 
ATOM     21  C   UNL A   1      43.632  28.720  30.781  1.00  0.00     0.074 A 
ATOM     22  C   UNL A   1      43.883  27.400  30.241  1.00  0.00     0.031 C 
ATOM     23  C   UNL A   1      37.714  30.036  28.646  1.00  0.00     0.029 A 
ATOM     24  C   UNL A   1      38.553  30.863  29.505  1.00  0.00     0.049 A 
ATOM     25  H   UNL A   1      40.517  30.497  30.097  1.00  0.00     0.167 HD
ATOM     26  C   UNL A   1      44.506  29.418  31.548  1.00  0.00     0.037 A 
ATOM     27  C   UNL A   1      38.174  32.026  30.065  1.00  0.00     0.037 A 
ATOM     28  C   UNL A   1      44.239  30.730  32.083  1.00  0.00     0.049 A 
ATOM     29  C   UNL A   1      39.139  32.763  30.945  1.00  0.00     0.074 A 
ATOM     30  C   UNL A   1      45.076  31.543  32.827  1.00  0.00     0.029 A 
ATOM     31  N   UNL A   1      43.037  31.412  31.949  1.00  0.00    -0.354 N 
ATOM     32  N   UNL A   1      40.358  32.428  31.290  1.00  0.00    -0.248 NA
ATOM     33  C   UNL A   1      38.681  34.038  31.511  1.00  0.00     0.031 C 
ATOM     34  C   UNL A   1      44.359  32.685  33.198  1.00  0.00     0.029 A 
ATOM     35  C   UNL A   1      43.098  32.617  32.628  1.00  0.00     0.049 A 
ATOM     36  H   UNL A   1      42.256  31.086  31.445  1.00  0.00     0.167 HD
ATOM     37  C   UNL A   1      40.822  33.458  32.096  1.00  0.00     0.074 A 
ATOM     38  C   UNL A   1      39.755  34.435  32.181  1.00  0.00     0.031 C 
ATOM     39  C   UNL A   1      42.027  33.583  32.704  1.00  0.00     0.037 A 
BRANCH  26  40
ATOM     40  C   UNL A   1      45.813  28.758  31.885  1.00  0.00     0.057 A 
ATOM     41  C   UNL A   1      45.980  27.969  33.032  1.00  0.00     0.134 A 
ATOM     42  C   UNL A   1      46.922  28.905  31.041  1.00  0.00     0.134 A 
ATOM     43  F   UNL A   1      44.963  27.791  33.889  1.00  0.00    -0.206 F 
ATOM     44  C   UNL A   1      47.209  27.386  33.346  1.00  0.00     0.040 A 
ATOM     45  C   UNL A   1      48.147  28.301  31.328  1.00  0.00     0.040 A 
ATOM     46  F   UNL A   1      46.834  29.635  29.919  1.00  0.00    -0.206 F 
ATOM     47  C   UNL A   1      48.297  27.548  32.490  1.00  0.00     0.006 A 
ENDBRANCH  26  40
BRANCH  27  48
ATOM     48  C   UNL A   1      36.803  32.534  29.815  1.00  0.00     0.057 A 
ATOM     49  C   UNL A   1      35.733  32.177  30.641  1.00  0.00     0.134 A 
ATOM     50  C   UNL A   1      36.544  33.436  28.774  1.00  0.00     0.134 A 
ATOM     51  F   UNL A   1      35.918  31.309  31.647  1.00  0.00    -0.206 F 
ATOM     52  C   UNL A   1      34.452  32.695  30.441  1.00  0.00     0.040 A 
ATOM     53  C   UNL A   1      35.275  33.983  28.579  1.00  0.00     0.040 A 
ATOM     54  F   UNL A   1      37.531  33.827  27.956  1.00  0.00    -0.206 F 
ATOM     55  C   UNL A   1      34.224  33.609  29.413  1.00  0.00     0.006 A 
ENDBRANCH  27  48
BRANCH  39  56
ATOM     56  C   UNL A   1      42.279  34.838  33.489  1.00  0.00     0.057 A 
ATOM     57  C   UNL A   1      41.927  34.952  34.840  1.00  0.00     0.134 A 
ATOM     58  C   UNL A   1      42.946  35.920  32.900  1.00  0.00     0.134 A 
ATOM     59  F   UNL A   1      41.273  33.959  35.459  1.00  0.00    -0.206 F 
ATOM     60  C   UNL A   1      42.224  36.102  35.574  1.00  0.00     0.040 A 
ATOM     61  C   UNL A   1      43.272  37.063  33.629  1.00  0.00     0.040 A 
ATOM     62  F   UNL A   1      43.315  35.872  31.610  1.00  0.00    -0.206 F 
ATOM     63  C   UNL A   1      42.908  37.157  34.971  1.00  0.00     0.006 A 
ENDBRANCH  39  56
ENDBRANCH  13  14
ENDBRANCH   6   8
ENDBRANCH   3   4
ENDBRANCH   2   3
ENDBRANCH   1   2
BRANCH   1  64
ATOM     64  C   UNL A   1      34.385  21.140  24.749  1.00  0.00     0.002 C 
BRANCH  64  65
ATOM     65  C   UNL A   1      33.410  21.655  25.810  1.00  0.00     0.021 C 
BRANCH  65  66
ATOM     66  C   UNL A   1      32.139  22.288  25.252  1.00  0.00     0.116 C 
BRANCH  66  67
ATOM     67  N   UNL A   1      31.042  22.233  26.201  1.00  0.00    -0.351 N 
ATOM     68  C   UNL A   1      30.336  23.271  26.770  1.00  0.00     0.271 C 
ATOM     69  H   UNL A   1      30.763  21.329  26.476  1.00  0.00     0.163 HD
ATOM     70  O   UNL A   1      29.579  23.018  27.709  1.00  0.00    -0.267 OA
BRANCH  68  71
ATOM     71  C   UNL A   1      30.513  24.618  26.215  1.00  0.00     0.152 A 
ATOM     72  C   UNL A   1      29.767  25.211  25.154  1.00  0.00     0.082 A 
ATOM     73  N   UNL A   1      31.453  25.471  26.675  1.00  0.00    -0.165 NA
ATOM     74  C   UNL A   1      30.384  26.403  24.903  1.00  0.00     0.126 A 
ATOM     75  N   UNL A   1      31.356  26.524  25.852  1.00  0.00    -0.237 N 
ATOM     76  N   UNL A   1      30.186  27.351  23.968  1.00  0.00    -0.363 N 
ATOM     77  C   UNL A   1      32.208  27.689  25.981  1.00  0.00     0.217 C 
ATOM     78  C   UNL A   1      30.945  28.599  23.953  1.00  0.00     0.113 C 
ATOM     79  H   UNL A   1      29.507  27.199  23.271  1.00  0.00     0.162 HD
ATOM     80  C   UNL A   1      31.490  28.906  25.365  1.00  0.00     0.066 C 
BRANCH  77  81
ATOM     81  C   UNL A   1      33.551  27.422  25.338  1.00  0.00     0.410 C 
ATOM     82  F   UNL A   1      34.205  28.598  25.142  1.00  0.00    -0.169 F 
ATOM     83  F   UNL A   1      34.361  26.658  26.099  1.00  0.00    -0.169 F 
ATOM     84  F   UNL A   1      33.454  26.835  24.125  1.00  0.00    -0.169 F 
ENDBRANCH  77  81
BRANCH  78  85
ATOM     85  C   UNL A   1      30.105  29.754  23.417  1.00  0.00    -0.022 A 
ATOM     86  C   UNL A   1      29.825  30.849  24.273  1.00  0.00     0.010 A 
ATOM     87  C   UNL A   1      29.609  29.784  22.100  1.00  0.00     0.056 A 
ATOM     88  C   UNL A   1      29.077  31.947  23.832  1.00  0.00     0.051 A 
ATOM     89  C   UNL A   1      28.896  30.891  21.686  1.00  0.00     0.166 A 
ATOM     90  C   UNL A   1      28.636  31.941  22.530  1.00  0.00     0.165 A 
ATOM     91  O   UNL A   1      28.385  31.082  20.441  1.00  0.00    -0.454 OA
ATOM     92  O   UNL A   1      27.917  32.925  21.925  1.00  0.00    -0.454 OA
ATOM     93  C   UNL A   1      27.764  32.374  20.600  1.00  0.00     0.468 C 
ENDBRANCH  78  85
ENDBRANCH  68  71
ENDBRANCH  66  67
ENDBRANCH  65  66
ENDBRANCH  64  65
ENDBRANCH   1  64
TORSDOF 15
ENDMDL
MODEL 3
REMARK VINA RESULT:     -12.7      2.138      6.627
REMARK SMILES O=C(NCCCCCCNC(=O)c1cc2n(n1)[C@@H](C(F)(F)F)C[C@H](c1ccc3c(c1)OCO3)N2)c1ccc(-c2c3nc(c(-c4c(F)cccc4F)c4ccc([nH]4)c(-c4c(F)cccc4F)c4nc(c(-c5c(F)cccc5F)c5ccc2[nH]5)C=C4)C=C3)cc1
REMARK SMILES IDX 6 1 5 2 4 3 3 4 1 5 2 6 35 8 36 9 88 10 37 11 87 12 38 13
REMARK SMILES IDX 39 14 40 15 81 16 41 17 86 18 80 19 82 20 42 21 85 22 79 23
REMARK SMILES IDX 78 24 43 26 69 27 52 28 68 29 53 30 56 31 67 32 83 33 54 34
REMARK SMILES IDX 55 35 66 37 84 38 57 39 44 40 45 41 50 42 46 43 47 44 49 45
REMARK SMILES IDX 51 46 48 47 70 48 71 49 76 50 72 51 73 52 75 53 77 54 74 55
REMARK SMILES IDX 58 56 59 57 64 58 60 59 61 60 63 61 65 62 62 63 7 64 8 65
REMARK SMILES IDX 9 66 10 67 11 68 12 70 13 71 14 72 17 73 15 74 16 75 34 76
REMARK SMILES IDX 18 77 24 78 23 80 19 81 20 82 21 83 22 84 25 85 26 86 30 87
REMARK SMILES IDX 27 88 29 89 28 90 31 91 33 92 32 93
REMARK H PARENT 3 7 82 25 56 36 10 69 34 79
REMARK Flexibility Score: inf
ROOT
ATOM      1  C   UNL A   1      36.133  20.264  24.987  1.00  0.00     0.002 C 
ENDROOT
BRANCH   1   2
ATOM      2  C   UNL A   1      37.550  19.790  24.665  1.00  0.00     0.021 C 
BRANCH   2   3
ATOM      3  C   UNL A   1      38.615  20.261  25.650  1.00  0.00     0.116 C 
BRANCH   3   4
ATOM      4  N   UNL A   1      39.722  19.325  25.747  1.00  0.00    -0.352 N 
ATOM      5  O   UNL A   1      41.879  18.689  25.920  1.00  0.00    -0.269 OA
ATOM      6  C   UNL A   1      41.033  19.563  26.074  1.00  0.00     0.251 C 
ATOM      7  H   UNL A   1      39.499  18.386  25.551  1.00  0.00     0.163 HD
BRANCH   6   8
ATOM      8  C   UNL A   1      41.426  20.886  26.600  1.00  0.00     0.039 A 
ATOM      9  C   UNL A   1      41.829  21.906  25.734  1.00  0.00     0.014 A 
ATOM     10  C   UNL A   1      41.369  21.111  27.977  1.00  0.00     0.014 A 
ATOM     11  C   UNL A   1      42.289  23.112  26.251  1.00  0.00     0.010 A 
ATOM     12  C   UNL A   1      41.753  22.351  28.489  1.00  0.00     0.010 A 
ATOM     13  C   UNL A   1      42.235  23.354  27.632  1.00  0.00    -0.014 A 
BRANCH  13  14
ATOM     14  C   UNL A   1      42.612  24.686  28.165  1.00  0.00     0.031 A 
ATOM     15  C   UNL A   1      41.579  25.753  28.379  1.00  0.00     0.074 A 
ATOM     16  C   UNL A   1      43.909  24.937  28.420  1.00  0.00     0.049 A 
ATOM     17  N   UNL A   1      41.742  26.993  28.765  1.00  0.00    -0.248 NA
ATOM     18  C   UNL A   1      40.180  25.384  28.114  1.00  0.00     0.031 C 
ATOM     19  C   UNL A   1      45.002  23.980  28.235  1.00  0.00     0.029 A 
ATOM     20  N   UNL A   1      44.530  26.072  28.872  1.00  0.00    -0.354 N 
ATOM     21  C   UNL A   1      40.475  27.559  28.769  1.00  0.00     0.074 A 
ATOM     22  C   UNL A   1      39.556  26.535  28.320  1.00  0.00     0.031 C 
ATOM     23  C   UNL A   1      46.158  24.565  28.577  1.00  0.00     0.029 A 
ATOM     24  C   UNL A   1      45.898  25.952  28.940  1.00  0.00     0.049 A 
ATOM     25  H   UNL A   1      44.046  26.891  29.125  1.00  0.00     0.167 HD
ATOM     26  C   UNL A   1      40.114  28.819  29.118  1.00  0.00     0.037 A 
ATOM     27  C   UNL A   1      46.843  26.867  29.220  1.00  0.00     0.037 A 
ATOM     28  C   UNL A   1      41.043  29.831  29.559  1.00  0.00     0.049 A 
ATOM     29  C   UNL A   1      46.428  28.267  29.561  1.00  0.00     0.074 A 
ATOM     30  C   UNL A   1      40.775  31.120  29.984  1.00  0.00     0.029 A 
ATOM     31  N   UNL A   1      42.421  29.673  29.613  1.00  0.00    -0.354 N 
ATOM     32  N   UNL A   1      45.221  28.777  29.616  1.00  0.00    -0.248 NA
ATOM     33  C   UNL A   1      47.499  29.218  29.881  1.00  0.00     0.031 C 
ATOM     34  C   UNL A   1      41.993  31.762  30.230  1.00  0.00     0.029 A 
ATOM     35  C   UNL A   1      43.018  30.852  30.026  1.00  0.00     0.049 A 
ATOM     36  H   UNL A   1      42.903  28.844  29.389  1.00  0.00     0.167 HD
ATOM     37  C   UNL A   1      45.385  30.101  29.997  1.00  0.00     0.074 A 
ATOM     38  C   UNL A   1      46.808  30.313  30.168  1.00  0.00     0.031 C 
ATOM     39  C   UNL A   1      44.438  31.051  30.193  1.00  0.00     0.037 A 
BRANCH  26  40
ATOM     40  C   UNL A   1      38.662  29.183  28.996  1.00  0.00     0.057 A 
ATOM     41  C   UNL A   1      38.099  29.625  27.790  1.00  0.00     0.134 A 
ATOM     42  C   UNL A   1      37.807  29.079  30.102  1.00  0.00     0.134 A 
ATOM     43  F   UNL A   1      38.859  29.756  26.692  1.00  0.00    -0.206 F 
ATOM     44  C   UNL A   1      36.753  29.987  27.700  1.00  0.00     0.040 A 
ATOM     45  C   UNL A   1      36.453  29.408  30.016  1.00  0.00     0.040 A 
ATOM     46  F   UNL A   1      38.273  28.652  31.286  1.00  0.00    -0.206 F 
ATOM     47  C   UNL A   1      35.925  29.875  28.815  1.00  0.00     0.006 A 
ENDBRANCH  26  40
BRANCH  27  48
ATOM     48  C   UNL A   1      48.271  26.470  29.160  1.00  0.00     0.057 A 
ATOM     49  C   UNL A   1      49.048  26.720  28.025  1.00  0.00     0.134 A 
ATOM     50  C   UNL A   1      48.906  25.883  30.263  1.00  0.00     0.134 A 
ATOM     51  F   UNL A   1      48.493  27.270  26.935  1.00  0.00    -0.206 F 
ATOM     52  C   UNL A   1      50.405  26.396  27.985  1.00  0.00     0.040 A 
ATOM     53  C   UNL A   1      50.267  25.580  30.247  1.00  0.00     0.040 A 
ATOM     54  F   UNL A   1      48.218  25.631  31.385  1.00  0.00    -0.206 F 
ATOM     55  C   UNL A   1      51.020  25.834  29.102  1.00  0.00     0.006 A 
ENDBRANCH  27  48
BRANCH  39  56
ATOM     56  C   UNL A   1      44.900  32.404  30.652  1.00  0.00     0.057 A 
ATOM     57  C   UNL A   1      45.125  33.455  29.755  1.00  0.00     0.134 A 
ATOM     58  C   UNL A   1      45.054  32.674  32.018  1.00  0.00     0.134 A 
ATOM     59  F   UNL A   1      45.010  33.259  28.433  1.00  0.00    -0.206 F 
ATOM     60  C   UNL A   1      45.494  34.726  30.201  1.00  0.00     0.040 A 
ATOM     61  C   UNL A   1      45.396  33.946  32.477  1.00  0.00     0.040 A 
ATOM     62  F   UNL A   1      44.849  31.712  32.930  1.00  0.00    -0.206 F 
ATOM     63  C   UNL A   1      45.620  34.976  31.567  1.00  0.00     0.006 A 
ENDBRANCH  39  56
ENDBRANCH  13  14
ENDBRANCH   6   8
ENDBRANCH   3   4
ENDBRANCH   2   3
ENDBRANCH   1   2
BRANCH   1  64
ATOM     64  C   UNL A   1      35.830  21.718  24.613  1.00  0.00     0.002 C 
BRANCH  64  65
ATOM     65  C   UNL A   1      34.558  22.298  25.235  1.00  0.00     0.021 C 
BRANCH  65  66
ATOM     66  C   UNL A   1      33.374  22.404  24.280  1.00  0.00     0.116 C 
BRANCH  66  67
ATOM     67  N   UNL A   1      32.134  21.968  24.899  1.00  0.00    -0.351 N 
ATOM     68  C   UNL A   1      31.120  22.729  25.438  1.00  0.00     0.271 C 
ATOM     69  H   UNL A   1      31.999  20.993  24.938  1.00  0.00     0.163 HD
ATOM     70  O   UNL A   1      30.249  22.161  26.100  1.00  0.00    -0.267 OA
BRANCH  68  71
ATOM     71  C   UNL A   1      31.126  24.174  25.182  1.00  0.00     0.152 A 
ATOM     72  C   UNL A   1      30.508  24.852  24.089  1.00  0.00     0.082 A 
ATOM     73  N   UNL A   1      31.754  25.050  25.995  1.00  0.00    -0.165 NA
ATOM     74  C   UNL A   1      30.902  26.154  24.203  1.00  0.00     0.126 A 
ATOM     75  N   UNL A   1      31.613  26.225  25.366  1.00  0.00    -0.237 N 
ATOM     76  N   UNL A   1      30.710  27.235  23.425  1.00  0.00    -0.363 N 
ATOM     77  C   UNL A   1      32.160  27.458  25.895  1.00  0.00     0.217 C 
ATOM     78  C   UNL A   1      31.181  28.564  23.807  1.00  0.00     0.113 C 
ATOM     79  H   UNL A   1      30.235  27.127  22.568  1.00  0.00     0.162 HD
ATOM     80  C   UNL A   1      31.348  28.646  25.341  1.00  0.00     0.066 C 
BRANCH  77  81
ATOM     81  C   UNL A   1      33.632  27.556  25.560  1.00  0.00     0.410 C 
ATOM     82  F   UNL A   1      33.925  26.708  24.539  1.00  0.00    -0.169 F 
ATOM     83  F   UNL A   1      34.002  28.787  25.152  1.00  0.00    -0.169 F 
ATOM     84  F   UNL A   1      34.437  27.205  26.587  1.00  0.00    -0.169 F 
ENDBRANCH  77  81
BRANCH  78  85
ATOM     85  C   UNL A   1      30.249  29.654  23.290  1.00  0.00    -0.022 A 
ATOM     86  C   UNL A   1      29.837  30.680  24.179  1.00  0.00     0.010 A 
ATOM     87  C   UNL A   1      29.791  29.693  21.959  1.00  0.00     0.056 A 
ATOM     88  C   UNL A   1      29.000  31.719  23.757  1.00  0.00     0.051 A 
ATOM     89  C   UNL A   1      28.987  30.743  21.565  1.00  0.00     0.166 A 
ATOM     90  C   UNL A   1      28.600  31.726  22.441  1.00  0.00     0.165 A 
ATOM     91  O   UNL A   1      28.497  30.937  20.313  1.00  0.00    -0.454 OA
ATOM     92  O   UNL A   1      27.807  32.661  21.852  1.00  0.00    -0.454 OA
ATOM     93  C   UNL A   1      27.749  32.156  20.502  1.00  0.00     0.468 C 
ENDBRANCH  78  85
ENDBRANCH  68  71
ENDBRANCH  66  67
ENDBRANCH  65  66
ENDBRANCH  64  65
ENDBRANCH   1  64
TORSDOF 15
ENDMDL
