MODEL 1
REMARK VINA RESULT:     -12.6      0.000      0.000
REMARK SMILES Cc1ccc(C(=O)NC2CC2)cc1NC(=O)[C@@H]1[C@@H](C(=O)NCCCCCCNC(=O)c2ccc(-c3c4nc(c(-c5c(F)cccc5F)c5ccc([nH]5)c(-c5c(F)cccc5F)c5nc(c(-c6c(F)cccc6F)c6ccc3[nH]6)C=C5)C=C4)cc2)[C@H]2C=C[C@@H]1C2
REMARK SMILES IDX 23 1 22 2 21 3 19 4 20 5 18 7 17 8 88 9 85 10 87 11 89 12
REMARK SMILES IDX 86 13 15 14 14 15 16 17 13 18 1 19 2 20 3 21 4 22 12 23 5 24
REMARK SMILES IDX 6 25 7 26 8 27 9 29 10 30 11 31 24 32 25 33 26 34 27 35
REMARK SMILES IDX 28 36 29 37 30 39 31 40 32 41 84 42 33 43 83 44 34 45 35 46
REMARK SMILES IDX 36 47 77 48 37 49 82 50 76 51 78 52 38 53 81 54 75 55 74 56
REMARK SMILES IDX 39 58 65 59 48 60 64 61 49 62 52 63 63 64 79 65 50 66 51 67
REMARK SMILES IDX 62 69 80 70 53 71 40 72 41 73 46 74 42 75 43 76 45 77 47 78
REMARK SMILES IDX 44 79 66 80 67 81 72 82 68 83 69 84 71 85 73 86 70 87 54 88
REMARK SMILES IDX 55 89 60 90 56 91 57 92 59 93 61 94 58 95
REMARK H PARENT 21 6 14 16 8 28 28 38 78 57 52 68
REMARK Flexibility Score: inf
ROOT
ATOM      1  C   UNL A   1      36.452  23.000  25.471  1.00  0.00     0.021 C 
ENDROOT
BRANCH   1   2
ATOM      2  C   UNL A   1      35.302  22.959  26.477  1.00  0.00     0.116 C 
BRANCH   2   3
ATOM      3  N   UNL A   1      34.548  24.188  26.519  1.00  0.00    -0.356 N 
ATOM      4  C   UNL A   1      33.740  24.778  25.607  1.00  0.00     0.224 C 
ATOM      5  O   UNL A   1      33.237  25.852  25.961  1.00  0.00    -0.275 OA
ATOM      6  H   UNL A   1      34.638  24.688  27.362  1.00  0.00     0.163 HD
BRANCH   4   7
ATOM      7  C   UNL A   1      33.525  24.265  24.182  1.00  0.00     0.098 C 
ATOM      8  C   UNL A   1      32.534  25.251  23.438  1.00  0.00     0.099 C 
ATOM      9  C   UNL A   1      31.539  24.288  22.738  1.00  0.00     0.025 C 
ATOM     10  C   UNL A   1      32.842  22.902  23.921  1.00  0.00     0.025 C 
ATOM     11  C   UNL A   1      30.675  23.659  23.809  1.00  0.00    -0.027 C 
ATOM     12  C   UNL A   1      32.425  23.079  22.450  1.00  0.00     0.017 C 
ATOM     13  C   UNL A   1      31.464  22.856  24.539  1.00  0.00    -0.027 C 
BRANCH   8  14
ATOM     14  C   UNL A   1      33.189  26.211  22.461  1.00  0.00     0.228 C 
ATOM     15  N   UNL A   1      32.755  27.506  22.319  1.00  0.00    -0.326 N 
ATOM     16  H   UNL A   1      33.240  28.006  21.623  1.00  0.00     0.169 HD
ATOM     17  O   UNL A   1      34.082  25.830  21.698  1.00  0.00    -0.274 OA
BRANCH  15  18
ATOM     18  C   UNL A   1      31.756  28.273  22.965  1.00  0.00     0.044 A 
ATOM     19  C   UNL A   1      33.434  28.988  24.796  1.00  0.00     0.046 C 
ATOM     20  C   UNL A   1      32.101  29.040  24.094  1.00  0.00    -0.027 A 
ATOM     21  C   UNL A   1      31.138  29.903  24.646  1.00  0.00     0.006 A 
ATOM     22  C   UNL A   1      29.859  30.002  24.097  1.00  0.00     0.014 A 
ATOM     23  C   UNL A   1      30.420  28.286  22.530  1.00  0.00     0.040 A 
ATOM     24  C   UNL A   1      29.470  29.182  23.033  1.00  0.00     0.041 A 
BRANCH  24  25
ATOM     25  C   UNL A   1      28.060  29.343  22.539  1.00  0.00     0.251 C 
ATOM     26  O   UNL A   1      27.197  28.561  22.951  1.00  0.00    -0.269 OA
ATOM     27  N   UNL A   1      27.634  30.331  21.675  1.00  0.00    -0.349 N 
ATOM     28  H   UNL A   1      26.670  30.305  21.474  1.00  0.00     0.164 HD
BRANCH  27  29
ATOM     29  C   UNL A   1      28.337  31.374  21.025  1.00  0.00     0.082 C 
ATOM     30  C   UNL A   1      27.598  32.603  20.577  1.00  0.00     0.027 C 
ATOM     31  C   UNL A   1      28.612  32.700  21.677  1.00  0.00     0.027 C 
ENDBRANCH  27  29
ENDBRANCH  24  25
ENDBRANCH  15  18
ENDBRANCH   8  14
ENDBRANCH   4   7
ENDBRANCH   2   3
ENDBRANCH   1   2
BRANCH   1  32
ATOM     32  C   UNL A   1      36.808  21.691  24.752  1.00  0.00     0.002 C 
BRANCH  32  33
ATOM     33  C   UNL A   1      38.176  21.058  25.041  1.00  0.00     0.002 C 
BRANCH  33  34
ATOM     34  C   UNL A   1      39.116  21.813  25.981  1.00  0.00     0.021 C 
BRANCH  34  35
ATOM     35  C   UNL A   1      40.072  20.949  26.791  1.00  0.00     0.116 C 
BRANCH  35  36
ATOM     36  N   UNL A   1      41.094  20.253  26.026  1.00  0.00    -0.352 N 
ATOM     37  C   UNL A   1      42.437  20.574  25.868  1.00  0.00     0.251 C 
ATOM     38  H   UNL A   1      40.793  19.442  25.556  1.00  0.00     0.163 HD
ATOM     39  O   UNL A   1      43.149  19.894  25.157  1.00  0.00    -0.269 OA
BRANCH  37  40
ATOM     40  C   UNL A   1      43.026  21.672  26.686  1.00  0.00     0.039 A 
ATOM     41  C   UNL A   1      42.948  21.559  28.080  1.00  0.00     0.014 A 
ATOM     42  C   UNL A   1      43.447  22.867  26.109  1.00  0.00     0.014 A 
ATOM     43  C   UNL A   1      43.025  22.710  28.863  1.00  0.00     0.010 A 
ATOM     44  C   UNL A   1      43.424  24.021  26.867  1.00  0.00     0.010 A 
ATOM     45  C   UNL A   1      43.143  23.949  28.232  1.00  0.00    -0.014 A 
BRANCH  45  46
ATOM     46  C   UNL A   1      42.866  25.209  28.906  1.00  0.00     0.031 A 
ATOM     47  C   UNL A   1      41.650  25.982  28.594  1.00  0.00     0.074 A 
ATOM     48  C   UNL A   1      43.727  25.686  29.833  1.00  0.00     0.049 A 
ATOM     49  N   UNL A   1      41.610  27.272  28.597  1.00  0.00    -0.248 NA
ATOM     50  C   UNL A   1      40.385  25.359  28.227  1.00  0.00     0.031 C 
ATOM     51  C   UNL A   1      43.512  26.814  30.734  1.00  0.00     0.029 A 
ATOM     52  N   UNL A   1      45.076  25.356  30.000  1.00  0.00    -0.354 N 
ATOM     53  C   UNL A   1      40.290  27.643  28.501  1.00  0.00     0.074 A 
ATOM     54  C   UNL A   1      39.574  26.424  28.196  1.00  0.00     0.031 C 
ATOM     55  C   UNL A   1      44.703  27.265  31.157  1.00  0.00     0.029 A 
ATOM     56  C   UNL A   1      45.728  26.523  30.446  1.00  0.00     0.049 A 
ATOM     57  H   UNL A   1      45.489  24.477  29.838  1.00  0.00     0.167 HD
ATOM     58  C   UNL A   1      39.916  28.909  28.836  1.00  0.00     0.037 A 
ATOM     59  C   UNL A   1      46.764  27.079  29.756  1.00  0.00     0.037 A 
ATOM     60  C   UNL A   1      41.041  29.686  29.339  1.00  0.00     0.049 A 
ATOM     61  C   UNL A   1      46.517  28.502  29.326  1.00  0.00     0.074 A 
ATOM     62  C   UNL A   1      41.480  29.938  30.629  1.00  0.00     0.029 A 
ATOM     63  N   UNL A   1      42.069  30.073  28.489  1.00  0.00    -0.354 N 
ATOM     64  N   UNL A   1      45.330  29.035  29.238  1.00  0.00    -0.248 NA
ATOM     65  C   UNL A   1      47.573  29.432  28.941  1.00  0.00     0.031 C 
ATOM     66  C   UNL A   1      42.779  30.486  30.557  1.00  0.00     0.029 A 
ATOM     67  C   UNL A   1      43.131  30.570  29.221  1.00  0.00     0.049 A 
ATOM     68  H   UNL A   1      42.045  30.002  27.508  1.00  0.00     0.167 HD
ATOM     69  C   UNL A   1      45.436  30.326  28.781  1.00  0.00     0.074 A 
ATOM     70  C   UNL A   1      46.864  30.531  28.629  1.00  0.00     0.031 C 
ATOM     71  C   UNL A   1      44.323  31.093  28.571  1.00  0.00     0.037 A 
BRANCH  58  72
ATOM     72  C   UNL A   1      38.476  29.325  29.014  1.00  0.00     0.057 A 
ATOM     73  C   UNL A   1      37.743  29.905  27.960  1.00  0.00     0.134 A 
ATOM     74  C   UNL A   1      37.766  29.199  30.219  1.00  0.00     0.134 A 
ATOM     75  F   UNL A   1      38.236  29.994  26.718  1.00  0.00    -0.206 F 
ATOM     76  C   UNL A   1      36.458  30.432  28.126  1.00  0.00     0.040 A 
ATOM     77  C   UNL A   1      36.496  29.763  30.414  1.00  0.00     0.040 A 
ATOM     78  F   UNL A   1      38.261  28.496  31.248  1.00  0.00    -0.206 F 
ATOM     79  C   UNL A   1      35.843  30.399  29.367  1.00  0.00     0.006 A 
ENDBRANCH  58  72
BRANCH  59  80
ATOM     80  C   UNL A   1      47.560  26.084  28.995  1.00  0.00     0.057 A 
ATOM     81  C   UNL A   1      47.301  25.930  27.622  1.00  0.00     0.134 A 
ATOM     82  C   UNL A   1      48.788  25.617  29.471  1.00  0.00     0.134 A 
ATOM     83  F   UNL A   1      46.140  26.360  27.104  1.00  0.00    -0.206 F 
ATOM     84  C   UNL A   1      48.268  25.445  26.740  1.00  0.00     0.040 A 
ATOM     85  C   UNL A   1      49.761  25.121  28.597  1.00  0.00     0.040 A 
ATOM     86  F   UNL A   1      49.113  25.748  30.766  1.00  0.00    -0.206 F 
ATOM     87  C   UNL A   1      49.519  25.074  27.224  1.00  0.00     0.006 A 
ENDBRANCH  59  80
BRANCH  71  88
ATOM     88  C   UNL A   1      44.229  32.430  27.862  1.00  0.00     0.057 A 
ATOM     89  C   UNL A   1      44.550  32.654  26.516  1.00  0.00     0.134 A 
ATOM     90  C   UNL A   1      43.661  33.551  28.521  1.00  0.00     0.134 A 
ATOM     91  F   UNL A   1      44.995  31.673  25.723  1.00  0.00    -0.206 F 
ATOM     92  C   UNL A   1      44.369  33.899  25.891  1.00  0.00     0.040 A 
ATOM     93  C   UNL A   1      43.425  34.778  27.892  1.00  0.00     0.040 A 
ATOM     94  F   UNL A   1      43.278  33.504  29.806  1.00  0.00    -0.206 F 
ATOM     95  C   UNL A   1      43.794  34.961  26.573  1.00  0.00     0.006 A 
ENDBRANCH  71  88
ENDBRANCH  45  46
ENDBRANCH  37  40
ENDBRANCH  35  36
ENDBRANCH  34  35
ENDBRANCH  33  34
ENDBRANCH  32  33
ENDBRANCH   1  32
TORSDOF 17
ENDMDL
MODEL 2
REMARK VINA RESULT:     -12.6      4.476      9.851
REMARK SMILES Cc1ccc(C(=O)NC2CC2)cc1NC(=O)[C@@H]1[C@@H](C(=O)NCCCCCCNC(=O)c2ccc(-c3c4nc(c(-c5c(F)cccc5F)c5ccc([nH]5)c(-c5c(F)cccc5F)c5nc(c(-c6c(F)cccc6F)c6ccc3[nH]6)C=C5)C=C4)cc2)[C@H]2C=C[C@@H]1C2
REMARK SMILES IDX 23 1 22 2 21 3 19 4 20 5 18 7 17 8 88 9 85 10 87 11 89 12
REMARK SMILES IDX 86 13 15 14 14 15 16 17 13 18 1 19 2 20 3 21 4 22 12 23 5 24
REMARK SMILES IDX 6 25 7 26 8 27 9 29 10 30 11 31 24 32 25 33 26 34 27 35
REMARK SMILES IDX 28 36 29 37 30 39 31 40 32 41 84 42 33 43 83 44 34 45 35 46
REMARK SMILES IDX 36 47 77 48 37 49 82 50 76 51 78 52 38 53 81 54 75 55 74 56
REMARK SMILES IDX 39 58 65 59 48 60 64 61 49 62 52 63 63 64 79 65 50 66 51 67
REMARK SMILES IDX 62 69 80 70 53 71 40 72 41 73 46 74 42 75 43 76 45 77 47 78
REMARK SMILES IDX 44 79 66 80 67 81 72 82 68 83 69 84 71 85 73 86 70 87 54 88
REMARK SMILES IDX 55 89 60 90 56 91 57 92 59 93 61 94 58 95
REMARK H PARENT 21 6 14 16 8 28 28 38 78 57 52 68
REMARK Flexibility Score: inf
ROOT
ATOM      1  C   UNL A   1      33.607  30.053  26.537  1.00  0.00     0.021 C 
ENDROOT
BRANCH   1   2
ATOM      2  C   UNL A   1      33.005  28.681  26.841  1.00  0.00     0.116 C 
BRANCH   2   3
ATOM      3  N   UNL A   1      33.728  27.600  26.218  1.00  0.00    -0.356 N 
ATOM      4  C   UNL A   1      33.303  26.508  25.538  1.00  0.00     0.224 C 
ATOM      5  O   UNL A   1      34.198  25.759  25.127  1.00  0.00    -0.275 OA
ATOM      6  H   UNL A   1      34.706  27.667  26.303  1.00  0.00     0.163 HD
BRANCH   4   7
ATOM      7  C   UNL A   1      31.834  26.114  25.366  1.00  0.00     0.098 C 
ATOM      8  C   UNL A   1      31.758  24.549  25.143  1.00  0.00     0.099 C 
ATOM      9  C   UNL A   1      30.773  24.410  23.953  1.00  0.00     0.025 C 
ATOM     10  C   UNL A   1      31.008  26.627  24.165  1.00  0.00     0.025 C 
ATOM     11  C   UNL A   1      31.477  24.911  22.711  1.00  0.00    -0.027 C 
ATOM     12  C   UNL A   1      29.854  25.609  24.168  1.00  0.00     0.017 C 
ATOM     13  C   UNL A   1      31.648  26.233  22.854  1.00  0.00    -0.027 C 
BRANCH   8  14
ATOM     14  C   UNL A   1      31.316  23.744  26.352  1.00  0.00     0.228 C 
ATOM     15  N   UNL A   1      31.727  22.448  26.549  1.00  0.00    -0.326 N 
ATOM     16  H   UNL A   1      31.333  22.031  27.349  1.00  0.00     0.169 HD
ATOM     17  O   UNL A   1      30.500  24.203  27.158  1.00  0.00    -0.274 OA
BRANCH  15  18
ATOM     18  C   UNL A   1      32.599  21.588  25.841  1.00  0.00     0.044 A 
ATOM     19  C   UNL A   1      34.657  22.841  26.772  1.00  0.00     0.046 C 
ATOM     20  C   UNL A   1      33.990  21.724  26.012  1.00  0.00    -0.027 A 
ATOM     21  C   UNL A   1      34.841  20.779  25.413  1.00  0.00     0.006 A 
ATOM     22  C   UNL A   1      34.330  19.724  24.656  1.00  0.00     0.014 A 
ATOM     23  C   UNL A   1      32.127  20.605  24.954  1.00  0.00     0.040 A 
ATOM     24  C   UNL A   1      32.959  19.624  24.400  1.00  0.00     0.041 A 
BRANCH  24  25
ATOM     25  C   UNL A   1      32.516  18.471  23.545  1.00  0.00     0.251 C 
ATOM     26  O   UNL A   1      32.210  18.691  22.368  1.00  0.00    -0.269 OA
ATOM     27  N   UNL A   1      32.455  17.157  23.961  1.00  0.00    -0.349 N 
ATOM     28  H   UNL A   1      32.167  16.524  23.264  1.00  0.00     0.164 HD
BRANCH  27  29
ATOM     29  C   UNL A   1      32.731  16.558  25.214  1.00  0.00     0.082 C 
ATOM     30  C   UNL A   1      32.690  15.062  25.349  1.00  0.00     0.027 C 
ATOM     31  C   UNL A   1      33.993  15.789  25.487  1.00  0.00     0.027 C 
ENDBRANCH  27  29
ENDBRANCH  24  25
ENDBRANCH  15  18
ENDBRANCH   8  14
ENDBRANCH   4   7
ENDBRANCH   2   3
ENDBRANCH   1   2
BRANCH   1  32
ATOM     32  C   UNL A   1      33.726  31.046  27.702  1.00  0.00     0.002 C 
BRANCH  32  33
ATOM     33  C   UNL A   1      34.881  32.057  27.674  1.00  0.00     0.002 C 
BRANCH  33  34
ATOM     34  C   UNL A   1      34.872  33.163  28.729  1.00  0.00     0.021 C 
BRANCH  34  35
ATOM     35  C   UNL A   1      34.446  32.738  30.126  1.00  0.00     0.116 C 
BRANCH  35  36
ATOM     36  N   UNL A   1      33.921  33.796  30.974  1.00  0.00    -0.352 N 
ATOM     37  C   UNL A   1      34.493  34.379  32.098  1.00  0.00     0.251 C 
ATOM     38  H   UNL A   1      33.038  34.147  30.716  1.00  0.00     0.163 HD
ATOM     39  O   UNL A   1      33.893  35.237  32.715  1.00  0.00    -0.269 OA
BRANCH  37  40
ATOM     40  C   UNL A   1      35.902  34.046  32.457  1.00  0.00     0.039 A 
ATOM     41  C   UNL A   1      36.920  34.795  31.856  1.00  0.00     0.014 A 
ATOM     42  C   UNL A   1      36.218  32.905  33.189  1.00  0.00     0.014 A 
ATOM     43  C   UNL A   1      38.201  34.253  31.760  1.00  0.00     0.010 A 
ATOM     44  C   UNL A   1      37.455  32.319  33.012  1.00  0.00     0.010 A 
ATOM     45  C   UNL A   1      38.423  32.961  32.239  1.00  0.00    -0.014 A 
BRANCH  45  46
ATOM     46  C   UNL A   1      39.589  32.171  31.868  1.00  0.00     0.031 A 
ATOM     47  C   UNL A   1      39.467  31.031  30.944  1.00  0.00     0.074 A 
ATOM     48  C   UNL A   1      40.805  32.480  32.374  1.00  0.00     0.049 A 
ATOM     49  N   UNL A   1      40.178  29.958  31.043  1.00  0.00    -0.248 NA
ATOM     50  C   UNL A   1      38.513  30.998  29.844  1.00  0.00     0.031 C 
ATOM     51  C   UNL A   1      42.093  31.928  31.965  1.00  0.00     0.029 A 
ATOM     52  N   UNL A   1      41.092  33.224  33.523  1.00  0.00    -0.354 N 
ATOM     53  C   UNL A   1      39.977  29.223  29.899  1.00  0.00     0.074 A 
ATOM     54  C   UNL A   1      38.877  29.871  29.220  1.00  0.00     0.031 C 
ATOM     55  C   UNL A   1      42.978  32.108  32.957  1.00  0.00     0.029 A 
ATOM     56  C   UNL A   1      42.259  32.670  34.085  1.00  0.00     0.049 A 
ATOM     57  H   UNL A   1      40.577  33.989  33.870  1.00  0.00     0.167 HD
ATOM     58  C   UNL A   1      40.854  28.235  29.565  1.00  0.00     0.037 A 
ATOM     59  C   UNL A   1      42.282  32.175  35.356  1.00  0.00     0.037 A 
ATOM     60  C   UNL A   1      41.967  28.167  30.503  1.00  0.00     0.049 A 
ATOM     61  C   UNL A   1      42.672  30.722  35.438  1.00  0.00     0.074 A 
ATOM     62  C   UNL A   1      43.240  28.715  30.460  1.00  0.00     0.029 A 
ATOM     63  N   UNL A   1      41.768  27.732  31.807  1.00  0.00    -0.354 N 
ATOM     64  N   UNL A   1      42.601  29.896  34.431  1.00  0.00    -0.248 NA
ATOM     65  C   UNL A   1      43.150  30.074  36.655  1.00  0.00     0.031 C 
ATOM     66  C   UNL A   1      43.813  28.605  31.745  1.00  0.00     0.029 A 
ATOM     67  C   UNL A   1      42.891  27.986  32.571  1.00  0.00     0.049 A 
ATOM     68  H   UNL A   1      40.946  27.304  32.138  1.00  0.00     0.167 HD
ATOM     69  C   UNL A   1      42.986  28.641  34.836  1.00  0.00     0.074 A 
ATOM     70  C   UNL A   1      43.338  28.811  36.232  1.00  0.00     0.031 C 
ATOM     71  C   UNL A   1      42.967  27.585  33.967  1.00  0.00     0.037 A 
BRANCH  58  72
ATOM     72  C   UNL A   1      40.866  27.562  28.214  1.00  0.00     0.057 A 
ATOM     73  C   UNL A   1      40.203  26.338  27.998  1.00  0.00     0.134 A 
ATOM     74  C   UNL A   1      41.539  28.069  27.091  1.00  0.00     0.134 A 
ATOM     75  F   UNL A   1      39.424  25.778  28.932  1.00  0.00    -0.206 F 
ATOM     76  C   UNL A   1      40.310  25.616  26.805  1.00  0.00     0.040 A 
ATOM     77  C   UNL A   1      41.694  27.335  25.905  1.00  0.00     0.040 A 
ATOM     78  F   UNL A   1      42.049  29.309  27.087  1.00  0.00    -0.206 F 
ATOM     79  C   UNL A   1      41.091  26.094  25.765  1.00  0.00     0.006 A 
ENDBRANCH  58  72
BRANCH  59  80
ATOM     80  C   UNL A   1      41.326  32.854  36.265  1.00  0.00     0.057 A 
ATOM     81  C   UNL A   1      40.059  32.275  36.455  1.00  0.00     0.134 A 
ATOM     82  C   UNL A   1      41.760  33.773  37.225  1.00  0.00     0.134 A 
ATOM     83  F   UNL A   1      39.586  31.384  35.569  1.00  0.00    -0.206 F 
ATOM     84  C   UNL A   1      39.309  32.506  37.610  1.00  0.00     0.040 A 
ATOM     85  C   UNL A   1      41.012  34.019  38.381  1.00  0.00     0.040 A 
ATOM     86  F   UNL A   1      42.965  34.351  37.119  1.00  0.00    -0.206 F 
ATOM     87  C   UNL A   1      39.805  33.354  38.597  1.00  0.00     0.006 A 
ENDBRANCH  59  80
BRANCH  71  88
ATOM     88  C   UNL A   1      43.127  26.110  34.284  1.00  0.00     0.057 A 
ATOM     89  C   UNL A   1      44.243  25.330  33.951  1.00  0.00     0.134 A 
ATOM     90  C   UNL A   1      42.166  25.442  35.085  1.00  0.00     0.134 A 
ATOM     91  F   UNL A   1      45.290  25.839  33.291  1.00  0.00    -0.206 F 
ATOM     92  C   UNL A   1      44.372  23.986  34.339  1.00  0.00     0.040 A 
ATOM     93  C   UNL A   1      42.311  24.121  35.523  1.00  0.00     0.040 A 
ATOM     94  F   UNL A   1      41.046  26.047  35.510  1.00  0.00    -0.206 F 
ATOM     95  C   UNL A   1      43.412  23.381  35.138  1.00  0.00     0.006 A 
ENDBRANCH  71  88
ENDBRANCH  45  46
ENDBRANCH  37  40
ENDBRANCH  35  36
ENDBRANCH  34  35
ENDBRANCH  33  34
ENDBRANCH  32  33
ENDBRANCH   1  32
TORSDOF 17
ENDMDL
MODEL 3
REMARK VINA RESULT:     -12.3      3.041      7.648
REMARK SMILES Cc1ccc(C(=O)NC2CC2)cc1NC(=O)[C@@H]1[C@@H](C(=O)NCCCCCCNC(=O)c2ccc(-c3c4nc(c(-c5c(F)cccc5F)c5ccc([nH]5)c(-c5c(F)cccc5F)c5nc(c(-c6c(F)cccc6F)c6ccc3[nH]6)C=C5)C=C4)cc2)[C@H]2C=C[C@@H]1C2
REMARK SMILES IDX 23 1 22 2 21 3 19 4 20 5 18 7 17 8 88 9 85 10 87 11 89 12
REMARK SMILES IDX 86 13 15 14 14 15 16 17 13 18 1 19 2 20 3 21 4 22 12 23 5 24
REMARK SMILES IDX 6 25 7 26 8 27 9 29 10 30 11 31 24 32 25 33 26 34 27 35
REMARK SMILES IDX 28 36 29 37 30 39 31 40 32 41 84 42 33 43 83 44 34 45 35 46
REMARK SMILES IDX 36 47 77 48 37 49 82 50 76 51 78 52 38 53 81 54 75 55 74 56
REMARK SMILES IDX 39 58 65 59 48 60 64 61 49 62 52 63 63 64 79 65 50 66 51 67
REMARK SMILES IDX 62 69 80 70 53 71 40 72 41 73 46 74 42 75 43 76 45 77 47 78
REMARK SMILES IDX 44 79 66 80 67 81 72 82 68 83 69 84 71 85 73 86 70 87 54 88
REMARK SMILES IDX 55 89 60 90 56 91 57 92 59 93 61 94 58 95
REMARK H PARENT 21 6 14 16 8 28 28 38 78 57 52 68
REMARK Flexibility Score: inf
ROOT
ATOM      1  C   UNL A   1      34.038  28.269  26.531  1.00  0.00     0.021 C 
ENDROOT
BRANCH   1   2
ATOM      2  C   UNL A   1      33.946  26.788  26.164  1.00  0.00     0.116 C 
BRANCH   2   3
ATOM      3  N   UNL A   1      32.635  26.405  25.700  1.00  0.00    -0.356 N 
ATOM      4  C   UNL A   1      32.240  25.519  24.755  1.00  0.00     0.224 C 
ATOM      5  O   UNL A   1      31.016  25.426  24.596  1.00  0.00    -0.275 OA
ATOM      6  H   UNL A   1      31.895  26.871  26.151  1.00  0.00     0.163 HD
BRANCH   4   7
ATOM      7  C   UNL A   1      33.192  24.752  23.836  1.00  0.00     0.098 C 
ATOM      8  C   UNL A   1      32.418  24.387  22.504  1.00  0.00     0.099 C 
ATOM      9  C   UNL A   1      32.791  22.898  22.276  1.00  0.00     0.025 C 
ATOM     10  C   UNL A   1      33.752  23.369  24.244  1.00  0.00     0.025 C 
ATOM     11  C   UNL A   1      32.083  22.079  23.333  1.00  0.00    -0.027 C 
ATOM     12  C   UNL A   1      34.195  22.834  22.871  1.00  0.00     0.017 C 
ATOM     13  C   UNL A   1      32.635  22.387  24.515  1.00  0.00    -0.027 C 
BRANCH   8  14
ATOM     14  C   UNL A   1      32.754  25.254  21.303  1.00  0.00     0.228 C 
ATOM     15  N   UNL A   1      32.369  26.570  21.232  1.00  0.00    -0.326 N 
ATOM     16  H   UNL A   1      32.615  27.003  20.382  1.00  0.00     0.169 HD
ATOM     17  O   UNL A   1      33.312  24.776  20.310  1.00  0.00    -0.274 OA
BRANCH  15  18
ATOM     18  C   UNL A   1      31.693  27.435  22.124  1.00  0.00     0.044 A 
ATOM     19  C   UNL A   1      33.942  28.370  22.985  1.00  0.00     0.046 C 
ATOM     20  C   UNL A   1      32.438  28.346  22.897  1.00  0.00    -0.027 A 
ATOM     21  C   UNL A   1      31.752  29.293  23.677  1.00  0.00     0.006 A 
ATOM     22  C   UNL A   1      30.357  29.335  23.698  1.00  0.00     0.014 A 
ATOM     23  C   UNL A   1      30.297  27.409  22.283  1.00  0.00     0.040 A 
ATOM     24  C   UNL A   1      29.600  28.382  23.009  1.00  0.00     0.041 A 
BRANCH  24  25
ATOM     25  C   UNL A   1      28.106  28.495  23.126  1.00  0.00     0.251 C 
ATOM     26  O   UNL A   1      27.505  27.677  23.829  1.00  0.00    -0.269 OA
ATOM     27  N   UNL A   1      27.340  29.477  22.530  1.00  0.00    -0.349 N 
ATOM     28  H   UNL A   1      26.379  29.418  22.732  1.00  0.00     0.164 HD
BRANCH  27  29
ATOM     29  C   UNL A   1      27.693  30.553  21.680  1.00  0.00     0.082 C 
ATOM     30  C   UNL A   1      28.063  31.882  22.277  1.00  0.00     0.027 C 
ATOM     31  C   UNL A   1      29.099  31.069  21.561  1.00  0.00     0.027 C 
ENDBRANCH  27  29
ENDBRANCH  24  25
ENDBRANCH  15  18
ENDBRANCH   8  14
ENDBRANCH   4   7
ENDBRANCH   2   3
ENDBRANCH   1   2
BRANCH   1  32
ATOM     32  C   UNL A   1      32.847  28.887  27.278  1.00  0.00     0.002 C 
BRANCH  32  33
ATOM     33  C   UNL A   1      32.401  30.301  26.881  1.00  0.00     0.002 C 
BRANCH  33  34
ATOM     34  C   UNL A   1      33.142  31.477  27.517  1.00  0.00     0.021 C 
BRANCH  34  35
ATOM     35  C   UNL A   1      34.648  31.309  27.656  1.00  0.00     0.116 C 
BRANCH  35  36
ATOM     36  N   UNL A   1      35.239  31.884  28.853  1.00  0.00    -0.352 N 
ATOM     37  C   UNL A   1      36.253  31.377  29.657  1.00  0.00     0.251 C 
ATOM     38  H   UNL A   1      34.869  32.753  29.133  1.00  0.00     0.163 HD
ATOM     39  O   UNL A   1      36.604  31.980  30.652  1.00  0.00    -0.269 OA
BRANCH  37  40
ATOM     40  C   UNL A   1      36.999  30.165  29.215  1.00  0.00     0.039 A 
ATOM     41  C   UNL A   1      37.180  29.136  30.148  1.00  0.00     0.014 A 
ATOM     42  C   UNL A   1      37.679  30.129  28.001  1.00  0.00     0.014 A 
ATOM     43  C   UNL A   1      38.232  28.238  29.978  1.00  0.00     0.010 A 
ATOM     44  C   UNL A   1      38.782  29.308  27.876  1.00  0.00     0.010 A 
ATOM     45  C   UNL A   1      39.099  28.411  28.897  1.00  0.00    -0.014 A 
BRANCH  45  46
ATOM     46  C   UNL A   1      40.410  27.782  28.828  1.00  0.00     0.031 A 
ATOM     47  C   UNL A   1      40.548  26.362  28.458  1.00  0.00     0.074 A 
ATOM     48  C   UNL A   1      41.521  28.500  29.103  1.00  0.00     0.049 A 
ATOM     49  N   UNL A   1      41.451  25.585  28.954  1.00  0.00    -0.248 NA
ATOM     50  C   UNL A   1      39.659  25.696  27.515  1.00  0.00     0.031 C 
ATOM     51  C   UNL A   1      42.907  28.090  28.895  1.00  0.00     0.029 A 
ATOM     52  N   UNL A   1      41.614  29.691  29.832  1.00  0.00    -0.354 N 
ATOM     53  C   UNL A   1      41.441  24.422  28.223  1.00  0.00     0.074 A 
ATOM     54  C   UNL A   1      40.261  24.507  27.390  1.00  0.00     0.031 C 
ATOM     55  C   UNL A   1      43.702  28.829  29.683  1.00  0.00     0.029 A 
ATOM     56  C   UNL A   1      42.846  29.654  30.516  1.00  0.00     0.049 A 
ATOM     57  H   UNL A   1      40.948  30.414  29.860  1.00  0.00     0.167 HD
ATOM     58  C   UNL A   1      42.506  23.574  28.281  1.00  0.00     0.037 A 
ATOM     59  C   UNL A   1      42.918  29.739  31.875  1.00  0.00     0.037 A 
ATOM     60  C   UNL A   1      43.575  24.114  29.110  1.00  0.00     0.049 A 
ATOM     61  C   UNL A   1      43.583  28.553  32.527  1.00  0.00     0.074 A 
ATOM     62  C   UNL A   1      44.716  24.832  28.786  1.00  0.00     0.029 A 
ATOM     63  N   UNL A   1      43.418  24.223  30.485  1.00  0.00    -0.354 N 
ATOM     64  N   UNL A   1      43.712  27.391  31.951  1.00  0.00    -0.248 NA
ATOM     65  C   UNL A   1      44.133  28.569  33.878  1.00  0.00     0.031 C 
ATOM     66  C   UNL A   1      45.253  25.372  29.974  1.00  0.00     0.029 A 
ATOM     67  C   UNL A   1      44.440  24.981  31.024  1.00  0.00     0.049 A 
ATOM     68  H   UNL A   1      42.684  23.819  31.002  1.00  0.00     0.167 HD
ATOM     69  C   UNL A   1      44.320  26.513  32.815  1.00  0.00     0.074 A 
ATOM     70  C   UNL A   1      44.580  27.306  34.001  1.00  0.00     0.031 C 
ATOM     71  C   UNL A   1      44.541  25.211  32.457  1.00  0.00     0.037 A 
BRANCH  58  72
ATOM     72  C   UNL A   1      42.699  22.422  27.325  1.00  0.00     0.057 A 
ATOM     73  C   UNL A   1      41.953  21.233  27.447  1.00  0.00     0.134 A 
ATOM     74  C   UNL A   1      43.630  22.422  26.274  1.00  0.00     0.134 A 
ATOM     75  F   UNL A   1      40.949  21.113  28.325  1.00  0.00    -0.206 F 
ATOM     76  C   UNL A   1      42.202  20.095  26.673  1.00  0.00     0.040 A 
ATOM     77  C   UNL A   1      43.924  21.275  25.521  1.00  0.00     0.040 A 
ATOM     78  F   UNL A   1      44.272  23.542  25.914  1.00  0.00    -0.206 F 
ATOM     79  C   UNL A   1      43.219  20.098  25.732  1.00  0.00     0.006 A 
ENDBRANCH  58  72
BRANCH  59  80
ATOM     80  C   UNL A   1      41.815  30.532  32.471  1.00  0.00     0.057 A 
ATOM     81  C   UNL A   1      40.694  29.846  32.971  1.00  0.00     0.134 A 
ATOM     82  C   UNL A   1      42.017  31.840  32.919  1.00  0.00     0.134 A 
ATOM     83  F   UNL A   1      40.446  28.586  32.580  1.00  0.00    -0.206 F 
ATOM     84  C   UNL A   1      39.880  30.392  33.965  1.00  0.00     0.040 A 
ATOM     85  C   UNL A   1      41.202  32.400  33.909  1.00  0.00     0.040 A 
ATOM     86  F   UNL A   1      43.076  32.549  32.500  1.00  0.00    -0.206 F 
ATOM     87  C   UNL A   1      40.157  31.662  34.465  1.00  0.00     0.006 A 
ENDBRANCH  59  80
BRANCH  71  88
ATOM     88  C   UNL A   1      44.976  24.059  33.342  1.00  0.00     0.057 A 
ATOM     89  C   UNL A   1      44.189  22.942  33.656  1.00  0.00     0.134 A 
ATOM     90  C   UNL A   1      46.311  23.984  33.816  1.00  0.00     0.134 A 
ATOM     91  F   UNL A   1      42.940  22.805  33.195  1.00  0.00    -0.206 F 
ATOM     92  C   UNL A   1      44.671  21.865  34.419  1.00  0.00     0.040 A 
ATOM     93  C   UNL A   1      46.817  22.892  34.528  1.00  0.00     0.040 A 
ATOM     94  F   UNL A   1      47.204  24.959  33.588  1.00  0.00    -0.206 F 
ATOM     95  C   UNL A   1      45.991  21.831  34.846  1.00  0.00     0.006 A 
ENDBRANCH  71  88
ENDBRANCH  45  46
ENDBRANCH  37  40
ENDBRANCH  35  36
ENDBRANCH  34  35
ENDBRANCH  33  34
ENDBRANCH  32  33
ENDBRANCH   1  32
TORSDOF 17
ENDMDL
