MODEL 1
REMARK VINA RESULT:     -11.6      0.000      0.000
REMARK SMILES CC(=O)Oc1cc(CCC(=O)NCCCCCCNC(=O)c2ccc(-c3c4nc(c(-c5c(F)cccc5F)c5ccc([nH]5)c(-c5c(F)cccc5F)c5nc(c(-c6c(F)cccc6F)c6ccc3[nH]6)C=C5)C=C4)cc2)c(OC(C)=O)c2c1C(=O)c1ccccc1C2=O
REMARK SMILES IDX 14 1 13 2 12 3 10 4 11 5 9 7 8 8 7 9 5 10 6 11 82 12 81 13
REMARK SMILES IDX 83 14 76 15 91 16 84 17 85 18 90 19 92 20 86 21 89 22 87 23
REMARK SMILES IDX 88 24 4 25 2 26 1 27 3 28 77 29 78 30 79 31 80 32 15 33
REMARK SMILES IDX 16 34 17 35 18 36 19 37 20 38 21 40 22 41 23 42 75 43 24 44
REMARK SMILES IDX 74 45 25 46 26 47 27 48 68 49 28 50 73 51 67 52 69 53 29 54
REMARK SMILES IDX 72 55 66 56 65 57 30 59 56 60 39 61 55 62 40 63 43 64 54 65
REMARK SMILES IDX 70 66 41 67 42 68 53 70 71 71 44 72 31 73 32 74 37 75 33 76
REMARK SMILES IDX 34 77 36 78 38 79 35 80 57 81 58 82 63 83 59 84 60 85 62 86
REMARK SMILES IDX 64 87 61 88 45 89 46 90 51 91 47 92 48 93 50 94 52 95 49 96
REMARK H PARENT 12 6 19 39 69 58 43 69
REMARK Flexibility Score: inf
ROOT
ATOM      1  C   UNL A   1      35.416  31.685  28.035  1.00  0.00     0.021 C 
ENDROOT
BRANCH   1   2
ATOM      2  C   UNL A   1      34.870  30.294  27.716  1.00  0.00     0.116 C 
BRANCH   2   3
ATOM      3  N   UNL A   1      33.887  30.353  26.643  1.00  0.00    -0.356 N 
ATOM      4  C   UNL A   1      33.457  29.398  25.774  1.00  0.00     0.220 C 
ATOM      5  O   UNL A   1      32.688  29.735  24.872  1.00  0.00    -0.275 OA
ATOM      6  H   UNL A   1      33.462  31.233  26.527  1.00  0.00     0.163 HD
BRANCH   4   7
ATOM      7  C   UNL A   1      33.886  27.950  25.908  1.00  0.00     0.105 C 
BRANCH   7   8
ATOM      8  C   UNL A   1      33.621  27.131  24.640  1.00  0.00     0.049 C 
BRANCH   8   9
ATOM      9  C   UNL A   1      33.706  25.640  24.882  1.00  0.00    -0.000 A 
ATOM     10  C   UNL A   1      34.958  23.767  25.752  1.00  0.00     0.143 A 
ATOM     11  C   UNL A   1      34.786  25.142  25.607  1.00  0.00     0.055 A 
ATOM     12  C   UNL A   1      34.055  22.847  25.190  1.00  0.00     0.080 A 
ATOM     13  C   UNL A   1      32.976  23.323  24.427  1.00  0.00     0.081 A 
ATOM     14  C   UNL A   1      34.259  21.389  25.375  1.00  0.00     0.198 C 
ATOM     15  C   UNL A   1      32.794  24.717  24.330  1.00  0.00     0.146 A 
ATOM     16  C   UNL A   1      32.162  22.343  23.673  1.00  0.00     0.198 C 
ATOM     17  O   UNL A   1      35.056  20.949  26.195  1.00  0.00    -0.288 OA
ATOM     18  C   UNL A   1      33.529  20.449  24.512  1.00  0.00     0.034 A 
ATOM     19  C   UNL A   1      32.578  20.927  23.620  1.00  0.00     0.034 A 
ATOM     20  O   UNL A   1      31.157  22.677  23.064  1.00  0.00    -0.288 OA
ATOM     21  C   UNL A   1      33.845  19.084  24.541  1.00  0.00     0.013 A 
ATOM     22  C   UNL A   1      32.009  20.053  22.684  1.00  0.00     0.013 A 
ATOM     23  C   UNL A   1      33.275  18.215  23.612  1.00  0.00     0.001 A 
ATOM     24  C   UNL A   1      32.374  18.704  22.668  1.00  0.00     0.001 A 
BRANCH  10  25
ATOM     25  O   UNL A   1      36.093  23.374  26.467  1.00  0.00    -0.426 OA
BRANCH  25  26
ATOM     26  C   UNL A   1      37.249  23.460  25.698  1.00  0.00     0.308 C 
ATOM     27  C   UNL A   1      38.337  24.083  26.522  1.00  0.00     0.139 C 
ATOM     28  O   UNL A   1      37.362  23.139  24.520  1.00  0.00    -0.252 OA
ENDBRANCH  25  26
ENDBRANCH  10  25
BRANCH  15  29
ATOM     29  O   UNL A   1      31.655  25.369  23.663  1.00  0.00    -0.426 OA
BRANCH  29  30
ATOM     30  C   UNL A   1      30.516  26.184  23.370  1.00  0.00     0.308 C 
ATOM     31  C   UNL A   1      30.928  27.194  22.336  1.00  0.00     0.139 C 
ATOM     32  O   UNL A   1      29.396  26.066  23.844  1.00  0.00    -0.252 OA
ENDBRANCH  29  30
ENDBRANCH  15  29
ENDBRANCH   8   9
ENDBRANCH   7   8
ENDBRANCH   4   7
ENDBRANCH   2   3
ENDBRANCH   1   2
BRANCH   1  33
ATOM     33  C   UNL A   1      34.603  32.533  29.015  1.00  0.00     0.002 C 
BRANCH  33  34
ATOM     34  C   UNL A   1      34.647  34.050  28.811  1.00  0.00     0.002 C 
BRANCH  34  35
ATOM     35  C   UNL A   1      33.305  34.789  28.805  1.00  0.00     0.021 C 
BRANCH  35  36
ATOM     36  C   UNL A   1      33.263  36.151  29.499  1.00  0.00     0.116 C 
BRANCH  36  37
ATOM     37  N   UNL A   1      32.388  36.174  30.660  1.00  0.00    -0.352 N 
ATOM     38  C   UNL A   1      32.525  35.669  31.930  1.00  0.00     0.251 C 
ATOM     39  H   UNL A   1      31.535  36.642  30.507  1.00  0.00     0.163 HD
ATOM     40  O   UNL A   1      31.556  35.737  32.686  1.00  0.00    -0.269 OA
BRANCH  38  41
ATOM     41  C   UNL A   1      33.775  35.031  32.431  1.00  0.00     0.039 A 
ATOM     42  C   UNL A   1      33.682  33.737  32.965  1.00  0.00     0.014 A 
ATOM     43  C   UNL A   1      35.011  35.677  32.463  1.00  0.00     0.014 A 
ATOM     44  C   UNL A   1      34.817  33.084  33.462  1.00  0.00     0.010 A 
ATOM     45  C   UNL A   1      36.156  35.019  32.931  1.00  0.00     0.010 A 
ATOM     46  C   UNL A   1      36.071  33.710  33.420  1.00  0.00    -0.014 A 
BRANCH  46  47
ATOM     47  C   UNL A   1      37.301  32.953  33.770  1.00  0.00     0.031 A 
ATOM     48  C   UNL A   1      37.886  31.916  32.857  1.00  0.00     0.074 A 
ATOM     49  C   UNL A   1      37.868  33.181  34.970  1.00  0.00     0.049 A 
ATOM     50  N   UNL A   1      38.991  31.226  32.996  1.00  0.00    -0.248 NA
ATOM     51  C   UNL A   1      37.124  31.592  31.644  1.00  0.00     0.031 C 
ATOM     52  C   UNL A   1      37.350  34.103  35.982  1.00  0.00     0.029 A 
ATOM     53  N   UNL A   1      39.000  32.657  35.543  1.00  0.00    -0.354 N 
ATOM     54  C   UNL A   1      39.063  30.389  31.891  1.00  0.00     0.074 A 
ATOM     55  C   UNL A   1      37.865  30.629  31.110  1.00  0.00     0.031 C 
ATOM     56  C   UNL A   1      38.173  34.098  37.041  1.00  0.00     0.029 A 
ATOM     57  C   UNL A   1      39.272  33.173  36.786  1.00  0.00     0.049 A 
ATOM     58  H   UNL A   1      39.561  31.978  35.105  1.00  0.00     0.167 HD
ATOM     59  C   UNL A   1      40.042  29.515  31.553  1.00  0.00     0.037 A 
ATOM     60  C   UNL A   1      40.305  32.946  37.618  1.00  0.00     0.037 A 
ATOM     61  C   UNL A   1      41.235  29.281  32.331  1.00  0.00     0.049 A 
ATOM     62  C   UNL A   1      41.408  32.023  37.193  1.00  0.00     0.074 A 
ATOM     63  C   UNL A   1      42.316  28.467  32.035  1.00  0.00     0.029 A 
ATOM     64  N   UNL A   1      41.501  29.859  33.563  1.00  0.00    -0.354 N 
ATOM     65  N   UNL A   1      41.516  31.319  36.094  1.00  0.00    -0.248 NA
ATOM     66  C   UNL A   1      42.544  31.881  38.115  1.00  0.00     0.031 C 
ATOM     67  C   UNL A   1      43.220  28.526  33.103  1.00  0.00     0.029 A 
ATOM     68  C   UNL A   1      42.719  29.406  34.047  1.00  0.00     0.049 A 
ATOM     69  H   UNL A   1      40.910  30.494  34.028  1.00  0.00     0.167 HD
ATOM     70  C   UNL A   1      42.740  30.669  36.178  1.00  0.00     0.074 A 
ATOM     71  C   UNL A   1      43.344  31.076  37.430  1.00  0.00     0.031 C 
ATOM     72  C   UNL A   1      43.310  29.813  35.297  1.00  0.00     0.037 A 
BRANCH  59  73
ATOM     73  C   UNL A   1      39.878  28.745  30.273  1.00  0.00     0.057 A 
ATOM     74  C   UNL A   1      40.455  29.185  29.074  1.00  0.00     0.134 A 
ATOM     75  C   UNL A   1      39.193  27.523  30.249  1.00  0.00     0.134 A 
ATOM     76  F   UNL A   1      41.121  30.349  29.027  1.00  0.00    -0.206 F 
ATOM     77  C   UNL A   1      40.340  28.448  27.894  1.00  0.00     0.040 A 
ATOM     78  C   UNL A   1      39.091  26.767  29.080  1.00  0.00     0.040 A 
ATOM     79  F   UNL A   1      38.627  27.038  31.364  1.00  0.00    -0.206 F 
ATOM     80  C   UNL A   1      39.661  27.231  27.897  1.00  0.00     0.006 A 
ENDBRANCH  59  73
BRANCH  60  81
ATOM     81  C   UNL A   1      40.376  33.678  38.906  1.00  0.00     0.057 A 
ATOM     82  C   UNL A   1      41.137  34.846  39.023  1.00  0.00     0.134 A 
ATOM     83  C   UNL A   1      39.667  33.248  40.032  1.00  0.00     0.134 A 
ATOM     84  F   UNL A   1      41.847  35.296  37.979  1.00  0.00    -0.206 F 
ATOM     85  C   UNL A   1      41.200  35.557  40.222  1.00  0.00     0.040 A 
ATOM     86  C   UNL A   1      39.705  33.961  41.231  1.00  0.00     0.040 A 
ATOM     87  F   UNL A   1      38.910  32.142  39.976  1.00  0.00    -0.206 F 
ATOM     88  C   UNL A   1      40.477  35.118  41.329  1.00  0.00     0.006 A 
ENDBRANCH  60  81
BRANCH  72  89
ATOM     89  C   UNL A   1      44.662  29.271  35.655  1.00  0.00     0.057 A 
ATOM     90  C   UNL A   1      45.840  29.923  35.269  1.00  0.00     0.134 A 
ATOM     91  C   UNL A   1      44.787  28.091  36.397  1.00  0.00     0.134 A 
ATOM     92  F   UNL A   1      45.788  31.050  34.543  1.00  0.00    -0.206 F 
ATOM     93  C   UNL A   1      47.097  29.405  35.586  1.00  0.00     0.040 A 
ATOM     94  C   UNL A   1      46.038  27.574  36.738  1.00  0.00     0.040 A 
ATOM     95  F   UNL A   1      43.697  27.422  36.801  1.00  0.00    -0.206 F 
ATOM     96  C   UNL A   1      47.197  28.228  36.326  1.00  0.00     0.006 A 
ENDBRANCH  72  89
ENDBRANCH  46  47
ENDBRANCH  38  41
ENDBRANCH  36  37
ENDBRANCH  35  36
ENDBRANCH  34  35
ENDBRANCH  33  34
ENDBRANCH   1  33
TORSDOF 19
ENDMDL
MODEL 2
REMARK VINA RESULT:     -11.2      0.750      5.842
REMARK SMILES CC(=O)Oc1cc(CCC(=O)NCCCCCCNC(=O)c2ccc(-c3c4nc(c(-c5c(F)cccc5F)c5ccc([nH]5)c(-c5c(F)cccc5F)c5nc(c(-c6c(F)cccc6F)c6ccc3[nH]6)C=C5)C=C4)cc2)c(OC(C)=O)c2c1C(=O)c1ccccc1C2=O
REMARK SMILES IDX 14 1 13 2 12 3 10 4 11 5 9 7 8 8 7 9 5 10 6 11 82 12 81 13
REMARK SMILES IDX 83 14 76 15 91 16 84 17 85 18 90 19 92 20 86 21 89 22 87 23
REMARK SMILES IDX 88 24 4 25 2 26 1 27 3 28 77 29 78 30 79 31 80 32 15 33
REMARK SMILES IDX 16 34 17 35 18 36 19 37 20 38 21 40 22 41 23 42 75 43 24 44
REMARK SMILES IDX 74 45 25 46 26 47 27 48 68 49 28 50 73 51 67 52 69 53 29 54
REMARK SMILES IDX 72 55 66 56 65 57 30 59 56 60 39 61 55 62 40 63 43 64 54 65
REMARK SMILES IDX 70 66 41 67 42 68 53 70 71 71 44 72 31 73 32 74 37 75 33 76
REMARK SMILES IDX 34 77 36 78 38 79 35 80 57 81 58 82 63 83 59 84 60 85 62 86
REMARK SMILES IDX 64 87 61 88 45 89 46 90 51 91 47 92 48 93 50 94 52 95 49 96
REMARK H PARENT 12 6 19 39 69 58 43 69
REMARK Flexibility Score: inf
ROOT
ATOM      1  C   UNL A   1      35.708  31.725  27.946  1.00  0.00     0.021 C 
ENDROOT
BRANCH   1   2
ATOM      2  C   UNL A   1      35.113  30.347  27.656  1.00  0.00     0.116 C 
BRANCH   2   3
ATOM      3  N   UNL A   1      33.944  30.454  26.794  1.00  0.00    -0.356 N 
ATOM      4  C   UNL A   1      33.258  29.506  26.100  1.00  0.00     0.220 C 
ATOM      5  O   UNL A   1      32.358  29.875  25.342  1.00  0.00    -0.275 OA
ATOM      6  H   UNL A   1      33.591  31.369  26.696  1.00  0.00     0.163 HD
BRANCH   4   7
ATOM      7  C   UNL A   1      33.563  28.029  26.259  1.00  0.00     0.105 C 
BRANCH   7   8
ATOM      8  C   UNL A   1      33.659  27.294  24.917  1.00  0.00     0.049 C 
BRANCH   8   9
ATOM      9  C   UNL A   1      33.722  25.792  25.079  1.00  0.00    -0.000 A 
ATOM     10  C   UNL A   1      34.972  23.853  25.796  1.00  0.00     0.143 A 
ATOM     11  C   UNL A   1      34.823  25.237  25.729  1.00  0.00     0.055 A 
ATOM     12  C   UNL A   1      34.026  22.981  25.230  1.00  0.00     0.080 A 
ATOM     13  C   UNL A   1      32.924  23.515  24.542  1.00  0.00     0.081 A 
ATOM     14  C   UNL A   1      34.206  21.512  25.332  1.00  0.00     0.198 C 
ATOM     15  C   UNL A   1      32.768  24.916  24.524  1.00  0.00     0.146 A 
ATOM     16  C   UNL A   1      32.057  22.591  23.777  1.00  0.00     0.198 C 
ATOM     17  O   UNL A   1      35.030  21.015  26.092  1.00  0.00    -0.288 OA
ATOM     18  C   UNL A   1      33.419  20.631  24.457  1.00  0.00     0.034 A 
ATOM     19  C   UNL A   1      32.440  21.171  23.634  1.00  0.00     0.034 A 
ATOM     20  O   UNL A   1      31.033  22.974  23.232  1.00  0.00    -0.288 OA
ATOM     21  C   UNL A   1      33.707  19.261  24.403  1.00  0.00     0.013 A 
ATOM     22  C   UNL A   1      31.812  20.358  22.682  1.00  0.00     0.013 A 
ATOM     23  C   UNL A   1      33.079  18.450  23.459  1.00  0.00     0.001 A 
ATOM     24  C   UNL A   1      32.147  19.004  22.582  1.00  0.00     0.001 A 
BRANCH  10  25
ATOM     25  O   UNL A   1      36.129  23.403  26.438  1.00  0.00    -0.426 OA
BRANCH  25  26
ATOM     26  C   UNL A   1      37.253  23.513  25.626  1.00  0.00     0.308 C 
ATOM     27  C   UNL A   1      38.425  23.920  26.469  1.00  0.00     0.139 C 
ATOM     28  O   UNL A   1      37.285  23.365  24.409  1.00  0.00    -0.252 OA
ENDBRANCH  25  26
ENDBRANCH  10  25
BRANCH  15  29
ATOM     29  O   UNL A   1      31.614  25.623  23.942  1.00  0.00    -0.426 OA
BRANCH  29  30
ATOM     30  C   UNL A   1      30.770  26.426  23.112  1.00  0.00     0.308 C 
ATOM     31  C   UNL A   1      29.447  26.572  23.810  1.00  0.00     0.139 C 
ATOM     32  O   UNL A   1      31.072  26.934  22.043  1.00  0.00    -0.252 OA
ENDBRANCH  29  30
ENDBRANCH  15  29
ENDBRANCH   8   9
ENDBRANCH   7   8
ENDBRANCH   4   7
ENDBRANCH   2   3
ENDBRANCH   1   2
BRANCH   1  33
ATOM     33  C   UNL A   1      34.858  32.677  28.790  1.00  0.00     0.002 C 
BRANCH  33  34
ATOM     34  C   UNL A   1      34.368  33.954  28.102  1.00  0.00     0.002 C 
BRANCH  34  35
ATOM     35  C   UNL A   1      33.080  34.584  28.643  1.00  0.00     0.021 C 
BRANCH  35  36
ATOM     36  C   UNL A   1      33.189  35.999  29.211  1.00  0.00     0.116 C 
BRANCH  36  37
ATOM     37  N   UNL A   1      32.531  36.151  30.498  1.00  0.00    -0.352 N 
ATOM     38  C   UNL A   1      32.802  35.632  31.740  1.00  0.00     0.251 C 
ATOM     39  H   UNL A   1      31.741  36.740  30.474  1.00  0.00     0.163 HD
ATOM     40  O   UNL A   1      31.992  35.843  32.643  1.00  0.00    -0.269 OA
BRANCH  38  41
ATOM     41  C   UNL A   1      34.011  34.819  32.047  1.00  0.00     0.039 A 
ATOM     42  C   UNL A   1      35.260  35.323  31.649  1.00  0.00     0.014 A 
ATOM     43  C   UNL A   1      33.962  33.556  32.640  1.00  0.00     0.014 A 
ATOM     44  C   UNL A   1      36.435  34.604  31.899  1.00  0.00     0.010 A 
ATOM     45  C   UNL A   1      35.138  32.846  32.919  1.00  0.00     0.010 A 
ATOM     46  C   UNL A   1      36.386  33.371  32.565  1.00  0.00    -0.014 A 
BRANCH  46  47
ATOM     47  C   UNL A   1      37.637  32.700  32.997  1.00  0.00     0.031 A 
ATOM     48  C   UNL A   1      38.334  33.056  34.278  1.00  0.00     0.074 A 
ATOM     49  C   UNL A   1      38.181  31.779  32.178  1.00  0.00     0.049 A 
ATOM     50  N   UNL A   1      39.394  32.508  34.819  1.00  0.00    -0.248 NA
ATOM     51  C   UNL A   1      37.785  34.187  35.040  1.00  0.00     0.031 C 
ATOM     52  C   UNL A   1      37.647  31.402  30.868  1.00  0.00     0.029 A 
ATOM     53  N   UNL A   1      39.298  30.995  32.323  1.00  0.00    -0.354 N 
ATOM     54  C   UNL A   1      39.641  33.221  35.985  1.00  0.00     0.074 A 
ATOM     55  C   UNL A   1      38.642  34.269  36.050  1.00  0.00     0.031 C 
ATOM     56  C   UNL A   1      38.423  30.444  30.339  1.00  0.00     0.029 A 
ATOM     57  C   UNL A   1      39.507  30.142  31.267  1.00  0.00     0.049 A 
ATOM     58  H   UNL A   1      39.892  31.041  33.106  1.00  0.00     0.167 HD
ATOM     59  C   UNL A   1      40.602  33.011  36.918  1.00  0.00     0.037 A 
ATOM     60  C   UNL A   1      40.452  29.201  31.078  1.00  0.00     0.037 A 
ATOM     61  C   UNL A   1      41.593  31.964  36.851  1.00  0.00     0.049 A 
ATOM     62  C   UNL A   1      41.465  28.945  32.154  1.00  0.00     0.074 A 
ATOM     63  C   UNL A   1      42.562  31.629  37.782  1.00  0.00     0.029 A 
ATOM     64  N   UNL A   1      41.744  31.085  35.789  1.00  0.00    -0.354 N 
ATOM     65  N   UNL A   1      41.620  29.556  33.302  1.00  0.00    -0.248 NA
ATOM     66  C   UNL A   1      42.418  27.852  31.918  1.00  0.00     0.031 C 
ATOM     67  C   UNL A   1      43.321  30.569  37.269  1.00  0.00     0.029 A 
ATOM     68  C   UNL A   1      42.800  30.221  36.034  1.00  0.00     0.049 A 
ATOM     69  H   UNL A   1      41.186  31.078  34.978  1.00  0.00     0.167 HD
ATOM     70  C   UNL A   1      42.672  28.908  33.937  1.00  0.00     0.074 A 
ATOM     71  C   UNL A   1      43.105  27.847  33.052  1.00  0.00     0.031 C 
ATOM     72  C   UNL A   1      43.227  29.171  35.144  1.00  0.00     0.037 A 
BRANCH  59  73
ATOM     73  C   UNL A   1      40.628  33.925  38.110  1.00  0.00     0.057 A 
ATOM     74  C   UNL A   1      39.850  33.668  39.247  1.00  0.00     0.134 A 
ATOM     75  C   UNL A   1      41.481  35.035  38.149  1.00  0.00     0.134 A 
ATOM     76  F   UNL A   1      39.009  32.624  39.274  1.00  0.00    -0.206 F 
ATOM     77  C   UNL A   1      39.906  34.493  40.372  1.00  0.00     0.040 A 
ATOM     78  C   UNL A   1      41.562  35.854  39.277  1.00  0.00     0.040 A 
ATOM     79  F   UNL A   1      42.261  35.331  37.099  1.00  0.00    -0.206 F 
ATOM     80  C   UNL A   1      40.770  35.586  40.391  1.00  0.00     0.006 A 
ENDBRANCH  59  73
BRANCH  60  81
ATOM     81  C   UNL A   1      40.423  28.380  29.845  1.00  0.00     0.057 A 
ATOM     82  C   UNL A   1      41.243  28.697  28.756  1.00  0.00     0.134 A 
ATOM     83  C   UNL A   1      39.606  27.250  29.736  1.00  0.00     0.134 A 
ATOM     84  F   UNL A   1      42.037  29.776  28.801  1.00  0.00    -0.206 F 
ATOM     85  C   UNL A   1      41.243  27.923  27.595  1.00  0.00     0.040 A 
ATOM     86  C   UNL A   1      39.611  26.456  28.588  1.00  0.00     0.040 A 
ATOM     87  F   UNL A   1      38.808  26.890  30.752  1.00  0.00    -0.206 F 
ATOM     88  C   UNL A   1      40.430  26.795  27.511  1.00  0.00     0.006 A 
ENDBRANCH  60  81
BRANCH  72  89
ATOM     89  C   UNL A   1      44.356  28.285  35.578  1.00  0.00     0.057 A 
ATOM     90  C   UNL A   1      45.686  28.569  35.242  1.00  0.00     0.134 A 
ATOM     91  C   UNL A   1      44.113  27.139  36.346  1.00  0.00     0.134 A 
ATOM     92  F   UNL A   1      45.984  29.644  34.496  1.00  0.00    -0.206 F 
ATOM     93  C   UNL A   1      46.732  27.729  35.630  1.00  0.00     0.040 A 
ATOM     94  C   UNL A   1      45.152  26.304  36.757  1.00  0.00     0.040 A 
ATOM     95  F   UNL A   1      42.862  26.814  36.705  1.00  0.00    -0.206 F 
ATOM     96  C   UNL A   1      46.465  26.595  36.393  1.00  0.00     0.006 A 
ENDBRANCH  72  89
ENDBRANCH  46  47
ENDBRANCH  38  41
ENDBRANCH  36  37
ENDBRANCH  35  36
ENDBRANCH  34  35
ENDBRANCH  33  34
ENDBRANCH   1  33
TORSDOF 19
ENDMDL
MODEL 3
REMARK VINA RESULT:     -11.1      6.103     11.365
REMARK SMILES CC(=O)Oc1cc(CCC(=O)NCCCCCCNC(=O)c2ccc(-c3c4nc(c(-c5c(F)cccc5F)c5ccc([nH]5)c(-c5c(F)cccc5F)c5nc(c(-c6c(F)cccc6F)c6ccc3[nH]6)C=C5)C=C4)cc2)c(OC(C)=O)c2c1C(=O)c1ccccc1C2=O
REMARK SMILES IDX 14 1 13 2 12 3 10 4 11 5 9 7 8 8 7 9 5 10 6 11 82 12 81 13
REMARK SMILES IDX 83 14 76 15 91 16 84 17 85 18 90 19 92 20 86 21 89 22 87 23
REMARK SMILES IDX 88 24 4 25 2 26 1 27 3 28 77 29 78 30 79 31 80 32 15 33
REMARK SMILES IDX 16 34 17 35 18 36 19 37 20 38 21 40 22 41 23 42 75 43 24 44
REMARK SMILES IDX 74 45 25 46 26 47 27 48 68 49 28 50 73 51 67 52 69 53 29 54
REMARK SMILES IDX 72 55 66 56 65 57 30 59 56 60 39 61 55 62 40 63 43 64 54 65
REMARK SMILES IDX 70 66 41 67 42 68 53 70 71 71 44 72 31 73 32 74 37 75 33 76
REMARK SMILES IDX 34 77 36 78 38 79 35 80 57 81 58 82 63 83 59 84 60 85 62 86
REMARK SMILES IDX 64 87 61 88 45 89 46 90 51 91 47 92 48 93 50 94 52 95 49 96
REMARK H PARENT 12 6 19 39 69 58 43 69
REMARK Flexibility Score: inf
ROOT
ATOM      1  C   UNL A   1      39.828  23.103  27.215  1.00  0.00     0.021 C 
ENDROOT
BRANCH   1   2
ATOM      2  C   UNL A   1      38.651  23.492  26.321  1.00  0.00     0.116 C 
BRANCH   2   3
ATOM      3  N   UNL A   1      37.728  22.377  26.160  1.00  0.00    -0.356 N 
ATOM      4  C   UNL A   1      36.432  22.345  25.746  1.00  0.00     0.220 C 
ATOM      5  O   UNL A   1      35.828  21.272  25.805  1.00  0.00    -0.275 OA
ATOM      6  H   UNL A   1      38.106  21.497  26.390  1.00  0.00     0.163 HD
BRANCH   4   7
ATOM      7  C   UNL A   1      35.741  23.580  25.204  1.00  0.00     0.105 C 
BRANCH   7   8
ATOM      8  C   UNL A   1      34.511  23.982  26.026  1.00  0.00     0.049 C 
BRANCH   8   9
ATOM      9  C   UNL A   1      33.772  25.160  25.431  1.00  0.00    -0.000 A 
ATOM     10  C   UNL A   1      33.552  27.557  25.224  1.00  0.00     0.143 A 
ATOM     11  C   UNL A   1      34.267  26.442  25.659  1.00  0.00     0.055 A 
ATOM     12  C   UNL A   1      32.330  27.429  24.540  1.00  0.00     0.080 A 
ATOM     13  C   UNL A   1      31.794  26.149  24.326  1.00  0.00     0.081 A 
ATOM     14  C   UNL A   1      31.601  28.635  24.077  1.00  0.00     0.198 C 
ATOM     15  C   UNL A   1      32.553  25.033  24.734  1.00  0.00     0.146 A 
ATOM     16  C   UNL A   1      30.416  26.044  23.797  1.00  0.00     0.198 C 
ATOM     17  O   UNL A   1      32.130  29.741  24.060  1.00  0.00    -0.288 OA
ATOM     18  C   UNL A   1      30.190  28.512  23.685  1.00  0.00     0.034 A 
ATOM     19  C   UNL A   1      29.592  27.260  23.641  1.00  0.00     0.034 A 
ATOM     20  O   UNL A   1      29.922  24.966  23.502  1.00  0.00    -0.288 OA
ATOM     21  C   UNL A   1      29.434  29.664  23.427  1.00  0.00     0.013 A 
ATOM     22  C   UNL A   1      28.210  27.161  23.433  1.00  0.00     0.013 A 
ATOM     23  C   UNL A   1      28.059  29.564  23.216  1.00  0.00     0.001 A 
ATOM     24  C   UNL A   1      27.443  28.314  23.243  1.00  0.00     0.001 A 
BRANCH  10  25
ATOM     25  O   UNL A   1      34.120  28.795  25.535  1.00  0.00    -0.426 OA
BRANCH  25  26
ATOM     26  C   UNL A   1      33.934  29.133  26.872  1.00  0.00     0.308 C 
ATOM     27  C   UNL A   1      35.238  29.607  27.441  1.00  0.00     0.139 C 
ATOM     28  O   UNL A   1      32.895  29.013  27.512  1.00  0.00    -0.252 OA
ENDBRANCH  25  26
ENDBRANCH  10  25
BRANCH  15  29
ATOM     29  O   UNL A   1      32.182  23.630  24.483  1.00  0.00    -0.426 OA
BRANCH  29  30
ATOM     30  C   UNL A   1      32.215  22.235  24.166  1.00  0.00     0.308 C 
ATOM     31  C   UNL A   1      32.518  22.106  22.700  1.00  0.00     0.139 C 
ATOM     32  O   UNL A   1      32.059  21.308  24.946  1.00  0.00    -0.252 OA
ENDBRANCH  29  30
ENDBRANCH  15  29
ENDBRANCH   8   9
ENDBRANCH   7   8
ENDBRANCH   4   7
ENDBRANCH   2   3
ENDBRANCH   1   2
BRANCH   1  33
ATOM     33  C   UNL A   1      40.892  22.196  26.595  1.00  0.00     0.002 C 
BRANCH  33  34
ATOM     34  C   UNL A   1      41.829  21.472  27.566  1.00  0.00     0.002 C 
BRANCH  34  35
ATOM     35  C   UNL A   1      42.230  20.038  27.204  1.00  0.00     0.021 C 
BRANCH  35  36
ATOM     36  C   UNL A   1      41.865  19.551  25.801  1.00  0.00     0.116 C 
BRANCH  36  37
ATOM     37  N   UNL A   1      43.012  19.083  25.041  1.00  0.00    -0.352 N 
ATOM     38  C   UNL A   1      44.181  19.698  24.662  1.00  0.00     0.251 C 
ATOM     39  H   UNL A   1      42.938  18.148  24.743  1.00  0.00     0.163 HD
ATOM     40  O   UNL A   1      44.937  19.084  23.909  1.00  0.00    -0.269 OA
BRANCH  38  41
ATOM     41  C   UNL A   1      44.571  21.067  25.100  1.00  0.00     0.039 A 
ATOM     42  C   UNL A   1      44.109  22.155  24.343  1.00  0.00     0.014 A 
ATOM     43  C   UNL A   1      45.425  21.319  26.175  1.00  0.00     0.014 A 
ATOM     44  C   UNL A   1      44.447  23.467  24.695  1.00  0.00     0.010 A 
ATOM     45  C   UNL A   1      45.742  22.631  26.551  1.00  0.00     0.010 A 
ATOM     46  C   UNL A   1      45.243  23.718  25.823  1.00  0.00    -0.014 A 
BRANCH  46  47
ATOM     47  C   UNL A   1      45.445  25.107  26.307  1.00  0.00     0.031 A 
ATOM     48  C   UNL A   1      46.787  25.777  26.271  1.00  0.00     0.074 A 
ATOM     49  C   UNL A   1      44.392  25.755  26.839  1.00  0.00     0.049 A 
ATOM     50  N   UNL A   1      47.102  27.007  26.593  1.00  0.00    -0.248 NA
ATOM     51  C   UNL A   1      47.928  24.957  25.840  1.00  0.00     0.031 C 
ATOM     52  C   UNL A   1      43.053  25.185  27.008  1.00  0.00     0.029 A 
ATOM     53  N   UNL A   1      44.278  27.029  27.337  1.00  0.00    -0.354 N 
ATOM     54  C   UNL A   1      48.473  27.115  26.403  1.00  0.00     0.074 A 
ATOM     55  C   UNL A   1      48.937  25.809  25.975  1.00  0.00     0.031 C 
ATOM     56  C   UNL A   1      42.248  26.112  27.548  1.00  0.00     0.029 A 
ATOM     57  C   UNL A   1      43.010  27.337  27.766  1.00  0.00     0.049 A 
ATOM     58  H   UNL A   1      45.031  27.660  27.382  1.00  0.00     0.167 HD
ATOM     59  C   UNL A   1      49.267  28.203  26.557  1.00  0.00     0.037 A 
ATOM     60  C   UNL A   1      42.509  28.486  28.257  1.00  0.00     0.037 A 
ATOM     61  C   UNL A   1      48.802  29.502  26.979  1.00  0.00     0.049 A 
ATOM     62  C   UNL A   1      43.393  29.693  28.358  1.00  0.00     0.074 A 
ATOM     63  C   UNL A   1      49.518  30.682  27.097  1.00  0.00     0.029 A 
ATOM     64  N   UNL A   1      47.499  29.790  27.360  1.00  0.00    -0.354 N 
ATOM     65  N   UNL A   1      44.666  29.810  28.070  1.00  0.00    -0.248 NA
ATOM     66  C   UNL A   1      42.763  30.936  28.827  1.00  0.00     0.031 C 
ATOM     67  C   UNL A   1      48.657  31.676  27.580  1.00  0.00     0.029 A 
ATOM     68  C   UNL A   1      47.396  31.123  27.728  1.00  0.00     0.049 A 
ATOM     69  H   UNL A   1      46.758  29.143  27.370  1.00  0.00     0.167 HD
ATOM     70  C   UNL A   1      44.986  31.141  28.301  1.00  0.00     0.074 A 
ATOM     71  C   UNL A   1      43.769  31.795  28.736  1.00  0.00     0.031 C 
ATOM     72  C   UNL A   1      46.181  31.763  28.164  1.00  0.00     0.037 A 
BRANCH  59  73
ATOM     73  C   UNL A   1      50.730  28.047  26.255  1.00  0.00     0.057 A 
ATOM     74  C   UNL A   1      51.656  27.726  27.257  1.00  0.00     0.134 A 
ATOM     75  C   UNL A   1      51.211  28.157  24.944  1.00  0.00     0.134 A 
ATOM     76  F   UNL A   1      51.262  27.609  28.534  1.00  0.00    -0.206 F 
ATOM     77  C   UNL A   1      53.009  27.538  26.969  1.00  0.00     0.040 A 
ATOM     78  C   UNL A   1      52.558  27.950  24.640  1.00  0.00     0.040 A 
ATOM     79  F   UNL A   1      50.377  28.451  23.935  1.00  0.00    -0.206 F 
ATOM     80  C   UNL A   1      53.462  27.644  25.655  1.00  0.00     0.006 A 
ENDBRANCH  59  73
BRANCH  60  81
ATOM     81  C   UNL A   1      41.072  28.559  28.613  1.00  0.00     0.057 A 
ATOM     82  C   UNL A   1      40.644  28.285  29.916  1.00  0.00     0.134 A 
ATOM     83  C   UNL A   1      40.104  28.932  27.674  1.00  0.00     0.134 A 
ATOM     84  F   UNL A   1      41.527  27.910  30.852  1.00  0.00    -0.206 F 
ATOM     85  C   UNL A   1      39.297  28.368  30.273  1.00  0.00     0.040 A 
ATOM     86  C   UNL A   1      38.757  29.039  28.023  1.00  0.00     0.040 A 
ATOM     87  F   UNL A   1      40.457  29.219  26.413  1.00  0.00    -0.206 F 
ATOM     88  C   UNL A   1      38.350  28.752  29.326  1.00  0.00     0.006 A 
ENDBRANCH  60  81
BRANCH  72  89
ATOM     89  C   UNL A   1      46.222  33.230  28.477  1.00  0.00     0.057 A 
ATOM     90  C   UNL A   1      46.482  33.698  29.772  1.00  0.00     0.134 A 
ATOM     91  C   UNL A   1      46.005  34.183  27.475  1.00  0.00     0.134 A 
ATOM     92  F   UNL A   1      46.683  32.836  30.780  1.00  0.00    -0.206 F 
ATOM     93  C   UNL A   1      46.497  35.064  30.064  1.00  0.00     0.040 A 
ATOM     94  C   UNL A   1      46.039  35.550  27.750  1.00  0.00     0.040 A 
ATOM     95  F   UNL A   1      45.756  33.799  26.214  1.00  0.00    -0.206 F 
ATOM     96  C   UNL A   1      46.279  35.993  29.049  1.00  0.00     0.006 A 
ENDBRANCH  72  89
ENDBRANCH  46  47
ENDBRANCH  38  41
ENDBRANCH  36  37
ENDBRANCH  35  36
ENDBRANCH  34  35
ENDBRANCH  33  34
ENDBRANCH   1  33
TORSDOF 19
ENDMDL
