MODEL 1
REMARK VINA RESULT:     -12.2      0.000      0.000
REMARK SMILES Cc1occc1C(=O)N1CCC(C(=O)NCCCCCCNC(=O)c2ccc(-c3c4nc(c(-c5c(F)cccc5F)c5ccc([nH]5)c(-c5c(F)cccc5F)c5nc(c(-c6c(F)cccc6F)c6ccc3[nH]6)C=C5)C=C4)cc2)(n2cccn2)CC1
REMARK SMILES IDX 19 1 18 2 17 3 16 4 15 5 13 6 14 7 12 9 7 10 8 11 9 12 10 13
REMARK SMILES IDX 85 14 11 15 84 16 6 17 1 18 2 19 3 20 4 21 5 22 79 23 80 24
REMARK SMILES IDX 83 25 81 26 82 27 20 28 21 29 22 30 23 31 24 33 25 34 26 35
REMARK SMILES IDX 78 36 27 37 77 38 28 39 29 40 30 41 71 42 31 43 76 44 70 45
REMARK SMILES IDX 72 46 32 47 75 48 69 49 68 50 33 52 59 53 42 54 58 55 43 56
REMARK SMILES IDX 46 57 57 58 73 59 44 60 45 61 56 63 74 64 47 65 34 66 35 67
REMARK SMILES IDX 40 68 36 69 37 70 39 71 41 72 38 73 60 74 61 75 66 76 62 77
REMARK SMILES IDX 63 78 65 79 67 80 64 81 48 82 49 83 54 84 50 85 51 86 53 87
REMARK SMILES IDX 55 88 52 89
REMARK H PARENT 15 8 22 32 72 51 46 62
REMARK Flexibility Score: inf
ROOT
ATOM      1  C   UNL A   1      31.789  30.585  26.417  1.00  0.00     0.002 C 
ENDROOT
BRANCH   1   2
ATOM      2  C   UNL A   1      32.742  29.782  27.309  1.00  0.00     0.002 C 
BRANCH   2   3
ATOM      3  C   UNL A   1      33.968  29.177  26.615  1.00  0.00     0.021 C 
BRANCH   3   4
ATOM      4  C   UNL A   1      33.728  27.847  25.901  1.00  0.00     0.116 C 
BRANCH   4   5
ATOM      5  N   UNL A   1      32.622  27.103  26.483  1.00  0.00    -0.354 N 
ATOM      6  C   UNL A   1      31.479  26.541  25.973  1.00  0.00     0.248 C 
ATOM      7  O   UNL A   1      30.931  25.784  26.778  1.00  0.00    -0.272 OA
ATOM      8  H   UNL A   1      32.713  26.976  27.455  1.00  0.00     0.163 HD
BRANCH   6   9
ATOM      9  C   UNL A   1      31.011  26.777  24.489  1.00  0.00     0.144 C 
ATOM     10  C   UNL A   1      27.890  29.313  23.025  1.00  0.00     0.257 C 
ATOM     11  O   UNL A   1      26.768  29.019  23.498  1.00  0.00    -0.269 OA
ATOM     12  N   UNL A   1      28.982  28.475  23.222  1.00  0.00    -0.338 N 
ATOM     13  C   UNL A   1      28.732  27.043  23.293  1.00  0.00     0.123 C 
ATOM     14  C   UNL A   1      30.368  28.918  23.154  1.00  0.00     0.123 C 
ATOM     15  C   UNL A   1      29.538  26.317  24.357  1.00  0.00     0.062 C 
ATOM     16  C   UNL A   1      31.240  28.292  24.233  1.00  0.00     0.062 C 
BRANCH  10  17
ATOM     17  C   UNL A   1      28.033  30.529  22.244  1.00  0.00     0.081 A 
ATOM     18  C   UNL A   1      29.116  32.286  23.912  1.00  0.00     0.088 C 
ATOM     19  C   UNL A   1      28.555  31.754  22.652  1.00  0.00     0.113 A 
ATOM     20  O   UNL A   1      28.599  32.622  21.601  1.00  0.00    -0.469 OA
ATOM     21  C   UNL A   1      28.176  31.953  20.503  1.00  0.00     0.196 A 
ATOM     22  C   UNL A   1      27.830  30.667  20.836  1.00  0.00     0.056 A 
ENDBRANCH  10  17
BRANCH   9  23
ATOM     23  N   UNL A   1      31.801  25.994  23.480  1.00  0.00    -0.257 N 
ATOM     24  C   UNL A   1      31.706  24.643  23.206  1.00  0.00     0.110 A 
ATOM     25  N   UNL A   1      32.822  26.542  22.793  1.00  0.00    -0.181 NA
ATOM     26  C   UNL A   1      32.628  24.358  22.229  1.00  0.00     0.042 A 
ATOM     27  C   UNL A   1      33.276  25.575  21.998  1.00  0.00     0.135 A 
ENDBRANCH   9  23
ENDBRANCH   6   9
ENDBRANCH   4   5
ENDBRANCH   3   4
ENDBRANCH   2   3
ENDBRANCH   1   2
BRANCH   1  28
ATOM     28  C   UNL A   1      31.555  32.042  26.827  1.00  0.00     0.021 C 
BRANCH  28  29
ATOM     29  C   UNL A   1      32.813  32.870  27.080  1.00  0.00     0.116 C 
BRANCH  29  30
ATOM     30  N   UNL A   1      32.527  34.185  27.629  1.00  0.00    -0.352 N 
ATOM     31  C   UNL A   1      33.125  34.830  28.678  1.00  0.00     0.251 C 
ATOM     32  H   UNL A   1      31.802  34.681  27.184  1.00  0.00     0.163 HD
ATOM     33  O   UNL A   1      32.666  35.909  29.080  1.00  0.00    -0.269 OA
BRANCH  31  34
ATOM     34  C   UNL A   1      34.295  34.242  29.362  1.00  0.00     0.039 A 
ATOM     35  C   UNL A   1      34.078  33.350  30.418  1.00  0.00     0.014 A 
ATOM     36  C   UNL A   1      35.600  34.578  28.988  1.00  0.00     0.014 A 
ATOM     37  C   UNL A   1      35.165  32.749  31.058  1.00  0.00     0.010 A 
ATOM     38  C   UNL A   1      36.684  33.946  29.600  1.00  0.00     0.010 A 
ATOM     39  C   UNL A   1      36.475  33.023  30.637  1.00  0.00    -0.014 A 
BRANCH  39  40
ATOM     40  C   UNL A   1      37.638  32.350  31.265  1.00  0.00     0.031 A 
ATOM     41  C   UNL A   1      38.390  31.283  30.523  1.00  0.00     0.074 A 
ATOM     42  C   UNL A   1      37.975  32.650  32.535  1.00  0.00     0.049 A 
ATOM     43  N   UNL A   1      39.374  30.526  30.937  1.00  0.00    -0.248 NA
ATOM     44  C   UNL A   1      37.968  31.018  29.139  1.00  0.00     0.031 C 
ATOM     45  C   UNL A   1      37.298  33.636  33.381  1.00  0.00     0.029 A 
ATOM     46  N   UNL A   1      38.962  32.140  33.341  1.00  0.00    -0.354 N 
ATOM     47  C   UNL A   1      39.670  29.677  29.879  1.00  0.00     0.074 A 
ATOM     48  C   UNL A   1      38.752  30.000  28.808  1.00  0.00     0.031 C 
ATOM     49  C   UNL A   1      37.894  33.661  34.584  1.00  0.00     0.029 A 
ATOM     50  C   UNL A   1      38.975  32.680  34.603  1.00  0.00     0.049 A 
ATOM     51  H   UNL A   1      39.598  31.452  33.042  1.00  0.00     0.167 HD
ATOM     52  C   UNL A   1      40.625  28.720  29.806  1.00  0.00     0.037 A 
ATOM     53  C   UNL A   1      39.766  32.411  35.657  1.00  0.00     0.037 A 
ATOM     54  C   UNL A   1      41.572  28.427  30.847  1.00  0.00     0.049 A 
ATOM     55  C   UNL A   1      40.846  31.374  35.533  1.00  0.00     0.074 A 
ATOM     56  C   UNL A   1      42.628  27.532  30.827  1.00  0.00     0.029 A 
ATOM     57  N   UNL A   1      41.581  29.029  32.095  1.00  0.00    -0.354 N 
ATOM     58  N   UNL A   1      41.149  30.620  34.505  1.00  0.00    -0.248 NA
ATOM     59  C   UNL A   1      41.692  31.153  36.714  1.00  0.00     0.031 C 
ATOM     60  C   UNL A   1      43.265  27.577  32.072  1.00  0.00     0.029 A 
ATOM     61  C   UNL A   1      42.616  28.515  32.858  1.00  0.00     0.049 A 
ATOM     62  H   UNL A   1      40.945  29.718  32.395  1.00  0.00     0.167 HD
ATOM     63  C   UNL A   1      42.233  29.852  34.908  1.00  0.00     0.074 A 
ATOM     64  C   UNL A   1      42.538  30.233  36.271  1.00  0.00     0.031 C 
ATOM     65  C   UNL A   1      42.913  28.914  34.208  1.00  0.00     0.037 A 
BRANCH  52  66
ATOM     66  C   UNL A   1      40.697  27.916  28.545  1.00  0.00     0.057 A 
ATOM     67  C   UNL A   1      39.993  26.716  28.398  1.00  0.00     0.134 A 
ATOM     68  C   UNL A   1      41.442  28.374  27.452  1.00  0.00     0.134 A 
ATOM     69  F   UNL A   1      39.272  26.223  29.416  1.00  0.00    -0.206 F 
ATOM     70  C   UNL A   1      40.037  25.990  27.207  1.00  0.00     0.040 A 
ATOM     71  C   UNL A   1      41.482  27.665  26.251  1.00  0.00     0.040 A 
ATOM     72  F   UNL A   1      42.136  29.520  27.532  1.00  0.00    -0.206 F 
ATOM     73  C   UNL A   1      40.778  26.467  26.127  1.00  0.00     0.006 A 
ENDBRANCH  52  66
BRANCH  53  74
ATOM     74  C   UNL A   1      39.580  33.149  36.929  1.00  0.00     0.057 A 
ATOM     75  C   UNL A   1      38.649  32.718  37.878  1.00  0.00     0.134 A 
ATOM     76  C   UNL A   1      40.317  34.303  37.215  1.00  0.00     0.134 A 
ATOM     77  F   UNL A   1      37.901  31.630  37.645  1.00  0.00    -0.206 F 
ATOM     78  C   UNL A   1      38.443  33.419  39.067  1.00  0.00     0.040 A 
ATOM     79  C   UNL A   1      40.133  35.005  38.407  1.00  0.00     0.040 A 
ATOM     80  F   UNL A   1      41.226  34.761  36.342  1.00  0.00    -0.206 F 
ATOM     81  C   UNL A   1      39.190  34.566  39.335  1.00  0.00     0.006 A 
ENDBRANCH  53  74
BRANCH  65  82
ATOM     82  C   UNL A   1      44.069  28.258  34.895  1.00  0.00     0.057 A 
ATOM     83  C   UNL A   1      45.353  28.814  34.859  1.00  0.00     0.134 A 
ATOM     84  C   UNL A   1      43.890  27.076  35.624  1.00  0.00     0.134 A 
ATOM     85  F   UNL A   1      45.588  29.937  34.165  1.00  0.00    -0.206 F 
ATOM     86  C   UNL A   1      46.424  28.210  35.519  1.00  0.00     0.040 A 
ATOM     87  C   UNL A   1      44.950  26.471  36.299  1.00  0.00     0.040 A 
ATOM     88  F   UNL A   1      42.682  26.498  35.696  1.00  0.00    -0.206 F 
ATOM     89  C   UNL A   1      46.223  27.038  36.245  1.00  0.00     0.006 A 
ENDBRANCH  65  82
ENDBRANCH  39  40
ENDBRANCH  31  34
ENDBRANCH  29  30
ENDBRANCH  28  29
ENDBRANCH   1  28
TORSDOF 15
ENDMDL
MODEL 2
REMARK VINA RESULT:     -12.2      0.474      6.146
REMARK SMILES Cc1occc1C(=O)N1CCC(C(=O)NCCCCCCNC(=O)c2ccc(-c3c4nc(c(-c5c(F)cccc5F)c5ccc([nH]5)c(-c5c(F)cccc5F)c5nc(c(-c6c(F)cccc6F)c6ccc3[nH]6)C=C5)C=C4)cc2)(n2cccn2)CC1
REMARK SMILES IDX 19 1 18 2 17 3 16 4 15 5 13 6 14 7 12 9 7 10 8 11 9 12 10 13
REMARK SMILES IDX 85 14 11 15 84 16 6 17 1 18 2 19 3 20 4 21 5 22 79 23 80 24
REMARK SMILES IDX 83 25 81 26 82 27 20 28 21 29 22 30 23 31 24 33 25 34 26 35
REMARK SMILES IDX 78 36 27 37 77 38 28 39 29 40 30 41 71 42 31 43 76 44 70 45
REMARK SMILES IDX 72 46 32 47 75 48 69 49 68 50 33 52 59 53 42 54 58 55 43 56
REMARK SMILES IDX 46 57 57 58 73 59 44 60 45 61 56 63 74 64 47 65 34 66 35 67
REMARK SMILES IDX 40 68 36 69 37 70 39 71 41 72 38 73 60 74 61 75 66 76 62 77
REMARK SMILES IDX 63 78 65 79 67 80 64 81 48 82 49 83 54 84 50 85 51 86 53 87
REMARK SMILES IDX 55 88 52 89
REMARK H PARENT 15 8 22 32 72 51 46 62
REMARK Flexibility Score: inf
ROOT
ATOM      1  C   UNL A   1      31.698  30.656  26.422  1.00  0.00     0.002 C 
ENDROOT
BRANCH   1   2
ATOM      2  C   UNL A   1      32.685  29.870  27.292  1.00  0.00     0.002 C 
BRANCH   2   3
ATOM      3  C   UNL A   1      33.913  29.299  26.572  1.00  0.00     0.021 C 
BRANCH   3   4
ATOM      4  C   UNL A   1      33.706  27.944  25.896  1.00  0.00     0.116 C 
BRANCH   4   5
ATOM      5  N   UNL A   1      32.611  27.194  26.492  1.00  0.00    -0.354 N 
ATOM      6  C   UNL A   1      31.474  26.610  25.994  1.00  0.00     0.248 C 
ATOM      7  O   UNL A   1      30.939  25.857  26.812  1.00  0.00    -0.272 OA
ATOM      8  H   UNL A   1      32.707  27.082  27.465  1.00  0.00     0.163 HD
BRANCH   6   9
ATOM      9  C   UNL A   1      30.998  26.819  24.509  1.00  0.00     0.144 C 
ATOM     10  C   UNL A   1      27.831  29.284  23.021  1.00  0.00     0.257 C 
ATOM     11  O   UNL A   1      26.716  28.977  23.502  1.00  0.00    -0.269 OA
ATOM     12  N   UNL A   1      28.938  28.467  23.226  1.00  0.00    -0.338 N 
ATOM     13  C   UNL A   1      28.712  27.032  23.316  1.00  0.00     0.123 C 
ATOM     14  C   UNL A   1      30.316  28.932  23.148  1.00  0.00     0.123 C 
ATOM     15  C   UNL A   1      29.533  26.334  24.386  1.00  0.00     0.062 C 
ATOM     16  C   UNL A   1      31.201  28.334  24.232  1.00  0.00     0.062 C 
BRANCH  10  17
ATOM     17  C   UNL A   1      27.952  30.492  22.224  1.00  0.00     0.081 A 
ATOM     18  C   UNL A   1      28.955  32.305  23.883  1.00  0.00     0.088 C 
ATOM     19  C   UNL A   1      28.431  31.737  22.622  1.00  0.00     0.113 A 
ATOM     20  O   UNL A   1      28.468  32.591  21.559  1.00  0.00    -0.469 OA
ATOM     21  C   UNL A   1      28.083  31.894  20.465  1.00  0.00     0.196 A 
ATOM     22  C   UNL A   1      27.769  30.603  20.811  1.00  0.00     0.056 A 
ENDBRANCH  10  17
BRANCH   9  23
ATOM     23  N   UNL A   1      31.798  26.036  23.507  1.00  0.00    -0.257 N 
ATOM     24  C   UNL A   1      31.745  24.676  23.270  1.00  0.00     0.110 A 
ATOM     25  N   UNL A   1      32.789  26.599  22.789  1.00  0.00    -0.181 NA
ATOM     26  C   UNL A   1      32.660  24.396  22.285  1.00  0.00     0.042 A 
ATOM     27  C   UNL A   1      33.262  25.628  22.012  1.00  0.00     0.135 A 
ENDBRANCH   9  23
ENDBRANCH   6   9
ENDBRANCH   4   5
ENDBRANCH   3   4
ENDBRANCH   2   3
ENDBRANCH   1   2
BRANCH   1  28
ATOM     28  C   UNL A   1      31.481  32.121  26.811  1.00  0.00     0.021 C 
BRANCH  28  29
ATOM     29  C   UNL A   1      32.747  32.963  26.958  1.00  0.00     0.116 C 
BRANCH  29  30
ATOM     30  N   UNL A   1      32.510  34.234  27.621  1.00  0.00    -0.352 N 
ATOM     31  C   UNL A   1      33.134  34.763  28.719  1.00  0.00     0.251 C 
ATOM     32  H   UNL A   1      31.803  34.793  27.225  1.00  0.00     0.163 HD
ATOM     33  O   UNL A   1      32.716  35.818  29.217  1.00  0.00    -0.269 OA
BRANCH  31  34
ATOM     34  C   UNL A   1      34.284  34.075  29.344  1.00  0.00     0.039 A 
ATOM     35  C   UNL A   1      34.045  33.192  30.402  1.00  0.00     0.014 A 
ATOM     36  C   UNL A   1      35.593  34.308  28.910  1.00  0.00     0.014 A 
ATOM     37  C   UNL A   1      35.108  32.499  30.986  1.00  0.00     0.010 A 
ATOM     38  C   UNL A   1      36.649  33.585  29.466  1.00  0.00     0.010 A 
ATOM     39  C   UNL A   1      36.414  32.671  30.506  1.00  0.00    -0.014 A 
BRANCH  39  40
ATOM     40  C   UNL A   1      37.547  31.899  31.073  1.00  0.00     0.031 A 
ATOM     41  C   UNL A   1      38.046  32.192  32.459  1.00  0.00     0.074 A 
ATOM     42  C   UNL A   1      38.173  30.980  30.313  1.00  0.00     0.049 A 
ATOM     43  N   UNL A   1      39.074  31.684  33.090  1.00  0.00    -0.248 NA
ATOM     44  C   UNL A   1      37.306  33.202  33.230  1.00  0.00     0.031 C 
ATOM     45  C   UNL A   1      37.814  30.631  28.937  1.00  0.00     0.029 A 
ATOM     46  N   UNL A   1      39.257  30.184  30.587  1.00  0.00    -0.354 N 
ATOM     47  C   UNL A   1      39.123  32.331  34.318  1.00  0.00     0.074 A 
ATOM     48  C   UNL A   1      38.030  33.280  34.338  1.00  0.00     0.031 C 
ATOM     49  C   UNL A   1      38.660  29.689  28.490  1.00  0.00     0.029 A 
ATOM     50  C   UNL A   1      39.631  29.384  29.536  1.00  0.00     0.049 A 
ATOM     51  H   UNL A   1      39.721  30.186  31.455  1.00  0.00     0.167 HD
ATOM     52  C   UNL A   1      39.994  32.146  35.337  1.00  0.00     0.037 A 
ATOM     53  C   UNL A   1      40.647  28.509  29.426  1.00  0.00     0.037 A 
ATOM     54  C   UNL A   1      41.051  31.171  35.343  1.00  0.00     0.049 A 
ATOM     55  C   UNL A   1      41.573  28.292  30.589  1.00  0.00     0.074 A 
ATOM     56  C   UNL A   1      41.929  30.856  36.366  1.00  0.00     0.029 A 
ATOM     57  N   UNL A   1      41.369  30.349  34.274  1.00  0.00    -0.354 N 
ATOM     58  N   UNL A   1      41.569  28.872  31.763  1.00  0.00    -0.248 NA
ATOM     59  C   UNL A   1      42.642  27.299  30.410  1.00  0.00     0.031 C 
ATOM     60  C   UNL A   1      42.793  29.855  35.910  1.00  0.00     0.029 A 
ATOM     61  C   UNL A   1      42.439  29.535  34.610  1.00  0.00     0.049 A 
ATOM     62  H   UNL A   1      40.905  30.344  33.407  1.00  0.00     0.167 HD
ATOM     63  C   UNL A   1      42.618  28.300  32.470  1.00  0.00     0.074 A 
ATOM     64  C   UNL A   1      43.234  27.324  31.596  1.00  0.00     0.031 C 
ATOM     65  C   UNL A   1      43.032  28.562  33.732  1.00  0.00     0.037 A 
BRANCH  52  66
ATOM     66  C   UNL A   1      39.837  33.019  36.543  1.00  0.00     0.057 A 
ATOM     67  C   UNL A   1      40.573  34.200  36.695  1.00  0.00     0.134 A 
ATOM     68  C   UNL A   1      38.907  32.697  37.538  1.00  0.00     0.134 A 
ATOM     69  F   UNL A   1      41.486  34.554  35.779  1.00  0.00    -0.206 F 
ATOM     70  C   UNL A   1      40.395  35.027  37.805  1.00  0.00     0.040 A 
ATOM     71  C   UNL A   1      38.710  33.523  38.644  1.00  0.00     0.040 A 
ATOM     72  F   UNL A   1      38.170  31.578  37.446  1.00  0.00    -0.206 F 
ATOM     73  C   UNL A   1      39.457  34.693  38.780  1.00  0.00     0.006 A 
ENDBRANCH  52  66
BRANCH  53  74
ATOM     74  C   UNL A   1      40.838  27.751  28.167  1.00  0.00     0.057 A 
ATOM     75  C   UNL A   1      41.633  28.262  27.136  1.00  0.00     0.134 A 
ATOM     76  C   UNL A   1      40.222  26.513  27.961  1.00  0.00     0.134 A 
ATOM     77  F   UNL A   1      42.229  29.456  27.272  1.00  0.00    -0.206 F 
ATOM     78  C   UNL A   1      41.798  27.574  25.934  1.00  0.00     0.040 A 
ATOM     79  C   UNL A   1      40.391  25.805  26.771  1.00  0.00     0.040 A 
ATOM     80  F   UNL A   1      39.450  25.972  28.916  1.00  0.00    -0.206 F 
ATOM     81  C   UNL A   1      41.178  26.338  25.750  1.00  0.00     0.006 A 
ENDBRANCH  53  74
BRANCH  65  82
ATOM     82  C   UNL A   1      44.187  27.763  34.249  1.00  0.00     0.057 A 
ATOM     83  C   UNL A   1      43.998  26.523  34.869  1.00  0.00     0.134 A 
ATOM     84  C   UNL A   1      45.499  28.224  34.096  1.00  0.00     0.134 A 
ATOM     85  F   UNL A   1      42.762  26.036  35.056  1.00  0.00    -0.206 F 
ATOM     86  C   UNL A   1      45.080  25.771  35.332  1.00  0.00     0.040 A 
ATOM     87  C   UNL A   1      46.589  27.475  34.542  1.00  0.00     0.040 A 
ATOM     88  F   UNL A   1      45.742  29.404  33.508  1.00  0.00    -0.206 F 
ATOM     89  C   UNL A   1      46.379  26.245  35.163  1.00  0.00     0.006 A 
ENDBRANCH  65  82
ENDBRANCH  39  40
ENDBRANCH  31  34
ENDBRANCH  29  30
ENDBRANCH  28  29
ENDBRANCH   1  28
TORSDOF 15
ENDMDL
MODEL 3
REMARK VINA RESULT:     -12.1      2.832      6.881
REMARK SMILES Cc1occc1C(=O)N1CCC(C(=O)NCCCCCCNC(=O)c2ccc(-c3c4nc(c(-c5c(F)cccc5F)c5ccc([nH]5)c(-c5c(F)cccc5F)c5nc(c(-c6c(F)cccc6F)c6ccc3[nH]6)C=C5)C=C4)cc2)(n2cccn2)CC1
REMARK SMILES IDX 19 1 18 2 17 3 16 4 15 5 13 6 14 7 12 9 7 10 8 11 9 12 10 13
REMARK SMILES IDX 85 14 11 15 84 16 6 17 1 18 2 19 3 20 4 21 5 22 79 23 80 24
REMARK SMILES IDX 83 25 81 26 82 27 20 28 21 29 22 30 23 31 24 33 25 34 26 35
REMARK SMILES IDX 78 36 27 37 77 38 28 39 29 40 30 41 71 42 31 43 76 44 70 45
REMARK SMILES IDX 72 46 32 47 75 48 69 49 68 50 33 52 59 53 42 54 58 55 43 56
REMARK SMILES IDX 46 57 57 58 73 59 44 60 45 61 56 63 74 64 47 65 34 66 35 67
REMARK SMILES IDX 40 68 36 69 37 70 39 71 41 72 38 73 60 74 61 75 66 76 62 77
REMARK SMILES IDX 63 78 65 79 67 80 64 81 48 82 49 83 54 84 50 85 51 86 53 87
REMARK SMILES IDX 55 88 52 89
REMARK H PARENT 15 8 22 32 72 51 46 62
REMARK Flexibility Score: inf
ROOT
ATOM      1  C   UNL A   1      34.571  23.513  25.813  1.00  0.00     0.002 C 
ENDROOT
BRANCH   1   2
ATOM      2  C   UNL A   1      33.238  22.780  25.631  1.00  0.00     0.002 C 
BRANCH   2   3
ATOM      3  C   UNL A   1      32.200  22.982  26.743  1.00  0.00     0.021 C 
BRANCH   3   4
ATOM      4  C   UNL A   1      31.064  23.950  26.411  1.00  0.00     0.116 C 
BRANCH   4   5
ATOM      5  N   UNL A   1      31.330  25.295  26.895  1.00  0.00    -0.354 N 
ATOM      6  C   UNL A   1      31.218  26.546  26.341  1.00  0.00     0.248 C 
ATOM      7  O   UNL A   1      31.314  27.441  27.186  1.00  0.00    -0.272 OA
ATOM      8  H   UNL A   1      31.663  25.313  27.820  1.00  0.00     0.163 HD
BRANCH   6   9
ATOM      9  C   UNL A   1      30.896  26.770  24.818  1.00  0.00     0.144 C 
ATOM     10  C   UNL A   1      27.846  29.191  23.041  1.00  0.00     0.257 C 
ATOM     11  O   UNL A   1      26.694  28.852  23.397  1.00  0.00    -0.269 OA
ATOM     12  N   UNL A   1      28.944  28.394  23.349  1.00  0.00    -0.338 N 
ATOM     13  C   UNL A   1      28.743  26.954  23.394  1.00  0.00     0.123 C 
ATOM     14  C   UNL A   1      30.311  28.891  23.424  1.00  0.00     0.123 C 
ATOM     15  C   UNL A   1      29.463  26.255  24.535  1.00  0.00     0.062 C 
ATOM     16  C   UNL A   1      31.092  28.294  24.586  1.00  0.00     0.062 C 
BRANCH  10  17
ATOM     17  C   UNL A   1      28.022  30.415  22.279  1.00  0.00     0.081 A 
ATOM     18  C   UNL A   1      28.963  32.176  24.026  1.00  0.00     0.088 C 
ATOM     19  C   UNL A   1      28.495  31.644  22.728  1.00  0.00     0.113 A 
ATOM     20  O   UNL A   1      28.596  32.521  21.688  1.00  0.00    -0.469 OA
ATOM     21  C   UNL A   1      28.258  31.853  20.560  1.00  0.00     0.196 A 
ATOM     22  C   UNL A   1      27.911  30.560  20.862  1.00  0.00     0.056 A 
ENDBRANCH  10  17
BRANCH   9  23
ATOM     23  N   UNL A   1      31.815  26.021  23.895  1.00  0.00    -0.257 N 
ATOM     24  C   UNL A   1      33.152  26.272  23.658  1.00  0.00     0.110 A 
ATOM     25  N   UNL A   1      31.366  25.054  23.071  1.00  0.00    -0.181 NA
ATOM     26  C   UNL A   1      33.584  25.355  22.732  1.00  0.00     0.042 A 
ATOM     27  C   UNL A   1      32.440  24.613  22.421  1.00  0.00     0.135 A 
ENDBRANCH   9  23
ENDBRANCH   6   9
ENDBRANCH   4   5
ENDBRANCH   3   4
ENDBRANCH   2   3
ENDBRANCH   1   2
BRANCH   1  28
ATOM     28  C   UNL A   1      35.728  23.027  24.935  1.00  0.00     0.021 C 
BRANCH  28  29
ATOM     29  C   UNL A   1      37.069  23.721  25.160  1.00  0.00     0.116 C 
BRANCH  29  30
ATOM     30  N   UNL A   1      38.159  22.789  25.398  1.00  0.00    -0.352 N 
ATOM     31  C   UNL A   1      39.331  22.988  26.075  1.00  0.00     0.251 C 
ATOM     32  H   UNL A   1      38.036  21.889  25.018  1.00  0.00     0.163 HD
ATOM     33  O   UNL A   1      40.200  22.104  26.076  1.00  0.00    -0.269 OA
BRANCH  31  34
ATOM     34  C   UNL A   1      39.593  24.258  26.783  1.00  0.00     0.039 A 
ATOM     35  C   UNL A   1      39.071  24.430  28.070  1.00  0.00     0.014 A 
ATOM     36  C   UNL A   1      40.328  25.287  26.184  1.00  0.00     0.014 A 
ATOM     37  C   UNL A   1      39.334  25.605  28.778  1.00  0.00     0.010 A 
ATOM     38  C   UNL A   1      40.625  26.442  26.908  1.00  0.00     0.010 A 
ATOM     39  C   UNL A   1      40.134  26.609  28.213  1.00  0.00    -0.014 A 
BRANCH  39  40
ATOM     40  C   UNL A   1      40.473  27.837  28.972  1.00  0.00     0.031 A 
ATOM     41  C   UNL A   1      41.791  27.950  29.685  1.00  0.00     0.074 A 
ATOM     42  C   UNL A   1      39.565  28.826  29.079  1.00  0.00     0.049 A 
ATOM     43  N   UNL A   1      42.227  28.904  30.466  1.00  0.00    -0.248 NA
ATOM     44  C   UNL A   1      42.733  26.833  29.514  1.00  0.00     0.031 C 
ATOM     45  C   UNL A   1      38.233  28.822  28.471  1.00  0.00     0.029 A 
ATOM     46  N   UNL A   1      39.620  30.019  29.755  1.00  0.00    -0.354 N 
ATOM     47  C   UNL A   1      43.479  28.493  30.903  1.00  0.00     0.074 A 
ATOM     48  C   UNL A   1      43.728  27.195  30.313  1.00  0.00     0.031 C 
ATOM     49  C   UNL A   1      37.599  29.960  28.798  1.00  0.00     0.029 A 
ATOM     50  C   UNL A   1      38.468  30.761  29.655  1.00  0.00     0.049 A 
ATOM     51  H   UNL A   1      40.409  30.314  30.263  1.00  0.00     0.167 HD
ATOM     52  C   UNL A   1      44.346  29.142  31.716  1.00  0.00     0.037 A 
ATOM     53  C   UNL A   1      38.148  31.950  30.198  1.00  0.00     0.037 A 
ATOM     54  C   UNL A   1      44.127  30.452  32.266  1.00  0.00     0.049 A 
ATOM     55  C   UNL A   1      39.146  32.667  31.061  1.00  0.00     0.074 A 
ATOM     56  C   UNL A   1      44.987  31.221  33.032  1.00  0.00     0.029 A 
ATOM     57  N   UNL A   1      42.965  31.190  32.105  1.00  0.00    -0.354 N 
ATOM     58  N   UNL A   1      40.349  32.289  31.418  1.00  0.00    -0.248 NA
ATOM     59  C   UNL A   1      38.742  33.975  31.596  1.00  0.00     0.031 C 
ATOM     60  C   UNL A   1      44.337  32.419  33.351  1.00  0.00     0.029 A 
ATOM     61  C   UNL A   1      43.082  32.401  32.766  1.00  0.00     0.049 A 
ATOM     62  H   UNL A   1      42.176  30.897  31.596  1.00  0.00     0.167 HD
ATOM     63  C   UNL A   1      40.852  33.320  32.199  1.00  0.00     0.074 A 
ATOM     64  C   UNL A   1      39.829  34.342  32.261  1.00  0.00     0.031 C 
ATOM     65  C   UNL A   1      42.057  33.411  32.809  1.00  0.00     0.037 A 
BRANCH  52  66
ATOM     66  C   UNL A   1      45.623  28.441  32.060  1.00  0.00     0.057 A 
ATOM     67  C   UNL A   1      46.777  28.594  31.282  1.00  0.00     0.134 A 
ATOM     68  C   UNL A   1      45.711  27.643  33.206  1.00  0.00     0.134 A 
ATOM     69  F   UNL A   1      46.749  29.338  30.166  1.00  0.00    -0.206 F 
ATOM     70  C   UNL A   1      47.974  27.967  31.628  1.00  0.00     0.040 A 
ATOM     71  C   UNL A   1      46.906  27.022  33.571  1.00  0.00     0.040 A 
ATOM     72  F   UNL A   1      44.639  27.460  33.993  1.00  0.00    -0.206 F 
ATOM     73  C   UNL A   1      48.042  27.183  32.778  1.00  0.00     0.006 A 
ENDBRANCH  52  66
BRANCH  53  74
ATOM     74  C   UNL A   1      36.822  32.553  29.928  1.00  0.00     0.057 A 
ATOM     75  C   UNL A   1      35.711  32.219  30.708  1.00  0.00     0.134 A 
ATOM     76  C   UNL A   1      36.634  33.462  28.882  1.00  0.00     0.134 A 
ATOM     77  F   UNL A   1      35.830  31.336  31.710  1.00  0.00    -0.206 F 
ATOM     78  C   UNL A   1      34.450  32.757  30.448  1.00  0.00     0.040 A 
ATOM     79  C   UNL A   1      35.383  34.021  28.620  1.00  0.00     0.040 A 
ATOM     80  F   UNL A   1      37.665  33.821  28.103  1.00  0.00    -0.206 F 
ATOM     81  C   UNL A   1      34.285  33.664  29.401  1.00  0.00     0.006 A 
ENDBRANCH  53  74
BRANCH  65  82
ATOM     82  C   UNL A   1      42.342  34.666  33.572  1.00  0.00     0.057 A 
ATOM     83  C   UNL A   1      42.067  34.768  34.940  1.00  0.00     0.134 A 
ATOM     84  C   UNL A   1      42.925  35.769  32.939  1.00  0.00     0.134 A 
ATOM     85  F   UNL A   1      41.495  33.748  35.598  1.00  0.00    -0.206 F 
ATOM     86  C   UNL A   1      42.354  35.933  35.653  1.00  0.00     0.040 A 
ATOM     87  C   UNL A   1      43.229  36.934  33.644  1.00  0.00     0.040 A 
ATOM     88  F   UNL A   1      43.214  35.729  31.630  1.00  0.00    -0.206 F 
ATOM     89  C   UNL A   1      42.942  37.019  35.005  1.00  0.00     0.006 A 
ENDBRANCH  65  82
ENDBRANCH  39  40
ENDBRANCH  31  34
ENDBRANCH  29  30
ENDBRANCH  28  29
ENDBRANCH   1  28
TORSDOF 15
ENDMDL
