MODEL 1
REMARK VINA RESULT:     -11.7      0.000      0.000
REMARK SMILES Cc1c(C)c2cc(Cl)c(O[C@@H](C)C(=O)NCCCCCCNC(=O)c3ccc(-c4c5nc(c(-c6c(F)cccc6F)c6ccc([nH]6)c(-c6c(F)cccc6F)c6nc(c(-c7c(F)cccc7F)c7ccc4[nH]7)C=C6)C=C5)cc3)cc2oc1=O
REMARK SMILES IDX 18 1 17 2 16 3 15 4 13 5 14 6 11 8 12 9 10 10 9 11 1 12 2 13
REMARK SMILES IDX 3 14 82 15 4 16 5 17 81 18 83 19 6 20 80 21 7 22 79 23 8 24
REMARK SMILES IDX 19 25 20 26 21 27 22 28 23 29 24 31 25 32 26 33 78 34 27 35
REMARK SMILES IDX 77 36 28 37 29 38 30 39 71 40 31 41 76 42 70 43 72 44 32 45
REMARK SMILES IDX 75 46 69 47 68 48 33 50 59 51 42 52 58 53 43 54 46 55 57 56
REMARK SMILES IDX 73 57 44 58 45 59 56 61 74 62 47 63 34 64 35 65 40 66 36 67
REMARK SMILES IDX 37 68 39 69 41 70 38 71 60 72 61 73 66 74 62 75 63 76 65 77
REMARK SMILES IDX 67 78 64 79 48 80 49 81 54 82 50 83 51 84 53 85 55 86 52 87
REMARK H PARENT 15 7 22 30 72 49 46 60
REMARK Flexibility Score: inf
ROOT
ATOM      1  C   UNL A   1      31.796  26.747  26.485  1.00  0.00     0.002 C 
ENDROOT
BRANCH   1   2
ATOM      2  C   UNL A   1      33.210  26.283  26.102  1.00  0.00     0.021 C 
BRANCH   2   3
ATOM      3  C   UNL A   1      33.433  24.765  26.071  1.00  0.00     0.116 C 
BRANCH   3   4
ATOM      4  N   UNL A   1      32.250  24.036  26.485  1.00  0.00    -0.353 N 
ATOM      5  C   UNL A   1      31.418  23.159  25.860  1.00  0.00     0.260 C 
ATOM      6  O   UNL A   1      30.474  22.752  26.553  1.00  0.00    -0.271 OA
ATOM      7  H   UNL A   1      31.995  24.212  27.420  1.00  0.00     0.163 HD
BRANCH   5   8
ATOM      8  C   UNL A   1      31.598  22.597  24.411  1.00  0.00     0.258 C 
ATOM      9  C   UNL A   1      32.917  21.856  24.193  1.00  0.00     0.064 C 
BRANCH   8  10
ATOM     10  O   UNL A   1      31.094  23.232  23.237  1.00  0.00    -0.479 OA
BRANCH  10  11
ATOM     11  C   UNL A   1      30.840  24.566  23.228  1.00  0.00     0.142 A 
ATOM     12  C   UNL A   1      28.000  30.267  22.369  1.00  0.00     0.052 C 
ATOM     13  C   UNL A   1      28.590  28.993  22.862  1.00  0.00     0.038 A 
ATOM     14  C   UNL A   1      29.896  28.699  22.707  1.00  0.00    -0.030 A 
ATOM     15  C   UNL A   1      27.613  28.047  23.472  1.00  0.00     0.339 A 
ATOM     16  C   UNL A   1      30.903  29.663  22.133  1.00  0.00     0.046 C 
ATOM     17  C   UNL A   1      30.329  27.332  23.021  1.00  0.00     0.023 A 
ATOM     18  O   UNL A   1      28.125  26.860  23.959  1.00  0.00    -0.422 OA
ATOM     19  O   UNL A   1      26.418  28.287  23.538  1.00  0.00    -0.246 OA
ATOM     20  C   UNL A   1      31.580  26.819  22.672  1.00  0.00     0.036 A 
ATOM     21  C   UNL A   1      29.417  26.458  23.603  1.00  0.00     0.142 A 
ATOM     22  C   UNL A   1      31.827  25.444  22.762  1.00  0.00     0.083 A 
ATOM     23  C   UNL A   1      29.679  25.101  23.762  1.00  0.00     0.096 A 
ATOM     24  Cl  UNL A   1      33.370  24.864  22.243  1.00  0.00    -0.080 Cl
ENDBRANCH  10  11
ENDBRANCH   8  10
ENDBRANCH   5   8
ENDBRANCH   3   4
ENDBRANCH   2   3
ENDBRANCH   1   2
BRANCH   1  25
ATOM     25  C   UNL A   1      31.657  28.190  26.999  1.00  0.00     0.002 C 
BRANCH  25  26
ATOM     26  C   UNL A   1      31.331  29.280  25.966  1.00  0.00     0.021 C 
BRANCH  26  27
ATOM     27  C   UNL A   1      32.403  30.349  25.713  1.00  0.00     0.116 C 
BRANCH  27  28
ATOM     28  N   UNL A   1      32.084  31.648  26.290  1.00  0.00    -0.352 N 
ATOM     29  C   UNL A   1      32.787  32.391  27.216  1.00  0.00     0.251 C 
ATOM     30  H   UNL A   1      31.246  32.055  25.972  1.00  0.00     0.163 HD
ATOM     31  O   UNL A   1      32.332  33.452  27.634  1.00  0.00    -0.269 OA
BRANCH  29  32
ATOM     32  C   UNL A   1      34.097  31.921  27.722  1.00  0.00     0.039 A 
ATOM     33  C   UNL A   1      34.321  30.569  27.941  1.00  0.00     0.014 A 
ATOM     34  C   UNL A   1      35.135  32.826  27.942  1.00  0.00     0.014 A 
ATOM     35  C   UNL A   1      35.519  30.148  28.547  1.00  0.00     0.010 A 
ATOM     36  C   UNL A   1      36.358  32.385  28.491  1.00  0.00     0.010 A 
ATOM     37  C   UNL A   1      36.548  31.047  28.882  1.00  0.00    -0.014 A 
BRANCH  37  38
ATOM     38  C   UNL A   1      37.745  30.613  29.704  1.00  0.00     0.031 A 
ATOM     39  C   UNL A   1      38.841  29.747  29.093  1.00  0.00     0.074 A 
ATOM     40  C   UNL A   1      37.933  31.016  30.983  1.00  0.00     0.049 A 
ATOM     41  N   UNL A   1      39.854  29.143  29.677  1.00  0.00    -0.248 NA
ATOM     42  C   UNL A   1      38.786  29.524  27.641  1.00  0.00     0.031 C 
ATOM     43  C   UNL A   1      37.041  31.885  31.748  1.00  0.00     0.029 A 
ATOM     44  N   UNL A   1      38.962  30.754  31.866  1.00  0.00    -0.354 N 
ATOM     45  C   UNL A   1      40.500  28.413  28.680  1.00  0.00     0.074 A 
ATOM     46  C   UNL A   1      39.757  28.642  27.458  1.00  0.00     0.031 C 
ATOM     47  C   UNL A   1      37.592  32.147  32.943  1.00  0.00     0.029 A 
ATOM     48  C   UNL A   1      38.819  31.372  33.089  1.00  0.00     0.049 A 
ATOM     49  H   UNL A   1      39.729  30.179  31.642  1.00  0.00     0.167 HD
ATOM     50  C   UNL A   1      41.610  27.635  28.755  1.00  0.00     0.037 A 
ATOM     51  C   UNL A   1      39.549  31.299  34.221  1.00  0.00     0.037 A 
ATOM     52  C   UNL A   1      42.427  27.459  29.931  1.00  0.00     0.049 A 
ATOM     53  C   UNL A   1      40.740  30.383  34.303  1.00  0.00     0.074 A 
ATOM     54  C   UNL A   1      43.586  26.710  30.072  1.00  0.00     0.029 A 
ATOM     55  N   UNL A   1      42.191  28.051  31.160  1.00  0.00    -0.354 N 
ATOM     56  N   UNL A   1      41.290  29.651  33.368  1.00  0.00    -0.248 NA
ATOM     57  C   UNL A   1      41.393  30.263  35.618  1.00  0.00     0.031 C 
ATOM     58  C   UNL A   1      44.027  26.815  31.396  1.00  0.00     0.029 A 
ATOM     59  C   UNL A   1      43.171  27.670  32.067  1.00  0.00     0.049 A 
ATOM     60  H   UNL A   1      41.440  28.655  31.360  1.00  0.00     0.167 HD
ATOM     61  C   UNL A   1      42.361  29.002  33.974  1.00  0.00     0.074 A 
ATOM     62  C   UNL A   1      42.400  29.445  35.350  1.00  0.00     0.031 C 
ATOM     63  C   UNL A   1      43.226  28.110  33.435  1.00  0.00     0.037 A 
BRANCH  50  64
ATOM     64  C   UNL A   1      42.012  26.871  27.521  1.00  0.00     0.057 A 
ATOM     65  C   UNL A   1      41.609  25.538  27.353  1.00  0.00     0.134 A 
ATOM     66  C   UNL A   1      42.829  27.423  26.526  1.00  0.00     0.134 A 
ATOM     67  F   UNL A   1      40.843  24.936  28.276  1.00  0.00    -0.206 F 
ATOM     68  C   UNL A   1      42.001  24.786  26.244  1.00  0.00     0.040 A 
ATOM     69  C   UNL A   1      43.200  26.692  25.395  1.00  0.00     0.040 A 
ATOM     70  F   UNL A   1      43.250  28.694  26.621  1.00  0.00    -0.206 F 
ATOM     71  C   UNL A   1      42.792  25.367  25.255  1.00  0.00     0.006 A 
ENDBRANCH  50  64
BRANCH  51  72
ATOM     72  C   UNL A   1      39.148  32.078  35.425  1.00  0.00     0.057 A 
ATOM     73  C   UNL A   1      39.536  33.414  35.595  1.00  0.00     0.134 A 
ATOM     74  C   UNL A   1      38.313  31.522  36.402  1.00  0.00     0.134 A 
ATOM     75  F   UNL A   1      40.326  34.011  34.691  1.00  0.00    -0.206 F 
ATOM     76  C   UNL A   1      39.124  34.160  36.699  1.00  0.00     0.040 A 
ATOM     77  C   UNL A   1      37.865  32.269  37.493  1.00  0.00     0.040 A 
ATOM     78  F   UNL A   1      37.876  30.260  36.278  1.00  0.00    -0.206 F 
ATOM     79  C   UNL A   1      38.277  33.591  37.647  1.00  0.00     0.006 A 
ENDBRANCH  51  72
BRANCH  63  80
ATOM     80  C   UNL A   1      44.321  27.584  34.322  1.00  0.00     0.057 A 
ATOM     81  C   UNL A   1      45.536  28.272  34.444  1.00  0.00     0.134 A 
ATOM     82  C   UNL A   1      44.177  26.399  35.057  1.00  0.00     0.134 A 
ATOM     83  F   UNL A   1      45.746  29.410  33.765  1.00  0.00    -0.206 F 
ATOM     84  C   UNL A   1      46.564  27.804  35.264  1.00  0.00     0.040 A 
ATOM     85  C   UNL A   1      45.189  25.935  35.902  1.00  0.00     0.040 A 
ATOM     86  F   UNL A   1      43.035  25.699  35.001  1.00  0.00    -0.206 F 
ATOM     87  C   UNL A   1      46.388  26.637  36.004  1.00  0.00     0.006 A 
ENDBRANCH  63  80
ENDBRANCH  37  38
ENDBRANCH  29  32
ENDBRANCH  27  28
ENDBRANCH  26  27
ENDBRANCH  25  26
ENDBRANCH   1  25
TORSDOF 15
ENDMDL
MODEL 2
REMARK VINA RESULT:     -11.7      4.158      8.930
REMARK SMILES Cc1c(C)c2cc(Cl)c(O[C@@H](C)C(=O)NCCCCCCNC(=O)c3ccc(-c4c5nc(c(-c6c(F)cccc6F)c6ccc([nH]6)c(-c6c(F)cccc6F)c6nc(c(-c7c(F)cccc7F)c7ccc4[nH]7)C=C6)C=C5)cc3)cc2oc1=O
REMARK SMILES IDX 18 1 17 2 16 3 15 4 13 5 14 6 11 8 12 9 10 10 9 11 1 12 2 13
REMARK SMILES IDX 3 14 82 15 4 16 5 17 81 18 83 19 6 20 80 21 7 22 79 23 8 24
REMARK SMILES IDX 19 25 20 26 21 27 22 28 23 29 24 31 25 32 26 33 78 34 27 35
REMARK SMILES IDX 77 36 28 37 29 38 30 39 71 40 31 41 76 42 70 43 72 44 32 45
REMARK SMILES IDX 75 46 69 47 68 48 33 50 59 51 42 52 58 53 43 54 46 55 57 56
REMARK SMILES IDX 73 57 44 58 45 59 56 61 74 62 47 63 34 64 35 65 40 66 36 67
REMARK SMILES IDX 37 68 39 69 41 70 38 71 60 72 61 73 66 74 62 75 63 76 65 77
REMARK SMILES IDX 67 78 64 79 48 80 49 81 54 82 50 83 51 84 53 85 55 86 52 87
REMARK H PARENT 15 7 22 30 72 49 46 60
REMARK Flexibility Score: inf
ROOT
ATOM      1  C   UNL A   1      35.870  23.504  24.122  1.00  0.00     0.002 C 
ENDROOT
BRANCH   1   2
ATOM      2  C   UNL A   1      34.735  23.334  23.101  1.00  0.00     0.021 C 
BRANCH   2   3
ATOM      3  C   UNL A   1      33.636  24.405  23.133  1.00  0.00     0.116 C 
BRANCH   3   4
ATOM      4  N   UNL A   1      33.641  25.147  24.379  1.00  0.00    -0.353 N 
ATOM      5  C   UNL A   1      32.786  25.218  25.435  1.00  0.00     0.260 C 
ATOM      6  O   UNL A   1      33.129  26.004  26.332  1.00  0.00    -0.271 OA
ATOM      7  H   UNL A   1      34.433  25.722  24.484  1.00  0.00     0.163 HD
BRANCH   5   8
ATOM      8  C   UNL A   1      31.489  24.364  25.625  1.00  0.00     0.258 C 
ATOM      9  C   UNL A   1      30.241  25.191  25.935  1.00  0.00     0.064 C 
BRANCH   8  10
ATOM     10  O   UNL A   1      31.467  23.056  26.195  1.00  0.00    -0.479 OA
BRANCH  10  11
ATOM     11  C   UNL A   1      32.221  22.058  25.664  1.00  0.00     0.142 A 
ATOM     12  C   UNL A   1      34.074  16.460  23.109  1.00  0.00     0.052 C 
ATOM     13  C   UNL A   1      33.689  17.864  23.419  1.00  0.00     0.038 A 
ATOM     14  C   UNL A   1      34.351  18.606  24.328  1.00  0.00    -0.030 A 
ATOM     15  C   UNL A   1      32.479  18.353  22.699  1.00  0.00     0.339 A 
ATOM     16  C   UNL A   1      35.602  18.141  25.030  1.00  0.00     0.046 C 
ATOM     17  C   UNL A   1      33.758  19.889  24.723  1.00  0.00     0.023 A 
ATOM     18  O   UNL A   1      32.100  19.658  22.946  1.00  0.00    -0.422 OA
ATOM     19  O   UNL A   1      31.837  17.648  21.937  1.00  0.00    -0.246 OA
ATOM     20  C   UNL A   1      34.191  20.635  25.822  1.00  0.00     0.036 A 
ATOM     21  C   UNL A   1      32.637  20.347  24.038  1.00  0.00     0.142 A 
ATOM     22  C   UNL A   1      33.419  21.703  26.296  1.00  0.00     0.083 A 
ATOM     23  C   UNL A   1      31.902  21.451  24.461  1.00  0.00     0.096 A 
ATOM     24  Cl  UNL A   1      33.973  22.536  27.705  1.00  0.00    -0.080 Cl
ENDBRANCH  10  11
ENDBRANCH   8  10
ENDBRANCH   5   8
ENDBRANCH   3   4
ENDBRANCH   2   3
ENDBRANCH   1   2
BRANCH   1  25
ATOM     25  C   UNL A   1      37.158  22.704  23.864  1.00  0.00     0.002 C 
BRANCH  25  26
ATOM     26  C   UNL A   1      37.264  21.309  24.500  1.00  0.00     0.021 C 
BRANCH  26  27
ATOM     27  C   UNL A   1      38.206  21.157  25.702  1.00  0.00     0.116 C 
BRANCH  27  28
ATOM     28  N   UNL A   1      39.122  20.030  25.589  1.00  0.00    -0.352 N 
ATOM     29  C   UNL A   1      40.463  19.958  25.904  1.00  0.00     0.251 C 
ATOM     30  H   UNL A   1      38.727  19.199  25.239  1.00  0.00     0.163 HD
ATOM     31  O   UNL A   1      41.097  18.928  25.689  1.00  0.00    -0.269 OA
BRANCH  29  32
ATOM     32  C   UNL A   1      41.161  21.119  26.504  1.00  0.00     0.039 A 
ATOM     33  C   UNL A   1      41.221  21.266  27.883  1.00  0.00     0.014 A 
ATOM     34  C   UNL A   1      41.802  22.055  25.693  1.00  0.00     0.014 A 
ATOM     35  C   UNL A   1      41.767  22.437  28.438  1.00  0.00     0.010 A 
ATOM     36  C   UNL A   1      42.403  23.196  26.264  1.00  0.00     0.010 A 
ATOM     37  C   UNL A   1      42.328  23.454  27.645  1.00  0.00    -0.014 A 
BRANCH  37  38
ATOM     38  C   UNL A   1      42.736  24.788  28.235  1.00  0.00     0.031 A 
ATOM     39  C   UNL A   1      41.697  25.867  28.525  1.00  0.00     0.074 A 
ATOM     40  C   UNL A   1      44.013  25.068  28.588  1.00  0.00     0.049 A 
ATOM     41  N   UNL A   1      41.869  27.124  28.874  1.00  0.00    -0.248 NA
ATOM     42  C   UNL A   1      40.283  25.484  28.396  1.00  0.00     0.031 C 
ATOM     43  C   UNL A   1      45.157  24.168  28.450  1.00  0.00     0.029 A 
ATOM     44  N   UNL A   1      44.561  26.199  29.162  1.00  0.00    -0.354 N 
ATOM     45  C   UNL A   1      40.597  27.691  28.927  1.00  0.00     0.074 A 
ATOM     46  C   UNL A   1      39.665  26.644  28.563  1.00  0.00     0.031 C 
ATOM     47  C   UNL A   1      46.243  24.743  28.989  1.00  0.00     0.029 A 
ATOM     48  C   UNL A   1      45.912  26.101  29.407  1.00  0.00     0.049 A 
ATOM     49  H   UNL A   1      44.033  27.001  29.375  1.00  0.00     0.167 HD
ATOM     50  C   UNL A   1      40.223  28.955  29.257  1.00  0.00     0.037 A 
ATOM     51  C   UNL A   1      46.808  26.999  29.867  1.00  0.00     0.037 A 
ATOM     52  C   UNL A   1      41.112  29.995  29.714  1.00  0.00     0.049 A 
ATOM     53  C   UNL A   1      46.384  28.412  30.167  1.00  0.00     0.074 A 
ATOM     54  C   UNL A   1      40.799  31.290  30.097  1.00  0.00     0.029 A 
ATOM     55  N   UNL A   1      42.480  29.859  29.872  1.00  0.00    -0.354 N 
ATOM     56  N   UNL A   1      45.188  28.943  30.145  1.00  0.00    -0.248 NA
ATOM     57  C   UNL A   1      47.452  29.359  30.531  1.00  0.00     0.031 C 
ATOM     58  C   UNL A   1      41.982  31.951  30.446  1.00  0.00     0.029 A 
ATOM     59  C   UNL A   1      43.026  31.051  30.329  1.00  0.00     0.049 A 
ATOM     60  H   UNL A   1      42.991  29.038  29.689  1.00  0.00     0.167 HD
ATOM     61  C   UNL A   1      45.358  30.275  30.507  1.00  0.00     0.074 A 
ATOM     62  C   UNL A   1      46.766  30.466  30.771  1.00  0.00     0.031 C 
ATOM     63  C   UNL A   1      44.424  31.252  30.602  1.00  0.00     0.037 A 
BRANCH  50  64
ATOM     64  C   UNL A   1      38.767  29.312  29.113  1.00  0.00     0.057 A 
ATOM     65  C   UNL A   1      37.917  29.276  30.228  1.00  0.00     0.134 A 
ATOM     66  C   UNL A   1      38.191  29.642  27.880  1.00  0.00     0.134 A 
ATOM     67  F   UNL A   1      38.395  28.946  31.438  1.00  0.00    -0.206 F 
ATOM     68  C   UNL A   1      36.553  29.556  30.122  1.00  0.00     0.040 A 
ATOM     69  C   UNL A   1      36.835  29.957  27.766  1.00  0.00     0.040 A 
ATOM     70  F   UNL A   1      38.946  29.697  26.771  1.00  0.00    -0.206 F 
ATOM     71  C   UNL A   1      36.011  29.908  28.889  1.00  0.00     0.006 A 
ENDBRANCH  50  64
BRANCH  51  72
ATOM     72  C   UNL A   1      48.240  26.621  30.023  1.00  0.00     0.057 A 
ATOM     73  C   UNL A   1      48.710  26.001  31.188  1.00  0.00     0.134 A 
ATOM     74  C   UNL A   1      49.157  26.814  28.982  1.00  0.00     0.134 A 
ATOM     75  F   UNL A   1      47.882  25.778  32.218  1.00  0.00    -0.206 F 
ATOM     76  C   UNL A   1      50.041  25.605  31.319  1.00  0.00     0.040 A 
ATOM     77  C   UNL A   1      50.483  26.389  29.087  1.00  0.00     0.040 A 
ATOM     78  F   UNL A   1      48.760  27.367  27.827  1.00  0.00    -0.206 F 
ATOM     79  C   UNL A   1      50.929  25.789  30.262  1.00  0.00     0.006 A 
ENDBRANCH  51  72
BRANCH  63  80
ATOM     80  C   UNL A   1      44.887  32.610  31.053  1.00  0.00     0.057 A 
ATOM     81  C   UNL A   1      44.945  32.931  32.416  1.00  0.00     0.134 A 
ATOM     82  C   UNL A   1      45.275  33.603  30.142  1.00  0.00     0.134 A 
ATOM     83  F   UNL A   1      44.582  32.033  33.344  1.00  0.00    -0.206 F 
ATOM     84  C   UNL A   1      45.375  34.185  32.856  1.00  0.00     0.040 A 
ATOM     85  C   UNL A   1      45.733  34.851  30.572  1.00  0.00     0.040 A 
ATOM     86  F   UNL A   1      45.261  33.359  28.823  1.00  0.00    -0.206 F 
ATOM     87  C   UNL A   1      45.780  35.146  31.933  1.00  0.00     0.006 A 
ENDBRANCH  63  80
ENDBRANCH  37  38
ENDBRANCH  29  32
ENDBRANCH  27  28
ENDBRANCH  26  27
ENDBRANCH  25  26
ENDBRANCH   1  25
TORSDOF 15
ENDMDL
MODEL 3
REMARK VINA RESULT:     -11.6      4.395      8.422
REMARK SMILES Cc1c(C)c2cc(Cl)c(O[C@@H](C)C(=O)NCCCCCCNC(=O)c3ccc(-c4c5nc(c(-c6c(F)cccc6F)c6ccc([nH]6)c(-c6c(F)cccc6F)c6nc(c(-c7c(F)cccc7F)c7ccc4[nH]7)C=C6)C=C5)cc3)cc2oc1=O
REMARK SMILES IDX 18 1 17 2 16 3 15 4 13 5 14 6 11 8 12 9 10 10 9 11 1 12 2 13
REMARK SMILES IDX 3 14 82 15 4 16 5 17 81 18 83 19 6 20 80 21 7 22 79 23 8 24
REMARK SMILES IDX 19 25 20 26 21 27 22 28 23 29 24 31 25 32 26 33 78 34 27 35
REMARK SMILES IDX 77 36 28 37 29 38 30 39 71 40 31 41 76 42 70 43 72 44 32 45
REMARK SMILES IDX 75 46 69 47 68 48 33 50 59 51 42 52 58 53 43 54 46 55 57 56
REMARK SMILES IDX 73 57 44 58 45 59 56 61 74 62 47 63 34 64 35 65 40 66 36 67
REMARK SMILES IDX 37 68 39 69 41 70 38 71 60 72 61 73 66 74 62 75 63 76 65 77
REMARK SMILES IDX 67 78 64 79 48 80 49 81 54 82 50 83 51 84 53 85 55 86 52 87
REMARK H PARENT 15 7 22 30 72 49 46 60
REMARK Flexibility Score: inf
ROOT
ATOM      1  C   UNL A   1      31.010  30.073  24.816  1.00  0.00     0.002 C 
ENDROOT
BRANCH   1   2
ATOM      2  C   UNL A   1      30.395  29.041  23.858  1.00  0.00     0.021 C 
BRANCH   2   3
ATOM      3  C   UNL A   1      30.916  29.072  22.414  1.00  0.00     0.116 C 
BRANCH   3   4
ATOM      4  N   UNL A   1      32.365  29.103  22.362  1.00  0.00    -0.353 N 
ATOM      5  C   UNL A   1      33.331  28.151  22.467  1.00  0.00     0.260 C 
ATOM      6  O   UNL A   1      34.493  28.578  22.391  1.00  0.00    -0.271 OA
ATOM      7  H   UNL A   1      32.727  30.008  22.219  1.00  0.00     0.163 HD
BRANCH   5   8
ATOM      8  C   UNL A   1      33.092  26.611  22.601  1.00  0.00     0.258 C 
ATOM      9  C   UNL A   1      32.626  25.941  21.308  1.00  0.00     0.064 C 
BRANCH   8  10
ATOM     10  O   UNL A   1      32.610  25.975  23.784  1.00  0.00    -0.479 OA
BRANCH  10  11
ATOM     11  C   UNL A   1      33.114  24.779  24.180  1.00  0.00     0.142 A 
ATOM     12  C   UNL A   1      36.996  19.722  25.001  1.00  0.00     0.052 C 
ATOM     13  C   UNL A   1      36.170  20.956  25.100  1.00  0.00     0.038 A 
ATOM     14  C   UNL A   1      34.833  20.941  24.931  1.00  0.00    -0.030 A 
ATOM     15  C   UNL A   1      36.944  22.209  25.329  1.00  0.00     0.339 A 
ATOM     16  C   UNL A   1      34.032  19.678  24.744  1.00  0.00     0.046 C 
ATOM     17  C   UNL A   1      34.145  22.234  24.824  1.00  0.00     0.023 A 
ATOM     18  O   UNL A   1      36.211  23.374  25.446  1.00  0.00    -0.422 OA
ATOM     19  O   UNL A   1      38.162  22.226  25.402  1.00  0.00    -0.246 OA
ATOM     20  C   UNL A   1      32.821  22.371  24.399  1.00  0.00     0.036 A 
ATOM     21  C   UNL A   1      34.869  23.398  25.052  1.00  0.00     0.142 A 
ATOM     22  C   UNL A   1      32.315  23.633  24.067  1.00  0.00     0.083 A 
ATOM     23  C   UNL A   1      34.351  24.664  24.792  1.00  0.00     0.096 A 
ATOM     24  Cl  UNL A   1      30.694  23.725  23.477  1.00  0.00    -0.080 Cl
ENDBRANCH  10  11
ENDBRANCH   8  10
ENDBRANCH   5   8
ENDBRANCH   3   4
ENDBRANCH   2   3
ENDBRANCH   1   2
BRANCH   1  25
ATOM     25  C   UNL A   1      31.781  29.519  26.026  1.00  0.00     0.002 C 
BRANCH  25  26
ATOM     26  C   UNL A   1      33.312  29.653  26.011  1.00  0.00     0.021 C 
BRANCH  26  27
ATOM     27  C   UNL A   1      34.061  29.274  27.296  1.00  0.00     0.116 C 
BRANCH  27  28
ATOM     28  N   UNL A   1      34.268  30.391  28.206  1.00  0.00    -0.352 N 
ATOM     29  C   UNL A   1      35.409  30.769  28.884  1.00  0.00     0.251 C 
ATOM     30  H   UNL A   1      33.479  30.960  28.360  1.00  0.00     0.163 HD
ATOM     31  O   UNL A   1      35.382  31.718  29.663  1.00  0.00    -0.269 OA
BRANCH  29  32
ATOM     32  C   UNL A   1      36.680  30.036  28.687  1.00  0.00     0.039 A 
ATOM     33  C   UNL A   1      37.250  29.323  29.733  1.00  0.00     0.014 A 
ATOM     34  C   UNL A   1      37.299  30.018  27.436  1.00  0.00     0.014 A 
ATOM     35  C   UNL A   1      38.522  28.744  29.573  1.00  0.00     0.010 A 
ATOM     36  C   UNL A   1      38.546  29.379  27.270  1.00  0.00     0.010 A 
ATOM     37  C   UNL A   1      39.225  28.797  28.356  1.00  0.00    -0.014 A 
BRANCH  37  38
ATOM     38  C   UNL A   1      40.666  28.341  28.250  1.00  0.00     0.031 A 
ATOM     39  C   UNL A   1      41.814  29.301  28.544  1.00  0.00     0.074 A 
ATOM     40  C   UNL A   1      41.005  27.064  27.956  1.00  0.00     0.049 A 
ATOM     41  N   UNL A   1      43.106  29.146  28.351  1.00  0.00    -0.248 NA
ATOM     42  C   UNL A   1      41.462  30.608  29.119  1.00  0.00     0.031 C 
ATOM     43  C   UNL A   1      40.074  25.969  27.690  1.00  0.00     0.029 A 
ATOM     44  N   UNL A   1      42.245  26.464  27.849  1.00  0.00    -0.354 N 
ATOM     45  C   UNL A   1      43.702  30.355  28.705  1.00  0.00     0.074 A 
ATOM     46  C   UNL A   1      42.628  31.237  29.114  1.00  0.00     0.031 C 
ATOM     47  C   UNL A   1      40.761  24.828  27.530  1.00  0.00     0.029 A 
ATOM     48  C   UNL A   1      42.191  25.119  27.560  1.00  0.00     0.049 A 
ATOM     49  H   UNL A   1      43.090  26.954  27.969  1.00  0.00     0.167 HD
ATOM     50  C   UNL A   1      45.013  30.710  28.709  1.00  0.00     0.037 A 
ATOM     51  C   UNL A   1      43.161  24.218  27.297  1.00  0.00     0.037 A 
ATOM     52  C   UNL A   1      46.115  29.831  28.399  1.00  0.00     0.049 A 
ATOM     53  C   UNL A   1      44.603  24.645  27.245  1.00  0.00     0.074 A 
ATOM     54  C   UNL A   1      47.472  30.112  28.413  1.00  0.00     0.029 A 
ATOM     55  N   UNL A   1      45.994  28.499  28.041  1.00  0.00    -0.354 N 
ATOM     56  N   UNL A   1      45.135  25.809  27.517  1.00  0.00    -0.248 NA
ATOM     57  C   UNL A   1      45.578  23.628  26.816  1.00  0.00     0.031 C 
ATOM     58  C   UNL A   1      48.170  28.964  28.023  1.00  0.00     0.029 A 
ATOM     59  C   UNL A   1      47.250  27.952  27.815  1.00  0.00     0.049 A 
ATOM     60  H   UNL A   1      45.142  28.011  27.961  1.00  0.00     0.167 HD
ATOM     61  C   UNL A   1      46.502  25.659  27.311  1.00  0.00     0.074 A 
ATOM     62  C   UNL A   1      46.723  24.286  26.918  1.00  0.00     0.031 C 
ATOM     63  C   UNL A   1      47.484  26.586  27.431  1.00  0.00     0.037 A 
BRANCH  50  64
ATOM     64  C   UNL A   1      45.349  32.140  29.038  1.00  0.00     0.057 A 
ATOM     65  C   UNL A   1      45.421  33.100  28.019  1.00  0.00     0.134 A 
ATOM     66  C   UNL A   1      45.647  32.563  30.340  1.00  0.00     0.134 A 
ATOM     67  F   UNL A   1      45.170  32.763  26.745  1.00  0.00    -0.206 F 
ATOM     68  C   UNL A   1      45.775  34.426  28.282  1.00  0.00     0.040 A 
ATOM     69  C   UNL A   1      45.968  33.893  30.621  1.00  0.00     0.040 A 
ATOM     70  F   UNL A   1      45.595  31.697  31.364  1.00  0.00    -0.206 F 
ATOM     71  C   UNL A   1      46.040  34.827  29.589  1.00  0.00     0.006 A 
ENDBRANCH  50  64
BRANCH  51  72
ATOM     72  C   UNL A   1      42.810  22.803  26.994  1.00  0.00     0.057 A 
ATOM     73  C   UNL A   1      42.455  21.904  28.009  1.00  0.00     0.134 A 
ATOM     74  C   UNL A   1      42.761  22.336  25.675  1.00  0.00     0.134 A 
ATOM     75  F   UNL A   1      42.471  22.290  29.293  1.00  0.00    -0.206 F 
ATOM     76  C   UNL A   1      42.082  20.590  27.724  1.00  0.00     0.040 A 
ATOM     77  C   UNL A   1      42.355  21.035  25.374  1.00  0.00     0.040 A 
ATOM     78  F   UNL A   1      43.052  23.158  24.657  1.00  0.00    -0.206 F 
ATOM     79  C   UNL A   1      42.021  20.155  26.403  1.00  0.00     0.006 A 
ENDBRANCH  51  72
BRANCH  63  80
ATOM     80  C   UNL A   1      48.896  26.136  27.176  1.00  0.00     0.057 A 
ATOM     81  C   UNL A   1      49.462  26.246  25.899  1.00  0.00     0.134 A 
ATOM     82  C   UNL A   1      49.696  25.591  28.189  1.00  0.00     0.134 A 
ATOM     83  F   UNL A   1      48.752  26.752  24.879  1.00  0.00    -0.206 F 
ATOM     84  C   UNL A   1      50.772  25.837  25.641  1.00  0.00     0.040 A 
ATOM     85  C   UNL A   1      51.017  25.203  27.949  1.00  0.00     0.040 A 
ATOM     86  F   UNL A   1      49.223  25.470  29.439  1.00  0.00    -0.206 F 
ATOM     87  C   UNL A   1      51.557  25.323  26.670  1.00  0.00     0.006 A 
ENDBRANCH  63  80
ENDBRANCH  37  38
ENDBRANCH  29  32
ENDBRANCH  27  28
ENDBRANCH  26  27
ENDBRANCH  25  26
ENDBRANCH   1  25
TORSDOF 15
ENDMDL
