MODEL 1
REMARK VINA RESULT:     -11.3      0.000      0.000
REMARK SMILES O=C(NCCCCCCNC(=O)[C@@H]1C[C@H]1C(=O)N[C@@H]1CONC1=O)c1ccc(-c2c3nc(c(-c4c(F)cccc4F)c4ccc([nH]4)c(-c4c(F)cccc4F)c4nc(c(-c5c(F)cccc5F)c5ccc2[nH]5)C=C4)C=C3)cc1
REMARK SMILES IDX 6 1 5 2 4 3 3 4 1 5 2 6 25 8 26 9 78 10 27 11 77 12 28 13
REMARK SMILES IDX 29 14 30 15 71 16 31 17 76 18 70 19 72 20 32 21 75 22 69 23
REMARK SMILES IDX 68 24 33 26 59 27 42 28 58 29 43 30 46 31 57 32 73 33 44 34
REMARK SMILES IDX 45 35 56 37 74 38 47 39 34 40 35 41 40 42 36 43 37 44 39 45
REMARK SMILES IDX 41 46 38 47 60 48 61 49 66 50 62 51 63 52 65 53 67 54 64 55
REMARK SMILES IDX 48 56 49 57 54 58 50 59 51 60 53 61 55 62 52 63 7 64 8 65
REMARK SMILES IDX 9 66 10 67 11 68 12 70 13 71 14 72 15 73 16 74 17 75 18 76
REMARK SMILES IDX 19 78 20 79 23 80 21 81 22 82 24 83
REMARK H PARENT 3 7 72 25 46 36 10 69 18 77 22 84
REMARK Flexibility Score: inf
ROOT
ATOM      1  C   UNL A   1      31.397  30.605  25.675  1.00  0.00     0.002 C 
ENDROOT
BRANCH   1   2
ATOM      2  C   UNL A   1      31.318  31.749  26.687  1.00  0.00     0.021 C 
BRANCH   2   3
ATOM      3  C   UNL A   1      32.658  32.412  26.965  1.00  0.00     0.116 C 
BRANCH   3   4
ATOM      4  N   UNL A   1      32.487  33.790  27.392  1.00  0.00    -0.352 N 
ATOM      5  O   UNL A   1      32.696  35.525  28.823  1.00  0.00    -0.269 OA
ATOM      6  C   UNL A   1      33.114  34.446  28.418  1.00  0.00     0.251 C 
ATOM      7  H   UNL A   1      31.837  34.321  26.877  1.00  0.00     0.163 HD
BRANCH   6   8
ATOM      8  C   UNL A   1      34.302  33.825  29.035  1.00  0.00     0.039 A 
ATOM      9  C   UNL A   1      34.146  32.773  29.942  1.00  0.00     0.014 A 
ATOM     10  C   UNL A   1      35.572  34.303  28.708  1.00  0.00     0.014 A 
ATOM     11  C   UNL A   1      35.252  32.279  30.616  1.00  0.00     0.010 A 
ATOM     12  C   UNL A   1      36.692  33.734  29.314  1.00  0.00     0.010 A 
ATOM     13  C   UNL A   1      36.538  32.729  30.282  1.00  0.00    -0.014 A 
BRANCH  13  14
ATOM     14  C   UNL A   1      37.715  32.057  30.882  1.00  0.00     0.031 A 
ATOM     15  C   UNL A   1      38.462  30.988  30.144  1.00  0.00     0.074 A 
ATOM     16  C   UNL A   1      38.092  32.427  32.121  1.00  0.00     0.049 A 
ATOM     17  N   UNL A   1      39.488  30.279  30.543  1.00  0.00    -0.248 NA
ATOM     18  C   UNL A   1      37.993  30.660  28.791  1.00  0.00     0.031 C 
ATOM     19  C   UNL A   1      37.421  33.445  32.935  1.00  0.00     0.029 A 
ATOM     20  N   UNL A   1      39.122  31.995  32.912  1.00  0.00    -0.354 N 
ATOM     21  C   UNL A   1      39.776  29.409  29.501  1.00  0.00     0.074 A 
ATOM     22  C   UNL A   1      38.798  29.658  28.462  1.00  0.00     0.031 C 
ATOM     23  C   UNL A   1      38.073  33.579  34.097  1.00  0.00     0.029 A 
ATOM     24  C   UNL A   1      39.158  32.606  34.141  1.00  0.00     0.049 A 
ATOM     25  H   UNL A   1      39.773  31.313  32.628  1.00  0.00     0.167 HD
ATOM     26  C   UNL A   1      40.769  28.490  29.423  1.00  0.00     0.037 A 
ATOM     27  C   UNL A   1      39.952  32.387  35.203  1.00  0.00     0.037 A 
ATOM     28  C   UNL A   1      41.733  28.254  30.468  1.00  0.00     0.049 A 
ATOM     29  C   UNL A   1      41.020  31.340  35.104  1.00  0.00     0.074 A 
ATOM     30  C   UNL A   1      42.806  27.380  30.470  1.00  0.00     0.029 A 
ATOM     31  N   UNL A   1      41.730  28.884  31.706  1.00  0.00    -0.354 N 
ATOM     32  N   UNL A   1      41.316  30.559  34.093  1.00  0.00    -0.248 NA
ATOM     33  C   UNL A   1      41.864  31.142  36.288  1.00  0.00     0.031 C 
ATOM     34  C   UNL A   1      43.412  27.434  31.729  1.00  0.00     0.029 A 
ATOM     35  C   UNL A   1      42.761  28.391  32.492  1.00  0.00     0.049 A 
ATOM     36  H   UNL A   1      41.091  29.578  31.985  1.00  0.00     0.167 HD
ATOM     37  C   UNL A   1      42.392  29.788  34.511  1.00  0.00     0.074 A 
ATOM     38  C   UNL A   1      42.706  30.211  35.861  1.00  0.00     0.031 C 
ATOM     39  C   UNL A   1      43.057  28.819  33.837  1.00  0.00     0.037 A 
BRANCH  26  40
ATOM     40  C   UNL A   1      40.839  27.648  28.179  1.00  0.00     0.057 A 
ATOM     41  C   UNL A   1      41.588  28.030  27.058  1.00  0.00     0.134 A 
ATOM     42  C   UNL A   1      40.166  26.422  28.112  1.00  0.00     0.134 A 
ATOM     43  F   UNL A   1      42.251  29.197  27.049  1.00  0.00    -0.206 F 
ATOM     44  C   UNL A   1      41.638  27.242  25.907  1.00  0.00     0.040 A 
ATOM     45  C   UNL A   1      40.232  25.609  26.978  1.00  0.00     0.040 A 
ATOM     46  F   UNL A   1      39.436  25.987  29.151  1.00  0.00    -0.206 F 
ATOM     47  C   UNL A   1      40.962  26.023  25.867  1.00  0.00     0.006 A 
ENDBRANCH  26  40
BRANCH  27  48
ATOM     48  C   UNL A   1      39.736  33.163  36.449  1.00  0.00     0.057 A 
ATOM     49  C   UNL A   1      38.898  32.693  37.464  1.00  0.00     0.134 A 
ATOM     50  C   UNL A   1      40.397  34.379  36.668  1.00  0.00     0.134 A 
ATOM     51  F   UNL A   1      38.230  31.540  37.309  1.00  0.00    -0.206 F 
ATOM     52  C   UNL A   1      38.715  33.408  38.648  1.00  0.00     0.040 A 
ATOM     53  C   UNL A   1      40.247  35.090  37.858  1.00  0.00     0.040 A 
ATOM     54  F   UNL A   1      41.227  34.876  35.738  1.00  0.00    -0.206 F 
ATOM     55  C   UNL A   1      39.397  34.607  38.850  1.00  0.00     0.006 A 
ENDBRANCH  27  48
BRANCH  39  56
ATOM     56  C   UNL A   1      44.213  28.170  34.541  1.00  0.00     0.057 A 
ATOM     57  C   UNL A   1      45.512  28.691  34.473  1.00  0.00     0.134 A 
ATOM     58  C   UNL A   1      44.015  27.029  35.329  1.00  0.00     0.134 A 
ATOM     59  F   UNL A   1      45.771  29.772  33.721  1.00  0.00    -0.206 F 
ATOM     60  C   UNL A   1      46.576  28.088  35.144  1.00  0.00     0.040 A 
ATOM     61  C   UNL A   1      45.065  26.434  36.030  1.00  0.00     0.040 A 
ATOM     62  F   UNL A   1      42.795  26.483  35.444  1.00  0.00    -0.206 F 
ATOM     63  C   UNL A   1      46.352  26.960  35.933  1.00  0.00     0.006 A 
ENDBRANCH  39  56
ENDBRANCH  13  14
ENDBRANCH   6   8
ENDBRANCH   3   4
ENDBRANCH   2   3
ENDBRANCH   1   2
BRANCH   1  64
ATOM     64  C   UNL A   1      31.922  29.282  26.245  1.00  0.00     0.002 C 
BRANCH  64  65
ATOM     65  C   UNL A   1      32.707  28.426  25.247  1.00  0.00     0.021 C 
BRANCH  65  66
ATOM     66  C   UNL A   1      32.973  29.135  23.923  1.00  0.00     0.116 C 
BRANCH  66  67
ATOM     67  N   UNL A   1      32.401  28.393  22.823  1.00  0.00    -0.356 N 
ATOM     68  C   UNL A   1      31.162  27.868  22.601  1.00  0.00     0.223 C 
ATOM     69  H   UNL A   1      33.032  28.236  22.085  1.00  0.00     0.163 HD
ATOM     70  O   UNL A   1      31.009  27.165  21.605  1.00  0.00    -0.275 OA
BRANCH  68  71
ATOM     71  C   UNL A   1      29.981  28.115  23.466  1.00  0.00     0.091 C 
ATOM     72  C   UNL A   1      29.201  27.034  24.167  1.00  0.00     0.028 C 
ATOM     73  C   UNL A   1      28.565  27.822  23.056  1.00  0.00     0.091 C 
BRANCH  73  74
ATOM     74  C   UNL A   1      27.440  28.776  23.157  1.00  0.00     0.224 C 
ATOM     75  O   UNL A   1      26.369  28.320  23.561  1.00  0.00    -0.275 OA
ATOM     76  N   UNL A   1      27.451  30.113  22.912  1.00  0.00    -0.342 N 
ATOM     77  H   UNL A   1      26.614  30.526  23.225  1.00  0.00     0.164 HD
BRANCH  76  78
ATOM     78  C   UNL A   1      28.329  31.120  22.325  1.00  0.00     0.202 C 
ATOM     79  C   UNL A   1      28.722  32.322  23.163  1.00  0.00     0.228 C 
ATOM     80  C   UNL A   1      27.921  31.732  21.014  1.00  0.00     0.268 C 
ATOM     81  O   UNL A   1      28.264  33.498  22.480  1.00  0.00    -0.271 OA
ATOM     82  N   UNL A   1      27.977  33.094  21.158  1.00  0.00    -0.233 N 
ATOM     83  O   UNL A   1      27.580  31.138  20.006  1.00  0.00    -0.270 OA
ATOM     84  H   UNL A   1      27.831  33.725  20.417  1.00  0.00     0.199 HD
ENDBRANCH  76  78
ENDBRANCH  73  74
ENDBRANCH  68  71
ENDBRANCH  66  67
ENDBRANCH  65  66
ENDBRANCH  64  65
ENDBRANCH   1  64
TORSDOF 15
ENDMDL
MODEL 2
REMARK VINA RESULT:     -11.2      6.143     12.904
REMARK SMILES O=C(NCCCCCCNC(=O)[C@@H]1C[C@H]1C(=O)N[C@@H]1CONC1=O)c1ccc(-c2c3nc(c(-c4c(F)cccc4F)c4ccc([nH]4)c(-c4c(F)cccc4F)c4nc(c(-c5c(F)cccc5F)c5ccc2[nH]5)C=C4)C=C3)cc1
REMARK SMILES IDX 6 1 5 2 4 3 3 4 1 5 2 6 25 8 26 9 78 10 27 11 77 12 28 13
REMARK SMILES IDX 29 14 30 15 71 16 31 17 76 18 70 19 72 20 32 21 75 22 69 23
REMARK SMILES IDX 68 24 33 26 59 27 42 28 58 29 43 30 46 31 57 32 73 33 44 34
REMARK SMILES IDX 45 35 56 37 74 38 47 39 34 40 35 41 40 42 36 43 37 44 39 45
REMARK SMILES IDX 41 46 38 47 60 48 61 49 66 50 62 51 63 52 65 53 67 54 64 55
REMARK SMILES IDX 48 56 49 57 54 58 50 59 51 60 53 61 55 62 52 63 7 64 8 65
REMARK SMILES IDX 9 66 10 67 11 68 12 70 13 71 14 72 15 73 16 74 17 75 18 76
REMARK SMILES IDX 19 78 20 79 23 80 21 81 22 82 24 83
REMARK H PARENT 3 7 72 25 46 36 10 69 18 77 22 84
REMARK Flexibility Score: inf
ROOT
ATOM      1  C   UNL A   1      44.930  24.524  33.315  1.00  0.00     0.002 C 
ENDROOT
BRANCH   1   2
ATOM      2  C   UNL A   1      45.981  23.839  34.189  1.00  0.00     0.021 C 
BRANCH   2   3
ATOM      3  C   UNL A   1      47.114  24.758  34.618  1.00  0.00     0.116 C 
BRANCH   3   4
ATOM      4  N   UNL A   1      47.071  25.019  36.046  1.00  0.00    -0.352 N 
ATOM      5  O   UNL A   1      46.641  26.263  37.883  1.00  0.00    -0.269 OA
ATOM      6  C   UNL A   1      46.392  26.007  36.710  1.00  0.00     0.251 C 
ATOM      7  H   UNL A   1      47.597  24.408  36.611  1.00  0.00     0.163 HD
BRANCH   6   8
ATOM      8  C   UNL A   1      45.355  26.765  35.984  1.00  0.00     0.039 A 
ATOM      9  C   UNL A   1      44.005  26.446  36.162  1.00  0.00     0.014 A 
ATOM     10  C   UNL A   1      45.736  27.791  35.118  1.00  0.00     0.014 A 
ATOM     11  C   UNL A   1      43.044  27.070  35.383  1.00  0.00     0.010 A 
ATOM     12  C   UNL A   1      44.757  28.486  34.410  1.00  0.00     0.010 A 
ATOM     13  C   UNL A   1      43.406  28.121  34.527  1.00  0.00    -0.014 A 
BRANCH  13  14
ATOM     14  C   UNL A   1      42.342  28.894  33.845  1.00  0.00     0.031 A 
ATOM     15  C   UNL A   1      41.646  30.033  34.527  1.00  0.00     0.074 A 
ATOM     16  C   UNL A   1      42.005  28.538  32.590  1.00  0.00     0.049 A 
ATOM     17  N   UNL A   1      40.672  30.785  34.082  1.00  0.00    -0.248 NA
ATOM     18  C   UNL A   1      42.090  30.365  35.889  1.00  0.00     0.031 C 
ATOM     19  C   UNL A   1      42.606  27.432  31.841  1.00  0.00     0.029 A 
ATOM     20  N   UNL A   1      41.080  29.060  31.727  1.00  0.00    -0.354 N 
ATOM     21  C   UNL A   1      40.371  31.665  35.112  1.00  0.00     0.074 A 
ATOM     22  C   UNL A   1      41.248  31.336  36.217  1.00  0.00     0.031 C 
ATOM     23  C   UNL A   1      42.056  27.376  30.621  1.00  0.00     0.029 A 
ATOM     24  C   UNL A   1      41.014  28.391  30.530  1.00  0.00     0.049 A 
ATOM     25  H   UNL A   1      40.519  29.840  31.942  1.00  0.00     0.167 HD
ATOM     26  C   UNL A   1      39.449  32.658  35.128  1.00  0.00     0.037 A 
ATOM     27  C   UNL A   1      40.183  28.548  29.485  1.00  0.00     0.037 A 
ATOM     28  C   UNL A   1      38.583  32.971  34.018  1.00  0.00     0.049 A 
ATOM     29  C   UNL A   1      39.148  29.631  29.541  1.00  0.00     0.074 A 
ATOM     30  C   UNL A   1      37.647  33.985  33.915  1.00  0.00     0.029 A 
ATOM     31  N   UNL A   1      38.535  32.261  32.825  1.00  0.00    -0.354 N 
ATOM     32  N   UNL A   1      38.908  30.492  30.501  1.00  0.00    -0.248 NA
ATOM     33  C   UNL A   1      38.269  29.766  28.374  1.00  0.00     0.031 C 
ATOM     34  C   UNL A   1      36.990  33.851  32.687  1.00  0.00     0.029 A 
ATOM     35  C   UNL A   1      37.560  32.794  31.995  1.00  0.00     0.049 A 
ATOM     36  H   UNL A   1      39.108  31.494  32.602  1.00  0.00     0.167 HD
ATOM     37  C   UNL A   1      37.862  31.283  30.048  1.00  0.00     0.074 A 
ATOM     38  C   UNL A   1      37.528  30.810  28.719  1.00  0.00     0.031 C 
ATOM     39  C   UNL A   1      37.236  32.308  30.676  1.00  0.00     0.037 A 
BRANCH  26  40
ATOM     40  C   UNL A   1      39.305  33.453  36.395  1.00  0.00     0.057 A 
ATOM     41  C   UNL A   1      38.479  33.040  37.449  1.00  0.00     0.134 A 
ATOM     42  C   UNL A   1      40.027  34.641  36.574  1.00  0.00     0.134 A 
ATOM     43  F   UNL A   1      37.752  31.917  37.342  1.00  0.00    -0.206 F 
ATOM     44  C   UNL A   1      38.349  33.793  38.617  1.00  0.00     0.040 A 
ATOM     45  C   UNL A   1      39.929  35.388  37.751  1.00  0.00     0.040 A 
ATOM     46  F   UNL A   1      40.845  35.094  35.612  1.00  0.00    -0.206 F 
ATOM     47  C   UNL A   1      39.082  34.969  38.773  1.00  0.00     0.006 A 
ENDBRANCH  26  40
BRANCH  27  48
ATOM     48  C   UNL A   1      40.294  27.636  28.320  1.00  0.00     0.057 A 
ATOM     49  C   UNL A   1      41.057  27.976  27.200  1.00  0.00     0.134 A 
ATOM     50  C   UNL A   1      39.667  26.383  28.319  1.00  0.00     0.134 A 
ATOM     51  F   UNL A   1      41.673  29.167  27.137  1.00  0.00    -0.206 F 
ATOM     52  C   UNL A   1      41.185  27.109  26.114  1.00  0.00     0.040 A 
ATOM     53  C   UNL A   1      39.810  25.494  27.254  1.00  0.00     0.040 A 
ATOM     54  F   UNL A   1      38.933  25.992  29.371  1.00  0.00    -0.206 F 
ATOM     55  C   UNL A   1      40.566  25.860  26.144  1.00  0.00     0.006 A 
ENDBRANCH  27  48
BRANCH  39  56
ATOM     56  C   UNL A   1      36.145  33.007  29.919  1.00  0.00     0.057 A 
ATOM     57  C   UNL A   1      36.419  33.868  28.848  1.00  0.00     0.134 A 
ATOM     58  C   UNL A   1      34.800  32.786  30.243  1.00  0.00     0.134 A 
ATOM     59  F   UNL A   1      37.686  34.136  28.498  1.00  0.00    -0.206 F 
ATOM     60  C   UNL A   1      35.396  34.501  28.141  1.00  0.00     0.040 A 
ATOM     61  C   UNL A   1      33.767  33.389  29.525  1.00  0.00     0.040 A 
ATOM     62  F   UNL A   1      34.469  31.967  31.253  1.00  0.00    -0.206 F 
ATOM     63  C   UNL A   1      34.064  34.255  28.475  1.00  0.00     0.006 A 
ENDBRANCH  39  56
ENDBRANCH  13  14
ENDBRANCH   6   8
ENDBRANCH   3   4
ENDBRANCH   2   3
ENDBRANCH   1   2
BRANCH   1  64
ATOM     64  C   UNL A   1      45.268  24.561  31.820  1.00  0.00     0.002 C 
BRANCH  64  65
ATOM     65  C   UNL A   1      45.956  25.846  31.354  1.00  0.00     0.021 C 
BRANCH  65  66
ATOM     66  C   UNL A   1      45.631  26.215  29.910  1.00  0.00     0.116 C 
BRANCH  66  67
ATOM     67  N   UNL A   1      46.286  25.311  28.993  1.00  0.00    -0.356 N 
ATOM     68  C   UNL A   1      45.823  24.483  28.014  1.00  0.00     0.223 C 
ATOM     69  H   UNL A   1      47.265  25.290  29.094  1.00  0.00     0.163 HD
ATOM     70  O   UNL A   1      46.627  23.726  27.476  1.00  0.00    -0.275 OA
BRANCH  68  71
ATOM     71  C   UNL A   1      44.418  24.458  27.534  1.00  0.00     0.091 C 
ATOM     72  C   UNL A   1      43.275  23.831  28.289  1.00  0.00     0.028 C 
ATOM     73  C   UNL A   1      43.739  23.232  26.991  1.00  0.00     0.091 C 
BRANCH  73  74
ATOM     74  C   UNL A   1      43.000  23.172  25.711  1.00  0.00     0.224 C 
ATOM     75  O   UNL A   1      43.393  23.922  24.817  1.00  0.00    -0.275 OA
ATOM     76  N   UNL A   1      41.971  22.350  25.375  1.00  0.00    -0.342 N 
ATOM     77  H   UNL A   1      41.789  22.405  24.410  1.00  0.00     0.164 HD
BRANCH  76  78
ATOM     78  C   UNL A   1      41.056  21.410  26.015  1.00  0.00     0.202 C 
ATOM     79  C   UNL A   1      40.392  21.812  27.318  1.00  0.00     0.228 C 
ATOM     80  C   UNL A   1      41.556  20.020  26.297  1.00  0.00     0.268 C 
ATOM     81  O   UNL A   1      40.778  20.857  28.317  1.00  0.00    -0.271 OA
ATOM     82  N   UNL A   1      41.298  19.748  27.616  1.00  0.00    -0.233 N 
ATOM     83  O   UNL A   1      42.111  19.271  25.512  1.00  0.00    -0.270 OA
ATOM     84  H   UNL A   1      41.459  18.870  28.030  1.00  0.00     0.199 HD
ENDBRANCH  76  78
ENDBRANCH  73  74
ENDBRANCH  68  71
ENDBRANCH  66  67
ENDBRANCH  65  66
ENDBRANCH  64  65
ENDBRANCH   1  64
TORSDOF 15
ENDMDL
MODEL 3
REMARK VINA RESULT:     -11.1      5.220     10.060
REMARK SMILES O=C(NCCCCCCNC(=O)[C@@H]1C[C@H]1C(=O)N[C@@H]1CONC1=O)c1ccc(-c2c3nc(c(-c4c(F)cccc4F)c4ccc([nH]4)c(-c4c(F)cccc4F)c4nc(c(-c5c(F)cccc5F)c5ccc2[nH]5)C=C4)C=C3)cc1
REMARK SMILES IDX 6 1 5 2 4 3 3 4 1 5 2 6 25 8 26 9 78 10 27 11 77 12 28 13
REMARK SMILES IDX 29 14 30 15 71 16 31 17 76 18 70 19 72 20 32 21 75 22 69 23
REMARK SMILES IDX 68 24 33 26 59 27 42 28 58 29 43 30 46 31 57 32 73 33 44 34
REMARK SMILES IDX 45 35 56 37 74 38 47 39 34 40 35 41 40 42 36 43 37 44 39 45
REMARK SMILES IDX 41 46 38 47 60 48 61 49 66 50 62 51 63 52 65 53 67 54 64 55
REMARK SMILES IDX 48 56 49 57 54 58 50 59 51 60 53 61 55 62 52 63 7 64 8 65
REMARK SMILES IDX 9 66 10 67 11 68 12 70 13 71 14 72 15 73 16 74 17 75 18 76
REMARK SMILES IDX 19 78 20 79 23 80 21 81 22 82 24 83
REMARK H PARENT 3 7 72 25 46 36 10 69 18 77 22 84
REMARK Flexibility Score: inf
ROOT
ATOM      1  C   UNL A   1      36.579  20.523  24.864  1.00  0.00     0.002 C 
ENDROOT
BRANCH   1   2
ATOM      2  C   UNL A   1      37.730  19.526  25.001  1.00  0.00     0.021 C 
BRANCH   2   3
ATOM      3  C   UNL A   1      38.949  20.094  25.710  1.00  0.00     0.116 C 
BRANCH   3   4
ATOM      4  N   UNL A   1      39.993  19.094  25.850  1.00  0.00    -0.352 N 
ATOM      5  O   UNL A   1      42.132  18.370  25.920  1.00  0.00    -0.269 OA
ATOM      6  C   UNL A   1      41.332  19.287  26.070  1.00  0.00     0.251 C 
ATOM      7  H   UNL A   1      39.701  18.156  25.778  1.00  0.00     0.163 HD
BRANCH   6   8
ATOM      8  C   UNL A   1      41.795  20.624  26.486  1.00  0.00     0.039 A 
ATOM      9  C   UNL A   1      42.108  21.585  25.519  1.00  0.00     0.014 A 
ATOM     10  C   UNL A   1      41.924  20.912  27.845  1.00  0.00     0.014 A 
ATOM     11  C   UNL A   1      42.665  22.793  25.908  1.00  0.00     0.010 A 
ATOM     12  C   UNL A   1      42.391  22.167  28.236  1.00  0.00     0.010 A 
ATOM     13  C   UNL A   1      42.777  23.110  27.270  1.00  0.00    -0.014 A 
BRANCH  13  14
ATOM     14  C   UNL A   1      43.202  24.475  27.660  1.00  0.00     0.031 A 
ATOM     15  C   UNL A   1      42.203  25.518  28.062  1.00  0.00     0.074 A 
ATOM     16  C   UNL A   1      44.518  24.761  27.632  1.00  0.00     0.049 A 
ATOM     17  N   UNL A   1      42.410  26.766  28.396  1.00  0.00    -0.248 NA
ATOM     18  C   UNL A   1      40.791  25.113  28.081  1.00  0.00     0.031 C 
ATOM     19  C   UNL A   1      45.574  23.824  27.237  1.00  0.00     0.029 A 
ATOM     20  N   UNL A   1      45.193  25.911  27.938  1.00  0.00    -0.354 N 
ATOM     21  C   UNL A   1      41.155  27.304  28.645  1.00  0.00     0.074 A 
ATOM     22  C   UNL A   1      40.189  26.254  28.397  1.00  0.00     0.031 C 
ATOM     23  C   UNL A   1      46.764  24.428  27.351  1.00  0.00     0.029 A 
ATOM     24  C   UNL A   1      46.550  25.812  27.753  1.00  0.00     0.049 A 
ATOM     25  H   UNL A   1      44.750  26.730  28.259  1.00  0.00     0.167 HD
ATOM     26  C   UNL A   1      40.843  28.561  29.047  1.00  0.00     0.037 A 
ATOM     27  C   UNL A   1      47.517  26.740  27.859  1.00  0.00     0.037 A 
ATOM     28  C   UNL A   1      41.818  29.595  29.288  1.00  0.00     0.049 A 
ATOM     29  C   UNL A   1      47.142  28.131  28.272  1.00  0.00     0.074 A 
ATOM     30  C   UNL A   1      41.611  30.886  29.742  1.00  0.00     0.029 A 
ATOM     31  N   UNL A   1      43.184  29.461  29.077  1.00  0.00    -0.354 N 
ATOM     32  N   UNL A   1      45.957  28.615  28.556  1.00  0.00    -0.248 NA
ATOM     33  C   UNL A   1      48.233  29.106  28.378  1.00  0.00     0.031 C 
ATOM     34  C   UNL A   1      42.841  31.551  29.745  1.00  0.00     0.029 A 
ATOM     35  C   UNL A   1      43.827  30.657  29.357  1.00  0.00     0.049 A 
ATOM     36  H   UNL A   1      43.631  28.638  28.773  1.00  0.00     0.167 HD
ATOM     37  C   UNL A   1      46.160  29.945  28.892  1.00  0.00     0.074 A 
ATOM     38  C   UNL A   1      47.586  30.185  28.795  1.00  0.00     0.031 C 
ATOM     39  C   UNL A   1      45.248  30.882  29.249  1.00  0.00     0.037 A 
BRANCH  26  40
ATOM     40  C   UNL A   1      39.387  28.894  29.217  1.00  0.00     0.057 A 
ATOM     41  C   UNL A   1      38.603  29.381  28.163  1.00  0.00     0.134 A 
ATOM     42  C   UNL A   1      38.754  28.700  30.452  1.00  0.00     0.134 A 
ATOM     43  F   UNL A   1      39.146  29.600  26.956  1.00  0.00    -0.206 F 
ATOM     44  C   UNL A   1      37.253  29.694  28.339  1.00  0.00     0.040 A 
ATOM     45  C   UNL A   1      37.397  28.981  30.632  1.00  0.00     0.040 A 
ATOM     46  F   UNL A   1      39.440  28.228  31.504  1.00  0.00    -0.206 F 
ATOM     47  C   UNL A   1      36.645  29.488  29.576  1.00  0.00     0.006 A 
ENDBRANCH  26  40
BRANCH  27  48
ATOM     48  C   UNL A   1      48.919  26.373  27.543  1.00  0.00     0.057 A 
ATOM     49  C   UNL A   1      49.428  26.491  26.246  1.00  0.00     0.134 A 
ATOM     50  C   UNL A   1      49.796  25.932  28.543  1.00  0.00     0.134 A 
ATOM     51  F   UNL A   1      48.635  26.898  25.243  1.00  0.00    -0.206 F 
ATOM     52  C   UNL A   1      50.754  26.172  25.951  1.00  0.00     0.040 A 
ATOM     53  C   UNL A   1      51.131  25.638  28.268  1.00  0.00     0.040 A 
ATOM     54  F   UNL A   1      49.372  25.812  29.810  1.00  0.00    -0.206 F 
ATOM     55  C   UNL A   1      51.612  25.752  26.967  1.00  0.00     0.006 A 
ENDBRANCH  27  48
BRANCH  39  56
ATOM     56  C   UNL A   1      45.771  32.247  29.591  1.00  0.00     0.057 A 
ATOM     57  C   UNL A   1      45.885  33.260  28.629  1.00  0.00     0.134 A 
ATOM     58  C   UNL A   1      46.130  32.562  30.907  1.00  0.00     0.134 A 
ATOM     59  F   UNL A   1      45.574  33.017  27.346  1.00  0.00    -0.206 F 
ATOM     60  C   UNL A   1      46.359  34.529  28.961  1.00  0.00     0.040 A 
ATOM     61  C   UNL A   1      46.576  33.837  31.258  1.00  0.00     0.040 A 
ATOM     62  F   UNL A   1      46.038  31.640  31.878  1.00  0.00    -0.206 F 
ATOM     63  C   UNL A   1      46.698  34.823  30.281  1.00  0.00     0.006 A 
ENDBRANCH  39  56
ENDBRANCH  13  14
ENDBRANCH   6   8
ENDBRANCH   3   4
ENDBRANCH   2   3
ENDBRANCH   1   2
BRANCH   1  64
ATOM     64  C   UNL A   1      36.998  21.923  24.399  1.00  0.00     0.002 C 
BRANCH  64  65
ATOM     65  C   UNL A   1      35.853  22.937  24.321  1.00  0.00     0.021 C 
BRANCH  65  66
ATOM     66  C   UNL A   1      35.669  23.740  25.605  1.00  0.00     0.116 C 
BRANCH  66  67
ATOM     67  N   UNL A   1      34.270  23.830  25.955  1.00  0.00    -0.356 N 
ATOM     68  C   UNL A   1      33.378  24.861  25.961  1.00  0.00     0.223 C 
ATOM     69  H   UNL A   1      33.883  22.973  26.248  1.00  0.00     0.163 HD
ATOM     70  O   UNL A   1      32.266  24.653  26.442  1.00  0.00    -0.275 OA
BRANCH  68  71
ATOM     71  C   UNL A   1      33.651  26.207  25.398  1.00  0.00     0.091 C 
ATOM     72  C   UNL A   1      33.923  27.434  26.228  1.00  0.00     0.028 C 
ATOM     73  C   UNL A   1      32.662  27.339  25.414  1.00  0.00     0.091 C 
BRANCH  73  74
ATOM     74  C   UNL A   1      32.287  28.150  24.236  1.00  0.00     0.224 C 
ATOM     75  O   UNL A   1      32.434  29.369  24.341  1.00  0.00    -0.275 OA
ATOM     76  N   UNL A   1      31.849  27.716  23.025  1.00  0.00    -0.342 N 
ATOM     77  H   UNL A   1      31.841  28.457  22.377  1.00  0.00     0.164 HD
BRANCH  76  78
ATOM     78  C   UNL A   1      31.387  26.482  22.396  1.00  0.00     0.202 C 
ATOM     79  C   UNL A   1      30.554  25.515  23.215  1.00  0.00     0.228 C 
ATOM     80  C   UNL A   1      32.414  25.593  21.751  1.00  0.00     0.268 C 
ATOM     81  O   UNL A   1      31.260  24.266  23.265  1.00  0.00    -0.271 OA
ATOM     82  N   UNL A   1      32.233  24.327  22.244  1.00  0.00    -0.233 N 
ATOM     83  O   UNL A   1      33.270  25.929  20.951  1.00  0.00    -0.270 OA
ATOM     84  H   UNL A   1      32.730  23.542  21.920  1.00  0.00     0.199 HD
ENDBRANCH  76  78
ENDBRANCH  73  74
ENDBRANCH  68  71
ENDBRANCH  66  67
ENDBRANCH  65  66
ENDBRANCH  64  65
ENDBRANCH   1  64
TORSDOF 15
ENDMDL
