MODEL 1
REMARK VINA RESULT:     -11.2      0.000      0.000
REMARK SMILES C[C@@H](C(=O)NCCCCCCNC(=O)c1ccc(-c2c3nc(c(-c4c(F)cccc4F)c4ccc([nH]4)c(-c4c(F)cccc4F)c4nc(c(-c5c(F)cccc5F)c5ccc2[nH]5)C=C4)C=C3)cc1)c1ccc(C[C@@H]2CCC[C@@H]2O)cc1
REMARK SMILES IDX 7 1 6 2 5 3 3 4 4 5 2 7 1 8 69 9 70 10 81 11 71 12 80 13
REMARK SMILES IDX 72 14 73 15 74 16 75 17 78 18 76 19 77 20 79 21 8 23 9 24
REMARK SMILES IDX 10 25 11 26 12 27 13 28 14 30 15 31 16 32 68 33 17 34 67 35
REMARK SMILES IDX 18 36 19 37 20 38 61 39 21 40 66 41 60 42 62 43 22 44 65 45
REMARK SMILES IDX 59 46 58 47 23 49 49 50 32 51 48 52 33 53 36 54 47 55 63 56
REMARK SMILES IDX 34 57 35 58 46 60 64 61 37 62 24 63 25 64 30 65 26 66 27 67
REMARK SMILES IDX 29 68 31 69 28 70 50 71 51 72 56 73 52 74 53 75 55 76 57 77
REMARK SMILES IDX 54 78 38 79 39 80 44 81 40 82 41 83 43 84 45 85 42 86
REMARK H PARENT 5 6 79 22 12 29 62 48 36 59
REMARK Flexibility Score: inf
ROOT
ATOM      1  C   UNL A   1      35.903  23.444  25.359  1.00  0.00     0.021 C 
ENDROOT
BRANCH   1   2
ATOM      2  C   UNL A   1      35.106  24.644  24.834  1.00  0.00     0.116 C 
BRANCH   2   3
ATOM      3  N   UNL A   1      34.145  25.070  25.831  1.00  0.00    -0.356 N 
ATOM      4  C   UNL A   1      32.868  25.513  25.628  1.00  0.00     0.227 C 
ATOM      5  O   UNL A   1      32.460  26.368  26.415  1.00  0.00    -0.274 OA
ATOM      6  H   UNL A   1      34.449  25.037  26.768  1.00  0.00     0.163 HD
BRANCH   4   7
ATOM      7  C   UNL A   1      32.048  24.938  24.460  1.00  0.00     0.105 C 
ATOM      8  C   UNL A   1      30.585  25.373  24.620  1.00  0.00     0.023 C 
BRANCH   7   9
ATOM      9  C   UNL A   1      32.147  23.423  24.245  1.00  0.00    -0.036 A 
ATOM     10  C   UNL A   1      32.355  22.832  22.991  1.00  0.00     0.005 A 
ATOM     11  C   UNL A   1      32.003  22.556  25.345  1.00  0.00     0.005 A 
ATOM     12  C   UNL A   1      32.477  21.448  22.847  1.00  0.00     0.004 A 
ATOM     13  C   UNL A   1      32.104  21.169  25.198  1.00  0.00     0.004 A 
ATOM     14  C   UNL A   1      32.334  20.599  23.944  1.00  0.00    -0.048 A 
BRANCH  14  15
ATOM     15  C   UNL A   1      32.406  19.101  23.781  1.00  0.00     0.041 C 
BRANCH  15  16
ATOM     16  C   UNL A   1      33.635  18.371  24.366  1.00  0.00     0.022 C 
ATOM     17  C   UNL A   1      34.259  17.311  23.451  1.00  0.00     0.007 C 
ATOM     18  C   UNL A   1      33.432  17.605  25.677  1.00  0.00     0.117 C 
ATOM     19  C   UNL A   1      33.747  15.952  23.938  1.00  0.00     0.003 C 
ATOM     20  C   UNL A   1      33.014  16.204  25.251  1.00  0.00     0.032 C 
BRANCH  18  21
ATOM     21  O   UNL A   1      32.502  18.219  26.546  1.00  0.00    -0.393 OA
ATOM     22  H   UNL A   1      32.263  19.092  26.197  1.00  0.00     0.210 HD
ENDBRANCH  18  21
ENDBRANCH  15  16
ENDBRANCH  14  15
ENDBRANCH   7   9
ENDBRANCH   4   7
ENDBRANCH   2   3
ENDBRANCH   1   2
BRANCH   1  23
ATOM     23  C   UNL A   1      35.889  22.219  24.433  1.00  0.00     0.002 C 
BRANCH  23  24
ATOM     24  C   UNL A   1      36.022  20.870  25.142  1.00  0.00     0.002 C 
BRANCH  24  25
ATOM     25  C   UNL A   1      37.303  20.099  24.816  1.00  0.00     0.021 C 
BRANCH  25  26
ATOM     26  C   UNL A   1      38.543  20.576  25.566  1.00  0.00     0.116 C 
BRANCH  26  27
ATOM     27  N   UNL A   1      39.578  19.556  25.626  1.00  0.00    -0.352 N 
ATOM     28  C   UNL A   1      40.894  19.678  25.983  1.00  0.00     0.251 C 
ATOM     29  H   UNL A   1      39.291  18.648  25.372  1.00  0.00     0.163 HD
ATOM     30  O   UNL A   1      41.675  18.742  25.799  1.00  0.00    -0.269 OA
BRANCH  28  31
ATOM     31  C   UNL A   1      41.392  20.941  26.567  1.00  0.00     0.039 A 
ATOM     32  C   UNL A   1      41.941  21.904  25.718  1.00  0.00     0.014 A 
ATOM     33  C   UNL A   1      41.328  21.173  27.944  1.00  0.00     0.014 A 
ATOM     34  C   UNL A   1      42.370  23.125  26.241  1.00  0.00     0.010 A 
ATOM     35  C   UNL A   1      41.697  22.415  28.457  1.00  0.00     0.010 A 
ATOM     36  C   UNL A   1      42.220  23.404  27.610  1.00  0.00    -0.014 A 
BRANCH  36  37
ATOM     37  C   UNL A   1      42.593  24.731  28.162  1.00  0.00     0.031 A 
ATOM     38  C   UNL A   1      41.553  25.799  28.352  1.00  0.00     0.074 A 
ATOM     39  C   UNL A   1      43.885  24.989  28.448  1.00  0.00     0.049 A 
ATOM     40  N   UNL A   1      41.699  27.026  28.785  1.00  0.00    -0.248 NA
ATOM     41  C   UNL A   1      40.170  25.451  27.988  1.00  0.00     0.031 C 
ATOM     42  C   UNL A   1      44.997  24.053  28.260  1.00  0.00     0.029 A 
ATOM     43  N   UNL A   1      44.482  26.117  28.952  1.00  0.00    -0.354 N 
ATOM     44  C   UNL A   1      40.432  27.595  28.742  1.00  0.00     0.074 A 
ATOM     45  C   UNL A   1      39.539  26.599  28.192  1.00  0.00     0.031 C 
ATOM     46  C   UNL A   1      46.136  24.638  28.664  1.00  0.00     0.029 A 
ATOM     47  C   UNL A   1      45.842  25.997  29.108  1.00  0.00     0.049 A 
ATOM     48  H   UNL A   1      43.984  26.934  29.179  1.00  0.00     0.167 HD
ATOM     49  C   UNL A   1      40.045  28.829  29.147  1.00  0.00     0.037 A 
ATOM     50  C   UNL A   1      46.750  26.884  29.556  1.00  0.00     0.037 A 
ATOM     51  C   UNL A   1      40.930  29.813  29.712  1.00  0.00     0.049 A 
ATOM     52  C   UNL A   1      46.292  28.247  29.996  1.00  0.00     0.074 A 
ATOM     53  C   UNL A   1      40.622  31.072  30.198  1.00  0.00     0.029 A 
ATOM     54  N   UNL A   1      42.298  29.649  29.870  1.00  0.00    -0.354 N 
ATOM     55  N   UNL A   1      45.081  28.748  30.010  1.00  0.00    -0.248 NA
ATOM     56  C   UNL A   1      47.328  29.165  30.489  1.00  0.00     0.031 C 
ATOM     57  C   UNL A   1      41.808  31.684  30.616  1.00  0.00     0.029 A 
ATOM     58  C   UNL A   1      42.850  30.789  30.430  1.00  0.00     0.049 A 
ATOM     59  H   UNL A   1      42.802  28.840  29.622  1.00  0.00     0.167 HD
ATOM     60  C   UNL A   1      45.205  30.027  30.535  1.00  0.00     0.074 A 
ATOM     61  C   UNL A   1      46.606  30.218  30.846  1.00  0.00     0.031 C 
ATOM     62  C   UNL A   1      44.246  30.962  30.738  1.00  0.00     0.037 A 
BRANCH  49  63
ATOM     63  C   UNL A   1      38.594  29.181  29.006  1.00  0.00     0.057 A 
ATOM     64  C   UNL A   1      37.716  29.129  30.097  1.00  0.00     0.134 A 
ATOM     65  C   UNL A   1      38.079  29.629  27.783  1.00  0.00     0.134 A 
ATOM     66  F   UNL A   1      38.144  28.697  31.293  1.00  0.00    -0.206 F 
ATOM     67  C   UNL A   1      36.374  29.492  29.973  1.00  0.00     0.040 A 
ATOM     68  C   UNL A   1      36.744  30.018  27.653  1.00  0.00     0.040 A 
ATOM     69  F   UNL A   1      38.866  29.709  26.700  1.00  0.00    -0.206 F 
ATOM     70  C   UNL A   1      35.887  29.947  28.749  1.00  0.00     0.006 A 
ENDBRANCH  49  63
BRANCH  50  71
ATOM     71  C   UNL A   1      48.185  26.511  29.630  1.00  0.00     0.057 A 
ATOM     72  C   UNL A   1      49.060  26.791  28.574  1.00  0.00     0.134 A 
ATOM     73  C   UNL A   1      48.710  25.842  30.742  1.00  0.00     0.134 A 
ATOM     74  F   UNL A   1      48.612  27.413  27.473  1.00  0.00    -0.206 F 
ATOM     75  C   UNL A   1      50.398  26.397  28.609  1.00  0.00     0.040 A 
ATOM     76  C   UNL A   1      50.052  25.465  30.802  1.00  0.00     0.040 A 
ATOM     77  F   UNL A   1      47.925  25.552  31.791  1.00  0.00    -0.206 F 
ATOM     78  C   UNL A   1      50.899  25.734  29.728  1.00  0.00     0.006 A 
ENDBRANCH  50  71
BRANCH  62  79
ATOM     79  C   UNL A   1      44.679  32.262  31.349  1.00  0.00     0.057 A 
ATOM     80  C   UNL A   1      45.068  33.353  30.562  1.00  0.00     0.134 A 
ATOM     81  C   UNL A   1      44.685  32.430  32.739  1.00  0.00     0.134 A 
ATOM     82  F   UNL A   1      45.097  33.252  29.225  1.00  0.00    -0.206 F 
ATOM     83  C   UNL A   1      45.476  34.557  31.138  1.00  0.00     0.040 A 
ATOM     84  C   UNL A   1      45.066  33.637  33.326  1.00  0.00     0.040 A 
ATOM     85  F   UNL A   1      44.316  31.426  33.549  1.00  0.00    -0.206 F 
ATOM     86  C   UNL A   1      45.470  34.703  32.524  1.00  0.00     0.006 A 
ENDBRANCH  62  79
ENDBRANCH  36  37
ENDBRANCH  28  31
ENDBRANCH  26  27
ENDBRANCH  25  26
ENDBRANCH  24  25
ENDBRANCH  23  24
ENDBRANCH   1  23
TORSDOF 17
ENDMDL
MODEL 2
REMARK VINA RESULT:     -11.1      0.277      6.256
REMARK SMILES C[C@@H](C(=O)NCCCCCCNC(=O)c1ccc(-c2c3nc(c(-c4c(F)cccc4F)c4ccc([nH]4)c(-c4c(F)cccc4F)c4nc(c(-c5c(F)cccc5F)c5ccc2[nH]5)C=C4)C=C3)cc1)c1ccc(C[C@@H]2CCC[C@@H]2O)cc1
REMARK SMILES IDX 7 1 6 2 5 3 3 4 4 5 2 7 1 8 69 9 70 10 81 11 71 12 80 13
REMARK SMILES IDX 72 14 73 15 74 16 75 17 78 18 76 19 77 20 79 21 8 23 9 24
REMARK SMILES IDX 10 25 11 26 12 27 13 28 14 30 15 31 16 32 68 33 17 34 67 35
REMARK SMILES IDX 18 36 19 37 20 38 61 39 21 40 66 41 60 42 62 43 22 44 65 45
REMARK SMILES IDX 59 46 58 47 23 49 49 50 32 51 48 52 33 53 36 54 47 55 63 56
REMARK SMILES IDX 34 57 35 58 46 60 64 61 37 62 24 63 25 64 30 65 26 66 27 67
REMARK SMILES IDX 29 68 31 69 28 70 50 71 51 72 56 73 52 74 53 75 55 76 57 77
REMARK SMILES IDX 54 78 38 79 39 80 44 81 40 82 41 83 43 84 45 85 42 86
REMARK H PARENT 5 6 79 22 12 29 62 48 36 59
REMARK Flexibility Score: inf
ROOT
ATOM      1  C   UNL A   1      35.888  23.277  25.525  1.00  0.00     0.021 C 
ENDROOT
BRANCH   1   2
ATOM      2  C   UNL A   1      35.196  24.503  24.917  1.00  0.00     0.116 C 
BRANCH   2   3
ATOM      3  N   UNL A   1      34.216  25.026  25.846  1.00  0.00    -0.356 N 
ATOM      4  C   UNL A   1      32.966  25.503  25.566  1.00  0.00     0.227 C 
ATOM      5  O   UNL A   1      32.564  26.420  26.282  1.00  0.00    -0.274 OA
ATOM      6  H   UNL A   1      34.482  25.038  26.795  1.00  0.00     0.163 HD
BRANCH   4   7
ATOM      7  C   UNL A   1      32.169  24.890  24.400  1.00  0.00     0.105 C 
ATOM      8  C   UNL A   1      30.716  25.376  24.485  1.00  0.00     0.023 C 
BRANCH   7   9
ATOM      9  C   UNL A   1      32.228  23.363  24.271  1.00  0.00    -0.036 A 
ATOM     10  C   UNL A   1      32.090  22.489  25.358  1.00  0.00     0.005 A 
ATOM     11  C   UNL A   1      32.454  22.783  23.008  1.00  0.00     0.005 A 
ATOM     12  C   UNL A   1      32.112  21.103  25.189  1.00  0.00     0.004 A 
ATOM     13  C   UNL A   1      32.499  21.395  22.842  1.00  0.00     0.004 A 
ATOM     14  C   UNL A   1      32.336  20.540  23.933  1.00  0.00    -0.048 A 
BRANCH  14  15
ATOM     15  C   UNL A   1      32.420  19.044  23.758  1.00  0.00     0.041 C 
BRANCH  15  16
ATOM     16  C   UNL A   1      33.645  18.317  24.356  1.00  0.00     0.022 C 
ATOM     17  C   UNL A   1      34.283  17.261  23.446  1.00  0.00     0.007 C 
ATOM     18  C   UNL A   1      33.431  17.548  25.663  1.00  0.00     0.117 C 
ATOM     19  C   UNL A   1      33.770  15.899  23.924  1.00  0.00     0.003 C 
ATOM     20  C   UNL A   1      33.022  16.146  25.230  1.00  0.00     0.032 C 
BRANCH  18  21
ATOM     21  O   UNL A   1      32.489  18.158  26.522  1.00  0.00    -0.393 OA
ATOM     22  H   UNL A   1      32.953  18.720  27.161  1.00  0.00     0.210 HD
ENDBRANCH  18  21
ENDBRANCH  15  16
ENDBRANCH  14  15
ENDBRANCH   7   9
ENDBRANCH   4   7
ENDBRANCH   2   3
ENDBRANCH   1   2
BRANCH   1  23
ATOM     23  C   UNL A   1      36.226  22.172  24.513  1.00  0.00     0.002 C 
BRANCH  23  24
ATOM     24  C   UNL A   1      36.118  20.745  25.053  1.00  0.00     0.002 C 
BRANCH  24  25
ATOM     25  C   UNL A   1      37.374  19.892  24.866  1.00  0.00     0.021 C 
BRANCH  25  26
ATOM     26  C   UNL A   1      38.632  20.456  25.519  1.00  0.00     0.116 C 
BRANCH  26  27
ATOM     27  N   UNL A   1      39.675  19.453  25.666  1.00  0.00    -0.352 N 
ATOM     28  C   UNL A   1      40.973  19.607  26.075  1.00  0.00     0.251 C 
ATOM     29  H   UNL A   1      39.410  18.533  25.437  1.00  0.00     0.163 HD
ATOM     30  O   UNL A   1      41.771  18.675  25.964  1.00  0.00    -0.269 OA
BRANCH  28  31
ATOM     31  C   UNL A   1      41.430  20.899  26.628  1.00  0.00     0.039 A 
ATOM     32  C   UNL A   1      41.966  21.851  25.759  1.00  0.00     0.014 A 
ATOM     33  C   UNL A   1      41.340  21.170  27.997  1.00  0.00     0.014 A 
ATOM     34  C   UNL A   1      42.356  23.097  26.251  1.00  0.00     0.010 A 
ATOM     35  C   UNL A   1      41.669  22.435  28.478  1.00  0.00     0.010 A 
ATOM     36  C   UNL A   1      42.180  23.412  27.609  1.00  0.00    -0.014 A 
BRANCH  36  37
ATOM     37  C   UNL A   1      42.511  24.764  28.126  1.00  0.00     0.031 A 
ATOM     38  C   UNL A   1      43.919  25.105  28.525  1.00  0.00     0.074 A 
ATOM     39  C   UNL A   1      41.527  25.672  28.280  1.00  0.00     0.049 A 
ATOM     40  N   UNL A   1      44.386  26.220  29.030  1.00  0.00    -0.248 NA
ATOM     41  C   UNL A   1      44.931  24.052  28.356  1.00  0.00     0.031 C 
ATOM     42  C   UNL A   1      40.111  25.447  27.977  1.00  0.00     0.029 A 
ATOM     43  N   UNL A   1      41.566  26.966  28.737  1.00  0.00    -0.354 N 
ATOM     44  C   UNL A   1      45.742  25.999  29.241  1.00  0.00     0.074 A 
ATOM     45  C   UNL A   1      46.013  24.630  28.860  1.00  0.00     0.031 C 
ATOM     46  C   UNL A   1      39.422  26.570  28.235  1.00  0.00     0.029 A 
ATOM     47  C   UNL A   1      40.338  27.583  28.750  1.00  0.00     0.049 A 
ATOM     48  H   UNL A   1      42.395  27.410  29.027  1.00  0.00     0.167 HD
ATOM     49  C   UNL A   1      46.681  26.867  29.690  1.00  0.00     0.037 A 
ATOM     50  C   UNL A   1      39.989  28.824  29.138  1.00  0.00     0.037 A 
ATOM     51  C   UNL A   1      46.416  28.235  30.050  1.00  0.00     0.049 A 
ATOM     52  C   UNL A   1      41.052  29.765  29.634  1.00  0.00     0.074 A 
ATOM     53  C   UNL A   1      47.310  29.206  30.467  1.00  0.00     0.029 A 
ATOM     54  N   UNL A   1      45.162  28.828  30.035  1.00  0.00    -0.354 N 
ATOM     55  N   UNL A   1      42.340  29.562  29.767  1.00  0.00    -0.248 NA
ATOM     56  C   UNL A   1      40.612  31.110  30.028  1.00  0.00     0.031 C 
ATOM     57  C   UNL A   1      46.593  30.375  30.740  1.00  0.00     0.029 A 
ATOM     58  C   UNL A   1      45.258  30.146  30.451  1.00  0.00     0.049 A 
ATOM     59  H   UNL A   1      44.328  28.379  29.766  1.00  0.00     0.167 HD
ATOM     60  C   UNL A   1      42.866  30.758  30.234  1.00  0.00     0.074 A 
ATOM     61  C   UNL A   1      41.762  31.688  30.343  1.00  0.00     0.031 C 
ATOM     62  C   UNL A   1      44.149  31.060  30.550  1.00  0.00     0.037 A 
BRANCH  49  63
ATOM     63  C   UNL A   1      48.091  26.367  29.803  1.00  0.00     0.057 A 
ATOM     64  C   UNL A   1      48.560  25.749  30.969  1.00  0.00     0.134 A 
ATOM     65  C   UNL A   1      48.972  26.453  28.718  1.00  0.00     0.134 A 
ATOM     66  F   UNL A   1      47.769  25.645  32.048  1.00  0.00    -0.206 F 
ATOM     67  C   UNL A   1      49.860  25.251  31.060  1.00  0.00     0.040 A 
ATOM     68  C   UNL A   1      50.268  25.937  28.788  1.00  0.00     0.040 A 
ATOM     69  F   UNL A   1      48.585  27.028  27.569  1.00  0.00    -0.206 F 
ATOM     70  C   UNL A   1      50.716  25.338  29.963  1.00  0.00     0.006 A 
ENDBRANCH  49  63
BRANCH  50  71
ATOM     71  C   UNL A   1      38.573  29.261  29.058  1.00  0.00     0.057 A 
ATOM     72  C   UNL A   1      37.735  29.207  30.178  1.00  0.00     0.134 A 
ATOM     73  C   UNL A   1      38.015  29.714  27.857  1.00  0.00     0.134 A 
ATOM     74  F   UNL A   1      38.208  28.763  31.353  1.00  0.00    -0.206 F 
ATOM     75  C   UNL A   1      36.388  29.563  30.103  1.00  0.00     0.040 A 
ATOM     76  C   UNL A   1      36.676  30.099  27.773  1.00  0.00     0.040 A 
ATOM     77  F   UNL A   1      38.766  29.796  26.749  1.00  0.00    -0.206 F 
ATOM     78  C   UNL A   1      35.855  30.014  28.897  1.00  0.00     0.006 A 
ENDBRANCH  50  71
BRANCH  62  79
ATOM     79  C   UNL A   1      44.427  32.459  31.014  1.00  0.00     0.057 A 
ATOM     80  C   UNL A   1      44.411  32.802  32.372  1.00  0.00     0.134 A 
ATOM     81  C   UNL A   1      44.734  33.468  30.094  1.00  0.00     0.134 A 
ATOM     82  F   UNL A   1      44.111  31.884  33.302  1.00  0.00    -0.206 F 
ATOM     83  C   UNL A   1      44.664  34.107  32.795  1.00  0.00     0.040 A 
ATOM     84  C   UNL A   1      45.013  34.772  30.507  1.00  0.00     0.040 A 
ATOM     85  F   UNL A   1      44.772  33.204  28.779  1.00  0.00    -0.206 F 
ATOM     86  C   UNL A   1      44.972  35.095  31.862  1.00  0.00     0.006 A 
ENDBRANCH  62  79
ENDBRANCH  36  37
ENDBRANCH  28  31
ENDBRANCH  26  27
ENDBRANCH  25  26
ENDBRANCH  24  25
ENDBRANCH  23  24
ENDBRANCH   1  23
TORSDOF 17
ENDMDL
MODEL 3
REMARK VINA RESULT:     -10.9      2.118      6.965
REMARK SMILES C[C@@H](C(=O)NCCCCCCNC(=O)c1ccc(-c2c3nc(c(-c4c(F)cccc4F)c4ccc([nH]4)c(-c4c(F)cccc4F)c4nc(c(-c5c(F)cccc5F)c5ccc2[nH]5)C=C4)C=C3)cc1)c1ccc(C[C@@H]2CCC[C@@H]2O)cc1
REMARK SMILES IDX 7 1 6 2 5 3 3 4 4 5 2 7 1 8 69 9 70 10 81 11 71 12 80 13
REMARK SMILES IDX 72 14 73 15 74 16 75 17 78 18 76 19 77 20 79 21 8 23 9 24
REMARK SMILES IDX 10 25 11 26 12 27 13 28 14 30 15 31 16 32 68 33 17 34 67 35
REMARK SMILES IDX 18 36 19 37 20 38 61 39 21 40 66 41 60 42 62 43 22 44 65 45
REMARK SMILES IDX 59 46 58 47 23 49 49 50 32 51 48 52 33 53 36 54 47 55 63 56
REMARK SMILES IDX 34 57 35 58 46 60 64 61 37 62 24 63 25 64 30 65 26 66 27 67
REMARK SMILES IDX 29 68 31 69 28 70 50 71 51 72 56 73 52 74 53 75 55 76 57 77
REMARK SMILES IDX 54 78 38 79 39 80 44 81 40 82 41 83 43 84 45 85 42 86
REMARK H PARENT 5 6 79 22 12 29 62 48 36 59
REMARK Flexibility Score: inf
ROOT
ATOM      1  C   UNL A   1      30.804  28.177  23.745  1.00  0.00     0.021 C 
ENDROOT
BRANCH   1   2
ATOM      2  C   UNL A   1      30.599  26.690  23.429  1.00  0.00     0.116 C 
BRANCH   2   3
ATOM      3  N   UNL A   1      31.610  26.242  22.494  1.00  0.00    -0.356 N 
ATOM      4  C   UNL A   1      32.871  25.794  22.774  1.00  0.00     0.227 C 
ATOM      5  O   UNL A   1      33.736  26.055  21.938  1.00  0.00    -0.274 OA
ATOM      6  H   UNL A   1      31.359  26.262  21.541  1.00  0.00     0.163 HD
BRANCH   4   7
ATOM      7  C   UNL A   1      33.123  25.023  24.082  1.00  0.00     0.105 C 
ATOM      8  C   UNL A   1      34.480  25.452  24.655  1.00  0.00     0.023 C 
BRANCH   7   9
ATOM      9  C   UNL A   1      33.024  23.495  23.995  1.00  0.00    -0.036 A 
ATOM     10  C   UNL A   1      33.890  22.625  24.672  1.00  0.00     0.005 A 
ATOM     11  C   UNL A   1      32.034  22.909  23.184  1.00  0.00     0.005 A 
ATOM     12  C   UNL A   1      33.740  21.239  24.595  1.00  0.00     0.004 A 
ATOM     13  C   UNL A   1      31.897  21.521  23.090  1.00  0.00     0.004 A 
ATOM     14  C   UNL A   1      32.755  20.669  23.789  1.00  0.00    -0.048 A 
BRANCH  14  15
ATOM     15  C   UNL A   1      32.629  19.172  23.657  1.00  0.00     0.041 C 
BRANCH  15  16
ATOM     16  C   UNL A   1      33.705  18.296  24.336  1.00  0.00     0.022 C 
ATOM     17  C   UNL A   1      34.161  17.079  23.524  1.00  0.00     0.007 C 
ATOM     18  C   UNL A   1      33.350  17.680  25.693  1.00  0.00     0.117 C 
ATOM     19  C   UNL A   1      33.418  15.866  24.093  1.00  0.00     0.003 C 
ATOM     20  C   UNL A   1      32.710  16.339  25.358  1.00  0.00     0.032 C 
BRANCH  18  21
ATOM     21  O   UNL A   1      32.518  18.507  26.481  1.00  0.00    -0.393 OA
ATOM     22  H   UNL A   1      32.805  19.430  26.394  1.00  0.00     0.210 HD
ENDBRANCH  18  21
ENDBRANCH  15  16
ENDBRANCH  14  15
ENDBRANCH   7   9
ENDBRANCH   4   7
ENDBRANCH   2   3
ENDBRANCH   1   2
BRANCH   1  23
ATOM     23  C   UNL A   1      31.593  28.449  25.034  1.00  0.00     0.002 C 
BRANCH  23  24
ATOM     24  C   UNL A   1      32.940  29.145  24.834  1.00  0.00     0.002 C 
BRANCH  24  25
ATOM     25  C   UNL A   1      34.073  28.616  25.716  1.00  0.00     0.021 C 
BRANCH  25  26
ATOM     26  C   UNL A   1      33.796  28.677  27.215  1.00  0.00     0.116 C 
BRANCH  26  27
ATOM     27  N   UNL A   1      33.742  30.043  27.710  1.00  0.00    -0.352 N 
ATOM     28  C   UNL A   1      34.689  30.752  28.401  1.00  0.00     0.251 C 
ATOM     29  H   UNL A   1      32.905  30.527  27.523  1.00  0.00     0.163 HD
ATOM     30  O   UNL A   1      34.403  31.841  28.903  1.00  0.00    -0.269 OA
BRANCH  28  31
ATOM     31  C   UNL A   1      36.051  30.204  28.570  1.00  0.00     0.039 A 
ATOM     32  C   UNL A   1      36.946  30.285  27.501  1.00  0.00     0.014 A 
ATOM     33  C   UNL A   1      36.444  29.604  29.770  1.00  0.00     0.014 A 
ATOM     34  C   UNL A   1      38.253  29.821  27.655  1.00  0.00     0.010 A 
ATOM     35  C   UNL A   1      37.765  29.200  29.945  1.00  0.00     0.010 A 
ATOM     36  C   UNL A   1      38.683  29.305  28.889  1.00  0.00    -0.014 A 
BRANCH  36  37
ATOM     37  C   UNL A   1      40.094  28.888  29.090  1.00  0.00     0.031 A 
ATOM     38  C   UNL A   1      41.090  29.832  29.705  1.00  0.00     0.074 A 
ATOM     39  C   UNL A   1      40.490  27.670  28.671  1.00  0.00     0.049 A 
ATOM     40  N   UNL A   1      42.368  29.655  29.924  1.00  0.00    -0.248 NA
ATOM     41  C   UNL A   1      40.588  31.155  30.109  1.00  0.00     0.031 C 
ATOM     42  C   UNL A   1      39.633  26.681  28.013  1.00  0.00     0.029 A 
ATOM     43  N   UNL A   1      41.717  27.057  28.730  1.00  0.00    -0.354 N 
ATOM     44  C   UNL A   1      42.823  30.843  30.485  1.00  0.00     0.074 A 
ATOM     45  C   UNL A   1      41.698  31.750  30.525  1.00  0.00     0.031 C 
ATOM     46  C   UNL A   1      40.354  25.579  27.750  1.00  0.00     0.029 A 
ATOM     47  C   UNL A   1      41.728  25.794  28.191  1.00  0.00     0.049 A 
ATOM     48  H   UNL A   1      42.513  27.483  29.122  1.00  0.00     0.167 HD
ATOM     49  C   UNL A   1      44.061  31.141  30.946  1.00  0.00     0.037 A 
ATOM     50  C   UNL A   1      42.736  24.909  28.061  1.00  0.00     0.037 A 
ATOM     51  C   UNL A   1      45.177  30.231  30.924  1.00  0.00     0.049 A 
ATOM     52  C   UNL A   1      44.100  25.268  28.581  1.00  0.00     0.074 A 
ATOM     53  C   UNL A   1      46.457  30.424  31.414  1.00  0.00     0.029 A 
ATOM     54  N   UNL A   1      45.145  28.954  30.385  1.00  0.00    -0.354 N 
ATOM     55  N   UNL A   1      44.498  26.371  29.167  1.00  0.00    -0.248 NA
ATOM     56  C   UNL A   1      45.153  24.256  28.425  1.00  0.00     0.031 C 
ATOM     57  C   UNL A   1      47.210  29.279  31.138  1.00  0.00     0.029 A 
ATOM     58  C   UNL A   1      46.387  28.355  30.514  1.00  0.00     0.049 A 
ATOM     59  H   UNL A   1      44.356  28.535  29.971  1.00  0.00     0.167 HD
ATOM     60  C   UNL A   1      45.838  26.175  29.473  1.00  0.00     0.074 A 
ATOM     61  C   UNL A   1      46.180  24.841  29.025  1.00  0.00     0.031 C 
ATOM     62  C   UNL A   1      46.710  27.025  30.067  1.00  0.00     0.037 A 
BRANCH  49  63
ATOM     63  C   UNL A   1      44.274  32.506  31.530  1.00  0.00     0.057 A 
ATOM     64  C   UNL A   1      44.113  32.752  32.900  1.00  0.00     0.134 A 
ATOM     65  C   UNL A   1      44.697  33.573  30.727  1.00  0.00     0.134 A 
ATOM     66  F   UNL A   1      43.700  31.776  33.722  1.00  0.00    -0.206 F 
ATOM     67  C   UNL A   1      44.348  34.014  33.448  1.00  0.00     0.040 A 
ATOM     68  C   UNL A   1      44.958  34.834  31.268  1.00  0.00     0.040 A 
ATOM     69  F   UNL A   1      44.876  33.404  29.408  1.00  0.00    -0.206 F 
ATOM     70  C   UNL A   1      44.780  35.057  32.631  1.00  0.00     0.006 A 
ENDBRANCH  49  63
BRANCH  50  71
ATOM     71  C   UNL A   1      42.493  23.588  27.430  1.00  0.00     0.057 A 
ATOM     72  C   UNL A   1      42.191  22.461  28.203  1.00  0.00     0.134 A 
ATOM     73  C   UNL A   1      42.584  23.413  26.044  1.00  0.00     0.134 A 
ATOM     74  F   UNL A   1      42.109  22.562  29.538  1.00  0.00    -0.206 F 
ATOM     75  C   UNL A   1      42.014  21.203  27.626  1.00  0.00     0.040 A 
ATOM     76  C   UNL A   1      42.384  22.166  25.450  1.00  0.00     0.040 A 
ATOM     77  F   UNL A   1      42.863  24.455  25.246  1.00  0.00    -0.206 F 
ATOM     78  C   UNL A   1      42.108  21.054  26.243  1.00  0.00     0.006 A 
ENDBRANCH  50  71
BRANCH  62  79
ATOM     79  C   UNL A   1      48.107  26.524  30.291  1.00  0.00     0.057 A 
ATOM     80  C   UNL A   1      48.464  25.829  31.453  1.00  0.00     0.134 A 
ATOM     81  C   UNL A   1      49.098  26.720  29.321  1.00  0.00     0.134 A 
ATOM     82  F   UNL A   1      47.564  25.621  32.425  1.00  0.00    -0.206 F 
ATOM     83  C   UNL A   1      49.767  25.372  31.656  1.00  0.00     0.040 A 
ATOM     84  C   UNL A   1      50.398  26.245  29.502  1.00  0.00     0.040 A 
ATOM     85  F   UNL A   1      48.819  27.371  28.182  1.00  0.00    -0.206 F 
ATOM     86  C   UNL A   1      50.737  25.575  30.676  1.00  0.00     0.006 A 
ENDBRANCH  62  79
ENDBRANCH  36  37
ENDBRANCH  28  31
ENDBRANCH  26  27
ENDBRANCH  25  26
ENDBRANCH  24  25
ENDBRANCH  23  24
ENDBRANCH   1  23
TORSDOF 17
ENDMDL
