MODEL 1
REMARK VINA RESULT:     -11.9      0.000      0.000
REMARK SMILES Cc1ccc(/C=C2/SC(=O)N(CC(=O)NCCCCCCNC(=O)c3ccc(-c4c5nc(c(-c6c(F)cccc6F)c6ccc([nH]6)c(-c6c(F)cccc6F)c6nc(c(-c7c(F)cccc7F)c7ccc4[nH]7)C=C6)C=C5)cc3)C2=O)cc1
REMARK SMILES IDX 18 1 17 2 16 3 15 4 13 5 14 6 12 8 11 9 6 10 7 11 8 12 79 13
REMARK SMILES IDX 9 14 80 15 10 16 5 17 1 18 2 19 3 20 82 21 4 22 81 23 19 24
REMARK SMILES IDX 20 25 21 26 22 27 23 28 24 30 25 31 26 32 78 33 27 34 77 35
REMARK SMILES IDX 28 36 29 37 30 38 71 39 31 40 76 41 70 42 72 43 32 44 75 45
REMARK SMILES IDX 69 46 68 47 33 49 59 50 42 51 58 52 43 53 46 54 57 55 73 56
REMARK SMILES IDX 44 57 45 58 56 60 74 61 47 62 34 63 35 64 40 65 36 66 37 67
REMARK SMILES IDX 39 68 41 69 38 70 60 71 61 72 66 73 62 74 63 75 65 76 67 77
REMARK SMILES IDX 64 78 48 79 49 80 54 81 50 82 51 83 53 84 55 85 52 86
REMARK H PARENT 15 7 22 29 72 48 46 59
REMARK Flexibility Score: inf
ROOT
ATOM      1  C   UNL A   1      33.316  33.281  28.064  1.00  0.00     0.002 C 
ENDROOT
BRANCH   1   2
ATOM      2  C   UNL A   1      34.111  31.992  27.809  1.00  0.00     0.021 C 
BRANCH   2   3
ATOM      3  C   UNL A   1      33.287  30.835  27.248  1.00  0.00     0.116 C 
BRANCH   3   4
ATOM      4  N   UNL A   1      34.015  30.080  26.256  1.00  0.00    -0.355 N 
ATOM      5  C   UNL A   1      33.876  28.778  25.878  1.00  0.00     0.240 C 
ATOM      6  O   UNL A   1      34.387  28.446  24.805  1.00  0.00    -0.273 OA
ATOM      7  H   UNL A   1      34.717  30.582  25.781  1.00  0.00     0.163 HD
BRANCH   5   8
ATOM      8  C   UNL A   1      32.990  27.808  26.667  1.00  0.00     0.229 C 
BRANCH   8   9
ATOM      9  N   UNL A   1      32.039  27.101  25.827  1.00  0.00    -0.259 N 
ATOM     10  C   UNL A   1      29.410  27.203  23.314  1.00  0.00     0.029 C 
ATOM     11  C   UNL A   1      30.295  26.878  24.267  1.00  0.00     0.083 C 
ATOM     12  S   UNL A   1      30.644  25.250  24.723  1.00  0.00    -0.022 SA
ATOM     13  C   UNL A   1      31.134  27.811  25.079  1.00  0.00     0.268 C 
ATOM     14  C   UNL A   1      31.879  25.744  25.869  1.00  0.00     0.294 C 
ATOM     15  O   UNL A   1      31.030  29.027  25.099  1.00  0.00    -0.268 OA
ATOM     16  O   UNL A   1      32.478  24.953  26.569  1.00  0.00    -0.261 OA
BRANCH  10  17
ATOM     17  C   UNL A   1      29.133  28.586  22.921  1.00  0.00    -0.024 A 
ATOM     18  C   UNL A   1      28.028  32.400  21.265  1.00  0.00     0.044 C 
ATOM     19  C   UNL A   1      28.438  31.102  21.895  1.00  0.00    -0.051 A 
ATOM     20  C   UNL A   1      29.627  30.477  21.496  1.00  0.00     0.004 A 
ATOM     21  C   UNL A   1      27.629  30.483  22.853  1.00  0.00     0.004 A 
ATOM     22  C   UNL A   1      29.974  29.224  22.006  1.00  0.00     0.008 A 
ATOM     23  C   UNL A   1      27.979  29.237  23.372  1.00  0.00     0.008 A 
ENDBRANCH  10  17
ENDBRANCH   8   9
ENDBRANCH   5   8
ENDBRANCH   3   4
ENDBRANCH   2   3
ENDBRANCH   1   2
BRANCH   1  24
ATOM     24  C   UNL A   1      34.114  34.594  28.017  1.00  0.00     0.002 C 
BRANCH  24  25
ATOM     25  C   UNL A   1      33.637  35.697  28.960  1.00  0.00     0.021 C 
BRANCH  25  26
ATOM     26  C   UNL A   1      33.188  35.203  30.325  1.00  0.00     0.116 C 
BRANCH  26  27
ATOM     27  N   UNL A   1      34.093  35.577  31.408  1.00  0.00    -0.352 N 
ATOM     28  C   UNL A   1      35.090  34.847  32.035  1.00  0.00     0.251 C 
ATOM     29  H   UNL A   1      33.975  36.493  31.748  1.00  0.00     0.163 HD
ATOM     30  O   UNL A   1      35.734  35.354  32.948  1.00  0.00    -0.269 OA
BRANCH  28  31
ATOM     31  C   UNL A   1      35.516  33.541  31.474  1.00  0.00     0.039 A 
ATOM     32  C   UNL A   1      35.536  32.473  32.380  1.00  0.00     0.014 A 
ATOM     33  C   UNL A   1      36.286  33.502  30.322  1.00  0.00     0.014 A 
ATOM     34  C   UNL A   1      36.604  31.593  32.345  1.00  0.00     0.010 A 
ATOM     35  C   UNL A   1      37.423  32.741  30.364  1.00  0.00     0.010 A 
ATOM     36  C   UNL A   1      37.613  31.860  31.432  1.00  0.00    -0.014 A 
BRANCH  36  37
ATOM     37  C   UNL A   1      38.919  31.246  31.463  1.00  0.00     0.031 A 
ATOM     38  C   UNL A   1      39.053  29.970  30.758  1.00  0.00     0.074 A 
ATOM     39  C   UNL A   1      39.945  31.972  31.958  1.00  0.00     0.049 A 
ATOM     40  N   UNL A   1      40.031  29.156  30.899  1.00  0.00    -0.248 NA
ATOM     41  C   UNL A   1      38.015  29.470  29.855  1.00  0.00     0.031 C 
ATOM     42  C   UNL A   1      41.380  31.753  31.815  1.00  0.00     0.029 A 
ATOM     43  N   UNL A   1      39.851  33.004  32.901  1.00  0.00    -0.354 N 
ATOM     44  C   UNL A   1      39.934  28.228  29.885  1.00  0.00     0.074 A 
ATOM     45  C   UNL A   1      38.596  28.369  29.378  1.00  0.00     0.031 C 
ATOM     46  C   UNL A   1      42.015  32.376  32.826  1.00  0.00     0.029 A 
ATOM     47  C   UNL A   1      40.988  32.876  33.728  1.00  0.00     0.049 A 
ATOM     48  H   UNL A   1      39.138  33.680  32.972  1.00  0.00     0.167 HD
ATOM     49  C   UNL A   1      41.078  27.599  29.501  1.00  0.00     0.037 A 
ATOM     50  C   UNL A   1      40.833  32.472  35.025  1.00  0.00     0.037 A 
ATOM     51  C   UNL A   1      42.127  27.867  30.492  1.00  0.00     0.049 A 
ATOM     52  C   UNL A   1      41.449  31.110  35.264  1.00  0.00     0.074 A 
ATOM     53  C   UNL A   1      43.176  28.771  30.518  1.00  0.00     0.029 A 
ATOM     54  N   UNL A   1      41.928  27.458  31.813  1.00  0.00    -0.354 N 
ATOM     55  N   UNL A   1      41.604  30.200  34.336  1.00  0.00    -0.248 NA
ATOM     56  C   UNL A   1      41.997  30.699  36.553  1.00  0.00     0.031 C 
ATOM     57  C   UNL A   1      43.507  29.006  31.883  1.00  0.00     0.029 A 
ATOM     58  C   UNL A   1      42.695  28.216  32.680  1.00  0.00     0.049 A 
ATOM     59  H   UNL A   1      41.324  26.732  32.088  1.00  0.00     0.167 HD
ATOM     60  C   UNL A   1      42.272  29.125  34.860  1.00  0.00     0.074 A 
ATOM     61  C   UNL A   1      42.498  29.490  36.249  1.00  0.00     0.031 C 
ATOM     62  C   UNL A   1      42.610  28.022  34.125  1.00  0.00     0.037 A 
BRANCH  49  63
ATOM     63  C   UNL A   1      41.341  27.013  28.122  1.00  0.00     0.057 A 
ATOM     64  C   UNL A   1      41.840  27.844  27.098  1.00  0.00     0.134 A 
ATOM     65  C   UNL A   1      41.033  25.707  27.686  1.00  0.00     0.134 A 
ATOM     66  F   UNL A   1      42.215  29.107  27.341  1.00  0.00    -0.206 F 
ATOM     67  C   UNL A   1      41.965  27.432  25.760  1.00  0.00     0.040 A 
ATOM     68  C   UNL A   1      41.163  25.279  26.355  1.00  0.00     0.040 A 
ATOM     69  F   UNL A   1      40.574  24.756  28.498  1.00  0.00    -0.206 F 
ATOM     70  C   UNL A   1      41.618  26.146  25.381  1.00  0.00     0.006 A 
ENDBRANCH  49  63
BRANCH  50  71
ATOM     71  C   UNL A   1      39.558  32.983  35.618  1.00  0.00     0.057 A 
ATOM     72  C   UNL A   1      38.506  32.058  35.789  1.00  0.00     0.134 A 
ATOM     73  C   UNL A   1      39.517  34.133  36.410  1.00  0.00     0.134 A 
ATOM     74  F   UNL A   1      38.463  30.943  35.040  1.00  0.00    -0.206 F 
ATOM     75  C   UNL A   1      37.582  32.171  36.831  1.00  0.00     0.040 A 
ATOM     76  C   UNL A   1      38.567  34.275  37.431  1.00  0.00     0.040 A 
ATOM     77  F   UNL A   1      40.469  35.072  36.303  1.00  0.00    -0.206 F 
ATOM     78  C   UNL A   1      37.642  33.263  37.687  1.00  0.00     0.006 A 
ENDBRANCH  50  71
BRANCH  62  79
ATOM     79  C   UNL A   1      43.011  26.690  34.721  1.00  0.00     0.057 A 
ATOM     80  C   UNL A   1      42.097  25.721  35.164  1.00  0.00     0.134 A 
ATOM     81  C   UNL A   1      44.363  26.279  34.740  1.00  0.00     0.134 A 
ATOM     82  F   UNL A   1      40.773  25.895  35.053  1.00  0.00    -0.206 F 
ATOM     83  C   UNL A   1      42.499  24.489  35.693  1.00  0.00     0.040 A 
ATOM     84  C   UNL A   1      44.770  25.022  35.196  1.00  0.00     0.040 A 
ATOM     85  F   UNL A   1      45.352  27.064  34.289  1.00  0.00    -0.206 F 
ATOM     86  C   UNL A   1      43.839  24.132  35.705  1.00  0.00     0.006 A 
ENDBRANCH  62  79
ENDBRANCH  36  37
ENDBRANCH  28  31
ENDBRANCH  26  27
ENDBRANCH  25  26
ENDBRANCH  24  25
ENDBRANCH   1  24
TORSDOF 15
ENDMDL
MODEL 2
REMARK VINA RESULT:     -11.8      1.565      3.320
REMARK SMILES Cc1ccc(/C=C2/SC(=O)N(CC(=O)NCCCCCCNC(=O)c3ccc(-c4c5nc(c(-c6c(F)cccc6F)c6ccc([nH]6)c(-c6c(F)cccc6F)c6nc(c(-c7c(F)cccc7F)c7ccc4[nH]7)C=C6)C=C5)cc3)C2=O)cc1
REMARK SMILES IDX 18 1 17 2 16 3 15 4 13 5 14 6 12 8 11 9 6 10 7 11 8 12 79 13
REMARK SMILES IDX 9 14 80 15 10 16 5 17 1 18 2 19 3 20 82 21 4 22 81 23 19 24
REMARK SMILES IDX 20 25 21 26 22 27 23 28 24 30 25 31 26 32 78 33 27 34 77 35
REMARK SMILES IDX 28 36 29 37 30 38 71 39 31 40 76 41 70 42 72 43 32 44 75 45
REMARK SMILES IDX 69 46 68 47 33 49 59 50 42 51 58 52 43 53 46 54 57 55 73 56
REMARK SMILES IDX 44 57 45 58 56 60 74 61 47 62 34 63 35 64 40 65 36 66 37 67
REMARK SMILES IDX 39 68 41 69 38 70 60 71 61 72 66 73 62 74 63 75 65 76 67 77
REMARK SMILES IDX 64 78 48 79 49 80 54 81 50 82 51 83 53 84 55 85 52 86
REMARK H PARENT 15 7 22 29 72 48 46 59
REMARK Flexibility Score: inf
ROOT
ATOM      1  C   UNL A   1      33.544  33.033  28.257  1.00  0.00     0.002 C 
ENDROOT
BRANCH   1   2
ATOM      2  C   UNL A   1      34.502  31.831  28.280  1.00  0.00     0.021 C 
BRANCH   2   3
ATOM      3  C   UNL A   1      34.191  30.748  27.249  1.00  0.00     0.116 C 
BRANCH   3   4
ATOM      4  N   UNL A   1      33.048  29.951  27.627  1.00  0.00    -0.355 N 
ATOM      5  C   UNL A   1      32.471  28.898  26.983  1.00  0.00     0.240 C 
ATOM      6  O   UNL A   1      31.709  28.185  27.642  1.00  0.00    -0.273 OA
ATOM      7  H   UNL A   1      32.622  30.207  28.477  1.00  0.00     0.163 HD
BRANCH   5   8
ATOM      8  C   UNL A   1      32.871  28.519  25.553  1.00  0.00     0.229 C 
BRANCH   8   9
ATOM      9  N   UNL A   1      31.807  27.850  24.827  1.00  0.00    -0.259 N 
ATOM     10  C   UNL A   1      30.359  24.770  23.539  1.00  0.00     0.029 C 
ATOM     11  C   UNL A   1      30.685  26.036  23.840  1.00  0.00     0.083 C 
ATOM     12  S   UNL A   1      29.685  27.389  23.457  1.00  0.00    -0.022 SA
ATOM     13  C   UNL A   1      31.910  26.510  24.551  1.00  0.00     0.268 C 
ATOM     14  C   UNL A   1      30.769  28.523  24.246  1.00  0.00     0.294 C 
ATOM     15  O   UNL A   1      32.879  25.823  24.835  1.00  0.00    -0.268 OA
ATOM     16  O   UNL A   1      30.575  29.722  24.248  1.00  0.00    -0.261 OA
BRANCH  10  17
ATOM     17  C   UNL A   1      31.204  23.626  23.884  1.00  0.00    -0.024 A 
ATOM     18  C   UNL A   1      33.211  19.907  24.687  1.00  0.00     0.044 C 
ATOM     19  C   UNL A   1      32.566  21.235  24.426  1.00  0.00    -0.051 A 
ATOM     20  C   UNL A   1      31.708  21.794  25.382  1.00  0.00     0.004 A 
ATOM     21  C   UNL A   1      32.781  21.911  23.221  1.00  0.00     0.004 A 
ATOM     22  C   UNL A   1      31.028  22.984  25.113  1.00  0.00     0.008 A 
ATOM     23  C   UNL A   1      32.113  23.106  22.955  1.00  0.00     0.008 A 
ENDBRANCH  10  17
ENDBRANCH   8   9
ENDBRANCH   5   8
ENDBRANCH   3   4
ENDBRANCH   2   3
ENDBRANCH   1   2
BRANCH   1  24
ATOM     24  C   UNL A   1      34.182  34.408  28.005  1.00  0.00     0.002 C 
BRANCH  24  25
ATOM     25  C   UNL A   1      33.798  35.510  28.989  1.00  0.00     0.021 C 
BRANCH  25  26
ATOM     26  C   UNL A   1      33.437  35.012  30.378  1.00  0.00     0.116 C 
BRANCH  26  27
ATOM     27  N   UNL A   1      34.415  35.372  31.401  1.00  0.00    -0.352 N 
ATOM     28  C   UNL A   1      35.542  34.698  31.841  1.00  0.00     0.251 C 
ATOM     29  H   UNL A   1      34.245  36.231  31.851  1.00  0.00     0.163 HD
ATOM     30  O   UNL A   1      36.230  35.179  32.736  1.00  0.00    -0.269 OA
BRANCH  28  31
ATOM     31  C   UNL A   1      36.031  33.509  31.098  1.00  0.00     0.039 A 
ATOM     32  C   UNL A   1      35.933  32.290  31.780  1.00  0.00     0.014 A 
ATOM     33  C   UNL A   1      36.939  33.667  30.062  1.00  0.00     0.014 A 
ATOM     34  C   UNL A   1      36.994  31.404  31.709  1.00  0.00     0.010 A 
ATOM     35  C   UNL A   1      38.060  32.881  30.099  1.00  0.00     0.010 A 
ATOM     36  C   UNL A   1      38.111  31.810  30.994  1.00  0.00    -0.014 A 
BRANCH  36  37
ATOM     37  C   UNL A   1      39.400  31.166  31.068  1.00  0.00     0.031 A 
ATOM     38  C   UNL A   1      39.561  29.944  30.278  1.00  0.00     0.074 A 
ATOM     39  C   UNL A   1      40.402  31.829  31.687  1.00  0.00     0.049 A 
ATOM     40  N   UNL A   1      40.512  29.099  30.424  1.00  0.00    -0.248 NA
ATOM     41  C   UNL A   1      38.581  29.538  29.270  1.00  0.00     0.031 C 
ATOM     42  C   UNL A   1      41.838  31.589  31.627  1.00  0.00     0.029 A 
ATOM     43  N   UNL A   1      40.259  32.788  32.698  1.00  0.00    -0.354 N 
ATOM     44  C   UNL A   1      40.471  28.253  29.337  1.00  0.00     0.074 A 
ATOM     45  C   UNL A   1      39.175  28.462  28.751  1.00  0.00     0.031 C 
ATOM     46  C   UNL A   1      42.412  32.119  32.725  1.00  0.00     0.029 A 
ATOM     47  C   UNL A   1      41.333  32.572  33.589  1.00  0.00     0.049 A 
ATOM     48  H   UNL A   1      39.555  33.474  32.772  1.00  0.00     0.167 HD
ATOM     49  C   UNL A   1      41.628  27.629  28.984  1.00  0.00     0.037 A 
ATOM     50  C   UNL A   1      41.079  32.075  34.837  1.00  0.00     0.037 A 
ATOM     51  C   UNL A   1      42.609  27.798  30.064  1.00  0.00     0.049 A 
ATOM     52  C   UNL A   1      41.653  30.685  35.012  1.00  0.00     0.074 A 
ATOM     53  C   UNL A   1      43.669  28.672  30.231  1.00  0.00     0.029 A 
ATOM     54  N   UNL A   1      42.310  27.295  31.332  1.00  0.00    -0.354 N 
ATOM     55  N   UNL A   1      41.857  29.845  34.030  1.00  0.00    -0.248 NA
ATOM     56  C   UNL A   1      42.102  30.165  36.301  1.00  0.00     0.031 C 
ATOM     57  C   UNL A   1      43.908  28.796  31.630  1.00  0.00     0.029 A 
ATOM     58  C   UNL A   1      43.028  27.966  32.306  1.00  0.00     0.049 A 
ATOM     59  H   UNL A   1      41.676  26.563  31.508  1.00  0.00     0.167 HD
ATOM     60  C   UNL A   1      42.467  28.718  34.515  1.00  0.00     0.074 A 
ATOM     61  C   UNL A   1      42.602  28.972  35.940  1.00  0.00     0.031 C 
ATOM     62  C   UNL A   1      42.838  27.666  33.723  1.00  0.00     0.037 A 
BRANCH  49  63
ATOM     63  C   UNL A   1      41.978  27.142  27.587  1.00  0.00     0.057 A 
ATOM     64  C   UNL A   1      42.348  25.795  27.392  1.00  0.00     0.134 A 
ATOM     65  C   UNL A   1      42.091  27.930  26.421  1.00  0.00     0.134 A 
ATOM     66  F   UNL A   1      42.271  24.898  28.383  1.00  0.00    -0.206 F 
ATOM     67  C   UNL A   1      42.836  25.297  26.173  1.00  0.00     0.040 A 
ATOM     68  C   UNL A   1      42.567  27.442  25.195  1.00  0.00     0.040 A 
ATOM     69  F   UNL A   1      41.767  29.222  26.381  1.00  0.00    -0.206 F 
ATOM     70  C   UNL A   1      42.956  26.123  25.068  1.00  0.00     0.006 A 
ENDBRANCH  49  63
BRANCH  50  71
ATOM     71  C   UNL A   1      39.775  32.568  35.379  1.00  0.00     0.057 A 
ATOM     72  C   UNL A   1      38.743  31.621  35.548  1.00  0.00     0.134 A 
ATOM     73  C   UNL A   1      39.681  33.740  36.134  1.00  0.00     0.134 A 
ATOM     74  F   UNL A   1      38.751  30.484  34.832  1.00  0.00    -0.206 F 
ATOM     75  C   UNL A   1      37.786  31.740  36.559  1.00  0.00     0.040 A 
ATOM     76  C   UNL A   1      38.699  33.886  37.124  1.00  0.00     0.040 A 
ATOM     77  F   UNL A   1      40.611  34.701  36.026  1.00  0.00    -0.206 F 
ATOM     78  C   UNL A   1      37.793  32.858  37.383  1.00  0.00     0.006 A 
ENDBRANCH  50  71
BRANCH  62  79
ATOM     79  C   UNL A   1      43.171  26.284  34.241  1.00  0.00     0.057 A 
ATOM     80  C   UNL A   1      44.454  25.718  34.196  1.00  0.00     0.134 A 
ATOM     81  C   UNL A   1      42.212  25.520  34.943  1.00  0.00     0.134 A 
ATOM     82  F   UNL A   1      45.508  26.391  33.714  1.00  0.00    -0.206 F 
ATOM     83  C   UNL A   1      44.736  24.443  34.703  1.00  0.00     0.040 A 
ATOM     84  C   UNL A   1      42.500  24.279  35.518  1.00  0.00     0.040 A 
ATOM     85  F   UNL A   1      40.957  25.952  35.131  1.00  0.00    -0.206 F 
ATOM     86  C   UNL A   1      43.759  23.721  35.372  1.00  0.00     0.006 A 
ENDBRANCH  62  79
ENDBRANCH  36  37
ENDBRANCH  28  31
ENDBRANCH  26  27
ENDBRANCH  25  26
ENDBRANCH  24  25
ENDBRANCH   1  24
TORSDOF 15
ENDMDL
MODEL 3
REMARK VINA RESULT:     -11.5      3.631      9.108
REMARK SMILES Cc1ccc(/C=C2/SC(=O)N(CC(=O)NCCCCCCNC(=O)c3ccc(-c4c5nc(c(-c6c(F)cccc6F)c6ccc([nH]6)c(-c6c(F)cccc6F)c6nc(c(-c7c(F)cccc7F)c7ccc4[nH]7)C=C6)C=C5)cc3)C2=O)cc1
REMARK SMILES IDX 18 1 17 2 16 3 15 4 13 5 14 6 12 8 11 9 6 10 7 11 8 12 79 13
REMARK SMILES IDX 9 14 80 15 10 16 5 17 1 18 2 19 3 20 82 21 4 22 81 23 19 24
REMARK SMILES IDX 20 25 21 26 22 27 23 28 24 30 25 31 26 32 78 33 27 34 77 35
REMARK SMILES IDX 28 36 29 37 30 38 71 39 31 40 76 41 70 42 72 43 32 44 75 45
REMARK SMILES IDX 69 46 68 47 33 49 59 50 42 51 58 52 43 53 46 54 57 55 73 56
REMARK SMILES IDX 44 57 45 58 56 60 74 61 47 62 34 63 35 64 40 65 36 66 37 67
REMARK SMILES IDX 39 68 41 69 38 70 60 71 61 72 66 73 62 74 63 75 65 76 67 77
REMARK SMILES IDX 64 78 48 79 49 80 54 81 50 82 51 83 53 84 55 85 52 86
REMARK H PARENT 15 7 22 29 72 48 46 59
REMARK Flexibility Score: inf
ROOT
ATOM      1  C   UNL A   1      35.180  20.909  24.971  1.00  0.00     0.002 C 
ENDROOT
BRANCH   1   2
ATOM      2  C   UNL A   1      33.910  20.236  25.515  1.00  0.00     0.021 C 
BRANCH   2   3
ATOM      3  C   UNL A   1      32.612  20.694  24.853  1.00  0.00     0.116 C 
BRANCH   3   4
ATOM      4  N   UNL A   1      31.765  21.423  25.767  1.00  0.00    -0.355 N 
ATOM      5  C   UNL A   1      31.811  22.733  26.139  1.00  0.00     0.240 C 
ATOM      6  O   UNL A   1      30.805  23.199  26.683  1.00  0.00    -0.273 OA
ATOM      7  H   UNL A   1      31.047  20.894  26.184  1.00  0.00     0.163 HD
BRANCH   5   8
ATOM      8  C   UNL A   1      32.993  23.631  25.759  1.00  0.00     0.229 C 
BRANCH   8   9
ATOM      9  N   UNL A   1      32.625  24.688  24.833  1.00  0.00    -0.259 N 
ATOM     10  C   UNL A   1      32.262  28.239  24.129  1.00  0.00     0.029 C 
ATOM     11  C   UNL A   1      32.241  26.898  24.133  1.00  0.00     0.083 C 
ATOM     12  S   UNL A   1      31.793  25.953  22.760  1.00  0.00    -0.022 SA
ATOM     13  C   UNL A   1      32.604  25.991  25.263  1.00  0.00     0.268 C 
ATOM     14  C   UNL A   1      32.126  24.439  23.585  1.00  0.00     0.294 C 
ATOM     15  O   UNL A   1      32.832  26.339  26.410  1.00  0.00    -0.268 OA
ATOM     16  O   UNL A   1      31.929  23.356  23.073  1.00  0.00    -0.261 OA
BRANCH  10  17
ATOM     17  C   UNL A   1      32.661  29.034  25.292  1.00  0.00    -0.024 A 
ATOM     18  C   UNL A   1      34.041  31.792  28.291  1.00  0.00     0.044 C 
ATOM     19  C   UNL A   1      33.537  30.792  27.294  1.00  0.00    -0.051 A 
ATOM     20  C   UNL A   1      34.414  29.846  26.748  1.00  0.00     0.004 A 
ATOM     21  C   UNL A   1      32.204  30.812  26.872  1.00  0.00     0.004 A 
ATOM     22  C   UNL A   1      33.980  28.971  25.750  1.00  0.00     0.008 A 
ATOM     23  C   UNL A   1      31.765  29.930  25.884  1.00  0.00     0.008 A 
ENDBRANCH  10  17
ENDBRANCH   8   9
ENDBRANCH   5   8
ENDBRANCH   3   4
ENDBRANCH   2   3
ENDBRANCH   1   2
BRANCH   1  24
ATOM     24  C   UNL A   1      36.464  20.066  25.003  1.00  0.00     0.002 C 
BRANCH  24  25
ATOM     25  C   UNL A   1      37.768  20.831  24.785  1.00  0.00     0.021 C 
BRANCH  25  26
ATOM     26  C   UNL A   1      37.978  21.995  25.738  1.00  0.00     0.116 C 
BRANCH  26  27
ATOM     27  N   UNL A   1      39.288  21.992  26.384  1.00  0.00    -0.352 N 
ATOM     28  C   UNL A   1      40.069  23.044  26.833  1.00  0.00     0.251 C 
ATOM     29  H   UNL A   1      39.679  21.099  26.521  1.00  0.00     0.163 HD
ATOM     30  O   UNL A   1      41.162  22.819  27.342  1.00  0.00    -0.269 OA
BRANCH  28  31
ATOM     31  C   UNL A   1      39.503  24.415  26.889  1.00  0.00     0.039 A 
ATOM     32  C   UNL A   1      40.195  25.384  26.150  1.00  0.00     0.014 A 
ATOM     33  C   UNL A   1      38.691  24.786  27.950  1.00  0.00     0.014 A 
ATOM     34  C   UNL A   1      40.399  26.630  26.716  1.00  0.00     0.010 A 
ATOM     35  C   UNL A   1      39.009  25.952  28.593  1.00  0.00     0.010 A 
ATOM     36  C   UNL A   1      39.936  26.820  28.010  1.00  0.00    -0.014 A 
BRANCH  36  37
ATOM     37  C   UNL A   1      40.322  27.923  28.857  1.00  0.00     0.031 A 
ATOM     38  C   UNL A   1      39.390  29.050  28.918  1.00  0.00     0.074 A 
ATOM     39  C   UNL A   1      41.392  27.753  29.664  1.00  0.00     0.049 A 
ATOM     40  N   UNL A   1      39.674  30.209  29.383  1.00  0.00    -0.248 NA
ATOM     41  C   UNL A   1      38.033  28.965  28.377  1.00  0.00     0.031 C 
ATOM     42  C   UNL A   1      41.800  28.535  30.825  1.00  0.00     0.029 A 
ATOM     43  N   UNL A   1      42.472  26.890  29.439  1.00  0.00    -0.354 N 
ATOM     44  C   UNL A   1      38.485  30.892  29.522  1.00  0.00     0.074 A 
ATOM     45  C   UNL A   1      37.535  30.147  28.740  1.00  0.00     0.031 C 
ATOM     46  C   UNL A   1      43.120  28.353  31.026  1.00  0.00     0.029 A 
ATOM     47  C   UNL A   1      43.616  27.574  29.902  1.00  0.00     0.049 A 
ATOM     48  H   UNL A   1      42.439  25.990  29.039  1.00  0.00     0.167 HD
ATOM     49  C   UNL A   1      38.442  31.894  30.441  1.00  0.00     0.037 A 
ATOM     50  C   UNL A   1      44.544  28.018  29.001  1.00  0.00     0.037 A 
ATOM     51  C   UNL A   1      39.811  32.203  30.876  1.00  0.00     0.049 A 
ATOM     52  C   UNL A   1      44.596  29.530  28.953  1.00  0.00     0.074 A 
ATOM     53  C   UNL A   1      40.540  31.830  31.992  1.00  0.00     0.029 A 
ATOM     54  N   UNL A   1      40.739  32.635  29.926  1.00  0.00    -0.354 N 
ATOM     55  N   UNL A   1      43.592  30.311  29.258  1.00  0.00    -0.248 NA
ATOM     56  C   UNL A   1      45.808  30.274  28.622  1.00  0.00     0.031 C 
ATOM     57  C   UNL A   1      41.920  31.909  31.650  1.00  0.00     0.029 A 
ATOM     58  C   UNL A   1      42.030  32.371  30.348  1.00  0.00     0.049 A 
ATOM     59  H   UNL A   1      40.506  33.068  29.074  1.00  0.00     0.167 HD
ATOM     60  C   UNL A   1      43.997  31.618  29.199  1.00  0.00     0.074 A 
ATOM     61  C   UNL A   1      45.393  31.539  28.800  1.00  0.00     0.031 C 
ATOM     62  C   UNL A   1      43.177  32.672  29.495  1.00  0.00     0.037 A 
BRANCH  49  63
ATOM     63  C   UNL A   1      37.193  32.379  31.161  1.00  0.00     0.057 A 
ATOM     64  C   UNL A   1      36.390  33.373  30.565  1.00  0.00     0.134 A 
ATOM     65  C   UNL A   1      36.774  32.022  32.460  1.00  0.00     0.134 A 
ATOM     66  F   UNL A   1      36.624  33.809  29.320  1.00  0.00    -0.206 F 
ATOM     67  C   UNL A   1      35.312  33.991  31.221  1.00  0.00     0.040 A 
ATOM     68  C   UNL A   1      35.693  32.623  33.123  1.00  0.00     0.040 A 
ATOM     69  F   UNL A   1      37.378  31.084  33.189  1.00  0.00    -0.206 F 
ATOM     70  C   UNL A   1      34.963  33.623  32.510  1.00  0.00     0.006 A 
ENDBRANCH  49  63
BRANCH  50  71
ATOM     71  C   UNL A   1      44.675  27.090  27.835  1.00  0.00     0.057 A 
ATOM     72  C   UNL A   1      44.123  27.511  26.607  1.00  0.00     0.134 A 
ATOM     73  C   UNL A   1      45.673  26.113  27.773  1.00  0.00     0.134 A 
ATOM     74  F   UNL A   1      43.138  28.424  26.591  1.00  0.00    -0.206 F 
ATOM     75  C   UNL A   1      44.673  27.134  25.379  1.00  0.00     0.040 A 
ATOM     76  C   UNL A   1      46.203  25.698  26.544  1.00  0.00     0.040 A 
ATOM     77  F   UNL A   1      46.244  25.646  28.893  1.00  0.00    -0.206 F 
ATOM     78  C   UNL A   1      45.751  26.258  25.349  1.00  0.00     0.006 A 
ENDBRANCH  50  71
BRANCH  62  79
ATOM     79  C   UNL A   1      43.456  34.106  29.103  1.00  0.00     0.057 A 
ATOM     80  C   UNL A   1      43.572  34.550  27.777  1.00  0.00     0.134 A 
ATOM     81  C   UNL A   1      43.479  35.134  30.073  1.00  0.00     0.134 A 
ATOM     82  F   UNL A   1      43.403  33.721  26.737  1.00  0.00    -0.206 F 
ATOM     83  C   UNL A   1      43.810  35.889  27.445  1.00  0.00     0.040 A 
ATOM     84  C   UNL A   1      43.642  36.484  29.749  1.00  0.00     0.040 A 
ATOM     85  F   UNL A   1      43.316  34.882  31.380  1.00  0.00    -0.206 F 
ATOM     86  C   UNL A   1      43.841  36.863  28.433  1.00  0.00     0.006 A 
ENDBRANCH  62  79
ENDBRANCH  36  37
ENDBRANCH  28  31
ENDBRANCH  26  27
ENDBRANCH  25  26
ENDBRANCH  24  25
ENDBRANCH   1  24
TORSDOF 15
ENDMDL
