MODEL 1
REMARK VINA RESULT:     -10.7      0.000      0.000
REMARK SMILES C[C@@H]1C[NH+](CC2(C(=O)NCCCCCCNC(=O)c3ccc(-c4c5nc(c(-c6c(F)cccc6F)c6ccc([nH]6)c(-c6c(F)cccc6F)c6nc(c(-c7c(F)cccc7F)c7ccc4[nH]7)C=C6)C=C5)cc3)CCCC2)C[C@H]1C
REMARK SMILES IDX 12 1 11 2 10 3 9 4 7 5 8 6 6 8 73 9 76 10 74 11 75 12 5 13
REMARK SMILES IDX 4 14 1 15 2 16 3 17 78 18 77 19 79 20 13 22 14 23 15 24
REMARK SMILES IDX 16 25 17 26 18 28 19 29 20 30 72 31 21 32 71 33 22 34 23 35
REMARK SMILES IDX 24 36 65 37 25 38 70 39 64 40 66 41 26 42 69 43 63 44 62 45
REMARK SMILES IDX 27 47 53 48 36 49 52 50 37 51 40 52 51 53 67 54 38 55 39 56
REMARK SMILES IDX 50 58 68 59 41 60 28 61 29 62 34 63 30 64 31 65 33 66 35 67
REMARK SMILES IDX 32 68 54 69 55 70 60 71 56 72 57 73 59 74 61 75 58 76 42 77
REMARK SMILES IDX 43 78 48 79 44 80 45 81 47 82 49 83 46 84
REMARK H PARENT 9 7 4 21 16 27 66 46 40 57
REMARK Flexibility Score: inf
ROOT
ATOM      1  C   UNL A   1      33.846  21.996  24.573  1.00  0.00     0.002 C 
ENDROOT
BRANCH   1   2
ATOM      2  C   UNL A   1      32.831  21.603  23.501  1.00  0.00     0.021 C 
BRANCH   2   3
ATOM      3  C   UNL A   1      31.958  22.757  23.021  1.00  0.00     0.116 C 
BRANCH   3   4
ATOM      4  N   UNL A   1      32.706  23.730  22.260  1.00  0.00    -0.355 N 
ATOM      5  C   UNL A   1      32.924  25.061  22.452  1.00  0.00     0.231 C 
ATOM      6  O   UNL A   1      33.653  25.593  21.608  1.00  0.00    -0.274 OA
ATOM      7  H   UNL A   1      33.140  23.363  21.456  1.00  0.00     0.163 HD
BRANCH   5   8
ATOM      8  C   UNL A   1      32.321  25.867  23.652  1.00  0.00     0.098 C 
ATOM      9  C   UNL A   1      33.055  25.454  24.945  1.00  0.00     0.023 C 
ATOM     10  C   UNL A   1      30.844  25.485  23.852  1.00  0.00     0.023 C 
ATOM     11  C   UNL A   1      32.035  24.883  25.924  1.00  0.00     0.001 C 
ATOM     12  C   UNL A   1      30.660  25.022  25.293  1.00  0.00     0.001 C 
BRANCH   8  13
ATOM     13  C   UNL A   1      32.528  27.392  23.270  1.00  0.00     0.279 C 
BRANCH  13  14
ATOM     14  N   UNL A   1      32.502  28.538  24.179  1.00  0.00    -0.334 N 
ATOM     15  C   UNL A   1      34.529  29.298  27.181  1.00  0.00     0.014 C 
ATOM     16  C   UNL A   1      33.539  28.627  26.247  1.00  0.00     0.049 C 
ATOM     17  C   UNL A   1      33.726  29.019  24.791  1.00  0.00     0.265 C 
ATOM     18  C   UNL A   1      32.069  28.989  26.481  1.00  0.00     0.049 C 
ATOM     19  C   UNL A   1      31.404  28.682  25.129  1.00  0.00     0.265 C 
ATOM     20  C   UNL A   1      31.423  28.247  27.642  1.00  0.00     0.014 C 
ATOM     21  H   UNL A   1      32.311  29.156  23.390  1.00  0.00     0.348 HD
ENDBRANCH  13  14
ENDBRANCH   8  13
ENDBRANCH   5   8
ENDBRANCH   3   4
ENDBRANCH   2   3
ENDBRANCH   1   2
BRANCH   1  22
ATOM     22  C   UNL A   1      35.284  22.191  24.075  1.00  0.00     0.002 C 
BRANCH  22  23
ATOM     23  C   UNL A   1      35.994  23.457  24.567  1.00  0.00     0.021 C 
BRANCH  23  24
ATOM     24  C   UNL A   1      36.509  23.396  26.001  1.00  0.00     0.116 C 
BRANCH  24  25
ATOM     25  N   UNL A   1      37.597  22.445  26.151  1.00  0.00    -0.352 N 
ATOM     26  C   UNL A   1      38.913  22.655  26.459  1.00  0.00     0.251 C 
ATOM     27  H   UNL A   1      37.348  21.503  26.008  1.00  0.00     0.163 HD
ATOM     28  O   UNL A   1      39.723  21.737  26.341  1.00  0.00    -0.269 OA
BRANCH  26  29
ATOM     29  C   UNL A   1      39.372  23.980  26.925  1.00  0.00     0.039 A 
ATOM     30  C   UNL A   1      39.957  24.848  26.000  1.00  0.00     0.014 A 
ATOM     31  C   UNL A   1      39.275  24.349  28.271  1.00  0.00     0.014 A 
ATOM     32  C   UNL A   1      40.410  26.101  26.415  1.00  0.00     0.010 A 
ATOM     33  C   UNL A   1      39.667  25.624  28.672  1.00  0.00     0.010 A 
ATOM     34  C   UNL A   1      40.249  26.506  27.750  1.00  0.00    -0.014 A 
BRANCH  34  35
ATOM     35  C   UNL A   1      40.699  27.848  28.193  1.00  0.00     0.031 A 
ATOM     36  C   UNL A   1      42.161  28.195  28.195  1.00  0.00     0.074 A 
ATOM     37  C   UNL A   1      39.791  28.739  28.637  1.00  0.00     0.049 A 
ATOM     38  N   UNL A   1      42.747  29.307  28.567  1.00  0.00    -0.248 NA
ATOM     39  C   UNL A   1      43.092  27.149  27.743  1.00  0.00     0.031 C 
ATOM     40  C   UNL A   1      38.349  28.501  28.730  1.00  0.00     0.029 A 
ATOM     41  N   UNL A   1      39.948  30.022  29.094  1.00  0.00    -0.354 N 
ATOM     42  C   UNL A   1      44.109  29.087  28.409  1.00  0.00     0.074 A 
ATOM     43  C   UNL A   1      44.267  27.723  27.954  1.00  0.00     0.031 C 
ATOM     44  C   UNL A   1      37.751  29.612  29.188  1.00  0.00     0.029 A 
ATOM     45  C   UNL A   1      38.767  30.628  29.446  1.00  0.00     0.049 A 
ATOM     46  H   UNL A   1      40.824  30.466  29.164  1.00  0.00     0.167 HD
ATOM     47  C   UNL A   1      45.134  29.951  28.607  1.00  0.00     0.037 A 
ATOM     48  C   UNL A   1      38.532  31.865  29.921  1.00  0.00     0.037 A 
ATOM     49  C   UNL A   1      44.971  31.317  29.029  1.00  0.00     0.049 A 
ATOM     50  C   UNL A   1      39.684  32.808  30.115  1.00  0.00     0.074 A 
ATOM     51  C   UNL A   1      45.939  32.293  29.187  1.00  0.00     0.029 A 
ATOM     52  N   UNL A   1      43.757  31.899  29.363  1.00  0.00    -0.354 N 
ATOM     53  N   UNL A   1      40.960  32.612  29.891  1.00  0.00    -0.248 NA
ATOM     54  C   UNL A   1      39.360  34.150  30.620  1.00  0.00     0.031 C 
ATOM     55  C   UNL A   1      45.316  33.457  29.652  1.00  0.00     0.029 A 
ATOM     56  C   UNL A   1      43.954  33.216  29.746  1.00  0.00     0.049 A 
ATOM     57  H   UNL A   1      42.885  31.444  29.332  1.00  0.00     0.167 HD
ATOM     58  C   UNL A   1      41.590  33.809  30.205  1.00  0.00     0.074 A 
ATOM     59  C   UNL A   1      40.552  34.731  30.617  1.00  0.00     0.031 C 
ATOM     60  C   UNL A   1      42.909  34.118  30.156  1.00  0.00     0.037 A 
BRANCH  47  61
ATOM     61  C   UNL A   1      46.524  29.439  28.362  1.00  0.00     0.057 A 
ATOM     62  C   UNL A   1      47.280  28.839  29.378  1.00  0.00     0.134 A 
ATOM     63  C   UNL A   1      47.103  29.525  27.091  1.00  0.00     0.134 A 
ATOM     64  F   UNL A   1      46.788  28.737  30.622  1.00  0.00    -0.206 F 
ATOM     65  C   UNL A   1      48.574  28.369  29.145  1.00  0.00     0.040 A 
ATOM     66  C   UNL A   1      48.386  29.036  26.839  1.00  0.00     0.040 A 
ATOM     67  F   UNL A   1      46.433  30.083  26.073  1.00  0.00    -0.206 F 
ATOM     68  C   UNL A   1      49.129  28.462  27.870  1.00  0.00     0.006 A 
ENDBRANCH  47  61
BRANCH  48  69
ATOM     69  C   UNL A   1      37.142  32.296  30.209  1.00  0.00     0.057 A 
ATOM     70  C   UNL A   1      36.560  32.058  31.460  1.00  0.00     0.134 A 
ATOM     71  C   UNL A   1      36.362  32.946  29.246  1.00  0.00     0.134 A 
ATOM     72  F   UNL A   1      37.253  31.423  32.416  1.00  0.00    -0.206 F 
ATOM     73  C   UNL A   1      35.247  32.437  31.738  1.00  0.00     0.040 A 
ATOM     74  C   UNL A   1      35.054  33.350  29.519  1.00  0.00     0.040 A 
ATOM     75  F   UNL A   1      36.865  33.209  28.031  1.00  0.00    -0.206 F 
ATOM     76  C   UNL A   1      34.491  33.089  30.767  1.00  0.00     0.006 A 
ENDBRANCH  48  69
BRANCH  60  77
ATOM     77  C   UNL A   1      43.293  35.518  30.537  1.00  0.00     0.057 A 
ATOM     78  C   UNL A   1      43.404  36.537  29.583  1.00  0.00     0.134 A 
ATOM     79  C   UNL A   1      43.535  35.851  31.875  1.00  0.00     0.134 A 
ATOM     80  F   UNL A   1      43.198  36.277  28.283  1.00  0.00    -0.206 F 
ATOM     81  C   UNL A   1      43.770  37.834  29.944  1.00  0.00     0.040 A 
ATOM     82  C   UNL A   1      43.877  37.151  32.252  1.00  0.00     0.040 A 
ATOM     83  F   UNL A   1      43.437  34.923  32.838  1.00  0.00    -0.206 F 
ATOM     84  C   UNL A   1      44.003  38.145  31.282  1.00  0.00     0.006 A 
ENDBRANCH  60  77
ENDBRANCH  34  35
ENDBRANCH  26  29
ENDBRANCH  24  25
ENDBRANCH  23  24
ENDBRANCH  22  23
ENDBRANCH   1  22
TORSDOF 15
ENDMDL
MODEL 2
REMARK VINA RESULT:     -10.7      3.222      8.335
REMARK SMILES C[C@@H]1C[NH+](CC2(C(=O)NCCCCCCNC(=O)c3ccc(-c4c5nc(c(-c6c(F)cccc6F)c6ccc([nH]6)c(-c6c(F)cccc6F)c6nc(c(-c7c(F)cccc7F)c7ccc4[nH]7)C=C6)C=C5)cc3)CCCC2)C[C@H]1C
REMARK SMILES IDX 12 1 11 2 10 3 9 4 7 5 8 6 6 8 73 9 76 10 74 11 75 12 5 13
REMARK SMILES IDX 4 14 1 15 2 16 3 17 78 18 77 19 79 20 13 22 14 23 15 24
REMARK SMILES IDX 16 25 17 26 18 28 19 29 20 30 72 31 21 32 71 33 22 34 23 35
REMARK SMILES IDX 24 36 65 37 25 38 70 39 64 40 66 41 26 42 69 43 63 44 62 45
REMARK SMILES IDX 27 47 53 48 36 49 52 50 37 51 40 52 51 53 67 54 38 55 39 56
REMARK SMILES IDX 50 58 68 59 41 60 28 61 29 62 34 63 30 64 31 65 33 66 35 67
REMARK SMILES IDX 32 68 54 69 55 70 60 71 56 72 57 73 59 74 61 75 58 76 42 77
REMARK SMILES IDX 43 78 48 79 44 80 45 81 47 82 49 83 46 84
REMARK H PARENT 9 7 4 21 16 27 66 46 40 57
REMARK Flexibility Score: inf
ROOT
ATOM      1  C   UNL A   1      31.261  27.864  27.080  1.00  0.00     0.002 C 
ENDROOT
BRANCH   1   2
ATOM      2  C   UNL A   1      31.219  27.760  25.556  1.00  0.00     0.021 C 
BRANCH   2   3
ATOM      3  C   UNL A   1      30.651  26.443  25.040  1.00  0.00     0.116 C 
BRANCH   3   4
ATOM      4  N   UNL A   1      30.582  25.435  26.071  1.00  0.00    -0.355 N 
ATOM      5  C   UNL A   1      31.408  24.397  26.385  1.00  0.00     0.231 C 
ATOM      6  O   UNL A   1      31.057  23.737  27.369  1.00  0.00    -0.274 OA
ATOM      7  H   UNL A   1      29.793  25.512  26.656  1.00  0.00     0.163 HD
BRANCH   5   8
ATOM      8  C   UNL A   1      32.713  24.066  25.587  1.00  0.00     0.098 C 
ATOM      9  C   UNL A   1      33.738  25.195  25.819  1.00  0.00     0.023 C 
ATOM     10  C   UNL A   1      32.417  24.054  24.077  1.00  0.00     0.023 C 
ATOM     11  C   UNL A   1      34.092  25.818  24.473  1.00  0.00     0.001 C 
ATOM     12  C   UNL A   1      33.371  25.028  23.395  1.00  0.00     0.001 C 
BRANCH   8  13
ATOM     13  C   UNL A   1      33.189  22.658  26.142  1.00  0.00     0.279 C 
BRANCH  13  14
ATOM     14  N   UNL A   1      34.477  22.007  25.899  1.00  0.00    -0.334 N 
ATOM     15  C   UNL A   1      37.929  23.338  26.019  1.00  0.00     0.014 C 
ATOM     16  C   UNL A   1      36.492  23.104  25.589  1.00  0.00     0.049 C 
ATOM     17  C   UNL A   1      35.655  22.406  26.647  1.00  0.00     0.265 C 
ATOM     18  C   UNL A   1      36.312  22.174  24.385  1.00  0.00     0.049 C 
ATOM     19  C   UNL A   1      34.869  21.666  24.537  1.00  0.00     0.265 C 
ATOM     20  C   UNL A   1      36.568  22.840  23.041  1.00  0.00     0.014 C 
ATOM     21  H   UNL A   1      34.127  21.157  26.343  1.00  0.00     0.348 HD
ENDBRANCH  13  14
ENDBRANCH   8  13
ENDBRANCH   5   8
ENDBRANCH   3   4
ENDBRANCH   2   3
ENDBRANCH   1   2
BRANCH   1  22
ATOM     22  C   UNL A   1      32.532  28.499  27.660  1.00  0.00     0.002 C 
BRANCH  22  23
ATOM     23  C   UNL A   1      33.618  28.863  26.643  1.00  0.00     0.021 C 
BRANCH  23  24
ATOM     24  C   UNL A   1      35.011  29.071  27.227  1.00  0.00     0.116 C 
BRANCH  24  25
ATOM     25  N   UNL A   1      34.991  29.942  28.389  1.00  0.00    -0.352 N 
ATOM     26  C   UNL A   1      35.984  30.242  29.281  1.00  0.00     0.251 C 
ATOM     27  H   UNL A   1      34.129  30.386  28.561  1.00  0.00     0.163 HD
ATOM     28  O   UNL A   1      35.713  30.848  30.317  1.00  0.00    -0.269 OA
BRANCH  26  29
ATOM     29  C   UNL A   1      37.379  29.838  29.015  1.00  0.00     0.039 A 
ATOM     30  C   UNL A   1      38.164  29.401  30.084  1.00  0.00     0.014 A 
ATOM     31  C   UNL A   1      37.930  29.934  27.732  1.00  0.00     0.014 A 
ATOM     32  C   UNL A   1      39.489  29.022  29.863  1.00  0.00     0.010 A 
ATOM     33  C   UNL A   1      39.231  29.495  27.500  1.00  0.00     0.010 A 
ATOM     34  C   UNL A   1      40.026  29.047  28.566  1.00  0.00    -0.014 A 
BRANCH  34  35
ATOM     35  C   UNL A   1      41.424  28.617  28.316  1.00  0.00     0.031 A 
ATOM     36  C   UNL A   1      41.726  27.186  27.970  1.00  0.00     0.074 A 
ATOM     37  C   UNL A   1      42.425  29.509  28.446  1.00  0.00     0.049 A 
ATOM     38  N   UNL A   1      42.884  26.618  27.739  1.00  0.00    -0.248 NA
ATOM     39  C   UNL A   1      40.581  26.264  27.897  1.00  0.00     0.031 C 
ATOM     40  C   UNL A   1      42.261  30.913  28.826  1.00  0.00     0.029 A 
ATOM     41  N   UNL A   1      43.777  29.364  28.273  1.00  0.00    -0.354 N 
ATOM     42  C   UNL A   1      42.608  25.277  27.511  1.00  0.00     0.074 A 
ATOM     43  C   UNL A   1      41.181  25.105  27.677  1.00  0.00     0.031 C 
ATOM     44  C   UNL A   1      43.465  31.508  28.830  1.00  0.00     0.029 A 
ATOM     45  C   UNL A   1      44.484  30.522  28.482  1.00  0.00     0.049 A 
ATOM     46  H   UNL A   1      44.201  28.511  28.024  1.00  0.00     0.167 HD
ATOM     47  C   UNL A   1      43.464  24.282  27.173  1.00  0.00     0.037 A 
ATOM     48  C   UNL A   1      45.805  30.763  28.397  1.00  0.00     0.037 A 
ATOM     49  C   UNL A   1      44.878  24.463  26.976  1.00  0.00     0.049 A 
ATOM     50  C   UNL A   1      46.731  29.646  28.004  1.00  0.00     0.074 A 
ATOM     51  C   UNL A   1      45.818  23.537  26.561  1.00  0.00     0.029 A 
ATOM     52  N   UNL A   1      45.557  25.656  27.183  1.00  0.00    -0.354 N 
ATOM     53  N   UNL A   1      46.448  28.399  27.719  1.00  0.00    -0.248 NA
ATOM     54  C   UNL A   1      48.161  29.976  27.913  1.00  0.00     0.031 C 
ATOM     55  C   UNL A   1      47.072  24.158  26.553  1.00  0.00     0.029 A 
ATOM     56  C   UNL A   1      46.906  25.483  26.925  1.00  0.00     0.049 A 
ATOM     57  H   UNL A   1      45.140  26.500  27.470  1.00  0.00     0.167 HD
ATOM     58  C   UNL A   1      47.657  27.800  27.392  1.00  0.00     0.074 A 
ATOM     59  C   UNL A   1      48.673  28.826  27.498  1.00  0.00     0.031 C 
ATOM     60  C   UNL A   1      47.904  26.515  27.037  1.00  0.00     0.037 A 
BRANCH  47  61
ATOM     61  C   UNL A   1      42.887  22.909  26.991  1.00  0.00     0.057 A 
ATOM     62  C   UNL A   1      42.528  22.107  28.083  1.00  0.00     0.134 A 
ATOM     63  C   UNL A   1      42.666  22.390  25.709  1.00  0.00     0.134 A 
ATOM     64  F   UNL A   1      42.727  22.539  29.337  1.00  0.00    -0.206 F 
ATOM     65  C   UNL A   1      41.997  20.828  27.907  1.00  0.00     0.040 A 
ATOM     66  C   UNL A   1      42.111  21.123  25.520  1.00  0.00     0.040 A 
ATOM     67  F   UNL A   1      42.982  23.107  24.621  1.00  0.00    -0.206 F 
ATOM     68  C   UNL A   1      41.781  20.335  26.621  1.00  0.00     0.006 A 
ENDBRANCH  47  61
BRANCH  48  69
ATOM     69  C   UNL A   1      46.329  32.127  28.653  1.00  0.00     0.057 A 
ATOM     70  C   UNL A   1      46.437  33.061  27.616  1.00  0.00     0.134 A 
ATOM     71  C   UNL A   1      46.736  32.529  29.930  1.00  0.00     0.134 A 
ATOM     72  F   UNL A   1      46.079  32.727  26.367  1.00  0.00    -0.206 F 
ATOM     73  C   UNL A   1      46.948  34.340  27.835  1.00  0.00     0.040 A 
ATOM     74  C   UNL A   1      47.228  33.813  30.168  1.00  0.00     0.040 A 
ATOM     75  F   UNL A   1      46.649  31.682  30.966  1.00  0.00    -0.206 F 
ATOM     76  C   UNL A   1      47.342  34.721  29.117  1.00  0.00     0.006 A 
ENDBRANCH  48  69
BRANCH  60  77
ATOM     77  C   UNL A   1      49.326  26.162  26.716  1.00  0.00     0.057 A 
ATOM     78  C   UNL A   1      50.179  25.595  27.671  1.00  0.00     0.134 A 
ATOM     79  C   UNL A   1      49.841  26.374  25.431  1.00  0.00     0.134 A 
ATOM     80  F   UNL A   1      49.749  25.380  28.925  1.00  0.00    -0.206 F 
ATOM     81  C   UNL A   1      51.503  25.278  27.368  1.00  0.00     0.040 A 
ATOM     82  C   UNL A   1      51.157  26.037  25.108  1.00  0.00     0.040 A 
ATOM     83  F   UNL A   1      49.074  26.906  24.468  1.00  0.00    -0.206 F 
ATOM     84  C   UNL A   1      51.994  25.494  26.082  1.00  0.00     0.006 A 
ENDBRANCH  60  77
ENDBRANCH  34  35
ENDBRANCH  26  29
ENDBRANCH  24  25
ENDBRANCH  23  24
ENDBRANCH  22  23
ENDBRANCH   1  22
TORSDOF 15
ENDMDL
MODEL 3
REMARK VINA RESULT:     -10.6      3.808      8.295
REMARK SMILES C[C@@H]1C[NH+](CC2(C(=O)NCCCCCCNC(=O)c3ccc(-c4c5nc(c(-c6c(F)cccc6F)c6ccc([nH]6)c(-c6c(F)cccc6F)c6nc(c(-c7c(F)cccc7F)c7ccc4[nH]7)C=C6)C=C5)cc3)CCCC2)C[C@H]1C
REMARK SMILES IDX 12 1 11 2 10 3 9 4 7 5 8 6 6 8 73 9 76 10 74 11 75 12 5 13
REMARK SMILES IDX 4 14 1 15 2 16 3 17 78 18 77 19 79 20 13 22 14 23 15 24
REMARK SMILES IDX 16 25 17 26 18 28 19 29 20 30 72 31 21 32 71 33 22 34 23 35
REMARK SMILES IDX 24 36 65 37 25 38 70 39 64 40 66 41 26 42 69 43 63 44 62 45
REMARK SMILES IDX 27 47 53 48 36 49 52 50 37 51 40 52 51 53 67 54 38 55 39 56
REMARK SMILES IDX 50 58 68 59 41 60 28 61 29 62 34 63 30 64 31 65 33 66 35 67
REMARK SMILES IDX 32 68 54 69 55 70 60 71 56 72 57 73 59 74 61 75 58 76 42 77
REMARK SMILES IDX 43 78 48 79 44 80 45 81 47 82 49 83 46 84
REMARK H PARENT 9 7 4 21 16 27 66 46 40 57
REMARK Flexibility Score: inf
ROOT
ATOM      1  C   UNL A   1      31.375  27.929  23.634  1.00  0.00     0.002 C 
ENDROOT
BRANCH   1   2
ATOM      2  C   UNL A   1      30.384  27.302  24.614  1.00  0.00     0.021 C 
BRANCH   2   3
ATOM      3  C   UNL A   1      30.167  25.808  24.406  1.00  0.00     0.116 C 
BRANCH   3   4
ATOM      4  N   UNL A   1      30.256  25.064  25.641  1.00  0.00    -0.355 N 
ATOM      5  C   UNL A   1      31.157  24.143  26.083  1.00  0.00     0.231 C 
ATOM      6  O   UNL A   1      30.947  23.721  27.225  1.00  0.00    -0.274 OA
ATOM      7  H   UNL A   1      29.534  25.260  26.281  1.00  0.00     0.163 HD
BRANCH   5   8
ATOM      8  C   UNL A   1      32.379  23.658  25.233  1.00  0.00     0.098 C 
ATOM      9  C   UNL A   1      33.289  24.869  24.937  1.00  0.00     0.023 C 
ATOM     10  C   UNL A   1      31.897  23.136  23.869  1.00  0.00     0.023 C 
ATOM     11  C   UNL A   1      33.395  25.042  23.426  1.00  0.00     0.001 C 
ATOM     12  C   UNL A   1      32.638  23.897  22.775  1.00  0.00     0.001 C 
BRANCH   8  13
ATOM     13  C   UNL A   1      33.081  22.545  26.118  1.00  0.00     0.279 C 
BRANCH  13  14
ATOM     14  N   UNL A   1      34.450  22.045  25.981  1.00  0.00    -0.334 N 
ATOM     15  C   UNL A   1      37.697  23.821  26.044  1.00  0.00     0.014 C 
ATOM     16  C   UNL A   1      36.319  23.357  25.605  1.00  0.00     0.049 C 
ATOM     17  C   UNL A   1      35.537  22.670  26.710  1.00  0.00     0.265 C 
ATOM     18  C   UNL A   1      36.307  22.292  24.505  1.00  0.00     0.049 C 
ATOM     19  C   UNL A   1      34.935  21.618  24.674  1.00  0.00     0.265 C 
ATOM     20  C   UNL A   1      36.530  22.841  23.104  1.00  0.00     0.014 C 
ATOM     21  H   UNL A   1      34.194  21.208  26.505  1.00  0.00     0.348 HD
ENDBRANCH  13  14
ENDBRANCH   8  13
ENDBRANCH   5   8
ENDBRANCH   3   4
ENDBRANCH   2   3
ENDBRANCH   1   2
BRANCH   1  22
ATOM     22  C   UNL A   1      32.302  28.997  24.230  1.00  0.00     0.002 C 
BRANCH  22  23
ATOM     23  C   UNL A   1      33.670  28.500  24.708  1.00  0.00     0.021 C 
BRANCH  23  24
ATOM     24  C   UNL A   1      33.939  28.675  26.198  1.00  0.00     0.116 C 
BRANCH  24  25
ATOM     25  N   UNL A   1      33.780  30.055  26.623  1.00  0.00    -0.352 N 
ATOM     26  C   UNL A   1      34.504  30.789  27.522  1.00  0.00     0.251 C 
ATOM     27  H   UNL A   1      33.035  30.538  26.197  1.00  0.00     0.163 HD
ATOM     28  O   UNL A   1      34.088  31.885  27.895  1.00  0.00    -0.269 OA
BRANCH  26  29
ATOM     29  C   UNL A   1      35.781  30.272  28.057  1.00  0.00     0.039 A 
ATOM     30  C   UNL A   1      35.779  29.653  29.309  1.00  0.00     0.014 A 
ATOM     31  C   UNL A   1      36.980  30.438  27.357  1.00  0.00     0.014 A 
ATOM     32  C   UNL A   1      36.973  29.165  29.842  1.00  0.00     0.010 A 
ATOM     33  C   UNL A   1      38.159  29.893  27.860  1.00  0.00     0.010 A 
ATOM     34  C   UNL A   1      38.168  29.263  29.113  1.00  0.00    -0.014 A 
BRANCH  34  35
ATOM     35  C   UNL A   1      39.436  28.719  29.658  1.00  0.00     0.031 A 
ATOM     36  C   UNL A   1      40.060  29.334  30.880  1.00  0.00     0.074 A 
ATOM     37  C   UNL A   1      40.047  27.699  29.026  1.00  0.00     0.049 A 
ATOM     38  N   UNL A   1      41.174  29.011  31.490  1.00  0.00    -0.248 NA
ATOM     39  C   UNL A   1      39.356  30.477  31.482  1.00  0.00     0.031 C 
ATOM     40  C   UNL A   1      39.564  27.052  27.804  1.00  0.00     0.029 A 
ATOM     41  N   UNL A   1      41.206  27.030  29.323  1.00  0.00    -0.354 N 
ATOM     42  C   UNL A   1      41.309  29.919  32.532  1.00  0.00     0.074 A 
ATOM     43  C   UNL A   1      40.191  30.833  32.445  1.00  0.00     0.031 C 
ATOM     44  C   UNL A   1      40.406  26.061  27.472  1.00  0.00     0.029 A 
ATOM     45  C   UNL A   1      41.500  26.021  28.439  1.00  0.00     0.049 A 
ATOM     46  H   UNL A   1      41.774  27.252  30.096  1.00  0.00     0.167 HD
ATOM     47  C   UNL A   1      42.268  29.972  33.489  1.00  0.00     0.037 A 
ATOM     48  C   UNL A   1      42.533  25.160  28.414  1.00  0.00     0.037 A 
ATOM     49  C   UNL A   1      43.360  29.041  33.592  1.00  0.00     0.049 A 
ATOM     50  C   UNL A   1      43.573  25.229  29.496  1.00  0.00     0.074 A 
ATOM     51  C   UNL A   1      44.342  28.965  34.565  1.00  0.00     0.029 A 
ATOM     52  N   UNL A   1      43.618  28.023  32.685  1.00  0.00    -0.354 N 
ATOM     53  N   UNL A   1      43.649  26.045  30.518  1.00  0.00    -0.248 NA
ATOM     54  C   UNL A   1      44.667  24.250  29.423  1.00  0.00     0.031 C 
ATOM     55  C   UNL A   1      45.214  27.924  34.228  1.00  0.00     0.029 A 
ATOM     56  C   UNL A   1      44.753  27.327  33.065  1.00  0.00     0.049 A 
ATOM     57  H   UNL A   1      43.073  27.825  31.890  1.00  0.00     0.167 HD
ATOM     58  C   UNL A   1      44.784  25.666  31.224  1.00  0.00     0.074 A 
ATOM     59  C   UNL A   1      45.353  24.535  30.521  1.00  0.00     0.031 C 
ATOM     60  C   UNL A   1      45.307  26.205  32.352  1.00  0.00     0.037 A 
BRANCH  47  61
ATOM     61  C   UNL A   1      42.171  31.075  34.502  1.00  0.00     0.057 A 
ATOM     62  C   UNL A   1      41.416  30.938  35.674  1.00  0.00     0.134 A 
ATOM     63  C   UNL A   1      42.860  32.279  34.315  1.00  0.00     0.134 A 
ATOM     64  F   UNL A   1      40.721  29.814  35.908  1.00  0.00    -0.206 F 
ATOM     65  C   UNL A   1      41.326  31.970  36.611  1.00  0.00     0.040 A 
ATOM     66  C   UNL A   1      42.799  33.309  35.256  1.00  0.00     0.040 A 
ATOM     67  F   UNL A   1      43.604  32.475  33.217  1.00  0.00    -0.206 F 
ATOM     68  C   UNL A   1      42.025  33.158  36.405  1.00  0.00     0.006 A 
ENDBRANCH  47  61
BRANCH  48  69
ATOM     69  C   UNL A   1      42.614  24.130  27.349  1.00  0.00     0.057 A 
ATOM     70  C   UNL A   1      42.098  22.845  27.552  1.00  0.00     0.134 A 
ATOM     71  C   UNL A   1      43.209  24.401  26.112  1.00  0.00     0.134 A 
ATOM     72  F   UNL A   1      41.532  22.522  28.724  1.00  0.00    -0.206 F 
ATOM     73  C   UNL A   1      42.187  21.859  26.569  1.00  0.00     0.040 A 
ATOM     74  C   UNL A   1      43.285  23.431  25.112  1.00  0.00     0.040 A 
ATOM     75  F   UNL A   1      43.715  25.616  25.855  1.00  0.00    -0.206 F 
ATOM     76  C   UNL A   1      42.779  22.152  25.342  1.00  0.00     0.006 A 
ENDBRANCH  48  69
BRANCH  60  77
ATOM     77  C   UNL A   1      46.544  25.558  32.902  1.00  0.00     0.057 A 
ATOM     78  C   UNL A   1      47.825  25.949  32.491  1.00  0.00     0.134 A 
ATOM     79  C   UNL A   1      46.452  24.548  33.867  1.00  0.00     0.134 A 
ATOM     80  F   UNL A   1      47.979  26.902  31.559  1.00  0.00    -0.206 F 
ATOM     81  C   UNL A   1      48.971  25.337  33.000  1.00  0.00     0.040 A 
ATOM     82  C   UNL A   1      47.591  23.945  34.402  1.00  0.00     0.040 A 
ATOM     83  F   UNL A   1      45.255  24.134  34.309  1.00  0.00    -0.206 F 
ATOM     84  C   UNL A   1      48.855  24.335  33.963  1.00  0.00     0.006 A 
ENDBRANCH  60  77
ENDBRANCH  34  35
ENDBRANCH  26  29
ENDBRANCH  24  25
ENDBRANCH  23  24
ENDBRANCH  22  23
ENDBRANCH   1  22
TORSDOF 15
ENDMDL
