MODEL 1
REMARK VINA RESULT:     -11.3      0.000      0.000
REMARK SMILES Cc1ccc(S(=O)(=O)n2cc(C(=O)C(=O)NCC(=O)NCC(=O)NCCCCCCNC(=O)c3ccc(-c4c5nc(c(-c6c(F)cccc6F)c6ccc([nH]6)c(-c6c(F)cccc6F)c6nc(c(-c7c(F)cccc7F)c7ccc4[nH]7)C=C6)C=C5)cc3)c3ccccc32)cc1
REMARK SMILES IDX 25 1 24 2 22 3 23 4 21 6 20 7 18 8 19 9 17 11 16 12 14 13
REMARK SMILES IDX 15 14 12 16 13 17 11 18 9 19 10 20 93 21 88 22 92 23 89 24
REMARK SMILES IDX 91 25 90 26 6 27 7 28 8 29 5 30 1 31 2 32 3 33 95 34 4 35
REMARK SMILES IDX 94 36 26 37 27 38 28 39 29 40 30 41 31 42 32 43 33 45 34 46
REMARK SMILES IDX 35 47 87 48 36 49 86 50 37 51 38 52 39 53 80 54 40 55 85 56
REMARK SMILES IDX 79 57 81 58 41 59 84 60 78 61 77 62 42 64 68 65 51 66 67 67
REMARK SMILES IDX 52 68 55 69 66 70 82 71 53 72 54 73 65 75 83 76 56 77 43 78
REMARK SMILES IDX 44 79 49 80 45 81 46 82 48 83 50 84 47 85 69 86 70 87 75 88
REMARK SMILES IDX 71 89 72 90 74 91 76 92 73 93 57 94 58 95 63 96 59 97 60 98
REMARK SMILES IDX 62 99 64 100 61 101
REMARK H PARENT 24 5 20 10 16 15 31 44 81 63 55 74
REMARK Flexibility Score: inf
ROOT
ATOM      1  C   UNL A   1      39.151  20.803  25.383  1.00  0.00     0.116 C 
ENDROOT
BRANCH   1   2
ATOM      2  N   UNL A   1      38.696  22.097  25.833  1.00  0.00    -0.355 N 
ATOM      3  C   UNL A   1      37.608  22.815  25.426  1.00  0.00     0.239 C 
ATOM      4  O   UNL A   1      37.268  23.776  26.121  1.00  0.00    -0.273 OA
ATOM      5  H   UNL A   1      39.247  22.520  26.530  1.00  0.00     0.163 HD
BRANCH   3   6
ATOM      6  C   UNL A   1      36.726  22.349  24.252  1.00  0.00     0.216 C 
BRANCH   6   7
ATOM      7  N   UNL A   1      35.722  21.353  24.594  1.00  0.00    -0.346 N 
ATOM      8  C   UNL A   1      34.511  21.480  25.204  1.00  0.00     0.239 C 
ATOM      9  O   UNL A   1      33.877  20.449  25.444  1.00  0.00    -0.273 OA
ATOM     10  H   UNL A   1      35.957  20.431  24.339  1.00  0.00     0.164 HD
BRANCH   8  11
ATOM     11  C   UNL A   1      33.926  22.857  25.568  1.00  0.00     0.216 C 
BRANCH  11  12
ATOM     12  N   UNL A   1      32.755  22.829  26.448  1.00  0.00    -0.340 N 
ATOM     13  C   UNL A   1      31.576  23.549  26.433  1.00  0.00     0.292 C 
ATOM     14  O   UNL A   1      30.772  23.379  27.343  1.00  0.00    -0.265 OA
ATOM     15  H   UNL A   1      32.818  22.177  27.183  1.00  0.00     0.164 HD
BRANCH  13  16
ATOM     16  C   UNL A   1      31.278  24.546  25.292  1.00  0.00     0.252 C 
ATOM     17  O   UNL A   1      30.633  24.126  24.336  1.00  0.00    -0.283 OA
BRANCH  16  18
ATOM     18  C   UNL A   1      31.720  25.946  25.305  1.00  0.00     0.054 A 
ATOM     19  N   UNL A   1      32.092  28.086  25.832  1.00  0.00    -0.240 N 
ATOM     20  C   UNL A   1      31.518  26.916  26.272  1.00  0.00     0.117 A 
ATOM     21  C   UNL A   1      32.685  27.920  24.599  1.00  0.00     0.065 A 
ATOM     22  C   UNL A   1      32.461  26.585  24.245  1.00  0.00     0.012 A 
ATOM     23  C   UNL A   1      33.363  28.807  23.741  1.00  0.00     0.028 A 
ATOM     24  C   UNL A   1      32.944  26.130  22.997  1.00  0.00     0.011 A 
ATOM     25  C   UNL A   1      33.801  28.330  22.502  1.00  0.00     0.002 A 
ATOM     26  C   UNL A   1      33.600  27.008  22.134  1.00  0.00     0.001 A 
BRANCH  19  27
ATOM     27  S   UNL A   1      31.982  29.572  26.661  1.00  0.00     0.268 S 
ATOM     28  O   UNL A   1      31.247  29.280  27.872  1.00  0.00    -0.201 OA
ATOM     29  O   UNL A   1      31.502  30.534  25.679  1.00  0.00    -0.201 OA
BRANCH  27  30
ATOM     30  C   UNL A   1      33.622  30.068  27.126  1.00  0.00     0.088 A 
ATOM     31  C   UNL A   1      37.448  31.441  28.538  1.00  0.00     0.044 C 
ATOM     32  C   UNL A   1      36.121  30.962  28.027  1.00  0.00    -0.051 A 
ATOM     33  C   UNL A   1      35.044  31.852  27.934  1.00  0.00     0.005 A 
ATOM     34  C   UNL A   1      35.941  29.629  27.639  1.00  0.00     0.005 A 
ATOM     35  C   UNL A   1      33.798  31.408  27.491  1.00  0.00     0.022 A 
ATOM     36  C   UNL A   1      34.699  29.181  27.176  1.00  0.00     0.022 A 
ENDBRANCH  27  30
ENDBRANCH  19  27
ENDBRANCH  16  18
ENDBRANCH  13  16
ENDBRANCH  11  12
ENDBRANCH   8  11
ENDBRANCH   6   7
ENDBRANCH   3   6
ENDBRANCH   1   2
BRANCH   1  37
ATOM     37  C   UNL A   1      39.791  19.965  26.480  1.00  0.00     0.021 C 
BRANCH  37  38
ATOM     38  C   UNL A   1      41.283  19.698  26.279  1.00  0.00     0.002 C 
BRANCH  38  39
ATOM     39  C   UNL A   1      42.232  20.470  27.208  1.00  0.00     0.002 C 
BRANCH  39  40
ATOM     40  C   UNL A   1      42.049  21.987  27.244  1.00  0.00     0.021 C 
BRANCH  40  41
ATOM     41  C   UNL A   1      42.343  22.678  25.925  1.00  0.00     0.116 C 
BRANCH  41  42
ATOM     42  N   UNL A   1      43.106  21.853  25.000  1.00  0.00    -0.352 N 
ATOM     43  C   UNL A   1      44.400  21.976  24.532  1.00  0.00     0.251 C 
ATOM     44  H   UNL A   1      42.616  21.074  24.647  1.00  0.00     0.163 HD
ATOM     45  O   UNL A   1      44.793  21.214  23.653  1.00  0.00    -0.269 OA
BRANCH  43  46
ATOM     46  C   UNL A   1      45.376  22.857  25.228  1.00  0.00     0.039 A 
ATOM     47  C   UNL A   1      45.597  22.552  26.580  1.00  0.00     0.014 A 
ATOM     48  C   UNL A   1      45.639  24.132  24.751  1.00  0.00     0.014 A 
ATOM     49  C   UNL A   1      45.683  23.588  27.495  1.00  0.00     0.010 A 
ATOM     50  C   UNL A   1      45.555  25.163  25.647  1.00  0.00     0.010 A 
ATOM     51  C   UNL A   1      45.502  24.876  27.011  1.00  0.00    -0.014 A 
BRANCH  51  52
ATOM     52  C   UNL A   1      45.284  26.032  27.844  1.00  0.00     0.031 A 
ATOM     53  C   UNL A   1      43.889  26.409  28.085  1.00  0.00     0.074 A 
ATOM     54  C   UNL A   1      46.350  26.581  28.464  1.00  0.00     0.049 A 
ATOM     55  N   UNL A   1      43.495  27.599  28.348  1.00  0.00    -0.248 NA
ATOM     56  C   UNL A   1      42.791  25.451  27.967  1.00  0.00     0.031 C 
ATOM     57  C   UNL A   1      46.370  27.521  29.576  1.00  0.00     0.029 A 
ATOM     58  N   UNL A   1      47.689  26.494  28.064  1.00  0.00    -0.354 N 
ATOM     59  C   UNL A   1      42.183  27.504  28.763  1.00  0.00     0.074 A 
ATOM     60  C   UNL A   1      41.755  26.186  28.373  1.00  0.00     0.031 C 
ATOM     61  C   UNL A   1      47.569  28.133  29.607  1.00  0.00     0.029 A 
ATOM     62  C   UNL A   1      48.298  27.714  28.419  1.00  0.00     0.049 A 
ATOM     63  H   UNL A   1      48.121  25.728  27.621  1.00  0.00     0.167 HD
ATOM     64  C   UNL A   1      41.688  28.489  29.563  1.00  0.00     0.037 A 
ATOM     65  C   UNL A   1      48.750  28.561  27.445  1.00  0.00     0.037 A 
ATOM     66  C   UNL A   1      42.727  29.494  29.787  1.00  0.00     0.049 A 
ATOM     67  C   UNL A   1      47.968  29.853  27.412  1.00  0.00     0.074 A 
ATOM     68  C   UNL A   1      43.657  29.630  30.806  1.00  0.00     0.029 A 
ATOM     69  N   UNL A   1      43.185  30.261  28.725  1.00  0.00    -0.354 N 
ATOM     70  N   UNL A   1      46.734  29.967  27.821  1.00  0.00    -0.248 NA
ATOM     71  C   UNL A   1      48.530  31.122  26.959  1.00  0.00     0.031 C 
ATOM     72  C   UNL A   1      44.708  30.450  30.327  1.00  0.00     0.029 A 
ATOM     73  C   UNL A   1      44.408  30.825  29.027  1.00  0.00     0.049 A 
ATOM     74  H   UNL A   1      42.703  30.386  27.874  1.00  0.00     0.167 HD
ATOM     75  C   UNL A   1      46.335  31.274  27.707  1.00  0.00     0.074 A 
ATOM     76  C   UNL A   1      47.497  31.956  27.168  1.00  0.00     0.031 C 
ATOM     77  C   UNL A   1      45.087  31.693  28.077  1.00  0.00     0.037 A 
BRANCH  64  78
ATOM     78  C   UNL A   1      40.438  28.389  30.406  1.00  0.00     0.057 A 
ATOM     79  C   UNL A   1      39.168  28.500  29.801  1.00  0.00     0.134 A 
ATOM     80  C   UNL A   1      40.395  28.220  31.800  1.00  0.00     0.134 A 
ATOM     81  F   UNL A   1      39.023  28.578  28.471  1.00  0.00    -0.206 F 
ATOM     82  C   UNL A   1      37.971  28.533  30.526  1.00  0.00     0.040 A 
ATOM     83  C   UNL A   1      39.205  28.288  32.544  1.00  0.00     0.040 A 
ATOM     84  F   UNL A   1      41.487  27.922  32.512  1.00  0.00    -0.206 F 
ATOM     85  C   UNL A   1      37.987  28.453  31.907  1.00  0.00     0.006 A 
ENDBRANCH  64  78
BRANCH  65  86
ATOM     86  C   UNL A   1      49.257  27.821  26.251  1.00  0.00     0.057 A 
ATOM     87  C   UNL A   1      48.412  27.740  25.127  1.00  0.00     0.134 A 
ATOM     88  C   UNL A   1      50.627  27.650  26.027  1.00  0.00     0.134 A 
ATOM     89  F   UNL A   1      47.083  27.867  25.275  1.00  0.00    -0.206 F 
ATOM     90  C   UNL A   1      48.918  27.684  23.826  1.00  0.00     0.040 A 
ATOM     91  C   UNL A   1      51.142  27.568  24.727  1.00  0.00     0.040 A 
ATOM     92  F   UNL A   1      51.499  27.699  27.044  1.00  0.00    -0.206 F 
ATOM     93  C   UNL A   1      50.293  27.649  23.622  1.00  0.00     0.006 A 
ENDBRANCH  65  86
BRANCH  77  94
ATOM     94  C   UNL A   1      44.427  32.995  27.682  1.00  0.00     0.057 A 
ATOM     95  C   UNL A   1      44.194  34.061  28.563  1.00  0.00     0.134 A 
ATOM     96  C   UNL A   1      44.136  33.281  26.325  1.00  0.00     0.134 A 
ATOM     97  F   UNL A   1      44.546  34.002  29.854  1.00  0.00    -0.206 F 
ATOM     98  C   UNL A   1      43.640  35.278  28.147  1.00  0.00     0.040 A 
ATOM     99  C   UNL A   1      43.654  34.516  25.888  1.00  0.00     0.040 A 
ATOM    100  F   UNL A   1      44.335  32.385  25.348  1.00  0.00    -0.206 F 
ATOM    101  C   UNL A   1      43.379  35.515  26.805  1.00  0.00     0.006 A 
ENDBRANCH  77  94
ENDBRANCH  51  52
ENDBRANCH  43  46
ENDBRANCH  41  42
ENDBRANCH  40  41
ENDBRANCH  39  40
ENDBRANCH  38  39
ENDBRANCH  37  38
ENDBRANCH   1  37
TORSDOF 20
ENDMDL
MODEL 2
REMARK VINA RESULT:     -10.8      5.388      8.415
REMARK SMILES Cc1ccc(S(=O)(=O)n2cc(C(=O)C(=O)NCC(=O)NCC(=O)NCCCCCCNC(=O)c3ccc(-c4c5nc(c(-c6c(F)cccc6F)c6ccc([nH]6)c(-c6c(F)cccc6F)c6nc(c(-c7c(F)cccc7F)c7ccc4[nH]7)C=C6)C=C5)cc3)c3ccccc32)cc1
REMARK SMILES IDX 25 1 24 2 22 3 23 4 21 6 20 7 18 8 19 9 17 11 16 12 14 13
REMARK SMILES IDX 15 14 12 16 13 17 11 18 9 19 10 20 93 21 88 22 92 23 89 24
REMARK SMILES IDX 91 25 90 26 6 27 7 28 8 29 5 30 1 31 2 32 3 33 95 34 4 35
REMARK SMILES IDX 94 36 26 37 27 38 28 39 29 40 30 41 31 42 32 43 33 45 34 46
REMARK SMILES IDX 35 47 87 48 36 49 86 50 37 51 38 52 39 53 80 54 40 55 85 56
REMARK SMILES IDX 79 57 81 58 41 59 84 60 78 61 77 62 42 64 68 65 51 66 67 67
REMARK SMILES IDX 52 68 55 69 66 70 82 71 53 72 54 73 65 75 83 76 56 77 43 78
REMARK SMILES IDX 44 79 49 80 45 81 46 82 48 83 50 84 47 85 69 86 70 87 75 88
REMARK SMILES IDX 71 89 72 90 74 91 76 92 73 93 57 94 58 95 63 96 59 97 60 98
REMARK SMILES IDX 62 99 64 100 61 101
REMARK H PARENT 24 5 20 10 16 15 31 44 81 63 55 74
REMARK Flexibility Score: inf
ROOT
ATOM      1  C   UNL A   1      44.946  24.787  25.791  1.00  0.00     0.116 C 
ENDROOT
BRANCH   1   2
ATOM      2  N   UNL A   1      44.938  23.721  24.818  1.00  0.00    -0.355 N 
ATOM      3  C   UNL A   1      43.936  22.847  24.509  1.00  0.00     0.239 C 
ATOM      4  O   UNL A   1      44.057  22.186  23.474  1.00  0.00    -0.273 OA
ATOM      5  H   UNL A   1      45.771  23.610  24.305  1.00  0.00     0.163 HD
BRANCH   3   6
ATOM      6  C   UNL A   1      42.622  22.806  25.313  1.00  0.00     0.216 C 
BRANCH   6   7
ATOM      7  N   UNL A   1      42.493  21.681  26.225  1.00  0.00    -0.346 N 
ATOM      8  C   UNL A   1      41.392  21.004  26.655  1.00  0.00     0.239 C 
ATOM      9  O   UNL A   1      41.555  20.120  27.501  1.00  0.00    -0.273 OA
ATOM     10  H   UNL A   1      43.345  21.352  26.593  1.00  0.00     0.164 HD
BRANCH   8  11
ATOM     11  C   UNL A   1      39.987  21.302  26.100  1.00  0.00     0.216 C 
BRANCH  11  12
ATOM     12  N   UNL A   1      39.381  22.553  26.562  1.00  0.00    -0.340 N 
ATOM     13  C   UNL A   1      38.212  23.197  26.204  1.00  0.00     0.292 C 
ATOM     14  O   UNL A   1      37.966  24.289  26.703  1.00  0.00    -0.265 OA
ATOM     15  H   UNL A   1      39.901  23.020  27.256  1.00  0.00     0.164 HD
BRANCH  13  16
ATOM     16  C   UNL A   1      37.236  22.551  25.197  1.00  0.00     0.252 C 
ATOM     17  O   UNL A   1      37.629  21.555  24.597  1.00  0.00    -0.283 OA
BRANCH  16  18
ATOM     18  C   UNL A   1      35.885  23.064  24.938  1.00  0.00     0.054 A 
ATOM     19  N   UNL A   1      34.090  24.067  24.062  1.00  0.00    -0.240 N 
ATOM     20  C   UNL A   1      35.418  23.781  23.849  1.00  0.00     0.117 A 
ATOM     21  C   UNL A   1      33.651  23.546  25.261  1.00  0.00     0.065 A 
ATOM     22  C   UNL A   1      34.762  22.915  25.831  1.00  0.00     0.012 A 
ATOM     23  C   UNL A   1      32.408  23.593  25.922  1.00  0.00     0.028 A 
ATOM     24  C   UNL A   1      34.612  22.304  27.097  1.00  0.00     0.011 A 
ATOM     25  C   UNL A   1      32.305  23.002  27.185  1.00  0.00     0.002 A 
ATOM     26  C   UNL A   1      33.389  22.361  27.766  1.00  0.00     0.001 A 
BRANCH  19  27
ATOM     27  S   UNL A   1      33.145  25.036  23.025  1.00  0.00     0.268 S 
ATOM     28  O   UNL A   1      31.938  24.275  22.787  1.00  0.00    -0.201 OA
ATOM     29  O   UNL A   1      34.033  25.434  21.942  1.00  0.00    -0.201 OA
BRANCH  27  30
ATOM     30  C   UNL A   1      32.694  26.510  23.905  1.00  0.00     0.088 A 
ATOM     31  C   UNL A   1      31.815  30.269  25.808  1.00  0.00     0.044 C 
ATOM     32  C   UNL A   1      32.118  28.949  25.161  1.00  0.00    -0.051 A 
ATOM     33  C   UNL A   1      33.442  28.601  24.868  1.00  0.00     0.005 A 
ATOM     34  C   UNL A   1      31.090  28.052  24.845  1.00  0.00     0.005 A 
ATOM     35  C   UNL A   1      33.731  27.390  24.237  1.00  0.00     0.022 A 
ATOM     36  C   UNL A   1      31.374  26.829  24.229  1.00  0.00     0.022 A 
ENDBRANCH  27  30
ENDBRANCH  19  27
ENDBRANCH  16  18
ENDBRANCH  13  16
ENDBRANCH  11  12
ENDBRANCH   8  11
ENDBRANCH   6   7
ENDBRANCH   3   6
ENDBRANCH   1   2
BRANCH   1  37
ATOM     37  C   UNL A   1      44.170  26.021  25.354  1.00  0.00     0.021 C 
BRANCH  37  38
ATOM     38  C   UNL A   1      43.265  26.611  26.436  1.00  0.00     0.002 C 
BRANCH  38  39
ATOM     39  C   UNL A   1      43.650  28.011  26.938  1.00  0.00     0.002 C 
BRANCH  39  40
ATOM     40  C   UNL A   1      43.785  28.168  28.453  1.00  0.00     0.021 C 
BRANCH  40  41
ATOM     41  C   UNL A   1      45.214  28.346  28.932  1.00  0.00     0.116 C 
BRANCH  41  42
ATOM     42  N   UNL A   1      46.197  27.728  28.055  1.00  0.00    -0.352 N 
ATOM     43  C   UNL A   1      47.027  26.640  28.249  1.00  0.00     0.251 C 
ATOM     44  H   UNL A   1      46.287  28.158  27.173  1.00  0.00     0.163 HD
ATOM     45  O   UNL A   1      47.869  26.372  27.396  1.00  0.00    -0.269 OA
BRANCH  43  46
ATOM     46  C   UNL A   1      46.765  25.675  29.350  1.00  0.00     0.039 A 
ATOM     47  C   UNL A   1      45.533  25.007  29.277  1.00  0.00     0.014 A 
ATOM     48  C   UNL A   1      47.417  25.801  30.566  1.00  0.00     0.014 A 
ATOM     49  C   UNL A   1      44.794  24.837  30.436  1.00  0.00     0.010 A 
ATOM     50  C   UNL A   1      46.641  25.795  31.694  1.00  0.00     0.010 A 
ATOM     51  C   UNL A   1      45.311  25.384  31.601  1.00  0.00    -0.014 A 
BRANCH  51  52
ATOM     52  C   UNL A   1      44.563  25.544  32.824  1.00  0.00     0.031 A 
ATOM     53  C   UNL A   1      44.102  26.900  33.132  1.00  0.00     0.074 A 
ATOM     54  C   UNL A   1      44.207  24.435  33.504  1.00  0.00     0.049 A 
ATOM     55  N   UNL A   1      43.882  27.340  34.315  1.00  0.00    -0.248 NA
ATOM     56  C   UNL A   1      43.923  27.917  32.097  1.00  0.00     0.031 C 
ATOM     57  C   UNL A   1      43.211  24.294  34.556  1.00  0.00     0.029 A 
ATOM     58  N   UNL A   1      44.841  23.187  33.462  1.00  0.00    -0.354 N 
ATOM     59  C   UNL A   1      43.222  28.543  34.180  1.00  0.00     0.074 A 
ATOM     60  C   UNL A   1      43.400  28.922  32.802  1.00  0.00     0.031 C 
ATOM     61  C   UNL A   1      43.462  23.165  35.246  1.00  0.00     0.029 A 
ATOM     62  C   UNL A   1      44.721  22.628  34.751  1.00  0.00     0.049 A 
ATOM     63  H   UNL A   1      45.283  22.779  32.683  1.00  0.00     0.167 HD
ATOM     64  C   UNL A   1      42.439  28.967  35.210  1.00  0.00     0.037 A 
ATOM     65  C   UNL A   1      45.837  22.431  35.516  1.00  0.00     0.037 A 
ATOM     66  C   UNL A   1      42.507  27.993  36.298  1.00  0.00     0.049 A 
ATOM     67  C   UNL A   1      45.843  23.312  36.744  1.00  0.00     0.074 A 
ATOM     68  C   UNL A   1      41.697  26.910  36.603  1.00  0.00     0.029 A 
ATOM     69  N   UNL A   1      43.703  27.800  36.975  1.00  0.00    -0.354 N 
ATOM     70  N   UNL A   1      45.223  24.458  36.820  1.00  0.00    -0.248 NA
ATOM     71  C   UNL A   1      46.509  22.949  37.991  1.00  0.00     0.031 C 
ATOM     72  C   UNL A   1      42.439  26.034  37.434  1.00  0.00     0.029 A 
ATOM     73  C   UNL A   1      43.688  26.594  37.648  1.00  0.00     0.049 A 
ATOM     74  H   UNL A   1      44.457  28.435  36.977  1.00  0.00     0.167 HD
ATOM     75  C   UNL A   1      45.381  24.979  38.079  1.00  0.00     0.074 A 
ATOM     76  C   UNL A   1      46.189  23.994  38.774  1.00  0.00     0.031 C 
ATOM     77  C   UNL A   1      44.825  26.171  38.452  1.00  0.00     0.037 A 
BRANCH  64  78
ATOM     78  C   UNL A   1      41.372  30.033  35.119  1.00  0.00     0.057 A 
ATOM     79  C   UNL A   1      40.261  29.849  34.267  1.00  0.00     0.134 A 
ATOM     80  C   UNL A   1      41.374  31.263  35.799  1.00  0.00     0.134 A 
ATOM     81  F   UNL A   1      40.056  28.698  33.612  1.00  0.00    -0.206 F 
ATOM     82  C   UNL A   1      39.294  30.834  34.042  1.00  0.00     0.040 A 
ATOM     83  C   UNL A   1      40.431  32.275  35.555  1.00  0.00     0.040 A 
ATOM     84  F   UNL A   1      42.248  31.532  36.774  1.00  0.00    -0.206 F 
ATOM     85  C   UNL A   1      39.389  32.065  34.667  1.00  0.00     0.006 A 
ENDBRANCH  64  78
BRANCH  65  86
ATOM     86  C   UNL A   1      47.030  22.086  34.688  1.00  0.00     0.057 A 
ATOM     87  C   UNL A   1      48.012  23.081  34.513  1.00  0.00     0.134 A 
ATOM     88  C   UNL A   1      47.434  20.759  34.509  1.00  0.00     0.134 A 
ATOM     89  F   UNL A   1      47.686  24.377  34.642  1.00  0.00    -0.206 F 
ATOM     90  C   UNL A   1      49.364  22.765  34.357  1.00  0.00     0.040 A 
ATOM     91  C   UNL A   1      48.785  20.434  34.328  1.00  0.00     0.040 A 
ATOM     92  F   UNL A   1      46.560  19.753  34.644  1.00  0.00    -0.206 F 
ATOM     93  C   UNL A   1      49.759  21.432  34.316  1.00  0.00     0.006 A 
ENDBRANCH  65  86
BRANCH  77  94
ATOM     94  C   UNL A   1      45.209  26.998  39.659  1.00  0.00     0.057 A 
ATOM     95  C   UNL A   1      44.745  26.759  40.960  1.00  0.00     0.134 A 
ATOM     96  C   UNL A   1      46.209  27.998  39.566  1.00  0.00     0.134 A 
ATOM     97  F   UNL A   1      43.904  25.754  41.237  1.00  0.00    -0.206 F 
ATOM     98  C   UNL A   1      45.174  27.505  42.064  1.00  0.00     0.040 A 
ATOM     99  C   UNL A   1      46.698  28.697  40.672  1.00  0.00     0.040 A 
ATOM    100  F   UNL A   1      46.785  28.327  38.401  1.00  0.00    -0.206 F 
ATOM    101  C   UNL A   1      46.162  28.470  41.927  1.00  0.00     0.006 A 
ENDBRANCH  77  94
ENDBRANCH  51  52
ENDBRANCH  43  46
ENDBRANCH  41  42
ENDBRANCH  40  41
ENDBRANCH  39  40
ENDBRANCH  38  39
ENDBRANCH  37  38
ENDBRANCH   1  37
TORSDOF 20
ENDMDL
MODEL 3
REMARK VINA RESULT:     -10.8      5.384      7.923
REMARK SMILES Cc1ccc(S(=O)(=O)n2cc(C(=O)C(=O)NCC(=O)NCC(=O)NCCCCCCNC(=O)c3ccc(-c4c5nc(c(-c6c(F)cccc6F)c6ccc([nH]6)c(-c6c(F)cccc6F)c6nc(c(-c7c(F)cccc7F)c7ccc4[nH]7)C=C6)C=C5)cc3)c3ccccc32)cc1
REMARK SMILES IDX 25 1 24 2 22 3 23 4 21 6 20 7 18 8 19 9 17 11 16 12 14 13
REMARK SMILES IDX 15 14 12 16 13 17 11 18 9 19 10 20 93 21 88 22 92 23 89 24
REMARK SMILES IDX 91 25 90 26 6 27 7 28 8 29 5 30 1 31 2 32 3 33 95 34 4 35
REMARK SMILES IDX 94 36 26 37 27 38 28 39 29 40 30 41 31 42 32 43 33 45 34 46
REMARK SMILES IDX 35 47 87 48 36 49 86 50 37 51 38 52 39 53 80 54 40 55 85 56
REMARK SMILES IDX 79 57 81 58 41 59 84 60 78 61 77 62 42 64 68 65 51 66 67 67
REMARK SMILES IDX 52 68 55 69 66 70 82 71 53 72 54 73 65 75 83 76 56 77 43 78
REMARK SMILES IDX 44 79 49 80 45 81 46 82 48 83 50 84 47 85 69 86 70 87 75 88
REMARK SMILES IDX 71 89 72 90 74 91 76 92 73 93 57 94 58 95 63 96 59 97 60 98
REMARK SMILES IDX 62 99 64 100 61 101
REMARK H PARENT 24 5 20 10 16 15 31 44 81 63 55 74
REMARK Flexibility Score: inf
ROOT
ATOM      1  C   UNL A   1      41.767  25.288  25.721  1.00  0.00     0.116 C 
ENDROOT
BRANCH   1   2
ATOM      2  N   UNL A   1      41.097  25.513  26.979  1.00  0.00    -0.355 N 
ATOM      3  C   UNL A   1      39.852  25.117  27.373  1.00  0.00     0.239 C 
ATOM      4  O   UNL A   1      39.582  25.198  28.574  1.00  0.00    -0.273 OA
ATOM      5  H   UNL A   1      41.610  26.023  27.646  1.00  0.00     0.163 HD
BRANCH   3   6
ATOM      6  C   UNL A   1      38.878  24.426  26.399  1.00  0.00     0.216 C 
BRANCH   6   7
ATOM      7  N   UNL A   1      39.171  23.029  26.121  1.00  0.00    -0.346 N 
ATOM      8  C   UNL A   1      38.356  22.004  25.748  1.00  0.00     0.239 C 
ATOM      9  O   UNL A   1      38.856  20.880  25.645  1.00  0.00    -0.273 OA
ATOM     10  H   UNL A   1      40.120  22.783  26.217  1.00  0.00     0.164 HD
BRANCH   8  11
ATOM     11  C   UNL A   1      36.864  22.225  25.437  1.00  0.00     0.216 C 
BRANCH  11  12
ATOM     12  N   UNL A   1      35.936  21.822  26.497  1.00  0.00    -0.340 N 
ATOM     13  C   UNL A   1      34.555  21.809  26.555  1.00  0.00     0.292 C 
ATOM     14  O   UNL A   1      34.015  21.486  27.607  1.00  0.00    -0.265 OA
ATOM     15  H   UNL A   1      36.376  21.502  27.317  1.00  0.00     0.164 HD
BRANCH  13  16
ATOM     16  C   UNL A   1      33.713  22.193  25.320  1.00  0.00     0.252 C 
ATOM     17  O   UNL A   1      33.242  21.274  24.656  1.00  0.00    -0.283 OA
BRANCH  16  18
ATOM     18  C   UNL A   1      33.453  23.581  24.917  1.00  0.00     0.054 A 
ATOM     19  N   UNL A   1      33.023  25.774  24.888  1.00  0.00    -0.240 N 
ATOM     20  C   UNL A   1      33.263  24.699  25.711  1.00  0.00     0.117 A 
ATOM     21  C   UNL A   1      33.061  25.406  23.559  1.00  0.00     0.065 A 
ATOM     22  C   UNL A   1      33.326  24.032  23.553  1.00  0.00     0.012 A 
ATOM     23  C   UNL A   1      32.856  26.124  22.366  1.00  0.00     0.028 A 
ATOM     24  C   UNL A   1      33.396  23.368  22.307  1.00  0.00     0.011 A 
ATOM     25  C   UNL A   1      32.905  25.429  21.155  1.00  0.00     0.002 A 
ATOM     26  C   UNL A   1      33.176  24.068  21.121  1.00  0.00     0.001 A 
BRANCH  19  27
ATOM     27  S   UNL A   1      32.621  27.333  25.448  1.00  0.00     0.268 S 
ATOM     28  O   UNL A   1      33.711  28.184  25.024  1.00  0.00    -0.201 OA
ATOM     29  O   UNL A   1      32.273  27.168  26.852  1.00  0.00    -0.201 OA
BRANCH  27  30
ATOM     30  C   UNL A   1      31.154  27.864  24.601  1.00  0.00     0.088 A 
ATOM     31  C   UNL A   1      27.816  29.325  22.310  1.00  0.00     0.044 C 
ATOM     32  C   UNL A   1      28.969  28.814  23.125  1.00  0.00    -0.051 A 
ATOM     33  C   UNL A   1      29.998  29.685  23.503  1.00  0.00     0.005 A 
ATOM     34  C   UNL A   1      29.032  27.471  23.517  1.00  0.00     0.005 A 
ATOM     35  C   UNL A   1      31.090  29.213  24.233  1.00  0.00     0.022 A 
ATOM     36  C   UNL A   1      30.114  26.995  24.264  1.00  0.00     0.022 A 
ENDBRANCH  27  30
ENDBRANCH  19  27
ENDBRANCH  16  18
ENDBRANCH  13  16
ENDBRANCH  11  12
ENDBRANCH   8  11
ENDBRANCH   6   7
ENDBRANCH   3   6
ENDBRANCH   1   2
BRANCH   1  37
ATOM     37  C   UNL A   1      42.850  24.221  25.787  1.00  0.00     0.021 C 
BRANCH  37  38
ATOM     38  C   UNL A   1      44.165  24.616  25.112  1.00  0.00     0.002 C 
BRANCH  38  39
ATOM     39  C   UNL A   1      45.370  23.714  25.417  1.00  0.00     0.002 C 
BRANCH  39  40
ATOM     40  C   UNL A   1      46.746  24.305  25.109  1.00  0.00     0.021 C 
BRANCH  40  41
ATOM     41  C   UNL A   1      47.538  24.704  26.341  1.00  0.00     0.116 C 
BRANCH  41  42
ATOM     42  N   UNL A   1      47.205  26.031  26.836  1.00  0.00    -0.352 N 
ATOM     43  C   UNL A   1      46.573  26.432  27.997  1.00  0.00     0.251 C 
ATOM     44  H   UNL A   1      47.475  26.770  26.243  1.00  0.00     0.163 HD
ATOM     45  O   UNL A   1      46.292  27.618  28.146  1.00  0.00    -0.269 OA
BRANCH  43  46
ATOM     46  C   UNL A   1      46.435  25.497  29.147  1.00  0.00     0.039 A 
ATOM     47  C   UNL A   1      45.266  24.722  29.148  1.00  0.00     0.014 A 
ATOM     48  C   UNL A   1      47.114  25.734  30.332  1.00  0.00     0.014 A 
ATOM     49  C   UNL A   1      44.584  24.540  30.340  1.00  0.00     0.010 A 
ATOM     50  C   UNL A   1      46.380  25.711  31.487  1.00  0.00     0.010 A 
ATOM     51  C   UNL A   1      45.090  25.180  31.462  1.00  0.00    -0.014 A 
BRANCH  51  52
ATOM     52  C   UNL A   1      44.373  25.329  32.703  1.00  0.00     0.031 A 
ATOM     53  C   UNL A   1      43.843  26.664  32.994  1.00  0.00     0.074 A 
ATOM     54  C   UNL A   1      44.103  24.219  33.422  1.00  0.00     0.049 A 
ATOM     55  N   UNL A   1      43.634  27.120  34.173  1.00  0.00    -0.248 NA
ATOM     56  C   UNL A   1      43.573  27.642  31.941  1.00  0.00     0.031 C 
ATOM     57  C   UNL A   1      43.151  24.049  34.509  1.00  0.00     0.029 A 
ATOM     58  N   UNL A   1      44.807  23.009  33.389  1.00  0.00    -0.354 N 
ATOM     59  C   UNL A   1      42.902  28.280  34.030  1.00  0.00     0.074 A 
ATOM     60  C   UNL A   1      43.015  28.633  32.639  1.00  0.00     0.031 C 
ATOM     61  C   UNL A   1      43.488  22.954  35.216  1.00  0.00     0.029 A 
ATOM     62  C   UNL A   1      44.760  22.478  34.694  1.00  0.00     0.049 A 
ATOM     63  H   UNL A   1      45.248  22.607  32.606  1.00  0.00     0.167 HD
ATOM     64  C   UNL A   1      42.128  28.685  35.075  1.00  0.00     0.037 A 
ATOM     65  C   UNL A   1      45.909  22.365  35.427  1.00  0.00     0.037 A 
ATOM     66  C   UNL A   1      42.287  27.745  36.184  1.00  0.00     0.049 A 
ATOM     67  C   UNL A   1      45.902  23.276  36.632  1.00  0.00     0.074 A 
ATOM     68  C   UNL A   1      41.551  26.625  36.541  1.00  0.00     0.029 A 
ATOM     69  N   UNL A   1      43.513  27.638  36.826  1.00  0.00    -0.354 N 
ATOM     70  N   UNL A   1      45.219  24.386  36.701  1.00  0.00    -0.248 NA
ATOM     71  C   UNL A   1      46.627  22.984  37.865  1.00  0.00     0.031 C 
ATOM     72  C   UNL A   1      42.368  25.815  37.368  1.00  0.00     0.029 A 
ATOM     73  C   UNL A   1      43.589  26.451  37.527  1.00  0.00     0.049 A 
ATOM     74  H   UNL A   1      44.227  28.315  36.788  1.00  0.00     0.167 HD
ATOM     75  C   UNL A   1      45.385  24.948  37.941  1.00  0.00     0.074 A 
ATOM     76  C   UNL A   1      46.271  24.029  38.633  1.00  0.00     0.031 C 
ATOM     77  C   UNL A   1      44.773  26.115  38.303  1.00  0.00     0.037 A 
BRANCH  64  78
ATOM     78  C   UNL A   1      40.998  29.685  34.994  1.00  0.00     0.057 A 
ATOM     79  C   UNL A   1      40.973  30.794  35.866  1.00  0.00     0.134 A 
ATOM     80  C   UNL A   1      39.897  29.616  34.123  1.00  0.00     0.134 A 
ATOM     81  F   UNL A   1      41.987  31.060  36.700  1.00  0.00    -0.206 F 
ATOM     82  C   UNL A   1      39.906  31.697  35.930  1.00  0.00     0.040 A 
ATOM     83  C   UNL A   1      38.802  30.493  34.201  1.00  0.00     0.040 A 
ATOM     84  F   UNL A   1      39.844  28.739  33.115  1.00  0.00    -0.206 F 
ATOM     85  C   UNL A   1      38.801  31.535  35.113  1.00  0.00     0.006 A 
ENDBRANCH  64  78
BRANCH  65  86
ATOM     86  C   UNL A   1      47.094  22.068  34.568  1.00  0.00     0.057 A 
ATOM     87  C   UNL A   1      48.030  23.101  34.370  1.00  0.00     0.134 A 
ATOM     88  C   UNL A   1      47.546  20.758  34.378  1.00  0.00     0.134 A 
ATOM     89  F   UNL A   1      47.656  24.383  34.509  1.00  0.00    -0.206 F 
ATOM     90  C   UNL A   1      49.390  22.839  34.180  1.00  0.00     0.040 A 
ATOM     91  C   UNL A   1      48.903  20.487  34.163  1.00  0.00     0.040 A 
ATOM     92  F   UNL A   1      46.716  19.717  34.534  1.00  0.00    -0.206 F 
ATOM     93  C   UNL A   1      49.837  21.523  34.127  1.00  0.00     0.006 A 
ENDBRANCH  65  86
BRANCH  77  94
ATOM     94  C   UNL A   1      45.145  26.994  39.477  1.00  0.00     0.057 A 
ATOM     95  C   UNL A   1      44.827  26.705  40.811  1.00  0.00     0.134 A 
ATOM     96  C   UNL A   1      45.995  28.115  39.305  1.00  0.00     0.134 A 
ATOM     97  F   UNL A   1      44.150  25.601  41.155  1.00  0.00    -0.206 F 
ATOM     98  C   UNL A   1      45.246  27.509  41.879  1.00  0.00     0.040 A 
ATOM     99  C   UNL A   1      46.480  28.879  40.368  1.00  0.00     0.040 A 
ATOM    100  F   UNL A   1      46.424  28.507  38.097  1.00  0.00    -0.206 F 
ATOM    101  C   UNL A   1      46.085  28.593  41.663  1.00  0.00     0.006 A 
ENDBRANCH  77  94
ENDBRANCH  51  52
ENDBRANCH  43  46
ENDBRANCH  41  42
ENDBRANCH  40  41
ENDBRANCH  39  40
ENDBRANCH  38  39
ENDBRANCH  37  38
ENDBRANCH   1  37
TORSDOF 20
ENDMDL
