MODEL 1
REMARK VINA RESULT:     -11.8      0.000      0.000
REMARK SMILES CCC[N@@H+]1CC2(CCN(c3nccnc3C)CC2)C[C@H]1C(=O)NCCCCCCNC(=O)c1ccc(-c2c3nc(c(-c4c(F)cccc4F)c4ccc([nH]4)c(-c4c(F)cccc4F)c4nc(c(-c5c(F)cccc5F)c5ccc2[nH]5)C=C4)C=C3)cc1
REMARK SMILES IDX 26 1 25 2 24 3 23 4 21 5 22 6 20 8 4 9 5 10 6 12 19 13 7 14
REMARK SMILES IDX 18 15 8 16 17 17 9 18 3 19 2 20 1 21 10 22 11 23 15 24 12 25
REMARK SMILES IDX 14 26 16 27 13 28 27 29 28 30 29 31 30 32 31 33 32 35 33 36
REMARK SMILES IDX 34 37 86 38 35 39 85 40 36 41 37 42 38 43 79 44 39 45 84 46
REMARK SMILES IDX 78 47 80 48 40 49 83 50 77 51 76 52 41 54 67 55 50 56 66 57
REMARK SMILES IDX 51 58 54 59 65 60 81 61 52 62 53 63 64 65 82 66 55 67 42 68
REMARK SMILES IDX 43 69 48 70 44 71 45 72 47 73 49 74 46 75 68 76 69 77 74 78
REMARK SMILES IDX 70 79 71 80 73 81 75 82 72 83 56 84 57 85 62 86 58 87 59 88
REMARK SMILES IDX 61 89 63 90 60 91
REMARK H PARENT 23 7 4 11 30 34 80 53 54 64
REMARK Flexibility Score: inf
ROOT
ATOM      1  C   UNL A   1      35.724  21.224  25.882  1.00  0.00     0.002 C 
ENDROOT
BRANCH   1   2
ATOM      2  C   UNL A   1      34.250  21.128  26.276  1.00  0.00     0.021 C 
BRANCH   2   3
ATOM      3  C   UNL A   1      33.916  21.830  27.585  1.00  0.00     0.116 C 
BRANCH   3   4
ATOM      4  N   UNL A   1      32.594  22.372  27.679  1.00  0.00    -0.351 N 
ATOM      5  C   UNL A   1      32.030  23.436  27.048  1.00  0.00     0.278 C 
ATOM      6  O   UNL A   1      30.798  23.516  27.177  1.00  0.00    -0.268 OA
ATOM      7  H   UNL A   1      31.997  21.897  28.302  1.00  0.00     0.163 HD
BRANCH   5   8
ATOM      8  C   UNL A   1      32.772  24.520  26.195  1.00  0.00     0.274 C 
ATOM      9  N   UNL A   1      32.859  24.178  24.761  1.00  0.00    -0.324 N 
ATOM     10  C   UNL A   1      31.916  25.076  24.044  1.00  0.00     0.270 C 
ATOM     11  H   UNL A   1      32.614  23.193  24.664  1.00  0.00     0.348 HD
ATOM     12  C   UNL A   1      31.719  26.346  24.910  1.00  0.00     0.029 C 
ATOM     13  C   UNL A   1      32.352  25.977  26.268  1.00  0.00     0.088 C 
ATOM     14  C   UNL A   1      30.268  26.809  25.215  1.00  0.00     0.034 C 
ATOM     15  C   UNL A   1      32.431  27.546  24.203  1.00  0.00     0.034 C 
ATOM     16  C   UNL A   1      29.518  27.285  23.986  1.00  0.00     0.119 C 
ATOM     17  C   UNL A   1      31.618  28.092  23.002  1.00  0.00     0.119 C 
ATOM     18  N   UNL A   1      30.280  28.408  23.483  1.00  0.00    -0.355 N 
BRANCH   9  19
ATOM     19  C   UNL A   1      34.218  24.252  24.167  1.00  0.00     0.262 C 
BRANCH  19  20
ATOM     20  C   UNL A   1      34.678  23.281  23.061  1.00  0.00     0.058 C 
ATOM     21  C   UNL A   1      36.182  23.198  22.853  1.00  0.00     0.010 C 
ENDBRANCH  19  20
ENDBRANCH   9  19
BRANCH  18  22
ATOM     22  C   UNL A   1      29.587  29.481  22.964  1.00  0.00     0.150 A 
ATOM     23  N   UNL A   1      28.965  29.311  21.774  1.00  0.00    -0.236 NA
ATOM     24  C   UNL A   1      29.523  30.732  23.626  1.00  0.00     0.080 A 
ATOM     25  C   UNL A   1      28.286  30.375  21.285  1.00  0.00     0.133 A 
ATOM     26  N   UNL A   1      28.842  31.798  23.116  1.00  0.00    -0.256 NA
ATOM     27  C   UNL A   1      30.319  31.047  24.859  1.00  0.00     0.071 C 
ATOM     28  C   UNL A   1      28.227  31.589  21.939  1.00  0.00     0.131 A 
ENDBRANCH  18  22
ENDBRANCH   5   8
ENDBRANCH   3   4
ENDBRANCH   2   3
ENDBRANCH   1   2
BRANCH   1  29
ATOM     29  C   UNL A   1      36.170  20.288  24.748  1.00  0.00     0.002 C 
BRANCH  29  30
ATOM     30  C   UNL A   1      37.385  19.404  25.047  1.00  0.00     0.021 C 
BRANCH  30  31
ATOM     31  C   UNL A   1      38.643  20.158  25.469  1.00  0.00     0.116 C 
BRANCH  31  32
ATOM     32  N   UNL A   1      39.774  19.264  25.669  1.00  0.00    -0.352 N 
ATOM     33  C   UNL A   1      41.057  19.542  26.051  1.00  0.00     0.251 C 
ATOM     34  H   UNL A   1      39.586  18.311  25.504  1.00  0.00     0.163 HD
ATOM     35  O   UNL A   1      41.928  18.674  25.951  1.00  0.00    -0.269 OA
BRANCH  33  36
ATOM     36  C   UNL A   1      41.410  20.873  26.581  1.00  0.00     0.039 A 
ATOM     37  C   UNL A   1      41.222  21.132  27.941  1.00  0.00     0.014 A 
ATOM     38  C   UNL A   1      41.887  21.877  25.733  1.00  0.00     0.014 A 
ATOM     39  C   UNL A   1      41.556  22.384  28.460  1.00  0.00     0.010 A 
ATOM     40  C   UNL A   1      42.288  23.099  26.264  1.00  0.00     0.010 A 
ATOM     41  C   UNL A   1      42.117  23.368  27.630  1.00  0.00    -0.014 A 
BRANCH  41  42
ATOM     42  C   UNL A   1      42.519  24.689  28.173  1.00  0.00     0.031 A 
ATOM     43  C   UNL A   1      41.492  25.768  28.374  1.00  0.00     0.074 A 
ATOM     44  C   UNL A   1      43.818  24.930  28.432  1.00  0.00     0.049 A 
ATOM     45  N   UNL A   1      41.658  26.999  28.789  1.00  0.00    -0.248 NA
ATOM     46  C   UNL A   1      40.101  25.431  28.038  1.00  0.00     0.031 C 
ATOM     47  C   UNL A   1      44.913  23.978  28.232  1.00  0.00     0.029 A 
ATOM     48  N   UNL A   1      44.440  26.055  28.914  1.00  0.00    -0.354 N 
ATOM     49  C   UNL A   1      40.398  27.583  28.751  1.00  0.00     0.074 A 
ATOM     50  C   UNL A   1      39.488  26.592  28.220  1.00  0.00     0.031 C 
ATOM     51  C   UNL A   1      46.066  24.549  28.611  1.00  0.00     0.029 A 
ATOM     52  C   UNL A   1      45.801  25.917  29.045  1.00  0.00     0.049 A 
ATOM     53  H   UNL A   1      43.958  26.881  29.142  1.00  0.00     0.167 HD
ATOM     54  C   UNL A   1      40.028  28.825  29.146  1.00  0.00     0.037 A 
ATOM     55  C   UNL A   1      46.729  26.797  29.465  1.00  0.00     0.037 A 
ATOM     56  C   UNL A   1      40.935  29.799  29.694  1.00  0.00     0.049 A 
ATOM     57  C   UNL A   1      46.293  28.170  29.897  1.00  0.00     0.074 A 
ATOM     58  C   UNL A   1      40.651  31.065  30.178  1.00  0.00     0.029 A 
ATOM     59  N   UNL A   1      42.302  29.616  29.829  1.00  0.00    -0.354 N 
ATOM     60  N   UNL A   1      45.088  28.685  29.921  1.00  0.00    -0.248 NA
ATOM     61  C   UNL A   1      47.346  29.080  30.368  1.00  0.00     0.031 C 
ATOM     62  C   UNL A   1      41.854  31.665  30.562  1.00  0.00     0.029 A 
ATOM     63  C   UNL A   1      42.881  30.754  30.369  1.00  0.00     0.049 A 
ATOM     64  H   UNL A   1      42.791  28.798  29.580  1.00  0.00     0.167 HD
ATOM     65  C   UNL A   1      45.232  29.966  30.438  1.00  0.00     0.074 A 
ATOM     66  C   UNL A   1      46.641  30.144  30.726  1.00  0.00     0.031 C 
ATOM     67  C   UNL A   1      44.284  30.911  30.655  1.00  0.00     0.037 A 
BRANCH  54  68
ATOM     68  C   UNL A   1      38.580  29.197  29.001  1.00  0.00     0.057 A 
ATOM     69  C   UNL A   1      37.691  29.146  30.084  1.00  0.00     0.134 A 
ATOM     70  C   UNL A   1      38.075  29.642  27.774  1.00  0.00     0.134 A 
ATOM     71  F   UNL A   1      38.108  28.718  31.285  1.00  0.00    -0.206 F 
ATOM     72  C   UNL A   1      36.347  29.497  29.943  1.00  0.00     0.040 A 
ATOM     73  C   UNL A   1      36.740  30.024  27.628  1.00  0.00     0.040 A 
ATOM     74  F   UNL A   1      38.871  29.722  26.697  1.00  0.00    -0.206 F 
ATOM     75  C   UNL A   1      35.869  29.945  28.714  1.00  0.00     0.006 A 
ENDBRANCH  54  68
BRANCH  55  76
ATOM     76  C   UNL A   1      48.157  26.397  29.527  1.00  0.00     0.057 A 
ATOM     77  C   UNL A   1      48.684  25.776  30.666  1.00  0.00     0.134 A 
ATOM     78  C   UNL A   1      49.031  26.627  28.457  1.00  0.00     0.134 A 
ATOM     79  F   UNL A   1      47.900  25.544  31.730  1.00  0.00    -0.206 F 
ATOM     80  C   UNL A   1      50.030  25.418  30.748  1.00  0.00     0.040 A 
ATOM     81  C   UNL A   1      50.373  26.249  28.515  1.00  0.00     0.040 A 
ATOM     82  F   UNL A   1      48.589  27.211  27.333  1.00  0.00    -0.206 F 
ATOM     83  C   UNL A   1      50.878  25.650  29.667  1.00  0.00     0.006 A 
ENDBRANCH  55  76
BRANCH  67  84
ATOM     84  C   UNL A   1      44.733  32.206  31.267  1.00  0.00     0.057 A 
ATOM     85  C   UNL A   1      45.113  33.303  30.486  1.00  0.00     0.134 A 
ATOM     86  C   UNL A   1      44.747  32.365  32.659  1.00  0.00     0.134 A 
ATOM     87  F   UNL A   1      45.133  33.211  29.147  1.00  0.00    -0.206 F 
ATOM     88  C   UNL A   1      45.515  34.507  31.067  1.00  0.00     0.040 A 
ATOM     89  C   UNL A   1      45.119  33.573  33.251  1.00  0.00     0.040 A 
ATOM     90  F   UNL A   1      44.386  31.356  33.466  1.00  0.00    -0.206 F 
ATOM     91  C   UNL A   1      45.512  34.647  32.453  1.00  0.00     0.006 A 
ENDBRANCH  67  84
ENDBRANCH  41  42
ENDBRANCH  33  36
ENDBRANCH  31  32
ENDBRANCH  30  31
ENDBRANCH  29  30
ENDBRANCH   1  29
TORSDOF 16
ENDMDL
MODEL 2
REMARK VINA RESULT:     -11.8      0.297      6.059
REMARK SMILES CCC[N@@H+]1CC2(CCN(c3nccnc3C)CC2)C[C@H]1C(=O)NCCCCCCNC(=O)c1ccc(-c2c3nc(c(-c4c(F)cccc4F)c4ccc([nH]4)c(-c4c(F)cccc4F)c4nc(c(-c5c(F)cccc5F)c5ccc2[nH]5)C=C4)C=C3)cc1
REMARK SMILES IDX 26 1 25 2 24 3 23 4 21 5 22 6 20 8 4 9 5 10 6 12 19 13 7 14
REMARK SMILES IDX 18 15 8 16 17 17 9 18 3 19 2 20 1 21 10 22 11 23 15 24 12 25
REMARK SMILES IDX 14 26 16 27 13 28 27 29 28 30 29 31 30 32 31 33 32 35 33 36
REMARK SMILES IDX 34 37 86 38 35 39 85 40 36 41 37 42 38 43 79 44 39 45 84 46
REMARK SMILES IDX 78 47 80 48 40 49 83 50 77 51 76 52 41 54 67 55 50 56 66 57
REMARK SMILES IDX 51 58 54 59 65 60 81 61 52 62 53 63 64 65 82 66 55 67 42 68
REMARK SMILES IDX 43 69 48 70 44 71 45 72 47 73 49 74 46 75 68 76 69 77 74 78
REMARK SMILES IDX 70 79 71 80 73 81 75 82 72 83 56 84 57 85 62 86 58 87 59 88
REMARK SMILES IDX 61 89 63 90 60 91
REMARK H PARENT 23 7 4 11 30 34 80 53 54 64
REMARK Flexibility Score: inf
ROOT
ATOM      1  C   UNL A   1      35.850  21.078  25.804  1.00  0.00     0.002 C 
ENDROOT
BRANCH   1   2
ATOM      2  C   UNL A   1      34.362  21.149  26.147  1.00  0.00     0.021 C 
BRANCH   2   3
ATOM      3  C   UNL A   1      34.068  21.833  27.475  1.00  0.00     0.116 C 
BRANCH   3   4
ATOM      4  N   UNL A   1      32.749  22.370  27.618  1.00  0.00    -0.351 N 
ATOM      5  C   UNL A   1      32.168  23.451  27.033  1.00  0.00     0.278 C 
ATOM      6  O   UNL A   1      30.940  23.526  27.195  1.00  0.00    -0.268 OA
ATOM      7  H   UNL A   1      32.168  21.876  28.242  1.00  0.00     0.163 HD
BRANCH   5   8
ATOM      8  C   UNL A   1      32.888  24.560  26.193  1.00  0.00     0.274 C 
ATOM      9  N   UNL A   1      32.990  24.233  24.757  1.00  0.00    -0.324 N 
ATOM     10  C   UNL A   1      32.028  25.114  24.043  1.00  0.00     0.270 C 
ATOM     11  H   UNL A   1      32.769  23.243  24.649  1.00  0.00     0.348 HD
ATOM     12  C   UNL A   1      31.796  26.372  24.920  1.00  0.00     0.029 C 
ATOM     13  C   UNL A   1      32.432  26.006  26.277  1.00  0.00     0.088 C 
ATOM     14  C   UNL A   1      30.333  26.797  25.222  1.00  0.00     0.034 C 
ATOM     15  C   UNL A   1      32.482  27.594  24.227  1.00  0.00     0.034 C 
ATOM     16  C   UNL A   1      29.578  27.265  23.993  1.00  0.00     0.119 C 
ATOM     17  C   UNL A   1      31.661  28.131  23.026  1.00  0.00     0.119 C 
ATOM     18  N   UNL A   1      30.314  28.411  23.504  1.00  0.00    -0.355 N 
BRANCH   9  19
ATOM     19  C   UNL A   1      34.349  24.346  24.169  1.00  0.00     0.262 C 
BRANCH  19  20
ATOM     20  C   UNL A   1      34.876  23.330  23.135  1.00  0.00     0.058 C 
ATOM     21  C   UNL A   1      36.387  23.153  23.110  1.00  0.00     0.010 C 
ENDBRANCH  19  20
ENDBRANCH   9  19
BRANCH  18  22
ATOM     22  C   UNL A   1      29.597  29.471  22.991  1.00  0.00     0.150 A 
ATOM     23  N   UNL A   1      28.958  29.287  21.813  1.00  0.00    -0.236 NA
ATOM     24  C   UNL A   1      29.527  30.725  23.648  1.00  0.00     0.080 A 
ATOM     25  C   UNL A   1      28.256  30.338  21.330  1.00  0.00     0.133 A 
ATOM     26  N   UNL A   1      28.822  31.778  23.144  1.00  0.00    -0.256 NA
ATOM     27  C   UNL A   1      30.339  31.057  24.866  1.00  0.00     0.071 C 
ATOM     28  C   UNL A   1      28.191  31.555  21.979  1.00  0.00     0.131 A 
ENDBRANCH  18  22
ENDBRANCH   5   8
ENDBRANCH   3   4
ENDBRANCH   2   3
ENDBRANCH   1   2
BRANCH   1  29
ATOM     29  C   UNL A   1      36.235  20.048  24.730  1.00  0.00     0.002 C 
BRANCH  29  30
ATOM     30  C   UNL A   1      37.498  19.226  25.011  1.00  0.00     0.021 C 
BRANCH  30  31
ATOM     31  C   UNL A   1      38.700  20.035  25.492  1.00  0.00     0.116 C 
BRANCH  31  32
ATOM     32  N   UNL A   1      39.864  19.194  25.728  1.00  0.00    -0.352 N 
ATOM     33  C   UNL A   1      41.132  19.535  26.109  1.00  0.00     0.251 C 
ATOM     34  H   UNL A   1      39.716  18.229  25.591  1.00  0.00     0.163 HD
ATOM     35  O   UNL A   1      42.038  18.700  26.042  1.00  0.00    -0.269 OA
BRANCH  33  36
ATOM     36  C   UNL A   1      41.427  20.895  26.598  1.00  0.00     0.039 A 
ATOM     37  C   UNL A   1      41.158  21.208  27.933  1.00  0.00     0.014 A 
ATOM     38  C   UNL A   1      41.930  21.872  25.735  1.00  0.00     0.014 A 
ATOM     39  C   UNL A   1      41.437  22.488  28.414  1.00  0.00     0.010 A 
ATOM     40  C   UNL A   1      42.277  23.125  26.233  1.00  0.00     0.010 A 
ATOM     41  C   UNL A   1      42.023  23.448  27.574  1.00  0.00    -0.014 A 
BRANCH  41  42
ATOM     42  C   UNL A   1      42.367  24.800  28.081  1.00  0.00     0.031 A 
ATOM     43  C   UNL A   1      43.785  25.127  28.458  1.00  0.00     0.074 A 
ATOM     44  C   UNL A   1      41.391  25.711  28.252  1.00  0.00     0.049 A 
ATOM     45  N   UNL A   1      44.271  26.232  28.965  1.00  0.00    -0.248 NA
ATOM     46  C   UNL A   1      44.785  24.065  28.268  1.00  0.00     0.031 C 
ATOM     47  C   UNL A   1      39.971  25.494  27.967  1.00  0.00     0.029 A 
ATOM     48  N   UNL A   1      41.444  27.002  28.715  1.00  0.00    -0.354 N 
ATOM     49  C   UNL A   1      45.625  25.993  29.164  1.00  0.00     0.074 A 
ATOM     50  C   UNL A   1      45.874  24.622  28.778  1.00  0.00     0.031 C 
ATOM     51  C   UNL A   1      39.292  26.619  28.237  1.00  0.00     0.029 A 
ATOM     52  C   UNL A   1      40.219  27.624  28.748  1.00  0.00     0.049 A 
ATOM     53  H   UNL A   1      42.279  27.439  28.996  1.00  0.00     0.167 HD
ATOM     54  C   UNL A   1      46.579  26.847  29.607  1.00  0.00     0.037 A 
ATOM     55  C   UNL A   1      39.883  28.865  29.150  1.00  0.00     0.037 A 
ATOM     56  C   UNL A   1      46.329  28.217  29.969  1.00  0.00     0.049 A 
ATOM     57  C   UNL A   1      40.961  29.793  29.637  1.00  0.00     0.074 A 
ATOM     58  C   UNL A   1      47.236  29.181  30.374  1.00  0.00     0.029 A 
ATOM     59  N   UNL A   1      45.079  28.817  29.971  1.00  0.00    -0.354 N 
ATOM     60  N   UNL A   1      42.249  29.575  29.755  1.00  0.00    -0.248 NA
ATOM     61  C   UNL A   1      40.540  31.142  30.040  1.00  0.00     0.031 C 
ATOM     62  C   UNL A   1      46.528  30.351  30.666  1.00  0.00     0.029 A 
ATOM     63  C   UNL A   1      45.187  30.133  30.392  1.00  0.00     0.049 A 
ATOM     64  H   UNL A   1      44.239  28.374  29.712  1.00  0.00     0.167 HD
ATOM     65  C   UNL A   1      42.796  30.766  30.215  1.00  0.00     0.074 A 
ATOM     66  C   UNL A   1      41.700  31.707  30.341  1.00  0.00     0.031 C 
ATOM     67  C   UNL A   1      44.088  31.057  30.505  1.00  0.00     0.037 A 
BRANCH  54  68
ATOM     68  C   UNL A   1      47.982  26.321  29.719  1.00  0.00     0.057 A 
ATOM     69  C   UNL A   1      48.451  25.709  30.890  1.00  0.00     0.134 A 
ATOM     70  C   UNL A   1      48.864  26.398  28.635  1.00  0.00     0.134 A 
ATOM     71  F   UNL A   1      47.661  25.613  31.970  1.00  0.00    -0.206 F 
ATOM     72  C   UNL A   1      49.755  25.219  30.986  1.00  0.00     0.040 A 
ATOM     73  C   UNL A   1      50.161  25.885  28.709  1.00  0.00     0.040 A 
ATOM     74  F   UNL A   1      48.479  26.965  27.481  1.00  0.00    -0.206 F 
ATOM     75  C   UNL A   1      50.612  25.299  29.891  1.00  0.00     0.006 A 
ENDBRANCH  54  68
BRANCH  55  76
ATOM     76  C   UNL A   1      38.469  29.311  29.077  1.00  0.00     0.057 A 
ATOM     77  C   UNL A   1      37.926  29.794  27.881  1.00  0.00     0.134 A 
ATOM     78  C   UNL A   1      37.629  29.270  30.197  1.00  0.00     0.134 A 
ATOM     79  F   UNL A   1      38.686  29.873  26.779  1.00  0.00    -0.206 F 
ATOM     80  C   UNL A   1      36.606  30.242  27.805  1.00  0.00     0.040 A 
ATOM     81  C   UNL A   1      36.299  29.688  30.127  1.00  0.00     0.040 A 
ATOM     82  F   UNL A   1      38.085  28.810  31.371  1.00  0.00    -0.206 F 
ATOM     83  C   UNL A   1      35.787  30.184  28.930  1.00  0.00     0.006 A 
ENDBRANCH  55  76
BRANCH  67  84
ATOM     84  C   UNL A   1      44.393  32.457  30.951  1.00  0.00     0.057 A 
ATOM     85  C   UNL A   1      44.419  32.815  32.304  1.00  0.00     0.134 A 
ATOM     86  C   UNL A   1      44.702  33.450  30.012  1.00  0.00     0.134 A 
ATOM     87  F   UNL A   1      44.119  31.914  33.253  1.00  0.00    -0.206 F 
ATOM     88  C   UNL A   1      44.718  34.117  32.708  1.00  0.00     0.040 A 
ATOM     89  C   UNL A   1      45.031  34.747  30.404  1.00  0.00     0.040 A 
ATOM     90  F   UNL A   1      44.704  33.171  28.700  1.00  0.00    -0.206 F 
ATOM     91  C   UNL A   1      45.033  35.086  31.756  1.00  0.00     0.006 A 
ENDBRANCH  67  84
ENDBRANCH  41  42
ENDBRANCH  33  36
ENDBRANCH  31  32
ENDBRANCH  30  31
ENDBRANCH  29  30
ENDBRANCH   1  29
TORSDOF 16
ENDMDL
MODEL 3
REMARK VINA RESULT:     -11.3      1.190      6.388
REMARK SMILES CCC[N@@H+]1CC2(CCN(c3nccnc3C)CC2)C[C@H]1C(=O)NCCCCCCNC(=O)c1ccc(-c2c3nc(c(-c4c(F)cccc4F)c4ccc([nH]4)c(-c4c(F)cccc4F)c4nc(c(-c5c(F)cccc5F)c5ccc2[nH]5)C=C4)C=C3)cc1
REMARK SMILES IDX 26 1 25 2 24 3 23 4 21 5 22 6 20 8 4 9 5 10 6 12 19 13 7 14
REMARK SMILES IDX 18 15 8 16 17 17 9 18 3 19 2 20 1 21 10 22 11 23 15 24 12 25
REMARK SMILES IDX 14 26 16 27 13 28 27 29 28 30 29 31 30 32 31 33 32 35 33 36
REMARK SMILES IDX 34 37 86 38 35 39 85 40 36 41 37 42 38 43 79 44 39 45 84 46
REMARK SMILES IDX 78 47 80 48 40 49 83 50 77 51 76 52 41 54 67 55 50 56 66 57
REMARK SMILES IDX 51 58 54 59 65 60 81 61 52 62 53 63 64 65 82 66 55 67 42 68
REMARK SMILES IDX 43 69 48 70 44 71 45 72 47 73 49 74 46 75 68 76 69 77 74 78
REMARK SMILES IDX 70 79 71 80 73 81 75 82 72 83 56 84 57 85 62 86 58 87 59 88
REMARK SMILES IDX 61 89 63 90 60 91
REMARK H PARENT 23 7 4 11 30 34 80 53 54 64
REMARK Flexibility Score: inf
ROOT
ATOM      1  C   UNL A   1      36.743  21.517  25.548  1.00  0.00     0.002 C 
ENDROOT
BRANCH   1   2
ATOM      2  C   UNL A   1      35.382  22.189  25.724  1.00  0.00     0.021 C 
BRANCH   2   3
ATOM      3  C   UNL A   1      34.358  21.793  24.669  1.00  0.00     0.116 C 
BRANCH   3   4
ATOM      4  N   UNL A   1      34.371  22.572  23.468  1.00  0.00    -0.351 N 
ATOM      5  C   UNL A   1      33.561  23.588  23.067  1.00  0.00     0.278 C 
ATOM      6  O   UNL A   1      33.967  24.207  22.070  1.00  0.00    -0.268 OA
ATOM      7  H   UNL A   1      35.081  22.333  22.829  1.00  0.00     0.163 HD
BRANCH   5   8
ATOM      8  C   UNL A   1      32.218  24.035  23.738  1.00  0.00     0.274 C 
ATOM      9  N   UNL A   1      32.413  24.841  24.959  1.00  0.00    -0.324 N 
ATOM     10  C   UNL A   1      32.048  26.241  24.616  1.00  0.00     0.270 C 
ATOM     11  H   UNL A   1      33.390  24.747  25.238  1.00  0.00     0.348 HD
ATOM     12  C   UNL A   1      31.068  26.195  23.416  1.00  0.00     0.029 C 
ATOM     13  C   UNL A   1      31.146  24.736  22.922  1.00  0.00     0.088 C 
ATOM     14  C   UNL A   1      31.372  27.091  22.184  1.00  0.00     0.034 C 
ATOM     15  C   UNL A   1      29.644  26.600  23.921  1.00  0.00     0.034 C 
ATOM     16  C   UNL A   1      31.263  28.575  22.478  1.00  0.00     0.119 C 
ATOM     17  C   UNL A   1      29.504  28.130  24.132  1.00  0.00     0.119 C 
ATOM     18  N   UNL A   1      29.891  28.783  22.890  1.00  0.00    -0.355 N 
BRANCH   9  19
ATOM     19  C   UNL A   1      31.669  24.378  26.158  1.00  0.00     0.262 C 
BRANCH  19  20
ATOM     20  C   UNL A   1      30.977  23.001  26.206  1.00  0.00     0.058 C 
ATOM     21  C   UNL A   1      29.687  22.950  27.012  1.00  0.00     0.010 C 
ENDBRANCH  19  20
ENDBRANCH   9  19
BRANCH  18  22
ATOM     22  C   UNL A   1      29.261  29.941  22.485  1.00  0.00     0.150 A 
ATOM     23  N   UNL A   1      28.697  29.954  21.255  1.00  0.00    -0.236 NA
ATOM     24  C   UNL A   1      29.204  31.096  23.304  1.00  0.00     0.080 A 
ATOM     25  C   UNL A   1      28.081  31.098  20.880  1.00  0.00     0.133 A 
ATOM     26  N   UNL A   1      28.585  32.246  22.908  1.00  0.00    -0.256 NA
ATOM     27  C   UNL A   1      29.943  31.215  24.605  1.00  0.00     0.071 C 
ATOM     28  C   UNL A   1      28.027  32.218  21.686  1.00  0.00     0.131 A 
ENDBRANCH  18  22
ENDBRANCH   5   8
ENDBRANCH   3   4
ENDBRANCH   2   3
ENDBRANCH   1   2
BRANCH   1  29
ATOM     29  C   UNL A   1      36.708  20.081  25.000  1.00  0.00     0.002 C 
BRANCH  29  30
ATOM     30  C   UNL A   1      38.046  19.333  24.994  1.00  0.00     0.021 C 
BRANCH  30  31
ATOM     31  C   UNL A   1      39.154  19.986  25.817  1.00  0.00     0.116 C 
BRANCH  31  32
ATOM     32  N   UNL A   1      40.337  19.144  25.904  1.00  0.00    -0.352 N 
ATOM     33  C   UNL A   1      41.643  19.483  26.121  1.00  0.00     0.251 C 
ATOM     34  H   UNL A   1      40.172  18.179  25.788  1.00  0.00     0.163 HD
ATOM     35  O   UNL A   1      42.533  18.647  25.940  1.00  0.00    -0.269 OA
BRANCH  33  36
ATOM     36  C   UNL A   1      42.000  20.843  26.567  1.00  0.00     0.039 A 
ATOM     37  C   UNL A   1      42.332  21.805  25.609  1.00  0.00     0.014 A 
ATOM     38  C   UNL A   1      42.047  21.160  27.927  1.00  0.00     0.014 A 
ATOM     39  C   UNL A   1      42.666  23.098  26.013  1.00  0.00     0.010 A 
ATOM     40  C   UNL A   1      42.309  22.468  28.325  1.00  0.00     0.010 A 
ATOM     41  C   UNL A   1      42.631  23.447  27.373  1.00  0.00    -0.014 A 
BRANCH  41  42
ATOM     42  C   UNL A   1      42.940  24.828  27.817  1.00  0.00     0.031 A 
ATOM     43  C   UNL A   1      44.367  25.254  28.027  1.00  0.00     0.074 A 
ATOM     44  C   UNL A   1      41.932  25.679  28.084  1.00  0.00     0.049 A 
ATOM     45  N   UNL A   1      44.833  26.398  28.459  1.00  0.00    -0.248 NA
ATOM     46  C   UNL A   1      45.407  24.253  27.742  1.00  0.00     0.031 C 
ATOM     47  C   UNL A   1      40.506  25.366  27.964  1.00  0.00     0.029 A 
ATOM     48  N   UNL A   1      41.951  26.981  28.518  1.00  0.00    -0.354 N 
ATOM     49  C   UNL A   1      46.213  26.250  28.508  1.00  0.00     0.074 A 
ATOM     50  C   UNL A   1      46.507  24.889  28.117  1.00  0.00     0.031 C 
ATOM     51  C   UNL A   1      39.789  26.452  28.292  1.00  0.00     0.029 A 
ATOM     52  C   UNL A   1      40.700  27.525  28.679  1.00  0.00     0.049 A 
ATOM     53  H   UNL A   1      42.781  27.477  28.696  1.00  0.00     0.167 HD
ATOM     54  C   UNL A   1      47.153  27.172  28.827  1.00  0.00     0.037 A 
ATOM     55  C   UNL A   1      40.330  28.751  29.097  1.00  0.00     0.037 A 
ATOM     56  C   UNL A   1      46.856  28.532  29.194  1.00  0.00     0.049 A 
ATOM     57  C   UNL A   1      41.392  29.756  29.446  1.00  0.00     0.074 A 
ATOM     58  C   UNL A   1      47.737  29.560  29.480  1.00  0.00     0.029 A 
ATOM     59  N   UNL A   1      45.577  29.051  29.328  1.00  0.00    -0.354 N 
ATOM     60  N   UNL A   1      42.697  29.623  29.421  1.00  0.00    -0.248 NA
ATOM     61  C   UNL A   1      40.931  31.084  29.873  1.00  0.00     0.031 C 
ATOM     62  C   UNL A   1      46.991  30.690  29.832  1.00  0.00     0.029 A 
ATOM     63  C   UNL A   1      45.645  30.380  29.714  1.00  0.00     0.049 A 
ATOM     64  H   UNL A   1      44.744  28.550  29.172  1.00  0.00     0.167 HD
ATOM     65  C   UNL A   1      43.212  30.857  29.798  1.00  0.00     0.074 A 
ATOM     66  C   UNL A   1      42.078  31.728  30.033  1.00  0.00     0.031 C 
ATOM     67  C   UNL A   1      44.507  31.235  29.936  1.00  0.00     0.037 A 
BRANCH  54  68
ATOM     68  C   UNL A   1      48.591  26.739  28.789  1.00  0.00     0.057 A 
ATOM     69  C   UNL A   1      49.410  26.989  27.679  1.00  0.00     0.134 A 
ATOM     70  C   UNL A   1      49.173  26.095  29.887  1.00  0.00     0.134 A 
ATOM     71  F   UNL A   1      48.912  27.592  26.589  1.00  0.00    -0.206 F 
ATOM     72  C   UNL A   1      50.747  26.588  27.652  1.00  0.00     0.040 A 
ATOM     73  C   UNL A   1      50.517  25.715  29.884  1.00  0.00     0.040 A 
ATOM     74  F   UNL A   1      48.450  25.830  30.985  1.00  0.00    -0.206 F 
ATOM     75  C   UNL A   1      51.306  25.955  28.760  1.00  0.00     0.006 A 
ENDBRANCH  54  68
BRANCH  55  76
ATOM     76  C   UNL A   1      38.890  29.105  29.178  1.00  0.00     0.057 A 
ATOM     77  C   UNL A   1      38.196  29.564  28.052  1.00  0.00     0.134 A 
ATOM     78  C   UNL A   1      38.175  28.998  30.377  1.00  0.00     0.134 A 
ATOM     79  F   UNL A   1      38.832  29.704  26.879  1.00  0.00    -0.206 F 
ATOM     80  C   UNL A   1      36.850  29.926  28.119  1.00  0.00     0.040 A 
ATOM     81  C   UNL A   1      36.821  29.329  30.451  1.00  0.00     0.040 A 
ATOM     82  F   UNL A   1      38.778  28.556  31.490  1.00  0.00    -0.206 F 
ATOM     83  C   UNL A   1      36.157  29.802  29.321  1.00  0.00     0.006 A 
ENDBRANCH  55  76
BRANCH  67  84
ATOM     84  C   UNL A   1      44.767  32.662  30.324  1.00  0.00     0.057 A 
ATOM     85  C   UNL A   1      44.921  33.051  31.660  1.00  0.00     0.134 A 
ATOM     86  C   UNL A   1      44.903  33.650  29.341  1.00  0.00     0.134 A 
ATOM     87  F   UNL A   1      44.789  32.154  32.649  1.00  0.00    -0.206 F 
ATOM     88  C   UNL A   1      45.177  34.378  32.007  1.00  0.00     0.040 A 
ATOM     89  C   UNL A   1      45.188  34.975  29.673  1.00  0.00     0.040 A 
ATOM     90  F   UNL A   1      44.777  33.342  28.041  1.00  0.00    -0.206 F 
ATOM     91  C   UNL A   1      45.319  35.343  31.011  1.00  0.00     0.006 A 
ENDBRANCH  67  84
ENDBRANCH  41  42
ENDBRANCH  33  36
ENDBRANCH  31  32
ENDBRANCH  30  31
ENDBRANCH  29  30
ENDBRANCH   1  29
TORSDOF 16
ENDMDL
