MODEL 1
REMARK VINA RESULT:     -12.5      0.000      0.000
REMARK SMILES O=C(COc1ccc(Cl)c2ccccc12)N[C@@H](Cc1c[nH]c2ccccc12)C(=O)NCCCCCCNC(=O)c1ccc(-c2c3nc(c(-c4c(F)cccc4F)c4ccc([nH]4)c(-c4c(F)cccc4F)c4nc(c(-c5c(F)cccc5F)c5ccc2[nH]5)C=C4)C=C3)cc1
REMARK SMILES IDX 32 1 31 2 30 3 28 4 29 5 17 7 16 8 1 9 2 10 3 12 4 13 5 14
REMARK SMILES IDX 6 15 15 16 7 17 10 18 14 19 8 20 11 21 13 22 9 23 12 24
REMARK SMILES IDX 18 25 19 26 20 27 27 28 21 29 22 30 26 31 23 33 25 34 24 35
REMARK SMILES IDX 33 36 34 37 35 38 36 39 37 40 38 41 39 43 40 44 41 45 93 46
REMARK SMILES IDX 42 47 92 48 43 49 44 50 45 51 86 52 46 53 91 54 85 55 87 56
REMARK SMILES IDX 47 57 90 58 84 59 83 60 48 62 74 63 57 64 73 65 58 66 61 67
REMARK SMILES IDX 72 68 88 69 59 70 60 71 71 73 89 74 62 75 49 76 50 77 55 78
REMARK SMILES IDX 51 79 52 80 54 81 56 82 53 83 75 84 76 85 81 86 77 87 78 88
REMARK SMILES IDX 80 89 82 90 79 91 63 92 64 93 69 94 65 95 66 96 68 97 70 98
REMARK SMILES IDX 67 99
REMARK H PARENT 30 6 16 11 21 32 37 42 87 61 61 72
REMARK Flexibility Score: inf
ROOT
ATOM      1  C   UNL A   1      36.250  23.110  25.845  1.00  0.00     0.021 C 
ENDROOT
BRANCH   1   2
ATOM      2  C   UNL A   1      35.221  23.952  25.074  1.00  0.00     0.116 C 
BRANCH   2   3
ATOM      3  N   UNL A   1      35.032  23.592  23.676  1.00  0.00    -0.354 N 
ATOM      4  C   UNL A   1      33.970  23.076  22.984  1.00  0.00     0.242 C 
ATOM      5  O   UNL A   1      34.012  23.234  21.754  1.00  0.00    -0.273 OA
ATOM      6  H   UNL A   1      35.828  23.751  23.118  1.00  0.00     0.163 HD
BRANCH   4   7
ATOM      7  C   UNL A   1      32.712  22.398  23.610  1.00  0.00     0.175 C 
BRANCH   7   8
ATOM      8  N   UNL A   1      31.508  23.221  23.524  1.00  0.00    -0.341 N 
ATOM      9  O   UNL A   1      31.297  23.580  25.781  1.00  0.00    -0.271 OA
ATOM     10  C   UNL A   1      31.098  23.948  24.625  1.00  0.00     0.258 C 
ATOM     11  H   UNL A   1      30.992  23.258  22.685  1.00  0.00     0.164 HD
BRANCH  10  12
ATOM     12  C   UNL A   1      30.472  25.307  24.312  1.00  0.00     0.329 C 
BRANCH  12  13
ATOM     13  O   UNL A   1      31.358  26.234  23.675  1.00  0.00    -0.483 OA
BRANCH  13  14
ATOM     14  C   UNL A   1      30.928  27.546  23.693  1.00  0.00     0.128 A 
ATOM     15  C   UNL A   1      29.863  27.956  22.890  1.00  0.00     0.048 A 
ATOM     16  C   UNL A   1      31.486  28.439  24.641  1.00  0.00     0.025 A 
ATOM     17  C   UNL A   1      29.347  29.242  22.993  1.00  0.00     0.025 A 
ATOM     18  C   UNL A   1      30.962  29.758  24.753  1.00  0.00     0.004 A 
ATOM     19  C   UNL A   1      32.555  28.065  25.484  1.00  0.00     0.012 A 
ATOM     20  C   UNL A   1      29.887  30.135  23.914  1.00  0.00     0.049 A 
ATOM     21  C   UNL A   1      31.535  30.634  25.705  1.00  0.00     0.010 A 
ATOM     22  C   UNL A   1      33.104  28.953  26.410  1.00  0.00     0.001 A 
ATOM     23  Cl  UNL A   1      29.159  31.709  23.980  1.00  0.00    -0.084 Cl
ATOM     24  C   UNL A   1      32.593  30.237  26.522  1.00  0.00     0.001 A 
ENDBRANCH  13  14
ENDBRANCH  12  13
ENDBRANCH  10  12
ENDBRANCH   7   8
BRANCH   7  25
ATOM     25  C   UNL A   1      32.519  20.902  23.295  1.00  0.00     0.072 C 
BRANCH  25  26
ATOM     26  C   UNL A   1      32.755  19.960  24.429  1.00  0.00    -0.020 A 
ATOM     27  C   UNL A   1      32.670  20.239  25.779  1.00  0.00     0.087 A 
ATOM     28  C   UNL A   1      33.136  18.587  24.317  1.00  0.00     0.003 A 
ATOM     29  N   UNL A   1      32.862  19.071  26.469  1.00  0.00    -0.361 N 
ATOM     30  C   UNL A   1      33.039  18.028  25.590  1.00  0.00     0.046 A 
ATOM     31  C   UNL A   1      33.454  17.748  23.231  1.00  0.00     0.010 A 
ATOM     32  H   UNL A   1      32.871  18.989  27.450  1.00  0.00     0.166 HD
ATOM     33  C   UNL A   1      33.116  16.650  25.811  1.00  0.00     0.026 A 
ATOM     34  C   UNL A   1      33.506  16.368  23.428  1.00  0.00     0.001 A 
ATOM     35  C   UNL A   1      33.318  15.830  24.698  1.00  0.00     0.002 A 
ENDBRANCH  25  26
ENDBRANCH   7  25
ENDBRANCH   4   7
ENDBRANCH   2   3
ENDBRANCH   1   2
BRANCH   1  36
ATOM     36  C   UNL A   1      37.737  23.502  25.835  1.00  0.00     0.002 C 
BRANCH  36  37
ATOM     37  C   UNL A   1      38.814  22.495  26.262  1.00  0.00     0.002 C 
BRANCH  37  38
ATOM     38  C   UNL A   1      38.947  21.201  25.465  1.00  0.00     0.021 C 
BRANCH  38  39
ATOM     39  C   UNL A   1      39.264  19.959  26.287  1.00  0.00     0.116 C 
BRANCH  39  40
ATOM     40  N   UNL A   1      40.505  19.312  25.872  1.00  0.00    -0.352 N 
ATOM     41  C   UNL A   1      41.781  19.811  25.802  1.00  0.00     0.251 C 
ATOM     42  H   UNL A   1      40.411  18.371  25.598  1.00  0.00     0.163 HD
ATOM     43  O   UNL A   1      42.659  19.162  25.219  1.00  0.00    -0.269 OA
BRANCH  41  44
ATOM     44  C   UNL A   1      42.135  21.110  26.417  1.00  0.00     0.039 A 
ATOM     45  C   UNL A   1      42.099  21.252  27.811  1.00  0.00     0.014 A 
ATOM     46  C   UNL A   1      42.437  22.218  25.623  1.00  0.00     0.014 A 
ATOM     47  C   UNL A   1      42.379  22.491  28.396  1.00  0.00     0.010 A 
ATOM     48  C   UNL A   1      42.835  23.414  26.209  1.00  0.00     0.010 A 
ATOM     49  C   UNL A   1      42.753  23.582  27.596  1.00  0.00    -0.014 A 
BRANCH  49  50
ATOM     50  C   UNL A   1      42.938  24.943  28.163  1.00  0.00     0.031 A 
ATOM     51  C   UNL A   1      44.319  25.385  28.582  1.00  0.00     0.074 A 
ATOM     52  C   UNL A   1      41.881  25.754  28.352  1.00  0.00     0.049 A 
ATOM     53  N   UNL A   1      44.700  26.496  29.158  1.00  0.00    -0.248 NA
ATOM     54  C   UNL A   1      45.413  24.422  28.367  1.00  0.00     0.031 C 
ATOM     55  C   UNL A   1      40.493  25.426  28.027  1.00  0.00     0.029 A 
ATOM     56  N   UNL A   1      41.814  27.026  28.860  1.00  0.00    -0.354 N 
ATOM     57  C   UNL A   1      46.061  26.346  29.402  1.00  0.00     0.074 A 
ATOM     58  C   UNL A   1      46.420  25.010  28.990  1.00  0.00     0.031 C 
ATOM     59  C   UNL A   1      39.717  26.489  28.298  1.00  0.00     0.029 A 
ATOM     60  C   UNL A   1      40.548  27.557  28.848  1.00  0.00     0.049 A 
ATOM     61  H   UNL A   1      42.600  27.511  29.202  1.00  0.00     0.167 HD
ATOM     62  C   UNL A   1      46.944  27.251  29.888  1.00  0.00     0.037 A 
ATOM     63  C   UNL A   1      40.115  28.775  29.224  1.00  0.00     0.037 A 
ATOM     64  C   UNL A   1      46.585  28.595  30.249  1.00  0.00     0.049 A 
ATOM     65  C   UNL A   1      41.110  29.773  29.749  1.00  0.00     0.074 A 
ATOM     66  C   UNL A   1      47.402  29.622  30.686  1.00  0.00     0.029 A 
ATOM     67  N   UNL A   1      45.293  29.100  30.209  1.00  0.00    -0.354 N 
ATOM     68  N   UNL A   1      42.405  29.643  29.915  1.00  0.00    -0.248 NA
ATOM     69  C   UNL A   1      40.584  31.089  30.131  1.00  0.00     0.031 C 
ATOM     70  C   UNL A   1      46.597  30.732  30.958  1.00  0.00     0.029 A 
ATOM     71  C   UNL A   1      45.286  30.417  30.633  1.00  0.00     0.049 A 
ATOM     72  H   UNL A   1      44.499  28.595  29.920  1.00  0.00     0.167 HD
ATOM     73  C   UNL A   1      42.855  30.872  30.381  1.00  0.00     0.074 A 
ATOM     74  C   UNL A   1      41.693  31.733  30.466  1.00  0.00     0.031 C 
ATOM     75  C   UNL A   1      44.116  31.257  30.701  1.00  0.00     0.037 A 
BRANCH  62  76
ATOM     76  C   UNL A   1      48.370  26.800  30.054  1.00  0.00     0.057 A 
ATOM     77  C   UNL A   1      49.301  26.863  29.006  1.00  0.00     0.134 A 
ATOM     78  C   UNL A   1      48.813  26.267  31.271  1.00  0.00     0.134 A 
ATOM     79  F   UNL A   1      48.943  27.349  27.807  1.00  0.00    -0.206 F 
ATOM     80  C   UNL A   1      50.597  26.362  29.143  1.00  0.00     0.040 A 
ATOM     81  C   UNL A   1      50.118  25.797  31.432  1.00  0.00     0.040 A 
ATOM     82  F   UNL A   1      47.984  26.182  32.321  1.00  0.00    -0.206 F 
ATOM     83  C   UNL A   1      51.010  25.829  30.362  1.00  0.00     0.006 A 
ENDBRANCH  62  76
BRANCH  63  84
ATOM     84  C   UNL A   1      38.687  29.139  29.043  1.00  0.00     0.057 A 
ATOM     85  C   UNL A   1      37.797  29.094  30.123  1.00  0.00     0.134 A 
ATOM     86  C   UNL A   1      38.179  29.558  27.808  1.00  0.00     0.134 A 
ATOM     87  F   UNL A   1      38.219  28.687  31.329  1.00  0.00    -0.206 F 
ATOM     88  C   UNL A   1      36.452  29.442  29.980  1.00  0.00     0.040 A 
ATOM     89  C   UNL A   1      36.843  29.930  27.656  1.00  0.00     0.040 A 
ATOM     90  F   UNL A   1      38.982  29.633  26.736  1.00  0.00    -0.206 F 
ATOM     91  C   UNL A   1      35.974  29.868  28.744  1.00  0.00     0.006 A 
ENDBRANCH  63  84
BRANCH  75  92
ATOM     92  C   UNL A   1      44.309  32.683  31.125  1.00  0.00     0.057 A 
ATOM     93  C   UNL A   1      44.255  33.076  32.468  1.00  0.00     0.134 A 
ATOM     94  C   UNL A   1      44.593  33.671  30.173  1.00  0.00     0.134 A 
ATOM     95  F   UNL A   1      43.977  32.180  33.428  1.00  0.00    -0.206 F 
ATOM     96  C   UNL A   1      44.446  34.406  32.847  1.00  0.00     0.040 A 
ATOM     97  C   UNL A   1      44.816  34.999  30.541  1.00  0.00     0.040 A 
ATOM     98  F   UNL A   1      44.670  33.361  28.870  1.00  0.00    -0.206 F 
ATOM     99  C   UNL A   1      44.735  35.370  31.882  1.00  0.00     0.006 A 
ENDBRANCH  75  92
ENDBRANCH  49  50
ENDBRANCH  41  44
ENDBRANCH  39  40
ENDBRANCH  38  39
ENDBRANCH  37  38
ENDBRANCH  36  37
ENDBRANCH   1  36
TORSDOF 19
ENDMDL
MODEL 2
REMARK VINA RESULT:     -12.2      3.129      8.360
REMARK SMILES O=C(COc1ccc(Cl)c2ccccc12)N[C@@H](Cc1c[nH]c2ccccc12)C(=O)NCCCCCCNC(=O)c1ccc(-c2c3nc(c(-c4c(F)cccc4F)c4ccc([nH]4)c(-c4c(F)cccc4F)c4nc(c(-c5c(F)cccc5F)c5ccc2[nH]5)C=C4)C=C3)cc1
REMARK SMILES IDX 32 1 31 2 30 3 28 4 29 5 17 7 16 8 1 9 2 10 3 12 4 13 5 14
REMARK SMILES IDX 6 15 15 16 7 17 10 18 14 19 8 20 11 21 13 22 9 23 12 24
REMARK SMILES IDX 18 25 19 26 20 27 27 28 21 29 22 30 26 31 23 33 25 34 24 35
REMARK SMILES IDX 33 36 34 37 35 38 36 39 37 40 38 41 39 43 40 44 41 45 93 46
REMARK SMILES IDX 42 47 92 48 43 49 44 50 45 51 86 52 46 53 91 54 85 55 87 56
REMARK SMILES IDX 47 57 90 58 84 59 83 60 48 62 74 63 57 64 73 65 58 66 61 67
REMARK SMILES IDX 72 68 88 69 59 70 60 71 71 73 89 74 62 75 49 76 50 77 55 78
REMARK SMILES IDX 51 79 52 80 54 81 56 82 53 83 75 84 76 85 81 86 77 87 78 88
REMARK SMILES IDX 80 89 82 90 79 91 63 92 64 93 69 94 65 95 66 96 68 97 70 98
REMARK SMILES IDX 67 99
REMARK H PARENT 30 6 16 11 21 32 37 42 87 61 61 72
REMARK Flexibility Score: inf
ROOT
ATOM      1  C   UNL A   1      32.064  30.430  25.745  1.00  0.00     0.021 C 
ENDROOT
BRANCH   1   2
ATOM      2  C   UNL A   1      30.726  30.107  25.062  1.00  0.00     0.116 C 
BRANCH   2   3
ATOM      3  N   UNL A   1      30.788  29.887  23.624  1.00  0.00    -0.354 N 
ATOM      4  C   UNL A   1      30.705  28.761  22.851  1.00  0.00     0.242 C 
ATOM      5  O   UNL A   1      30.425  28.957  21.658  1.00  0.00    -0.273 OA
ATOM      6  H   UNL A   1      30.917  30.714  23.106  1.00  0.00     0.163 HD
BRANCH   4   7
ATOM      7  C   UNL A   1      30.850  27.292  23.355  1.00  0.00     0.175 C 
BRANCH   7   8
ATOM      8  N   UNL A   1      31.216  26.351  22.298  1.00  0.00    -0.341 N 
ATOM      9  O   UNL A   1      33.390  27.055  22.088  1.00  0.00    -0.271 OA
ATOM     10  C   UNL A   1      32.547  26.167  21.979  1.00  0.00     0.258 C 
ATOM     11  H   UNL A   1      30.517  25.852  21.816  1.00  0.00     0.164 HD
BRANCH  10  12
ATOM     12  C   UNL A   1      32.930  24.741  21.584  1.00  0.00     0.329 C 
BRANCH  12  13
ATOM     13  O   UNL A   1      32.676  23.758  22.593  1.00  0.00    -0.483 OA
BRANCH  13  14
ATOM     14  C   UNL A   1      33.803  23.121  23.074  1.00  0.00     0.128 A 
ATOM     15  C   UNL A   1      35.042  23.761  23.056  1.00  0.00     0.048 A 
ATOM     16  C   UNL A   1      33.661  21.867  23.718  1.00  0.00     0.025 A 
ATOM     17  C   UNL A   1      36.155  23.175  23.649  1.00  0.00     0.025 A 
ATOM     18  C   UNL A   1      34.796  21.260  24.327  1.00  0.00     0.004 A 
ATOM     19  C   UNL A   1      32.424  21.188  23.773  1.00  0.00     0.012 A 
ATOM     20  C   UNL A   1      36.037  21.940  24.279  1.00  0.00     0.049 A 
ATOM     21  C   UNL A   1      34.633  20.007  24.962  1.00  0.00     0.010 A 
ATOM     22  C   UNL A   1      32.295  19.949  24.402  1.00  0.00     0.001 A 
ATOM     23  Cl  UNL A   1      37.478  21.303  25.006  1.00  0.00    -0.084 Cl
ATOM     24  C   UNL A   1      33.399  19.359  24.999  1.00  0.00     0.001 A 
ENDBRANCH  13  14
ENDBRANCH  12  13
ENDBRANCH  10  12
ENDBRANCH   7   8
BRANCH   7  25
ATOM     25  C   UNL A   1      31.585  27.104  24.696  1.00  0.00     0.072 C 
BRANCH  25  26
ATOM     26  C   UNL A   1      31.141  25.945  25.527  1.00  0.00    -0.020 A 
ATOM     27  C   UNL A   1      29.843  25.587  25.837  1.00  0.00     0.087 A 
ATOM     28  C   UNL A   1      31.993  24.999  26.175  1.00  0.00     0.003 A 
ATOM     29  N   UNL A   1      29.880  24.407  26.533  1.00  0.00    -0.361 N 
ATOM     30  C   UNL A   1      31.180  23.974  26.655  1.00  0.00     0.046 A 
ATOM     31  C   UNL A   1      33.391  24.872  26.305  1.00  0.00     0.010 A 
ATOM     32  H   UNL A   1      29.093  23.939  26.892  1.00  0.00     0.166 HD
ATOM     33  C   UNL A   1      31.699  22.771  27.142  1.00  0.00     0.026 A 
ATOM     34  C   UNL A   1      33.927  23.669  26.761  1.00  0.00     0.001 A 
ATOM     35  C   UNL A   1      33.090  22.627  27.152  1.00  0.00     0.002 A 
ENDBRANCH  25  26
ENDBRANCH   7  25
ENDBRANCH   4   7
ENDBRANCH   2   3
ENDBRANCH   1   2
BRANCH   1  36
ATOM     36  C   UNL A   1      32.563  29.573  26.920  1.00  0.00     0.002 C 
BRANCH  36  37
ATOM     37  C   UNL A   1      33.890  28.808  26.823  1.00  0.00     0.002 C 
BRANCH  37  38
ATOM     38  C   UNL A   1      35.051  29.264  27.702  1.00  0.00     0.021 C 
BRANCH  38  39
ATOM     39  C   UNL A   1      35.151  30.767  27.920  1.00  0.00     0.116 C 
BRANCH  39  40
ATOM     40  N   UNL A   1      35.212  31.128  29.334  1.00  0.00    -0.352 N 
ATOM     41  C   UNL A   1      36.158  30.828  30.282  1.00  0.00     0.251 C 
ATOM     42  H   UNL A   1      34.456  31.669  29.658  1.00  0.00     0.163 HD
ATOM     43  O   UNL A   1      35.916  31.046  31.476  1.00  0.00    -0.269 OA
BRANCH  41  44
ATOM     44  C   UNL A   1      37.470  30.253  29.906  1.00  0.00     0.039 A 
ATOM     45  C   UNL A   1      38.124  29.382  30.787  1.00  0.00     0.014 A 
ATOM     46  C   UNL A   1      38.097  30.622  28.715  1.00  0.00     0.014 A 
ATOM     47  C   UNL A   1      39.388  28.878  30.463  1.00  0.00     0.010 A 
ATOM     48  C   UNL A   1      39.294  30.026  28.338  1.00  0.00     0.010 A 
ATOM     49  C   UNL A   1      39.982  29.196  29.232  1.00  0.00    -0.014 A 
BRANCH  49  50
ATOM     50  C   UNL A   1      41.370  28.784  28.901  1.00  0.00     0.031 A 
ATOM     51  C   UNL A   1      41.629  27.372  28.437  1.00  0.00     0.074 A 
ATOM     52  C   UNL A   1      42.394  29.643  29.063  1.00  0.00     0.049 A 
ATOM     53  N   UNL A   1      42.762  26.780  28.160  1.00  0.00    -0.248 NA
ATOM     54  C   UNL A   1      40.454  26.492  28.316  1.00  0.00     0.031 C 
ATOM     55  C   UNL A   1      42.277  31.019  29.544  1.00  0.00     0.029 A 
ATOM     56  N   UNL A   1      43.737  29.481  28.835  1.00  0.00    -0.354 N 
ATOM     57  C   UNL A   1      42.437  25.460  27.869  1.00  0.00     0.074 A 
ATOM     58  C   UNL A   1      41.016  25.317  28.085  1.00  0.00     0.031 C 
ATOM     59  C   UNL A   1      43.492  31.593  29.528  1.00  0.00     0.029 A 
ATOM     60  C   UNL A   1      44.475  30.615  29.070  1.00  0.00     0.049 A 
ATOM     61  H   UNL A   1      44.132  28.632  28.531  1.00  0.00     0.167 HD
ATOM     62  C   UNL A   1      43.238  24.463  27.425  1.00  0.00     0.037 A 
ATOM     63  C   UNL A   1      45.793  30.838  28.918  1.00  0.00     0.037 A 
ATOM     64  C   UNL A   1      44.642  24.628  27.166  1.00  0.00     0.049 A 
ATOM     65  C   UNL A   1      46.667  29.724  28.410  1.00  0.00     0.074 A 
ATOM     66  C   UNL A   1      45.541  23.713  26.649  1.00  0.00     0.029 A 
ATOM     67  N   UNL A   1      45.351  25.797  27.404  1.00  0.00    -0.354 N 
ATOM     68  N   UNL A   1      46.338  28.499  28.076  1.00  0.00    -0.248 NA
ATOM     69  C   UNL A   1      48.095  30.028  28.249  1.00  0.00     0.031 C 
ATOM     70  C   UNL A   1      46.804  24.314  26.621  1.00  0.00     0.029 A 
ATOM     71  C   UNL A   1      46.681  25.622  27.065  1.00  0.00     0.049 A 
ATOM     72  H   UNL A   1      44.964  26.629  27.761  1.00  0.00     0.167 HD
ATOM     73  C   UNL A   1      47.508  27.898  27.628  1.00  0.00     0.074 A 
ATOM     74  C   UNL A   1      48.552  28.898  27.729  1.00  0.00     0.031 C 
ATOM     75  C   UNL A   1      47.701  26.637  27.166  1.00  0.00     0.037 A 
BRANCH  62  76
ATOM     76  C   UNL A   1      42.602  23.117  27.201  1.00  0.00     0.057 A 
ATOM     77  C   UNL A   1      42.254  22.269  28.264  1.00  0.00     0.134 A 
ATOM     78  C   UNL A   1      42.362  22.647  25.904  1.00  0.00     0.134 A 
ATOM     79  F   UNL A   1      42.468  22.647  29.534  1.00  0.00    -0.206 F 
ATOM     80  C   UNL A   1      41.746  20.987  28.044  1.00  0.00     0.040 A 
ATOM     81  C   UNL A   1      41.819  21.382  25.672  1.00  0.00     0.040 A 
ATOM     82  F   UNL A   1      42.661  23.404  24.838  1.00  0.00    -0.206 F 
ATOM     83  C   UNL A   1      41.525  20.541  26.743  1.00  0.00     0.006 A 
ENDBRANCH  62  76
BRANCH  63  84
ATOM     84  C   UNL A   1      46.348  32.191  29.174  1.00  0.00     0.057 A 
ATOM     85  C   UNL A   1      46.804  32.545  30.450  1.00  0.00     0.134 A 
ATOM     86  C   UNL A   1      46.458  33.151  28.162  1.00  0.00     0.134 A 
ATOM     87  F   UNL A   1      46.712  31.672  31.465  1.00  0.00    -0.206 F 
ATOM     88  C   UNL A   1      47.339  33.806  30.714  1.00  0.00     0.040 A 
ATOM     89  C   UNL A   1      47.011  34.410  28.407  1.00  0.00     0.040 A 
ATOM     90  F   UNL A   1      46.049  32.872  26.916  1.00  0.00    -0.206 F 
ATOM     91  C   UNL A   1      47.450  34.741  29.687  1.00  0.00     0.006 A 
ENDBRANCH  63  84
BRANCH  75  92
ATOM     92  C   UNL A   1      49.079  26.285  26.690  1.00  0.00     0.057 A 
ATOM     93  C   UNL A   1      49.539  26.633  25.414  1.00  0.00     0.134 A 
ATOM     94  C   UNL A   1      49.973  25.621  27.540  1.00  0.00     0.134 A 
ATOM     95  F   UNL A   1      48.728  27.261  24.547  1.00  0.00    -0.206 F 
ATOM     96  C   UNL A   1      50.827  26.307  24.989  1.00  0.00     0.040 A 
ATOM     97  C   UNL A   1      51.274  25.316  27.138  1.00  0.00     0.040 A 
ATOM     98  F   UNL A   1      49.601  25.268  28.780  1.00  0.00    -0.206 F 
ATOM     99  C   UNL A   1      51.701  25.652  25.856  1.00  0.00     0.006 A 
ENDBRANCH  75  92
ENDBRANCH  49  50
ENDBRANCH  41  44
ENDBRANCH  39  40
ENDBRANCH  38  39
ENDBRANCH  37  38
ENDBRANCH  36  37
ENDBRANCH   1  36
TORSDOF 19
ENDMDL
MODEL 3
REMARK VINA RESULT:     -12.2      0.498      5.875
REMARK SMILES O=C(COc1ccc(Cl)c2ccccc12)N[C@@H](Cc1c[nH]c2ccccc12)C(=O)NCCCCCCNC(=O)c1ccc(-c2c3nc(c(-c4c(F)cccc4F)c4ccc([nH]4)c(-c4c(F)cccc4F)c4nc(c(-c5c(F)cccc5F)c5ccc2[nH]5)C=C4)C=C3)cc1
REMARK SMILES IDX 32 1 31 2 30 3 28 4 29 5 17 7 16 8 1 9 2 10 3 12 4 13 5 14
REMARK SMILES IDX 6 15 15 16 7 17 10 18 14 19 8 20 11 21 13 22 9 23 12 24
REMARK SMILES IDX 18 25 19 26 20 27 27 28 21 29 22 30 26 31 23 33 25 34 24 35
REMARK SMILES IDX 33 36 34 37 35 38 36 39 37 40 38 41 39 43 40 44 41 45 93 46
REMARK SMILES IDX 42 47 92 48 43 49 44 50 45 51 86 52 46 53 91 54 85 55 87 56
REMARK SMILES IDX 47 57 90 58 84 59 83 60 48 62 74 63 57 64 73 65 58 66 61 67
REMARK SMILES IDX 72 68 88 69 59 70 60 71 71 73 89 74 62 75 49 76 50 77 55 78
REMARK SMILES IDX 51 79 52 80 54 81 56 82 53 83 75 84 76 85 81 86 77 87 78 88
REMARK SMILES IDX 80 89 82 90 79 91 63 92 64 93 69 94 65 95 66 96 68 97 70 98
REMARK SMILES IDX 67 99
REMARK H PARENT 30 6 16 11 21 32 37 42 87 61 61 72
REMARK Flexibility Score: inf
ROOT
ATOM      1  C   UNL A   1      36.271  23.028  25.810  1.00  0.00     0.021 C 
ENDROOT
BRANCH   1   2
ATOM      2  C   UNL A   1      35.260  23.917  25.068  1.00  0.00     0.116 C 
BRANCH   2   3
ATOM      3  N   UNL A   1      35.031  23.579  23.671  1.00  0.00    -0.354 N 
ATOM      4  C   UNL A   1      33.947  23.079  23.001  1.00  0.00     0.242 C 
ATOM      5  O   UNL A   1      33.956  23.255  21.772  1.00  0.00    -0.273 OA
ATOM      6  H   UNL A   1      35.811  23.742  23.094  1.00  0.00     0.163 HD
BRANCH   4   7
ATOM      7  C   UNL A   1      32.703  22.397  23.651  1.00  0.00     0.175 C 
BRANCH   7   8
ATOM      8  N   UNL A   1      31.499  23.223  23.602  1.00  0.00    -0.341 N 
ATOM      9  O   UNL A   1      31.420  23.672  25.851  1.00  0.00    -0.271 OA
ATOM     10  C   UNL A   1      31.156  23.995  24.694  1.00  0.00     0.258 C 
ATOM     11  H   UNL A   1      30.936  23.230  22.794  1.00  0.00     0.164 HD
BRANCH  10  12
ATOM     12  C   UNL A   1      30.518  25.344  24.364  1.00  0.00     0.329 C 
BRANCH  12  13
ATOM     13  O   UNL A   1      31.394  26.270  23.711  1.00  0.00    -0.483 OA
BRANCH  13  14
ATOM     14  C   UNL A   1      30.958  27.581  23.721  1.00  0.00     0.128 A 
ATOM     15  C   UNL A   1      29.928  27.993  22.876  1.00  0.00     0.048 A 
ATOM     16  C   UNL A   1      31.471  28.467  24.700  1.00  0.00     0.025 A 
ATOM     17  C   UNL A   1      29.403  29.276  22.968  1.00  0.00     0.025 A 
ATOM     18  C   UNL A   1      30.938  29.783  24.800  1.00  0.00     0.004 A 
ATOM     19  C   UNL A   1      32.504  28.089  25.585  1.00  0.00     0.012 A 
ATOM     20  C   UNL A   1      29.899  30.164  23.918  1.00  0.00     0.049 A 
ATOM     21  C   UNL A   1      31.466  30.653  25.783  1.00  0.00     0.010 A 
ATOM     22  C   UNL A   1      33.009  28.972  26.542  1.00  0.00     0.001 A 
ATOM     23  Cl  UNL A   1      29.163  31.735  23.967  1.00  0.00    -0.084 Cl
ATOM     24  C   UNL A   1      32.489  30.253  26.642  1.00  0.00     0.001 A 
ENDBRANCH  13  14
ENDBRANCH  12  13
ENDBRANCH  10  12
ENDBRANCH   7   8
BRANCH   7  25
ATOM     25  C   UNL A   1      32.500  20.905  23.327  1.00  0.00     0.072 C 
BRANCH  25  26
ATOM     26  C   UNL A   1      32.746  19.953  24.451  1.00  0.00    -0.020 A 
ATOM     27  C   UNL A   1      32.659  20.217  25.805  1.00  0.00     0.087 A 
ATOM     28  C   UNL A   1      33.140  18.585  24.325  1.00  0.00     0.003 A 
ATOM     29  N   UNL A   1      32.862  19.044  26.483  1.00  0.00    -0.361 N 
ATOM     30  C   UNL A   1      33.049  18.013  25.592  1.00  0.00     0.046 A 
ATOM     31  C   UNL A   1      33.465  17.760  23.230  1.00  0.00     0.010 A 
ATOM     32  H   UNL A   1      32.872  18.952  27.462  1.00  0.00     0.166 HD
ATOM     33  C   UNL A   1      33.140  16.633  25.799  1.00  0.00     0.026 A 
ATOM     34  C   UNL A   1      33.532  16.380  23.412  1.00  0.00     0.001 A 
ATOM     35  C   UNL A   1      33.349  15.826  24.677  1.00  0.00     0.002 A 
ENDBRANCH  25  26
ENDBRANCH   7  25
ENDBRANCH   4   7
ENDBRANCH   2   3
ENDBRANCH   1   2
BRANCH   1  36
ATOM     36  C   UNL A   1      37.775  23.337  25.739  1.00  0.00     0.002 C 
BRANCH  36  37
ATOM     37  C   UNL A   1      38.811  22.282  26.152  1.00  0.00     0.002 C 
BRANCH  37  38
ATOM     38  C   UNL A   1      38.867  20.979  25.360  1.00  0.00     0.021 C 
BRANCH  38  39
ATOM     39  C   UNL A   1      39.178  19.733  26.177  1.00  0.00     0.116 C 
BRANCH  39  40
ATOM     40  N   UNL A   1      40.483  19.163  25.859  1.00  0.00    -0.352 N 
ATOM     41  C   UNL A   1      41.724  19.750  25.847  1.00  0.00     0.251 C 
ATOM     42  H   UNL A   1      40.472  18.210  25.614  1.00  0.00     0.163 HD
ATOM     43  O   UNL A   1      42.679  19.147  25.340  1.00  0.00    -0.269 OA
BRANCH  41  44
ATOM     44  C   UNL A   1      41.948  21.090  26.436  1.00  0.00     0.039 A 
ATOM     45  C   UNL A   1      42.381  22.143  25.620  1.00  0.00     0.014 A 
ATOM     46  C   UNL A   1      41.800  21.301  27.808  1.00  0.00     0.014 A 
ATOM     47  C   UNL A   1      42.647  23.398  26.179  1.00  0.00     0.010 A 
ATOM     48  C   UNL A   1      41.945  22.576  28.342  1.00  0.00     0.010 A 
ATOM     49  C   UNL A   1      42.427  23.623  27.547  1.00  0.00    -0.014 A 
BRANCH  49  50
ATOM     50  C   UNL A   1      42.812  24.899  28.203  1.00  0.00     0.031 A 
ATOM     51  C   UNL A   1      41.752  25.939  28.471  1.00  0.00     0.074 A 
ATOM     52  C   UNL A   1      44.099  25.149  28.508  1.00  0.00     0.049 A 
ATOM     53  N   UNL A   1      41.871  27.142  28.970  1.00  0.00    -0.248 NA
ATOM     54  C   UNL A   1      40.374  25.592  28.079  1.00  0.00     0.031 C 
ATOM     55  C   UNL A   1      45.220  24.243  28.261  1.00  0.00     0.029 A 
ATOM     56  N   UNL A   1      44.677  26.244  29.098  1.00  0.00    -0.354 N 
ATOM     57  C   UNL A   1      40.599  27.701  28.915  1.00  0.00     0.074 A 
ATOM     58  C   UNL A   1      39.743  26.739  28.261  1.00  0.00     0.031 C 
ATOM     59  C   UNL A   1      46.345  24.798  28.740  1.00  0.00     0.029 A 
ATOM     60  C   UNL A   1      46.030  26.111  29.295  1.00  0.00     0.049 A 
ATOM     61  H   UNL A   1      44.171  27.048  29.354  1.00  0.00     0.167 HD
ATOM     62  C   UNL A   1      40.169  28.890  29.400  1.00  0.00     0.037 A 
ATOM     63  C   UNL A   1      46.908  26.952  29.873  1.00  0.00     0.037 A 
ATOM     64  C   UNL A   1      41.019  29.819  30.094  1.00  0.00     0.049 A 
ATOM     65  C   UNL A   1      46.412  28.262  30.419  1.00  0.00     0.074 A 
ATOM     66  C   UNL A   1      40.684  31.020  30.691  1.00  0.00     0.029 A 
ATOM     67  N   UNL A   1      42.382  29.641  30.286  1.00  0.00    -0.354 N 
ATOM     68  N   UNL A   1      45.195  28.752  30.421  1.00  0.00    -0.248 NA
ATOM     69  C   UNL A   1      47.411  29.133  31.052  1.00  0.00     0.031 C 
ATOM     70  C   UNL A   1      41.854  31.593  31.200  1.00  0.00     0.029 A 
ATOM     71  C   UNL A   1      42.908  30.721  30.974  1.00  0.00     0.049 A 
ATOM     72  H   UNL A   1      42.898  28.861  29.979  1.00  0.00     0.167 HD
ATOM     73  C   UNL A   1      45.274  29.968  31.089  1.00  0.00     0.074 A 
ATOM     74  C   UNL A   1      46.659  30.136  31.481  1.00  0.00     0.031 C 
ATOM     75  C   UNL A   1      44.290  30.861  31.361  1.00  0.00     0.037 A 
BRANCH  62  76
ATOM     76  C   UNL A   1      38.720  29.238  29.186  1.00  0.00     0.057 A 
ATOM     77  C   UNL A   1      37.773  29.163  30.219  1.00  0.00     0.134 A 
ATOM     78  C   UNL A   1      38.258  29.624  27.922  1.00  0.00     0.134 A 
ATOM     79  F   UNL A   1      38.141  28.786  31.453  1.00  0.00    -0.206 F 
ATOM     80  C   UNL A   1      36.416  29.403  29.990  1.00  0.00     0.040 A 
ATOM     81  C   UNL A   1      36.910  29.904  27.689  1.00  0.00     0.040 A 
ATOM     82  F   UNL A   1      39.106  29.727  26.888  1.00  0.00    -0.206 F 
ATOM     83  C   UNL A   1      35.982  29.778  28.720  1.00  0.00     0.006 A 
ENDBRANCH  62  76
BRANCH  63  84
ATOM     84  C   UNL A   1      48.326  26.542  30.034  1.00  0.00     0.057 A 
ATOM     85  C   UNL A   1      48.736  25.817  31.159  1.00  0.00     0.134 A 
ATOM     86  C   UNL A   1      49.297  26.839  29.070  1.00  0.00     0.134 A 
ATOM     87  F   UNL A   1      47.855  25.514  32.124  1.00  0.00    -0.206 F 
ATOM     88  C   UNL A   1      50.061  25.410  31.327  1.00  0.00     0.040 A 
ATOM     89  C   UNL A   1      50.621  26.420  29.215  1.00  0.00     0.040 A 
ATOM     90  F   UNL A   1      48.967  27.521  27.964  1.00  0.00    -0.206 F 
ATOM     91  C   UNL A   1      51.007  25.707  30.348  1.00  0.00     0.006 A 
ENDBRANCH  63  84
BRANCH  75  92
ATOM     92  C   UNL A   1      44.667  32.073  32.161  1.00  0.00     0.057 A 
ATOM     93  C   UNL A   1      45.127  33.251  31.559  1.00  0.00     0.134 A 
ATOM     94  C   UNL A   1      44.529  32.070  33.555  1.00  0.00     0.134 A 
ATOM     95  F   UNL A   1      45.291  33.315  30.228  1.00  0.00    -0.206 F 
ATOM     96  C   UNL A   1      45.465  34.373  32.317  1.00  0.00     0.040 A 
ATOM     97  C   UNL A   1      44.835  33.196  34.322  1.00  0.00     0.040 A 
ATOM     98  F   UNL A   1      44.083  30.978  34.195  1.00  0.00    -0.206 F 
ATOM     99  C   UNL A   1      45.312  34.348  33.703  1.00  0.00     0.006 A 
ENDBRANCH  75  92
ENDBRANCH  49  50
ENDBRANCH  41  44
ENDBRANCH  39  40
ENDBRANCH  38  39
ENDBRANCH  37  38
ENDBRANCH  36  37
ENDBRANCH   1  36
TORSDOF 19
ENDMDL
