MODEL 1
REMARK VINA RESULT:     -12.7      0.000      0.000
REMARK SMILES O=C(NCCCCCCNC(=O)c1ccc2nc(-c3c[nH]nc3-c3ccc(F)cc3F)[nH]c2c1)c1ccc(-c2c3nc(c(-c4c(F)cccc4F)c4ccc([nH]4)c(-c4c(F)cccc4F)c4nc(c(-c5c(F)cccc5F)c5ccc2[nH]5)C=C4)C=C3)cc1
REMARK SMILES IDX 6 1 5 2 4 3 3 4 1 5 2 6 35 8 36 9 88 10 37 11 87 12 38 13
REMARK SMILES IDX 39 14 40 15 81 16 41 17 86 18 80 19 82 20 42 21 85 22 79 23
REMARK SMILES IDX 78 24 43 26 69 27 52 28 68 29 53 30 56 31 67 32 83 33 54 34
REMARK SMILES IDX 55 35 66 37 84 38 57 39 44 40 45 41 50 42 46 43 47 44 49 45
REMARK SMILES IDX 51 46 48 47 70 48 71 49 76 50 72 51 73 52 75 53 77 54 74 55
REMARK SMILES IDX 58 56 59 57 64 58 60 59 61 60 63 61 65 62 62 63 7 64 8 65
REMARK SMILES IDX 9 66 10 67 11 68 12 70 13 71 14 72 34 73 15 74 33 75 16 76
REMARK SMILES IDX 32 77 17 78 18 79 19 81 20 82 23 83 21 84 22 85 24 87 25 88
REMARK SMILES IDX 30 89 26 90 29 91 31 92 27 93 28 94
REMARK H PARENT 3 7 82 25 56 36 10 69 32 80 21 86
REMARK Flexibility Score: inf
ROOT
ATOM      1  C   UNL A   1      37.646  23.708  25.730  1.00  0.00     0.002 C 
ENDROOT
BRANCH   1   2
ATOM      2  C   UNL A   1      38.572  22.743  26.469  1.00  0.00     0.021 C 
BRANCH   2   3
ATOM      3  C   UNL A   1      39.808  23.395  27.074  1.00  0.00     0.116 C 
BRANCH   3   4
ATOM      4  N   UNL A   1      40.636  24.039  26.068  1.00  0.00    -0.352 N 
ATOM      5  O   UNL A   1      41.606  25.778  25.003  1.00  0.00    -0.269 OA
ATOM      6  C   UNL A   1      41.065  25.340  26.015  1.00  0.00     0.251 C 
ATOM      7  H   UNL A   1      40.929  23.463  25.325  1.00  0.00     0.163 HD
BRANCH   6   8
ATOM      8  C   UNL A   1      40.860  26.220  27.184  1.00  0.00     0.039 A 
ATOM      9  C   UNL A   1      41.727  27.290  27.423  1.00  0.00     0.014 A 
ATOM     10  C   UNL A   1      39.783  25.978  28.040  1.00  0.00     0.014 A 
ATOM     11  C   UNL A   1      41.583  28.051  28.575  1.00  0.00     0.010 A 
ATOM     12  C   UNL A   1      39.589  26.799  29.153  1.00  0.00     0.010 A 
ATOM     13  C   UNL A   1      40.493  27.836  29.433  1.00  0.00    -0.014 A 
BRANCH  13  14
ATOM     14  C   UNL A   1      40.244  28.785  30.544  1.00  0.00     0.031 A 
ATOM     15  C   UNL A   1      39.204  29.861  30.437  1.00  0.00     0.074 A 
ATOM     16  C   UNL A   1      40.993  28.665  31.658  1.00  0.00     0.049 A 
ATOM     17  N   UNL A   1      38.903  30.796  31.301  1.00  0.00    -0.248 NA
ATOM     18  C   UNL A   1      38.400  29.900  29.205  1.00  0.00     0.031 C 
ATOM     19  C   UNL A   1      42.041  27.660  31.861  1.00  0.00     0.029 A 
ATOM     20  N   UNL A   1      40.995  29.385  32.825  1.00  0.00    -0.354 N 
ATOM     21  C   UNL A   1      37.890  31.544  30.715  1.00  0.00     0.074 A 
ATOM     22  C   UNL A   1      37.637  30.966  29.413  1.00  0.00     0.031 C 
ATOM     23  C   UNL A   1      42.564  27.810  33.086  1.00  0.00     0.029 A 
ATOM     24  C   UNL A   1      41.945  28.964  33.725  1.00  0.00     0.049 A 
ATOM     25  H   UNL A   1      40.376  30.129  33.003  1.00  0.00     0.167 HD
ATOM     26  C   UNL A   1      37.235  32.613  31.228  1.00  0.00     0.037 A 
ATOM     27  C   UNL A   1      42.310  29.472  34.917  1.00  0.00     0.037 A 
ATOM     28  C   UNL A   1      37.488  33.163  32.536  1.00  0.00     0.049 A 
ATOM     29  C   UNL A   1      41.595  30.684  35.436  1.00  0.00     0.074 A 
ATOM     30  C   UNL A   1      36.833  34.207  33.166  1.00  0.00     0.029 A 
ATOM     31  N   UNL A   1      38.476  32.726  33.405  1.00  0.00    -0.354 N 
ATOM     32  N   UNL A   1      40.603  31.347  34.895  1.00  0.00    -0.248 NA
ATOM     33  C   UNL A   1      42.052  31.226  36.723  1.00  0.00     0.031 C 
ATOM     34  C   UNL A   1      37.464  34.442  34.390  1.00  0.00     0.029 A 
ATOM     35  C   UNL A   1      38.474  33.507  34.549  1.00  0.00     0.049 A 
ATOM     36  H   UNL A   1      39.087  31.974  33.235  1.00  0.00     0.167 HD
ATOM     37  C   UNL A   1      40.309  32.378  35.776  1.00  0.00     0.074 A 
ATOM     38  C   UNL A   1      41.214  32.238  36.900  1.00  0.00     0.031 C 
ATOM     39  C   UNL A   1      39.379  33.355  35.659  1.00  0.00     0.037 A 
BRANCH  26  40
ATOM     40  C   UNL A   1      36.184  33.279  30.389  1.00  0.00     0.057 A 
ATOM     41  C   UNL A   1      34.826  33.003  30.604  1.00  0.00     0.134 A 
ATOM     42  C   UNL A   1      36.513  34.090  29.298  1.00  0.00     0.134 A 
ATOM     43  F   UNL A   1      34.443  32.224  31.628  1.00  0.00    -0.206 F 
ATOM     44  C   UNL A   1      33.837  33.491  29.749  1.00  0.00     0.040 A 
ATOM     45  C   UNL A   1      35.530  34.602  28.448  1.00  0.00     0.040 A 
ATOM     46  F   UNL A   1      37.793  34.396  29.040  1.00  0.00    -0.206 F 
ATOM     47  C   UNL A   1      34.189  34.292  28.665  1.00  0.00     0.006 A 
ENDBRANCH  26  40
BRANCH  27  48
ATOM     48  C   UNL A   1      43.424  28.846  35.671  1.00  0.00     0.057 A 
ATOM     49  C   UNL A   1      43.189  27.829  36.607  1.00  0.00     0.134 A 
ATOM     50  C   UNL A   1      44.746  29.268  35.498  1.00  0.00     0.134 A 
ATOM     51  F   UNL A   1      41.942  27.385  36.827  1.00  0.00    -0.206 F 
ATOM     52  C   UNL A   1      44.224  27.271  37.358  1.00  0.00     0.040 A 
ATOM     53  C   UNL A   1      45.795  28.697  36.221  1.00  0.00     0.040 A 
ATOM     54  F   UNL A   1      45.037  30.227  34.608  1.00  0.00    -0.206 F 
ATOM     55  C   UNL A   1      45.533  27.701  37.160  1.00  0.00     0.006 A 
ENDBRANCH  27  48
BRANCH  39  56
ATOM     56  C   UNL A   1      39.279  34.353  36.774  1.00  0.00     0.057 A 
ATOM     57  C   UNL A   1      39.975  35.567  36.711  1.00  0.00     0.134 A 
ATOM     58  C   UNL A   1      38.570  34.070  37.947  1.00  0.00     0.134 A 
ATOM     59  F   UNL A   1      40.680  35.892  35.616  1.00  0.00    -0.206 F 
ATOM     60  C   UNL A   1      39.990  36.454  37.787  1.00  0.00     0.040 A 
ATOM     61  C   UNL A   1      38.557  34.961  39.021  1.00  0.00     0.040 A 
ATOM     62  F   UNL A   1      37.872  32.930  38.062  1.00  0.00    -0.206 F 
ATOM     63  C   UNL A   1      39.279  36.151  38.946  1.00  0.00     0.006 A 
ENDBRANCH  39  56
ENDBRANCH  13  14
ENDBRANCH   6   8
ENDBRANCH   3   4
ENDBRANCH   2   3
ENDBRANCH   1   2
BRANCH   1  64
ATOM     64  C   UNL A   1      36.169  23.617  26.123  1.00  0.00     0.002 C 
BRANCH  64  65
ATOM     65  C   UNL A   1      35.516  22.249  25.895  1.00  0.00     0.021 C 
BRANCH  65  66
ATOM     66  C   UNL A   1      34.868  22.077  24.524  1.00  0.00     0.116 C 
BRANCH  66  67
ATOM     67  N   UNL A   1      33.933  20.966  24.516  1.00  0.00    -0.352 N 
ATOM     68  C   UNL A   1      32.609  20.967  24.859  1.00  0.00     0.251 C 
ATOM     69  H   UNL A   1      34.300  20.099  24.226  1.00  0.00     0.163 HD
ATOM     70  O   UNL A   1      31.993  19.917  25.009  1.00  0.00    -0.269 OA
BRANCH  68  71
ATOM     71  C   UNL A   1      31.923  22.257  25.061  1.00  0.00     0.042 A 
ATOM     72  C   UNL A   1      31.304  22.528  26.290  1.00  0.00     0.016 A 
ATOM     73  C   UNL A   1      31.929  23.180  24.006  1.00  0.00     0.042 A 
ATOM     74  C   UNL A   1      30.665  23.751  26.503  1.00  0.00     0.031 A 
ATOM     75  C   UNL A   1      31.258  24.380  24.245  1.00  0.00     0.067 A 
ATOM     76  C   UNL A   1      30.670  24.694  25.465  1.00  0.00     0.089 A 
ATOM     77  N   UNL A   1      31.008  25.479  23.460  1.00  0.00    -0.338 N 
ATOM     78  N   UNL A   1      30.189  25.972  25.458  1.00  0.00    -0.228 NA
ATOM     79  C   UNL A   1      30.408  26.428  24.244  1.00  0.00     0.142 A 
ATOM     80  H   UNL A   1      31.223  25.568  22.503  1.00  0.00     0.168 HD
BRANCH  79  81
ATOM     81  C   UNL A   1      30.096  27.810  23.826  1.00  0.00     0.063 A 
ATOM     82  C   UNL A   1      29.168  28.201  22.893  1.00  0.00     0.117 A 
ATOM     83  C   UNL A   1      30.710  29.005  24.294  1.00  0.00     0.106 A 
ATOM     84  N   UNL A   1      29.197  29.566  22.916  1.00  0.00    -0.284 N 
ATOM     85  N   UNL A   1      30.154  30.077  23.706  1.00  0.00    -0.175 NA
ATOM     86  H   UNL A   1      28.571  30.125  22.399  1.00  0.00     0.189 HD
BRANCH  83  87
ATOM     87  C   UNL A   1      31.889  29.117  25.142  1.00  0.00     0.039 A 
ATOM     88  C   UNL A   1      31.761  29.679  26.427  1.00  0.00     0.016 A 
ATOM     89  C   UNL A   1      33.149  28.698  24.712  1.00  0.00     0.135 A 
ATOM     90  C   UNL A   1      32.878  29.823  27.251  1.00  0.00     0.040 A 
ATOM     91  C   UNL A   1      34.267  28.835  25.532  1.00  0.00     0.079 A 
ATOM     92  F   UNL A   1      33.320  28.174  23.489  1.00  0.00    -0.206 F 
ATOM     93  C   UNL A   1      34.119  29.399  26.795  1.00  0.00     0.126 A 
ATOM     94  F   UNL A   1      35.192  29.540  27.584  1.00  0.00    -0.207 F 
ENDBRANCH  83  87
ENDBRANCH  79  81
ENDBRANCH  68  71
ENDBRANCH  66  67
ENDBRANCH  65  66
ENDBRANCH  64  65
ENDBRANCH   1  64
TORSDOF 15
ENDMDL
MODEL 2
REMARK VINA RESULT:     -12.7      4.680      7.152
REMARK SMILES O=C(NCCCCCCNC(=O)c1ccc2nc(-c3c[nH]nc3-c3ccc(F)cc3F)[nH]c2c1)c1ccc(-c2c3nc(c(-c4c(F)cccc4F)c4ccc([nH]4)c(-c4c(F)cccc4F)c4nc(c(-c5c(F)cccc5F)c5ccc2[nH]5)C=C4)C=C3)cc1
REMARK SMILES IDX 6 1 5 2 4 3 3 4 1 5 2 6 35 8 36 9 88 10 37 11 87 12 38 13
REMARK SMILES IDX 39 14 40 15 81 16 41 17 86 18 80 19 82 20 42 21 85 22 79 23
REMARK SMILES IDX 78 24 43 26 69 27 52 28 68 29 53 30 56 31 67 32 83 33 54 34
REMARK SMILES IDX 55 35 66 37 84 38 57 39 44 40 45 41 50 42 46 43 47 44 49 45
REMARK SMILES IDX 51 46 48 47 70 48 71 49 76 50 72 51 73 52 75 53 77 54 74 55
REMARK SMILES IDX 58 56 59 57 64 58 60 59 61 60 63 61 65 62 62 63 7 64 8 65
REMARK SMILES IDX 9 66 10 67 11 68 12 70 13 71 14 72 34 73 15 74 33 75 16 76
REMARK SMILES IDX 32 77 17 78 18 79 19 81 20 82 23 83 21 84 22 85 24 87 25 88
REMARK SMILES IDX 30 89 26 90 29 91 31 92 27 93 28 94
REMARK H PARENT 3 7 82 25 56 36 10 69 32 80 21 86
REMARK Flexibility Score: inf
ROOT
ATOM      1  C   UNL A   1      36.675  20.174  25.056  1.00  0.00     0.002 C 
ENDROOT
BRANCH   1   2
ATOM      2  C   UNL A   1      38.142  19.957  24.687  1.00  0.00     0.021 C 
BRANCH   2   3
ATOM      3  C   UNL A   1      39.122  20.218  25.823  1.00  0.00     0.116 C 
BRANCH   3   4
ATOM      4  N   UNL A   1      40.139  19.183  25.918  1.00  0.00    -0.352 N 
ATOM      5  O   UNL A   1      42.242  18.361  25.981  1.00  0.00    -0.269 OA
ATOM      6  C   UNL A   1      41.490  19.324  26.109  1.00  0.00     0.251 C 
ATOM      7  H   UNL A   1      39.815  18.258  25.835  1.00  0.00     0.163 HD
BRANCH   6   8
ATOM      8  C   UNL A   1      42.039  20.650  26.458  1.00  0.00     0.039 A 
ATOM      9  C   UNL A   1      42.343  21.575  25.455  1.00  0.00     0.014 A 
ATOM     10  C   UNL A   1      42.239  20.974  27.802  1.00  0.00     0.014 A 
ATOM     11  C   UNL A   1      42.948  22.780  25.788  1.00  0.00     0.010 A 
ATOM     12  C   UNL A   1      42.767  22.221  28.140  1.00  0.00     0.010 A 
ATOM     13  C   UNL A   1      43.133  23.130  27.135  1.00  0.00    -0.014 A 
BRANCH  13  14
ATOM     14  C   UNL A   1      43.591  24.499  27.474  1.00  0.00     0.031 A 
ATOM     15  C   UNL A   1      42.638  25.541  27.978  1.00  0.00     0.074 A 
ATOM     16  C   UNL A   1      44.896  24.789  27.303  1.00  0.00     0.049 A 
ATOM     17  N   UNL A   1      42.876  26.794  28.269  1.00  0.00    -0.248 NA
ATOM     18  C   UNL A   1      41.238  25.134  28.177  1.00  0.00     0.031 C 
ATOM     19  C   UNL A   1      45.907  23.851  26.806  1.00  0.00     0.029 A 
ATOM     20  N   UNL A   1      45.599  25.946  27.521  1.00  0.00    -0.354 N 
ATOM     21  C   UNL A   1      41.659  27.330  28.669  1.00  0.00     0.074 A 
ATOM     22  C   UNL A   1      40.677  26.272  28.568  1.00  0.00     0.031 C 
ATOM     23  C   UNL A   1      47.101  24.459  26.785  1.00  0.00     0.029 A 
ATOM     24  C   UNL A   1      46.929  25.848  27.192  1.00  0.00     0.049 A 
ATOM     25  H   UNL A   1      45.191  26.766  27.881  1.00  0.00     0.167 HD
ATOM     26  C   UNL A   1      41.396  28.591  29.086  1.00  0.00     0.037 A 
ATOM     27  C   UNL A   1      47.900  26.780  27.177  1.00  0.00     0.037 A 
ATOM     28  C   UNL A   1      42.391  29.628  29.200  1.00  0.00     0.049 A 
ATOM     29  C   UNL A   1      47.566  28.179  27.601  1.00  0.00     0.074 A 
ATOM     30  C   UNL A   1      42.232  30.920  29.670  1.00  0.00     0.029 A 
ATOM     31  N   UNL A   1      43.721  29.497  28.830  1.00  0.00    -0.354 N 
ATOM     32  N   UNL A   1      46.423  28.658  28.028  1.00  0.00    -0.248 NA
ATOM     33  C   UNL A   1      48.647  29.172  27.532  1.00  0.00     0.031 C 
ATOM     34  C   UNL A   1      43.449  31.590  29.528  1.00  0.00     0.029 A 
ATOM     35  C   UNL A   1      44.383  30.698  29.024  1.00  0.00     0.049 A 
ATOM     36  H   UNL A   1      44.134  28.674  28.482  1.00  0.00     0.167 HD
ATOM     37  C   UNL A   1      46.647  30.001  28.290  1.00  0.00     0.074 A 
ATOM     38  C   UNL A   1      48.042  30.258  27.994  1.00  0.00     0.031 C 
ATOM     39  C   UNL A   1      45.772  30.938  28.727  1.00  0.00     0.037 A 
BRANCH  26  40
ATOM     40  C   UNL A   1      39.983  28.947  29.447  1.00  0.00     0.057 A 
ATOM     41  C   UNL A   1      39.524  28.777  30.761  1.00  0.00     0.134 A 
ATOM     42  C   UNL A   1      39.049  29.336  28.482  1.00  0.00     0.134 A 
ATOM     43  F   UNL A   1      40.367  28.397  31.733  1.00  0.00    -0.206 F 
ATOM     44  C   UNL A   1      38.181  28.960  31.095  1.00  0.00     0.040 A 
ATOM     45  C   UNL A   1      37.707  29.542  28.808  1.00  0.00     0.040 A 
ATOM     46  F   UNL A   1      39.425  29.521  27.207  1.00  0.00    -0.206 F 
ATOM     47  C   UNL A   1      37.268  29.341  30.115  1.00  0.00     0.006 A 
ENDBRANCH  26  40
BRANCH  27  48
ATOM     48  C   UNL A   1      49.262  26.414  26.716  1.00  0.00     0.057 A 
ATOM     49  C   UNL A   1      50.207  25.866  27.595  1.00  0.00     0.134 A 
ATOM     50  C   UNL A   1      49.664  26.629  25.394  1.00  0.00     0.134 A 
ATOM     51  F   UNL A   1      49.888  25.644  28.879  1.00  0.00    -0.206 F 
ATOM     52  C   UNL A   1      51.505  25.568  27.182  1.00  0.00     0.040 A 
ATOM     53  C   UNL A   1      50.950  26.307  24.959  1.00  0.00     0.040 A 
ATOM     54  F   UNL A   1      48.802  27.137  24.501  1.00  0.00    -0.206 F 
ATOM     55  C   UNL A   1      51.878  25.782  25.858  1.00  0.00     0.006 A 
ENDBRANCH  27  48
BRANCH  39  56
ATOM     56  C   UNL A   1      46.290  32.332  28.923  1.00  0.00     0.057 A 
ATOM     57  C   UNL A   1      46.787  32.740  30.167  1.00  0.00     0.134 A 
ATOM     58  C   UNL A   1      46.207  33.292  27.909  1.00  0.00     0.134 A 
ATOM     59  F   UNL A   1      46.884  31.868  31.182  1.00  0.00    -0.206 F 
ATOM     60  C   UNL A   1      47.161  34.063  30.403  1.00  0.00     0.040 A 
ATOM     61  C   UNL A   1      46.602  34.613  28.125  1.00  0.00     0.040 A 
ATOM     62  F   UNL A   1      45.751  32.959  26.692  1.00  0.00    -0.206 F 
ATOM     63  C   UNL A   1      47.069  35.003  29.379  1.00  0.00     0.006 A 
ENDBRANCH  39  56
ENDBRANCH  13  14
ENDBRANCH   6   8
ENDBRANCH   3   4
ENDBRANCH   2   3
ENDBRANCH   1   2
BRANCH   1  64
ATOM     64  C   UNL A   1      36.110  21.547  24.682  1.00  0.00     0.002 C 
BRANCH  64  65
ATOM     65  C   UNL A   1      35.721  22.437  25.868  1.00  0.00     0.021 C 
BRANCH  65  66
ATOM     66  C   UNL A   1      34.489  21.967  26.636  1.00  0.00     0.116 C 
BRANCH  66  67
ATOM     67  N   UNL A   1      33.750  20.963  25.891  1.00  0.00    -0.352 N 
ATOM     68  C   UNL A   1      32.462  21.021  25.433  1.00  0.00     0.251 C 
ATOM     69  H   UNL A   1      34.240  20.133  25.689  1.00  0.00     0.163 HD
ATOM     70  O   UNL A   1      31.898  20.021  25.004  1.00  0.00    -0.269 OA
BRANCH  68  71
ATOM     71  C   UNL A   1      31.747  22.310  25.469  1.00  0.00     0.042 A 
ATOM     72  C   UNL A   1      30.936  22.622  26.570  1.00  0.00     0.016 A 
ATOM     73  C   UNL A   1      31.921  23.193  24.394  1.00  0.00     0.042 A 
ATOM     74  C   UNL A   1      30.265  23.845  26.628  1.00  0.00     0.031 A 
ATOM     75  C   UNL A   1      31.215  24.395  24.474  1.00  0.00     0.067 A 
ATOM     76  C   UNL A   1      30.435  24.748  25.569  1.00  0.00     0.089 A 
ATOM     77  N   UNL A   1      31.092  25.460  23.616  1.00  0.00    -0.338 N 
ATOM     78  N   UNL A   1      29.956  26.019  25.434  1.00  0.00    -0.228 NA
ATOM     79  C   UNL A   1      30.368  26.431  24.254  1.00  0.00     0.142 A 
ATOM     80  H   UNL A   1      31.459  25.515  22.704  1.00  0.00     0.168 HD
BRANCH  79  81
ATOM     81  C   UNL A   1      30.122  27.794  23.738  1.00  0.00     0.063 A 
ATOM     82  C   UNL A   1      29.289  28.147  22.705  1.00  0.00     0.117 A 
ATOM     83  C   UNL A   1      30.715  29.002  24.196  1.00  0.00     0.106 A 
ATOM     84  N   UNL A   1      29.343  29.511  22.658  1.00  0.00    -0.284 N 
ATOM     85  N   UNL A   1      30.235  30.050  23.504  1.00  0.00    -0.175 NA
ATOM     86  H   UNL A   1      28.778  30.050  22.058  1.00  0.00     0.189 HD
BRANCH  83  87
ATOM     87  C   UNL A   1      31.815  29.143  25.141  1.00  0.00     0.039 A 
ATOM     88  C   UNL A   1      31.609  29.864  26.333  1.00  0.00     0.016 A 
ATOM     89  C   UNL A   1      33.075  28.597  24.891  1.00  0.00     0.135 A 
ATOM     90  C   UNL A   1      32.652  30.037  27.244  1.00  0.00     0.040 A 
ATOM     91  C   UNL A   1      34.118  28.763  25.800  1.00  0.00     0.079 A 
ATOM     92  F   UNL A   1      33.320  27.918  23.760  1.00  0.00    -0.206 F 
ATOM     93  C   UNL A   1      33.896  29.484  26.967  1.00  0.00     0.126 A 
ATOM     94  F   UNL A   1      34.898  29.652  27.840  1.00  0.00    -0.207 F 
ENDBRANCH  83  87
ENDBRANCH  79  81
ENDBRANCH  68  71
ENDBRANCH  66  67
ENDBRANCH  65  66
ENDBRANCH  64  65
ENDBRANCH   1  64
TORSDOF 15
ENDMDL
MODEL 3
REMARK VINA RESULT:     -12.5      1.067      6.069
REMARK SMILES O=C(NCCCCCCNC(=O)c1ccc2nc(-c3c[nH]nc3-c3ccc(F)cc3F)[nH]c2c1)c1ccc(-c2c3nc(c(-c4c(F)cccc4F)c4ccc([nH]4)c(-c4c(F)cccc4F)c4nc(c(-c5c(F)cccc5F)c5ccc2[nH]5)C=C4)C=C3)cc1
REMARK SMILES IDX 6 1 5 2 4 3 3 4 1 5 2 6 35 8 36 9 88 10 37 11 87 12 38 13
REMARK SMILES IDX 39 14 40 15 81 16 41 17 86 18 80 19 82 20 42 21 85 22 79 23
REMARK SMILES IDX 78 24 43 26 69 27 52 28 68 29 53 30 56 31 67 32 83 33 54 34
REMARK SMILES IDX 55 35 66 37 84 38 57 39 44 40 45 41 50 42 46 43 47 44 49 45
REMARK SMILES IDX 51 46 48 47 70 48 71 49 76 50 72 51 73 52 75 53 77 54 74 55
REMARK SMILES IDX 58 56 59 57 64 58 60 59 61 60 63 61 65 62 62 63 7 64 8 65
REMARK SMILES IDX 9 66 10 67 11 68 12 70 13 71 14 72 34 73 15 74 33 75 16 76
REMARK SMILES IDX 32 77 17 78 18 79 19 81 20 82 23 83 21 84 22 85 24 87 25 88
REMARK SMILES IDX 30 89 26 90 29 91 31 92 27 93 28 94
REMARK H PARENT 3 7 82 25 56 36 10 69 32 80 21 86
REMARK Flexibility Score: inf
ROOT
ATOM      1  C   UNL A   1      38.334  22.134  25.767  1.00  0.00     0.002 C 
ENDROOT
BRANCH   1   2
ATOM      2  C   UNL A   1      39.655  21.454  26.129  1.00  0.00     0.021 C 
BRANCH   2   3
ATOM      3  C   UNL A   1      40.669  22.368  26.804  1.00  0.00     0.116 C 
BRANCH   3   4
ATOM      4  N   UNL A   1      41.704  22.812  25.885  1.00  0.00    -0.352 N 
ATOM      5  O   UNL A   1      43.003  24.321  24.819  1.00  0.00    -0.269 OA
ATOM      6  C   UNL A   1      42.272  24.055  25.770  1.00  0.00     0.251 C 
ATOM      7  H   UNL A   1      42.042  22.130  25.261  1.00  0.00     0.163 HD
BRANCH   6   8
ATOM      8  C   UNL A   1      41.989  25.080  26.796  1.00  0.00     0.039 A 
ATOM      9  C   UNL A   1      40.965  24.883  27.726  1.00  0.00     0.014 A 
ATOM     10  C   UNL A   1      42.765  26.240  26.833  1.00  0.00     0.014 A 
ATOM     11  C   UNL A   1      40.645  25.893  28.624  1.00  0.00     0.010 A 
ATOM     12  C   UNL A   1      42.498  27.218  27.793  1.00  0.00     0.010 A 
ATOM     13  C   UNL A   1      41.430  27.055  28.690  1.00  0.00    -0.014 A 
BRANCH  13  14
ATOM     14  C   UNL A   1      41.198  28.027  29.785  1.00  0.00     0.031 A 
ATOM     15  C   UNL A   1      42.009  27.994  31.046  1.00  0.00     0.074 A 
ATOM     16  C   UNL A   1      40.222  28.942  29.622  1.00  0.00     0.049 A 
ATOM     17  N   UNL A   1      41.893  28.743  32.113  1.00  0.00    -0.248 NA
ATOM     18  C   UNL A   1      43.083  26.992  31.130  1.00  0.00     0.031 C 
ATOM     19  C   UNL A   1      39.365  29.055  28.438  1.00  0.00     0.029 A 
ATOM     20  N   UNL A   1      39.780  29.946  30.445  1.00  0.00    -0.354 N 
ATOM     21  C   UNL A   1      42.864  28.296  32.999  1.00  0.00     0.074 A 
ATOM     22  C   UNL A   1      43.551  27.198  32.355  1.00  0.00     0.031 C 
ATOM     23  C   UNL A   1      38.523  30.084  28.599  1.00  0.00     0.029 A 
ATOM     24  C   UNL A   1      38.726  30.656  29.923  1.00  0.00     0.049 A 
ATOM     25  H   UNL A   1      40.181  30.141  31.323  1.00  0.00     0.167 HD
ATOM     26  C   UNL A   1      43.150  28.769  34.235  1.00  0.00     0.037 A 
ATOM     27  C   UNL A   1      37.975  31.635  30.463  1.00  0.00     0.037 A 
ATOM     28  C   UNL A   1      42.468  29.878  34.854  1.00  0.00     0.049 A 
ATOM     29  C   UNL A   1      38.289  32.105  31.852  1.00  0.00     0.074 A 
ATOM     30  C   UNL A   1      42.728  30.467  36.078  1.00  0.00     0.029 A 
ATOM     31  N   UNL A   1      41.388  30.552  34.305  1.00  0.00    -0.354 N 
ATOM     32  N   UNL A   1      39.245  31.710  32.657  1.00  0.00    -0.248 NA
ATOM     33  C   UNL A   1      37.420  33.147  32.415  1.00  0.00     0.031 C 
ATOM     34  C   UNL A   1      41.768  31.458  36.298  1.00  0.00     0.029 A 
ATOM     35  C   UNL A   1      40.946  31.526  35.185  1.00  0.00     0.049 A 
ATOM     36  H   UNL A   1      40.995  30.368  33.422  1.00  0.00     0.167 HD
ATOM     37  C   UNL A   1      39.100  32.458  33.816  1.00  0.00     0.074 A 
ATOM     38  C   UNL A   1      37.978  33.349  33.601  1.00  0.00     0.031 C 
ATOM     39  C   UNL A   1      39.828  32.405  34.956  1.00  0.00     0.037 A 
BRANCH  26  40
ATOM     40  C   UNL A   1      44.239  28.101  35.024  1.00  0.00     0.057 A 
ATOM     41  C   UNL A   1      43.933  27.068  35.921  1.00  0.00     0.134 A 
ATOM     42  C   UNL A   1      45.561  28.557  34.991  1.00  0.00     0.134 A 
ATOM     43  F   UNL A   1      42.682  26.591  36.009  1.00  0.00    -0.206 F 
ATOM     44  C   UNL A   1      44.899  26.530  36.773  1.00  0.00     0.040 A 
ATOM     45  C   UNL A   1      46.541  28.011  35.823  1.00  0.00     0.040 A 
ATOM     46  F   UNL A   1      45.921  29.539  34.151  1.00  0.00    -0.206 F 
ATOM     47  C   UNL A   1      46.207  27.004  36.727  1.00  0.00     0.006 A 
ENDBRANCH  26  40
BRANCH  27  48
ATOM     48  C   UNL A   1      36.842  32.200  29.690  1.00  0.00     0.057 A 
ATOM     49  C   UNL A   1      37.032  33.248  28.779  1.00  0.00     0.134 A 
ATOM     50  C   UNL A   1      35.537  31.729  29.865  1.00  0.00     0.134 A 
ATOM     51  F   UNL A   1      38.258  33.752  28.572  1.00  0.00    -0.206 F 
ATOM     52  C   UNL A   1      35.964  33.820  28.087  1.00  0.00     0.040 A 
ATOM     53  C   UNL A   1      34.463  32.272  29.157  1.00  0.00     0.040 A 
ATOM     54  F   UNL A   1      35.291  30.719  30.712  1.00  0.00    -0.206 F 
ATOM     55  C   UNL A   1      34.675  33.327  28.271  1.00  0.00     0.006 A 
ENDBRANCH  27  48
BRANCH  39  56
ATOM     56  C   UNL A   1      39.446  33.339  36.066  1.00  0.00     0.057 A 
ATOM     57  C   UNL A   1      40.034  34.606  36.169  1.00  0.00     0.134 A 
ATOM     58  C   UNL A   1      38.568  32.946  37.083  1.00  0.00     0.134 A 
ATOM     59  F   UNL A   1      40.890  35.038  35.230  1.00  0.00    -0.206 F 
ATOM     60  C   UNL A   1      39.781  35.440  37.258  1.00  0.00     0.040 A 
ATOM     61  C   UNL A   1      38.287  33.781  38.164  1.00  0.00     0.040 A 
ATOM     62  F   UNL A   1      37.963  31.749  37.034  1.00  0.00    -0.206 F 
ATOM     63  C   UNL A   1      38.905  35.027  38.259  1.00  0.00     0.006 A 
ENDBRANCH  39  56
ENDBRANCH  13  14
ENDBRANCH   6   8
ENDBRANCH   3   4
ENDBRANCH   2   3
ENDBRANCH   1   2
BRANCH   1  64
ATOM     64  C   UNL A   1      37.360  21.267  24.964  1.00  0.00     0.002 C 
BRANCH  64  65
ATOM     65  C   UNL A   1      36.004  21.917  24.666  1.00  0.00     0.021 C 
BRANCH  65  66
ATOM     66  C   UNL A   1      34.893  21.545  25.644  1.00  0.00     0.116 C 
BRANCH  66  67
ATOM     67  N   UNL A   1      33.999  20.551  25.077  1.00  0.00    -0.352 N 
ATOM     68  C   UNL A   1      32.643  20.625  24.910  1.00  0.00     0.251 C 
ATOM     69  H   UNL A   1      34.424  19.716  24.774  1.00  0.00     0.163 HD
ATOM     70  O   UNL A   1      31.987  19.632  24.615  1.00  0.00    -0.269 OA
BRANCH  68  71
ATOM     71  C   UNL A   1      31.968  21.922  25.101  1.00  0.00     0.042 A 
ATOM     72  C   UNL A   1      31.292  22.181  26.302  1.00  0.00     0.016 A 
ATOM     73  C   UNL A   1      32.043  22.865  24.066  1.00  0.00     0.042 A 
ATOM     74  C   UNL A   1      30.662  23.411  26.505  1.00  0.00     0.031 A 
ATOM     75  C   UNL A   1      31.379  24.071  24.293  1.00  0.00     0.067 A 
ATOM     76  C   UNL A   1      30.734  24.372  25.488  1.00  0.00     0.089 A 
ATOM     77  N   UNL A   1      31.187  25.187  23.517  1.00  0.00    -0.338 N 
ATOM     78  N   UNL A   1      30.275  25.658  25.481  1.00  0.00    -0.228 NA
ATOM     79  C   UNL A   1      30.563  26.132  24.288  1.00  0.00     0.142 A 
ATOM     80  H   UNL A   1      31.452  25.291  22.574  1.00  0.00     0.168 HD
BRANCH  79  81
ATOM     81  C   UNL A   1      30.294  27.527  23.881  1.00  0.00     0.063 A 
ATOM     82  C   UNL A   1      29.432  27.949  22.900  1.00  0.00     0.117 A 
ATOM     83  C   UNL A   1      30.891  28.703  24.412  1.00  0.00     0.106 A 
ATOM     84  N   UNL A   1      29.475  29.313  22.953  1.00  0.00    -0.284 N 
ATOM     85  N   UNL A   1      30.386  29.795  23.814  1.00  0.00    -0.175 NA
ATOM     86  H   UNL A   1      28.891  29.891  22.411  1.00  0.00     0.189 HD
BRANCH  83  87
ATOM     87  C   UNL A   1      32.015  28.783  25.335  1.00  0.00     0.039 A 
ATOM     88  C   UNL A   1      31.787  29.189  26.664  1.00  0.00     0.016 A 
ATOM     89  C   UNL A   1      33.319  28.481  24.937  1.00  0.00     0.135 A 
ATOM     90  C   UNL A   1      32.849  29.300  27.563  1.00  0.00     0.040 A 
ATOM     91  C   UNL A   1      34.382  28.585  25.832  1.00  0.00     0.079 A 
ATOM     92  F   UNL A   1      33.585  28.107  23.677  1.00  0.00    -0.206 F 
ATOM     93  C   UNL A   1      34.135  28.996  27.137  1.00  0.00     0.126 A 
ATOM     94  F   UNL A   1      35.155  29.104  27.999  1.00  0.00    -0.207 F 
ENDBRANCH  83  87
ENDBRANCH  79  81
ENDBRANCH  68  71
ENDBRANCH  66  67
ENDBRANCH  65  66
ENDBRANCH  64  65
ENDBRANCH   1  64
TORSDOF 15
ENDMDL
