MODEL 1
REMARK VINA RESULT:     -12.1      0.000      0.000
REMARK SMILES Cc1ccc(NC(=O)N2CCCC[C@@H]2C(=O)NCCCCCCNC(=O)c2ccc(-c3c4nc(c(-c5c(F)cccc5F)c5ccc([nH]5)c(-c5c(F)cccc5F)c5nc(c(-c6c(F)cccc6F)c6ccc3[nH]6)C=C5)C=C4)cc2)cc1
REMARK SMILES IDX 20 1 19 2 18 3 17 4 15 5 16 6 14 8 9 9 10 10 11 11 13 12
REMARK SMILES IDX 12 13 7 14 6 15 8 17 5 18 1 19 2 20 3 21 82 22 4 23 81 24
REMARK SMILES IDX 21 25 22 26 23 27 24 28 25 29 26 31 27 32 28 33 80 34 29 35
REMARK SMILES IDX 79 36 30 37 31 38 32 39 73 40 33 41 78 42 72 43 74 44 34 45
REMARK SMILES IDX 77 46 71 47 70 48 35 50 61 51 44 52 60 53 45 54 48 55 59 56
REMARK SMILES IDX 75 57 46 58 47 59 58 61 76 62 49 63 36 64 37 65 42 66 38 67
REMARK SMILES IDX 39 68 41 69 43 70 40 71 62 72 63 73 68 74 64 75 65 76 67 77
REMARK SMILES IDX 69 78 66 79 50 80 51 81 56 82 52 83 53 84 55 85 57 86 54 87
REMARK H PARENT 17 7 6 16 24 30 74 49 48 60
REMARK Flexibility Score: inf
ROOT
ATOM      1  C   UNL A   1      32.736  28.308  26.072  1.00  0.00     0.002 C 
ENDROOT
BRANCH   1   2
ATOM      2  C   UNL A   1      33.621  27.545  25.076  1.00  0.00     0.021 C 
BRANCH   2   3
ATOM      3  C   UNL A   1      33.792  26.053  25.371  1.00  0.00     0.116 C 
BRANCH   3   4
ATOM      4  N   UNL A   1      34.394  25.376  24.242  1.00  0.00    -0.354 N 
ATOM      5  C   UNL A   1      34.538  24.043  23.998  1.00  0.00     0.242 C 
ATOM      6  O   UNL A   1      35.342  23.723  23.115  1.00  0.00    -0.273 OA
ATOM      7  H   UNL A   1      34.754  25.969  23.543  1.00  0.00     0.163 HD
BRANCH   5   8
ATOM      8  C   UNL A   1      33.871  22.965  24.890  1.00  0.00     0.176 C 
ATOM      9  N   UNL A   1      32.446  22.665  24.571  1.00  0.00    -0.313 N 
ATOM     10  C   UNL A   1      31.631  22.028  25.603  1.00  0.00     0.122 C 
ATOM     11  C   UNL A   1      31.850  22.573  27.002  1.00  0.00     0.022 C 
ATOM     12  C   UNL A   1      34.087  23.419  26.351  1.00  0.00     0.035 C 
ATOM     13  C   UNL A   1      33.327  22.564  27.350  1.00  0.00     0.004 C 
BRANCH   9  14
ATOM     14  C   UNL A   1      31.912  22.600  23.294  1.00  0.00     0.322 C 
ATOM     15  N   UNL A   1      30.952  23.475  22.896  1.00  0.00    -0.308 N 
ATOM     16  H   UNL A   1      30.235  23.080  22.351  1.00  0.00     0.171 HD
ATOM     17  O   UNL A   1      32.217  21.686  22.523  1.00  0.00    -0.248 OA
BRANCH  15  18
ATOM     18  C   UNL A   1      30.819  24.851  23.136  1.00  0.00     0.042 A 
ATOM     19  C   UNL A   1      29.977  29.057  23.373  1.00  0.00     0.044 C 
ATOM     20  C   UNL A   1      30.379  27.612  23.362  1.00  0.00    -0.051 A 
ATOM     21  C   UNL A   1      29.876  26.735  24.327  1.00  0.00     0.005 A 
ATOM     22  C   UNL A   1      31.179  27.105  22.334  1.00  0.00     0.005 A 
ATOM     23  C   UNL A   1      30.119  25.364  24.229  1.00  0.00     0.026 A 
ATOM     24  C   UNL A   1      31.416  25.731  22.233  1.00  0.00     0.026 A 
ENDBRANCH  15  18
ENDBRANCH   9  14
ENDBRANCH   5   8
ENDBRANCH   3   4
ENDBRANCH   2   3
ENDBRANCH   1   2
BRANCH   1  25
ATOM     25  C   UNL A   1      32.626  29.827  25.863  1.00  0.00     0.002 C 
BRANCH  25  26
ATOM     26  C   UNL A   1      33.141  30.706  27.007  1.00  0.00     0.021 C 
BRANCH  26  27
ATOM     27  C   UNL A   1      34.442  30.221  27.631  1.00  0.00     0.116 C 
BRANCH  27  28
ATOM     28  N   UNL A   1      34.996  31.120  28.637  1.00  0.00    -0.352 N 
ATOM     29  C   UNL A   1      36.174  31.001  29.356  1.00  0.00     0.251 C 
ATOM     30  H   UNL A   1      34.459  31.922  28.832  1.00  0.00     0.163 HD
ATOM     31  O   UNL A   1      36.484  31.845  30.182  1.00  0.00    -0.269 OA
BRANCH  29  32
ATOM     32  C   UNL A   1      37.122  29.912  29.010  1.00  0.00     0.039 A 
ATOM     33  C   UNL A   1      37.330  28.911  29.963  1.00  0.00     0.014 A 
ATOM     34  C   UNL A   1      37.945  30.002  27.890  1.00  0.00     0.014 A 
ATOM     35  C   UNL A   1      38.512  28.178  29.934  1.00  0.00     0.010 A 
ATOM     36  C   UNL A   1      39.158  29.338  27.903  1.00  0.00     0.010 A 
ATOM     37  C   UNL A   1      39.471  28.487  28.968  1.00  0.00    -0.014 A 
BRANCH  37  38
ATOM     38  C   UNL A   1      40.867  28.087  29.104  1.00  0.00     0.031 A 
ATOM     39  C   UNL A   1      41.359  26.832  28.510  1.00  0.00     0.074 A 
ATOM     40  C   UNL A   1      41.722  28.900  29.764  1.00  0.00     0.049 A 
ATOM     41  N   UNL A   1      42.347  26.143  28.976  1.00  0.00    -0.248 NA
ATOM     42  C   UNL A   1      40.732  26.227  27.344  1.00  0.00     0.031 C 
ATOM     43  C   UNL A   1      43.176  28.795  29.825  1.00  0.00     0.029 A 
ATOM     44  N   UNL A   1      41.400  29.883  30.710  1.00  0.00    -0.354 N 
ATOM     45  C   UNL A   1      42.666  25.182  28.041  1.00  0.00     0.074 A 
ATOM     46  C   UNL A   1      41.581  25.229  27.085  1.00  0.00     0.031 C 
ATOM     47  C   UNL A   1      43.610  29.443  30.918  1.00  0.00     0.029 A 
ATOM     48  C   UNL A   1      42.437  29.866  31.665  1.00  0.00     0.049 A 
ATOM     49  H   UNL A   1      40.609  30.468  30.707  1.00  0.00     0.167 HD
ATOM     50  C   UNL A   1      43.883  24.564  28.099  1.00  0.00     0.037 A 
ATOM     51  C   UNL A   1      42.192  29.565  32.973  1.00  0.00     0.037 A 
ATOM     52  C   UNL A   1      44.649  25.007  29.265  1.00  0.00     0.049 A 
ATOM     53  C   UNL A   1      42.943  28.356  33.478  1.00  0.00     0.074 A 
ATOM     54  C   UNL A   1      45.651  25.954  29.411  1.00  0.00     0.029 A 
ATOM     55  N   UNL A   1      44.224  24.684  30.549  1.00  0.00    -0.354 N 
ATOM     56  N   UNL A   1      43.496  27.467  32.701  1.00  0.00    -0.248 NA
ATOM     57  C   UNL A   1      43.084  28.025  34.895  1.00  0.00     0.031 C 
ATOM     58  C   UNL A   1      45.789  26.242  30.789  1.00  0.00     0.029 A 
ATOM     59  C   UNL A   1      44.882  25.461  31.484  1.00  0.00     0.049 A 
ATOM     60  H   UNL A   1      43.549  24.000  30.762  1.00  0.00     0.167 HD
ATOM     61  C   UNL A   1      44.009  26.452  33.464  1.00  0.00     0.074 A 
ATOM     62  C   UNL A   1      43.752  26.861  34.832  1.00  0.00     0.031 C 
ATOM     63  C   UNL A   1      44.583  25.349  32.902  1.00  0.00     0.037 A 
BRANCH  50  64
ATOM     64  C   UNL A   1      44.508  23.839  26.920  1.00  0.00     0.057 A 
ATOM     65  C   UNL A   1      44.118  22.525  26.585  1.00  0.00     0.134 A 
ATOM     66  C   UNL A   1      45.549  24.343  26.123  1.00  0.00     0.134 A 
ATOM     67  F   UNL A   1      43.043  21.945  27.134  1.00  0.00    -0.206 F 
ATOM     68  C   UNL A   1      44.809  21.732  25.660  1.00  0.00     0.040 A 
ATOM     69  C   UNL A   1      46.285  23.547  25.231  1.00  0.00     0.040 A 
ATOM     70  F   UNL A   1      45.862  25.644  26.121  1.00  0.00    -0.206 F 
ATOM     71  C   UNL A   1      45.931  22.224  25.014  1.00  0.00     0.006 A 
ENDBRANCH  50  64
BRANCH  51  72
ATOM     72  C   UNL A   1      40.840  29.969  33.436  1.00  0.00     0.057 A 
ATOM     73  C   UNL A   1      40.615  31.314  33.777  1.00  0.00     0.134 A 
ATOM     74  C   UNL A   1      39.716  29.170  33.213  1.00  0.00     0.134 A 
ATOM     75  F   UNL A   1      41.653  32.135  34.002  1.00  0.00    -0.206 F 
ATOM     76  C   UNL A   1      39.333  31.866  33.792  1.00  0.00     0.040 A 
ATOM     77  C   UNL A   1      38.425  29.711  33.236  1.00  0.00     0.040 A 
ATOM     78  F   UNL A   1      39.851  27.884  32.860  1.00  0.00    -0.206 F 
ATOM     79  C   UNL A   1      38.234  31.069  33.489  1.00  0.00     0.006 A 
ENDBRANCH  51  72
BRANCH  63  80
ATOM     80  C   UNL A   1      44.997  24.108  33.646  1.00  0.00     0.057 A 
ATOM     81  C   UNL A   1      44.168  22.992  33.830  1.00  0.00     0.134 A 
ATOM     82  C   UNL A   1      46.328  23.952  34.087  1.00  0.00     0.134 A 
ATOM     83  F   UNL A   1      42.911  22.970  33.365  1.00  0.00    -0.206 F 
ATOM     84  C   UNL A   1      44.614  21.822  34.458  1.00  0.00     0.040 A 
ATOM     85  C   UNL A   1      46.798  22.772  34.672  1.00  0.00     0.040 A 
ATOM     86  F   UNL A   1      47.232  24.932  33.950  1.00  0.00    -0.206 F 
ATOM     87  C   UNL A   1      45.937  21.705  34.873  1.00  0.00     0.006 A 
ENDBRANCH  63  80
ENDBRANCH  37  38
ENDBRANCH  29  32
ENDBRANCH  27  28
ENDBRANCH  26  27
ENDBRANCH  25  26
ENDBRANCH   1  25
TORSDOF 15
ENDMDL
MODEL 2
REMARK VINA RESULT:     -11.9      1.500      3.332
REMARK SMILES Cc1ccc(NC(=O)N2CCCC[C@@H]2C(=O)NCCCCCCNC(=O)c2ccc(-c3c4nc(c(-c5c(F)cccc5F)c5ccc([nH]5)c(-c5c(F)cccc5F)c5nc(c(-c6c(F)cccc6F)c6ccc3[nH]6)C=C5)C=C4)cc2)cc1
REMARK SMILES IDX 20 1 19 2 18 3 17 4 15 5 16 6 14 8 9 9 10 10 11 11 13 12
REMARK SMILES IDX 12 13 7 14 6 15 8 17 5 18 1 19 2 20 3 21 82 22 4 23 81 24
REMARK SMILES IDX 21 25 22 26 23 27 24 28 25 29 26 31 27 32 28 33 80 34 29 35
REMARK SMILES IDX 79 36 30 37 31 38 32 39 73 40 33 41 78 42 72 43 74 44 34 45
REMARK SMILES IDX 77 46 71 47 70 48 35 50 61 51 44 52 60 53 45 54 48 55 59 56
REMARK SMILES IDX 75 57 46 58 47 59 58 61 76 62 49 63 36 64 37 65 42 66 38 67
REMARK SMILES IDX 39 68 41 69 43 70 40 71 62 72 63 73 68 74 64 75 65 76 67 77
REMARK SMILES IDX 69 78 66 79 50 80 51 81 56 82 52 83 53 84 55 85 57 86 54 87
REMARK H PARENT 17 7 6 16 24 30 74 49 48 60
REMARK Flexibility Score: inf
ROOT
ATOM      1  C   UNL A   1      31.791  28.442  25.438  1.00  0.00     0.002 C 
ENDROOT
BRANCH   1   2
ATOM      2  C   UNL A   1      32.937  27.769  24.669  1.00  0.00     0.021 C 
BRANCH   2   3
ATOM      3  C   UNL A   1      32.502  26.713  23.650  1.00  0.00     0.116 C 
BRANCH   3   4
ATOM      4  N   UNL A   1      33.647  25.979  23.155  1.00  0.00    -0.354 N 
ATOM      5  C   UNL A   1      33.841  24.635  23.042  1.00  0.00     0.242 C 
ATOM      6  O   UNL A   1      35.005  24.254  22.871  1.00  0.00    -0.273 OA
ATOM      7  H   UNL A   1      34.401  26.536  22.854  1.00  0.00     0.163 HD
BRANCH   5   8
ATOM      8  C   UNL A   1      32.702  23.614  23.290  1.00  0.00     0.176 C 
ATOM      9  N   UNL A   1      32.675  23.006  24.650  1.00  0.00    -0.313 N 
ATOM     10  C   UNL A   1      31.952  21.749  24.826  1.00  0.00     0.122 C 
ATOM     11  C   UNL A   1      32.154  20.745  23.705  1.00  0.00     0.022 C 
ATOM     12  C   UNL A   1      32.802  22.569  22.156  1.00  0.00     0.035 C 
ATOM     13  C   UNL A   1      31.868  21.389  22.360  1.00  0.00     0.004 C 
BRANCH   9  14
ATOM     14  C   UNL A   1      32.955  23.678  25.829  1.00  0.00     0.322 C 
ATOM     15  N   UNL A   1      34.018  23.324  26.597  1.00  0.00    -0.308 N 
ATOM     16  H   UNL A   1      33.850  23.338  27.566  1.00  0.00     0.171 HD
ATOM     17  O   UNL A   1      32.192  24.544  26.265  1.00  0.00    -0.248 OA
BRANCH  15  18
ATOM     18  C   UNL A   1      35.318  22.940  26.230  1.00  0.00     0.042 A 
ATOM     19  C   UNL A   1      39.444  21.848  25.748  1.00  0.00     0.044 C 
ATOM     20  C   UNL A   1      37.999  22.246  25.785  1.00  0.00    -0.051 A 
ATOM     21  C   UNL A   1      36.999  21.270  25.741  1.00  0.00     0.005 A 
ATOM     22  C   UNL A   1      37.634  23.584  25.965  1.00  0.00     0.005 A 
ATOM     23  C   UNL A   1      35.662  21.621  25.935  1.00  0.00     0.026 A 
ATOM     24  C   UNL A   1      36.296  23.933  26.165  1.00  0.00     0.026 A 
ENDBRANCH  15  18
ENDBRANCH   9  14
ENDBRANCH   5   8
ENDBRANCH   3   4
ENDBRANCH   2   3
ENDBRANCH   1   2
BRANCH   1  25
ATOM     25  C   UNL A   1      31.829  29.977  25.513  1.00  0.00     0.002 C 
BRANCH  25  26
ATOM     26  C   UNL A   1      32.202  30.579  26.871  1.00  0.00     0.021 C 
BRANCH  26  27
ATOM     27  C   UNL A   1      33.641  30.322  27.296  1.00  0.00     0.116 C 
BRANCH  27  28
ATOM     28  N   UNL A   1      34.181  31.314  28.216  1.00  0.00    -0.352 N 
ATOM     29  C   UNL A   1      35.337  31.256  28.979  1.00  0.00     0.251 C 
ATOM     30  H   UNL A   1      33.653  32.141  28.308  1.00  0.00     0.163 HD
ATOM     31  O   UNL A   1      35.637  32.179  29.720  1.00  0.00    -0.269 OA
BRANCH  29  32
ATOM     32  C   UNL A   1      36.274  30.122  28.780  1.00  0.00     0.039 A 
ATOM     33  C   UNL A   1      36.606  29.356  29.901  1.00  0.00     0.014 A 
ATOM     34  C   UNL A   1      36.976  29.969  27.587  1.00  0.00     0.014 A 
ATOM     35  C   UNL A   1      37.800  28.641  29.907  1.00  0.00     0.010 A 
ATOM     36  C   UNL A   1      38.202  29.330  27.615  1.00  0.00     0.010 A 
ATOM     37  C   UNL A   1      38.646  28.736  28.801  1.00  0.00    -0.014 A 
BRANCH  37  38
ATOM     38  C   UNL A   1      40.059  28.383  28.872  1.00  0.00     0.031 A 
ATOM     39  C   UNL A   1      40.539  27.069  28.406  1.00  0.00     0.074 A 
ATOM     40  C   UNL A   1      40.940  29.290  29.350  1.00  0.00     0.049 A 
ATOM     41  N   UNL A   1      41.581  26.466  28.874  1.00  0.00    -0.248 NA
ATOM     42  C   UNL A   1      39.840  26.307  27.383  1.00  0.00     0.031 C 
ATOM     43  C   UNL A   1      42.397  29.221  29.304  1.00  0.00     0.029 A 
ATOM     44  N   UNL A   1      40.666  30.382  30.184  1.00  0.00    -0.354 N 
ATOM     45  C   UNL A   1      41.852  25.397  28.048  1.00  0.00     0.074 A 
ATOM     46  C   UNL A   1      40.694  25.299  27.186  1.00  0.00     0.031 C 
ATOM     47  C   UNL A   1      42.896  30.014  30.265  1.00  0.00     0.029 A 
ATOM     48  C   UNL A   1      41.775  30.509  31.046  1.00  0.00     0.049 A 
ATOM     49  H   UNL A   1      39.861  30.947  30.172  1.00  0.00     0.167 HD
ATOM     50  C   UNL A   1      43.087  24.814  28.084  1.00  0.00     0.037 A 
ATOM     51  C   UNL A   1      41.643  30.377  32.397  1.00  0.00     0.037 A 
ATOM     52  C   UNL A   1      43.930  25.420  29.117  1.00  0.00     0.049 A 
ATOM     53  C   UNL A   1      42.466  29.258  32.990  1.00  0.00     0.074 A 
ATOM     54  C   UNL A   1      44.912  26.396  29.057  1.00  0.00     0.029 A 
ATOM     55  N   UNL A   1      43.617  25.259  30.462  1.00  0.00    -0.354 N 
ATOM     56  N   UNL A   1      42.981  28.286  32.291  1.00  0.00    -0.248 NA
ATOM     57  C   UNL A   1      42.728  29.117  34.421  1.00  0.00     0.031 C 
ATOM     58  C   UNL A   1      45.150  26.864  30.370  1.00  0.00     0.029 A 
ATOM     59  C   UNL A   1      44.324  26.163  31.232  1.00  0.00     0.049 A 
ATOM     60  H   UNL A   1      42.981  24.597  30.816  1.00  0.00     0.167 HD
ATOM     61  C   UNL A   1      43.582  27.389  33.134  1.00  0.00     0.074 A 
ATOM     62  C   UNL A   1      43.423  27.967  34.454  1.00  0.00     0.031 C 
ATOM     63  C   UNL A   1      44.142  26.232  32.673  1.00  0.00     0.037 A 
BRANCH  50  64
ATOM     64  C   UNL A   1      43.638  23.953  26.961  1.00  0.00     0.057 A 
ATOM     65  C   UNL A   1      44.355  24.527  25.890  1.00  0.00     0.134 A 
ATOM     66  C   UNL A   1      43.434  22.569  26.832  1.00  0.00     0.134 A 
ATOM     67  F   UNL A   1      44.774  25.798  25.921  1.00  0.00    -0.206 F 
ATOM     68  C   UNL A   1      44.689  23.823  24.726  1.00  0.00     0.040 A 
ATOM     69  C   UNL A   1      43.713  21.862  25.652  1.00  0.00     0.040 A 
ATOM     70  F   UNL A   1      43.014  21.824  27.861  1.00  0.00    -0.206 F 
ATOM     71  C   UNL A   1      44.323  22.495  24.580  1.00  0.00     0.006 A 
ENDBRANCH  50  64
BRANCH  51  72
ATOM     72  C   UNL A   1      40.321  30.813  32.913  1.00  0.00     0.057 A 
ATOM     73  C   UNL A   1      39.341  29.839  33.174  1.00  0.00     0.134 A 
ATOM     74  C   UNL A   1      40.130  32.077  33.476  1.00  0.00     0.134 A 
ATOM     75  F   UNL A   1      39.466  28.604  32.663  1.00  0.00    -0.206 F 
ATOM     76  C   UNL A   1      38.274  30.081  34.041  1.00  0.00     0.040 A 
ATOM     77  C   UNL A   1      39.058  32.333  34.339  1.00  0.00     0.040 A 
ATOM     78  F   UNL A   1      41.034  33.051  33.293  1.00  0.00    -0.206 F 
ATOM     79  C   UNL A   1      38.149  31.324  34.652  1.00  0.00     0.006 A 
ENDBRANCH  51  72
BRANCH  63  80
ATOM     80  C   UNL A   1      44.649  25.107  33.534  1.00  0.00     0.057 A 
ATOM     81  C   UNL A   1      46.005  24.786  33.684  1.00  0.00     0.134 A 
ATOM     82  C   UNL A   1      43.762  24.389  34.363  1.00  0.00     0.134 A 
ATOM     83  F   UNL A   1      46.960  25.464  33.032  1.00  0.00    -0.206 F 
ATOM     84  C   UNL A   1      46.446  23.783  34.558  1.00  0.00     0.040 A 
ATOM     85  C   UNL A   1      44.195  23.419  35.273  1.00  0.00     0.040 A 
ATOM     86  F   UNL A   1      42.440  24.613  34.338  1.00  0.00    -0.206 F 
ATOM     87  C   UNL A   1      45.540  23.103  35.364  1.00  0.00     0.006 A 
ENDBRANCH  63  80
ENDBRANCH  37  38
ENDBRANCH  29  32
ENDBRANCH  27  28
ENDBRANCH  26  27
ENDBRANCH  25  26
ENDBRANCH   1  25
TORSDOF 15
ENDMDL
MODEL 3
REMARK VINA RESULT:     -11.9      1.458      2.777
REMARK SMILES Cc1ccc(NC(=O)N2CCCC[C@@H]2C(=O)NCCCCCCNC(=O)c2ccc(-c3c4nc(c(-c5c(F)cccc5F)c5ccc([nH]5)c(-c5c(F)cccc5F)c5nc(c(-c6c(F)cccc6F)c6ccc3[nH]6)C=C5)C=C4)cc2)cc1
REMARK SMILES IDX 20 1 19 2 18 3 17 4 15 5 16 6 14 8 9 9 10 10 11 11 13 12
REMARK SMILES IDX 12 13 7 14 6 15 8 17 5 18 1 19 2 20 3 21 82 22 4 23 81 24
REMARK SMILES IDX 21 25 22 26 23 27 24 28 25 29 26 31 27 32 28 33 80 34 29 35
REMARK SMILES IDX 79 36 30 37 31 38 32 39 73 40 33 41 78 42 72 43 74 44 34 45
REMARK SMILES IDX 77 46 71 47 70 48 35 50 61 51 44 52 60 53 45 54 48 55 59 56
REMARK SMILES IDX 75 57 46 58 47 59 58 61 76 62 49 63 36 64 37 65 42 66 38 67
REMARK SMILES IDX 39 68 41 69 43 70 40 71 62 72 63 73 68 74 64 75 65 76 67 77
REMARK SMILES IDX 69 78 66 79 50 80 51 81 56 82 52 83 53 84 55 85 57 86 54 87
REMARK H PARENT 17 7 6 16 24 30 74 49 48 60
REMARK Flexibility Score: inf
ROOT
ATOM      1  C   UNL A   1      31.774  28.347  27.283  1.00  0.00     0.002 C 
ENDROOT
BRANCH   1   2
ATOM      2  C   UNL A   1      31.064  27.231  26.503  1.00  0.00     0.021 C 
BRANCH   2   3
ATOM      3  C   UNL A   1      31.992  26.271  25.755  1.00  0.00     0.116 C 
BRANCH   3   4
ATOM      4  N   UNL A   1      32.171  25.046  26.504  1.00  0.00    -0.354 N 
ATOM      5  C   UNL A   1      33.038  24.015  26.299  1.00  0.00     0.242 C 
ATOM      6  O   UNL A   1      32.796  22.959  26.894  1.00  0.00    -0.273 OA
ATOM      7  H   UNL A   1      31.576  24.942  27.282  1.00  0.00     0.163 HD
BRANCH   5   8
ATOM      8  C   UNL A   1      34.169  24.087  25.242  1.00  0.00     0.176 C 
ATOM      9  N   UNL A   1      33.910  23.338  23.979  1.00  0.00    -0.313 N 
ATOM     10  C   UNL A   1      35.056  22.981  23.146  1.00  0.00     0.122 C 
ATOM     11  C   UNL A   1      36.267  22.490  23.919  1.00  0.00     0.022 C 
ATOM     12  C   UNL A   1      35.462  23.643  25.961  1.00  0.00     0.035 C 
ATOM     13  C   UNL A   1      36.636  23.479  25.010  1.00  0.00     0.004 C 
BRANCH   9  14
ATOM     14  C   UNL A   1      32.685  23.257  23.338  1.00  0.00     0.322 C 
ATOM     15  N   UNL A   1      32.252  22.083  22.811  1.00  0.00    -0.308 N 
ATOM     16  H   UNL A   1      31.800  22.162  21.940  1.00  0.00     0.171 HD
ATOM     17  O   UNL A   1      32.004  24.266  23.137  1.00  0.00    -0.248 OA
BRANCH  15  18
ATOM     18  C   UNL A   1      32.343  20.773  23.309  1.00  0.00     0.042 A 
ATOM     19  C   UNL A   1      33.210  16.746  24.527  1.00  0.00     0.044 C 
ATOM     20  C   UNL A   1      32.781  18.128  24.134  1.00  0.00    -0.051 A 
ATOM     21  C   UNL A   1      32.859  19.178  25.054  1.00  0.00     0.005 A 
ATOM     22  C   UNL A   1      32.395  18.405  22.818  1.00  0.00     0.005 A 
ATOM     23  C   UNL A   1      32.613  20.490  24.648  1.00  0.00     0.026 A 
ATOM     24  C   UNL A   1      32.156  19.720  22.413  1.00  0.00     0.026 A 
ENDBRANCH  15  18
ENDBRANCH   9  14
ENDBRANCH   5   8
ENDBRANCH   3   4
ENDBRANCH   2   3
ENDBRANCH   1   2
BRANCH   1  25
ATOM     25  C   UNL A   1      32.300  29.530  26.454  1.00  0.00     0.002 C 
BRANCH  25  26
ATOM     26  C   UNL A   1      32.913  30.690  27.245  1.00  0.00     0.021 C 
BRANCH  26  27
ATOM     27  C   UNL A   1      34.409  30.556  27.495  1.00  0.00     0.116 C 
BRANCH  27  28
ATOM     28  N   UNL A   1      34.896  31.313  28.641  1.00  0.00    -0.352 N 
ATOM     29  C   UNL A   1      35.980  31.049  29.462  1.00  0.00     0.251 C 
ATOM     30  H   UNL A   1      34.384  32.125  28.862  1.00  0.00     0.163 HD
ATOM     31  O   UNL A   1      36.241  31.785  30.400  1.00  0.00    -0.269 OA
BRANCH  29  32
ATOM     32  C   UNL A   1      36.899  29.940  29.105  1.00  0.00     0.039 A 
ATOM     33  C   UNL A   1      37.121  28.950  30.066  1.00  0.00     0.014 A 
ATOM     34  C   UNL A   1      37.690  30.001  27.960  1.00  0.00     0.014 A 
ATOM     35  C   UNL A   1      38.291  28.199  30.013  1.00  0.00     0.010 A 
ATOM     36  C   UNL A   1      38.893  29.318  27.946  1.00  0.00     0.010 A 
ATOM     37  C   UNL A   1      39.225  28.478  29.014  1.00  0.00    -0.014 A 
BRANCH  37  38
ATOM     38  C   UNL A   1      40.618  28.059  29.115  1.00  0.00     0.031 A 
ATOM     39  C   UNL A   1      41.067  26.772  28.554  1.00  0.00     0.074 A 
ATOM     40  C   UNL A   1      41.511  28.881  29.709  1.00  0.00     0.049 A 
ATOM     41  N   UNL A   1      42.060  26.084  29.011  1.00  0.00    -0.248 NA
ATOM     42  C   UNL A   1      40.386  26.133  27.438  1.00  0.00     0.031 C 
ATOM     43  C   UNL A   1      42.965  28.753  29.720  1.00  0.00     0.029 A 
ATOM     44  N   UNL A   1      41.241  29.907  30.625  1.00  0.00    -0.354 N 
ATOM     45  C   UNL A   1      42.327  25.081  28.105  1.00  0.00     0.074 A 
ATOM     46  C   UNL A   1      41.208  25.110  27.189  1.00  0.00     0.031 C 
ATOM     47  C   UNL A   1      43.449  29.436  30.769  1.00  0.00     0.029 A 
ATOM     48  C   UNL A   1      42.313  29.910  31.541  1.00  0.00     0.049 A 
ATOM     49  H   UNL A   1      40.461  30.506  30.628  1.00  0.00     0.167 HD
ATOM     50  C   UNL A   1      43.535  24.443  28.142  1.00  0.00     0.037 A 
ATOM     51  C   UNL A   1      42.113  29.666  32.868  1.00  0.00     0.037 A 
ATOM     52  C   UNL A   1      44.352  24.919  29.261  1.00  0.00     0.049 A 
ATOM     53  C   UNL A   1      42.862  28.465  33.394  1.00  0.00     0.074 A 
ATOM     54  C   UNL A   1      45.373  25.853  29.331  1.00  0.00     0.029 A 
ATOM     55  N   UNL A   1      43.970  24.656  30.571  1.00  0.00    -0.354 N 
ATOM     56  N   UNL A   1      43.370  27.535  32.634  1.00  0.00    -0.248 NA
ATOM     57  C   UNL A   1      43.051  28.188  34.817  1.00  0.00     0.031 C 
ATOM     58  C   UNL A   1      45.568  26.193  30.689  1.00  0.00     0.029 A 
ATOM     59  C   UNL A   1      44.676  25.457  31.449  1.00  0.00     0.049 A 
ATOM     60  H   UNL A   1      43.292  23.993  30.837  1.00  0.00     0.167 HD
ATOM     61  C   UNL A   1      43.895  26.543  33.418  1.00  0.00     0.074 A 
ATOM     62  C   UNL A   1      43.697  27.010  34.777  1.00  0.00     0.031 C 
ATOM     63  C   UNL A   1      44.429  25.407  32.880  1.00  0.00     0.037 A 
BRANCH  50  64
ATOM     64  C   UNL A   1      44.102  23.661  26.972  1.00  0.00     0.057 A 
ATOM     65  C   UNL A   1      43.633  22.365  26.668  1.00  0.00     0.134 A 
ATOM     66  C   UNL A   1      45.160  24.088  26.153  1.00  0.00     0.134 A 
ATOM     67  F   UNL A   1      42.533  21.860  27.240  1.00  0.00    -0.206 F 
ATOM     68  C   UNL A   1      44.266  21.515  25.751  1.00  0.00     0.040 A 
ATOM     69  C   UNL A   1      45.839  23.233  25.270  1.00  0.00     0.040 A 
ATOM     70  F   UNL A   1      45.548  25.369  26.121  1.00  0.00    -0.206 F 
ATOM     71  C   UNL A   1      45.406  21.929  25.083  1.00  0.00     0.006 A 
ENDBRANCH  50  64
BRANCH  51  72
ATOM     72  C   UNL A   1      40.786  30.113  33.364  1.00  0.00     0.057 A 
ATOM     73  C   UNL A   1      40.585  31.480  33.623  1.00  0.00     0.134 A 
ATOM     74  C   UNL A   1      39.648  29.311  33.248  1.00  0.00     0.134 A 
ATOM     75  F   UNL A   1      41.638  32.305  33.744  1.00  0.00    -0.206 F 
ATOM     76  C   UNL A   1      39.309  32.044  33.660  1.00  0.00     0.040 A 
ATOM     77  C   UNL A   1      38.363  29.864  33.294  1.00  0.00     0.040 A 
ATOM     78  F   UNL A   1      39.758  28.003  32.977  1.00  0.00    -0.206 F 
ATOM     79  C   UNL A   1      38.192  31.238  33.462  1.00  0.00     0.006 A 
ENDBRANCH  51  72
BRANCH  63  80
ATOM     80  C   UNL A   1      44.849  24.190  33.658  1.00  0.00     0.057 A 
ATOM     81  C   UNL A   1      43.989  23.130  33.980  1.00  0.00     0.134 A 
ATOM     82  C   UNL A   1      46.206  23.990  33.991  1.00  0.00     0.134 A 
ATOM     83  F   UNL A   1      42.696  23.148  33.628  1.00  0.00    -0.206 F 
ATOM     84  C   UNL A   1      44.436  21.976  34.636  1.00  0.00     0.040 A 
ATOM     85  C   UNL A   1      46.671  22.821  34.602  1.00  0.00     0.040 A 
ATOM     86  F   UNL A   1      47.139  24.913  33.717  1.00  0.00    -0.206 F 
ATOM     87  C   UNL A   1      45.783  21.814  34.940  1.00  0.00     0.006 A 
ENDBRANCH  63  80
ENDBRANCH  37  38
ENDBRANCH  29  32
ENDBRANCH  27  28
ENDBRANCH  26  27
ENDBRANCH  25  26
ENDBRANCH   1  25
TORSDOF 15
ENDMDL
