MODEL 1
REMARK VINA RESULT:     -12.1      0.000      0.000
REMARK SMILES O=C(NCCCCCCNC(=O)c1ccc(NC(=O)N2CCOCC2)c([N+](=O)[O-])c1)c1ccc(-c2c3nc(c(-c4c(F)cccc4F)c4ccc([nH]4)c(-c4c(F)cccc4F)c4nc(c(-c5c(F)cccc5F)c5ccc2[nH]5)C=C4)C=C3)cc1
REMARK SMILES IDX 6 1 5 2 4 3 3 4 1 5 2 6 31 8 32 9 84 10 33 11 83 12 34 13
REMARK SMILES IDX 35 14 36 15 77 16 37 17 82 18 76 19 78 20 38 21 81 22 75 23
REMARK SMILES IDX 74 24 39 26 65 27 48 28 64 29 49 30 52 31 63 32 79 33 50 34
REMARK SMILES IDX 51 35 62 37 80 38 53 39 40 40 41 41 46 42 42 43 43 44 45 45
REMARK SMILES IDX 47 46 44 47 66 48 67 49 72 50 68 51 69 52 71 53 73 54 70 55
REMARK SMILES IDX 54 56 55 57 60 58 56 59 57 60 59 61 61 62 58 63 7 64 8 65
REMARK SMILES IDX 9 66 10 67 11 68 12 70 13 71 14 72 30 73 15 74 26 75 16 76
REMARK SMILES IDX 27 77 28 78 29 79 17 80 18 81 19 83 20 84 21 85 25 86 22 87
REMARK SMILES IDX 24 88 23 89
REMARK H PARENT 3 7 78 25 52 36 10 69 17 82
REMARK Flexibility Score: inf
ROOT
ATOM      1  C   UNL A   1      34.606  33.878  29.180  1.00  0.00     0.002 C 
ENDROOT
BRANCH   1   2
ATOM      2  C   UNL A   1      33.275  34.623  29.114  1.00  0.00     0.021 C 
BRANCH   2   3
ATOM      3  C   UNL A   1      33.323  36.054  29.626  1.00  0.00     0.116 C 
BRANCH   3   4
ATOM      4  N   UNL A   1      32.444  36.265  30.765  1.00  0.00    -0.352 N 
ATOM      5  O   UNL A   1      31.632  35.894  32.841  1.00  0.00    -0.269 OA
ATOM      6  C   UNL A   1      32.551  35.760  32.036  1.00  0.00     0.251 C 
ATOM      7  H   UNL A   1      31.669  36.851  30.603  1.00  0.00     0.163 HD
BRANCH   6   8
ATOM      8  C   UNL A   1      33.776  35.032  32.425  1.00  0.00     0.039 A 
ATOM      9  C   UNL A   1      35.016  35.673  32.388  1.00  0.00     0.014 A 
ATOM     10  C   UNL A   1      33.683  33.695  32.817  1.00  0.00     0.014 A 
ATOM     11  C   UNL A   1      36.176  34.943  32.608  1.00  0.00     0.010 A 
ATOM     12  C   UNL A   1      34.845  32.987  33.135  1.00  0.00     0.010 A 
ATOM     13  C   UNL A   1      36.102  33.600  33.012  1.00  0.00    -0.014 A 
BRANCH  13  14
ATOM     14  C   UNL A   1      37.350  32.890  33.387  1.00  0.00     0.031 A 
ATOM     15  C   UNL A   1      38.060  33.179  34.679  1.00  0.00     0.074 A 
ATOM     16  C   UNL A   1      37.829  31.956  32.541  1.00  0.00     0.049 A 
ATOM     17  N   UNL A   1      39.160  32.648  35.147  1.00  0.00    -0.248 NA
ATOM     18  C   UNL A   1      37.466  34.199  35.557  1.00  0.00     0.031 C 
ATOM     19  C   UNL A   1      37.228  31.600  31.252  1.00  0.00     0.029 A 
ATOM     20  N   UNL A   1      38.918  31.129  32.637  1.00  0.00    -0.354 N 
ATOM     21  C   UNL A   1      39.401  33.277  36.362  1.00  0.00     0.074 A 
ATOM     22  C   UNL A   1      38.345  34.248  36.548  1.00  0.00     0.031 C 
ATOM     23  C   UNL A   1      37.930  30.602  30.699  1.00  0.00     0.029 A 
ATOM     24  C   UNL A   1      39.069  30.297  31.554  1.00  0.00     0.049 A 
ATOM     25  H   UNL A   1      39.532  31.131  33.406  1.00  0.00     0.167 HD
ATOM     26  C   UNL A   1      40.410  33.056  37.239  1.00  0.00     0.037 A 
ATOM     27  C   UNL A   1      40.033  29.405  31.266  1.00  0.00     0.037 A 
ATOM     28  C   UNL A   1      41.452  32.078  37.047  1.00  0.00     0.049 A 
ATOM     29  C   UNL A   1      41.156  29.211  32.242  1.00  0.00     0.074 A 
ATOM     30  C   UNL A   1      42.497  31.755  37.896  1.00  0.00     0.029 A 
ATOM     31  N   UNL A   1      41.586  31.273  35.926  1.00  0.00    -0.354 N 
ATOM     32  N   UNL A   1      41.348  29.784  33.405  1.00  0.00    -0.248 NA
ATOM     33  C   UNL A   1      42.198  28.247  31.864  1.00  0.00     0.031 C 
ATOM     34  C   UNL A   1      43.293  30.793  37.266  1.00  0.00     0.029 A 
ATOM     35  C   UNL A   1      42.712  30.473  36.050  1.00  0.00     0.049 A 
ATOM     36  H   UNL A   1      40.973  31.268  35.156  1.00  0.00     0.167 HD
ATOM     37  C   UNL A   1      42.519  29.235  33.909  1.00  0.00     0.074 A 
ATOM     38  C   UNL A   1      42.980  28.269  32.934  1.00  0.00     0.031 C 
ATOM     39  C   UNL A   1      43.155  29.510  35.074  1.00  0.00     0.037 A 
BRANCH  26  40
ATOM     40  C   UNL A   1      40.453  33.894  38.486  1.00  0.00     0.057 A 
ATOM     41  C   UNL A   1      41.173  35.094  38.550  1.00  0.00     0.134 A 
ATOM     42  C   UNL A   1      39.709  33.528  39.615  1.00  0.00     0.134 A 
ATOM     43  F   UNL A   1      41.914  35.498  37.507  1.00  0.00    -0.206 F 
ATOM     44  C   UNL A   1      41.161  35.892  39.696  1.00  0.00     0.040 A 
ATOM     45  C   UNL A   1      39.669  34.331  40.757  1.00  0.00     0.040 A 
ATOM     46  F   UNL A   1      38.989  32.395  39.620  1.00  0.00    -0.206 F 
ATOM     47  C   UNL A   1      40.400  35.516  40.800  1.00  0.00     0.006 A 
ENDBRANCH  26  40
BRANCH  27  48
ATOM     48  C   UNL A   1      39.984  28.645  29.992  1.00  0.00     0.057 A 
ATOM     49  C   UNL A   1      40.640  29.106  28.846  1.00  0.00     0.134 A 
ATOM     50  C   UNL A   1      39.275  27.441  29.889  1.00  0.00     0.134 A 
ATOM     51  F   UNL A   1      41.324  30.260  28.877  1.00  0.00    -0.206 F 
ATOM     52  C   UNL A   1      40.574  28.411  27.637  1.00  0.00     0.040 A 
ATOM     53  C   UNL A   1      39.227  26.720  28.697  1.00  0.00     0.040 A 
ATOM     54  F   UNL A   1      38.634  26.939  30.955  1.00  0.00    -0.206 F 
ATOM     55  C   UNL A   1      39.870  27.211  27.563  1.00  0.00     0.006 A 
ENDBRANCH  27  48
BRANCH  39  56
ATOM     56  C   UNL A   1      44.396  28.721  35.373  1.00  0.00     0.057 A 
ATOM     57  C   UNL A   1      45.668  29.169  34.996  1.00  0.00     0.134 A 
ATOM     58  C   UNL A   1      44.317  27.508  36.068  1.00  0.00     0.134 A 
ATOM     59  F   UNL A   1      45.811  30.315  34.313  1.00  0.00    -0.206 F 
ATOM     60  C   UNL A   1      46.816  28.425  35.277  1.00  0.00     0.040 A 
ATOM     61  C   UNL A   1      45.458  26.770  36.381  1.00  0.00     0.040 A 
ATOM     62  F   UNL A   1      43.129  27.026  36.464  1.00  0.00    -0.206 F 
ATOM     63  C   UNL A   1      46.712  27.225  35.978  1.00  0.00     0.006 A 
ENDBRANCH  39  56
ENDBRANCH  13  14
ENDBRANCH   6   8
ENDBRANCH   3   4
ENDBRANCH   2   3
ENDBRANCH   1   2
BRANCH   1  64
ATOM     64  C   UNL A   1      34.895  32.952  27.996  1.00  0.00     0.002 C 
BRANCH  64  65
ATOM     65  C   UNL A   1      34.641  31.462  28.242  1.00  0.00     0.021 C 
BRANCH  65  66
ATOM     66  C   UNL A   1      33.715  30.780  27.238  1.00  0.00     0.116 C 
BRANCH  66  67
ATOM     67  N   UNL A   1      32.947  29.697  27.828  1.00  0.00    -0.352 N 
ATOM     68  C   UNL A   1      32.293  28.648  27.242  1.00  0.00     0.251 C 
ATOM     69  H   UNL A   1      32.889  29.723  28.810  1.00  0.00     0.163 HD
ATOM     70  O   UNL A   1      31.595  27.905  27.926  1.00  0.00    -0.269 OA
BRANCH  68  71
ATOM     71  C   UNL A   1      32.366  28.435  25.781  1.00  0.00     0.046 A 
ATOM     72  C   UNL A   1      33.579  28.021  25.246  1.00  0.00     0.016 A 
ATOM     73  C   UNL A   1      31.290  28.669  24.927  1.00  0.00     0.101 A 
ATOM     74  C   UNL A   1      33.664  27.690  23.894  1.00  0.00     0.034 A 
ATOM     75  C   UNL A   1      31.367  28.268  23.578  1.00  0.00     0.293 A 
ATOM     76  C   UNL A   1      32.535  27.657  23.074  1.00  0.00     0.121 A 
BRANCH  75  77
ATOM     77  N   UNL A   1      30.189  28.525  22.733  1.00  0.00     0.065 N 
ATOM     78  O   UNL A   1      30.336  29.216  21.716  1.00  0.00    -0.258 OA
ATOM     79  O   UNL A   1      29.108  28.037  23.092  1.00  0.00    -0.258 OA
ENDBRANCH  75  77
BRANCH  76  80
ATOM     80  N   UNL A   1      32.574  27.043  21.800  1.00  0.00    -0.302 N 
ATOM     81  C   UNL A   1      32.669  25.751  21.381  1.00  0.00     0.322 C 
ATOM     82  H   UNL A   1      32.522  27.688  21.058  1.00  0.00     0.172 HD
ATOM     83  O   UNL A   1      33.025  25.547  20.220  1.00  0.00    -0.248 OA
ATOM     84  N   UNL A   1      32.432  24.720  22.246  1.00  0.00    -0.320 N 
ATOM     85  C   UNL A   1      31.169  24.517  22.970  1.00  0.00     0.150 C 
ATOM     86  C   UNL A   1      33.196  23.490  22.072  1.00  0.00     0.150 C 
ATOM     87  C   UNL A   1      31.387  23.725  24.275  1.00  0.00     0.181 C 
ATOM     88  C   UNL A   1      33.440  22.862  23.443  1.00  0.00     0.181 C 
ATOM     89  O   UNL A   1      32.187  22.547  24.075  1.00  0.00    -0.378 OA
ENDBRANCH  76  80
ENDBRANCH  68  71
ENDBRANCH  66  67
ENDBRANCH  65  66
ENDBRANCH  64  65
ENDBRANCH   1  64
TORSDOF 15
ENDMDL
MODEL 2
REMARK VINA RESULT:     -11.7      4.869      9.999
REMARK SMILES O=C(NCCCCCCNC(=O)c1ccc(NC(=O)N2CCOCC2)c([N+](=O)[O-])c1)c1ccc(-c2c3nc(c(-c4c(F)cccc4F)c4ccc([nH]4)c(-c4c(F)cccc4F)c4nc(c(-c5c(F)cccc5F)c5ccc2[nH]5)C=C4)C=C3)cc1
REMARK SMILES IDX 6 1 5 2 4 3 3 4 1 5 2 6 31 8 32 9 84 10 33 11 83 12 34 13
REMARK SMILES IDX 35 14 36 15 77 16 37 17 82 18 76 19 78 20 38 21 81 22 75 23
REMARK SMILES IDX 74 24 39 26 65 27 48 28 64 29 49 30 52 31 63 32 79 33 50 34
REMARK SMILES IDX 51 35 62 37 80 38 53 39 40 40 41 41 46 42 42 43 43 44 45 45
REMARK SMILES IDX 47 46 44 47 66 48 67 49 72 50 68 51 69 52 71 53 73 54 70 55
REMARK SMILES IDX 54 56 55 57 60 58 56 59 57 60 59 61 61 62 58 63 7 64 8 65
REMARK SMILES IDX 9 66 10 67 11 68 12 70 13 71 14 72 30 73 15 74 26 75 16 76
REMARK SMILES IDX 27 77 28 78 29 79 17 80 18 81 19 83 20 84 21 85 25 86 22 87
REMARK SMILES IDX 24 88 23 89
REMARK H PARENT 3 7 78 25 52 36 10 69 17 82
REMARK Flexibility Score: inf
ROOT
ATOM      1  C   UNL A   1      36.514  20.388  24.901  1.00  0.00     0.002 C 
ENDROOT
BRANCH   1   2
ATOM      2  C   UNL A   1      37.739  19.479  24.976  1.00  0.00     0.021 C 
BRANCH   2   3
ATOM      3  C   UNL A   1      38.961  20.114  25.620  1.00  0.00     0.116 C 
BRANCH   3   4
ATOM      4  N   UNL A   1      40.075  19.187  25.730  1.00  0.00    -0.352 N 
ATOM      5  O   UNL A   1      42.240  18.581  25.964  1.00  0.00    -0.269 OA
ATOM      6  C   UNL A   1      41.375  19.446  26.083  1.00  0.00     0.251 C 
ATOM      7  H   UNL A   1      39.869  18.246  25.525  1.00  0.00     0.163 HD
BRANCH   6   8
ATOM      8  C   UNL A   1      41.733  20.786  26.591  1.00  0.00     0.039 A 
ATOM      9  C   UNL A   1      41.564  21.094  27.943  1.00  0.00     0.014 A 
ATOM     10  C   UNL A   1      42.230  21.745  25.705  1.00  0.00     0.014 A 
ATOM     11  C   UNL A   1      41.759  22.396  28.383  1.00  0.00     0.010 A 
ATOM     12  C   UNL A   1      42.520  23.031  26.171  1.00  0.00     0.010 A 
ATOM     13  C   UNL A   1      42.266  23.371  27.509  1.00  0.00    -0.014 A 
BRANCH  13  14
ATOM     14  C   UNL A   1      42.607  24.713  28.044  1.00  0.00     0.031 A 
ATOM     15  C   UNL A   1      41.554  25.758  28.272  1.00  0.00     0.074 A 
ATOM     16  C   UNL A   1      43.897  24.969  28.341  1.00  0.00     0.049 A 
ATOM     17  N   UNL A   1      41.693  26.977  28.728  1.00  0.00    -0.248 NA
ATOM     18  C   UNL A   1      40.167  25.397  27.939  1.00  0.00     0.031 C 
ATOM     19  C   UNL A   1      45.008  24.032  28.150  1.00  0.00     0.029 A 
ATOM     20  N   UNL A   1      44.493  26.083  28.875  1.00  0.00    -0.354 N 
ATOM     21  C   UNL A   1      40.420  27.534  28.722  1.00  0.00     0.074 A 
ATOM     22  C   UNL A   1      39.524  26.529  28.194  1.00  0.00     0.031 C 
ATOM     23  C   UNL A   1      46.140  24.592  28.598  1.00  0.00     0.029 A 
ATOM     24  C   UNL A   1      45.850  25.950  29.038  1.00  0.00     0.049 A 
ATOM     25  H   UNL A   1      43.997  26.897  29.118  1.00  0.00     0.167 HD
ATOM     26  C   UNL A   1      40.040  28.770  29.129  1.00  0.00     0.037 A 
ATOM     27  C   UNL A   1      46.769  26.832  29.470  1.00  0.00     0.037 A 
ATOM     28  C   UNL A   1      40.941  29.761  29.663  1.00  0.00     0.049 A 
ATOM     29  C   UNL A   1      46.320  28.205  29.876  1.00  0.00     0.074 A 
ATOM     30  C   UNL A   1      40.645  31.029  30.135  1.00  0.00     0.029 A 
ATOM     31  N   UNL A   1      42.312  29.599  29.788  1.00  0.00    -0.354 N 
ATOM     32  N   UNL A   1      45.107  28.703  29.903  1.00  0.00    -0.248 NA
ATOM     33  C   UNL A   1      47.366  29.140  30.310  1.00  0.00     0.031 C 
ATOM     34  C   UNL A   1      41.843  31.653  30.496  1.00  0.00     0.029 A 
ATOM     35  C   UNL A   1      42.880  30.754  30.305  1.00  0.00     0.049 A 
ATOM     36  H   UNL A   1      42.810  28.785  29.547  1.00  0.00     0.167 HD
ATOM     37  C   UNL A   1      45.241  30.000  30.378  1.00  0.00     0.074 A 
ATOM     38  C   UNL A   1      46.650  30.203  30.646  1.00  0.00     0.031 C 
ATOM     39  C   UNL A   1      44.284  30.939  30.572  1.00  0.00     0.037 A 
BRANCH  26  40
ATOM     40  C   UNL A   1      38.588  29.136  28.999  1.00  0.00     0.057 A 
ATOM     41  C   UNL A   1      37.708  29.081  30.088  1.00  0.00     0.134 A 
ATOM     42  C   UNL A   1      38.081  29.617  27.785  1.00  0.00     0.134 A 
ATOM     43  F   UNL A   1      38.127  28.622  31.277  1.00  0.00    -0.206 F 
ATOM     44  C   UNL A   1      36.374  29.476  29.970  1.00  0.00     0.040 A 
ATOM     45  C   UNL A   1      36.755  30.038  27.661  1.00  0.00     0.040 A 
ATOM     46  F   UNL A   1      38.871  29.705  26.703  1.00  0.00    -0.206 F 
ATOM     47  C   UNL A   1      35.897  29.965  28.755  1.00  0.00     0.006 A 
ENDBRANCH  26  40
BRANCH  27  48
ATOM     48  C   UNL A   1      48.201  26.448  29.520  1.00  0.00     0.057 A 
ATOM     49  C   UNL A   1      49.057  26.689  28.439  1.00  0.00     0.134 A 
ATOM     50  C   UNL A   1      48.749  25.825  30.649  1.00  0.00     0.134 A 
ATOM     51  F   UNL A   1      48.588  27.270  27.324  1.00  0.00    -0.206 F 
ATOM     52  C   UNL A   1      50.397  26.304  28.469  1.00  0.00     0.040 A 
ATOM     53  C   UNL A   1      50.094  25.464  30.706  1.00  0.00     0.040 A 
ATOM     54  F   UNL A   1      47.985  25.577  31.723  1.00  0.00    -0.206 F 
ATOM     55  C   UNL A   1      50.921  25.694  29.607  1.00  0.00     0.006 A 
ENDBRANCH  27  48
BRANCH  39  56
ATOM     56  C   UNL A   1      44.727  32.255  31.140  1.00  0.00     0.057 A 
ATOM     57  C   UNL A   1      45.085  33.333  30.321  1.00  0.00     0.134 A 
ATOM     58  C   UNL A   1      44.773  32.452  32.526  1.00  0.00     0.134 A 
ATOM     59  F   UNL A   1      45.078  33.205  28.986  1.00  0.00    -0.206 F 
ATOM     60  C   UNL A   1      45.498  34.553  30.861  1.00  0.00     0.040 A 
ATOM     61  C   UNL A   1      45.155  33.675  33.077  1.00  0.00     0.040 A 
ATOM     62  F   UNL A   1      44.436  31.463  33.366  1.00  0.00    -0.206 F 
ATOM     63  C   UNL A   1      45.528  34.728  32.243  1.00  0.00     0.006 A 
ENDBRANCH  39  56
ENDBRANCH  13  14
ENDBRANCH   6   8
ENDBRANCH   3   4
ENDBRANCH   2   3
ENDBRANCH   1   2
BRANCH   1  64
ATOM     64  C   UNL A   1      36.809  21.860  24.603  1.00  0.00     0.002 C 
BRANCH  64  65
ATOM     65  C   UNL A   1      35.595  22.721  24.248  1.00  0.00     0.021 C 
BRANCH  65  66
ATOM     66  C   UNL A   1      34.255  22.218  24.780  1.00  0.00     0.116 C 
BRANCH  66  67
ATOM     67  N   UNL A   1      33.455  21.563  23.760  1.00  0.00    -0.352 N 
ATOM     68  C   UNL A   1      32.512  22.068  22.907  1.00  0.00     0.251 C 
ATOM     69  H   UNL A   1      33.619  20.597  23.667  1.00  0.00     0.163 HD
ATOM     70  O   UNL A   1      31.861  21.308  22.197  1.00  0.00    -0.269 OA
BRANCH  68  71
ATOM     71  C   UNL A   1      32.224  23.518  22.876  1.00  0.00     0.046 A 
ATOM     72  C   UNL A   1      32.986  24.313  22.028  1.00  0.00     0.016 A 
ATOM     73  C   UNL A   1      31.256  24.115  23.682  1.00  0.00     0.101 A 
ATOM     74  C   UNL A   1      32.670  25.662  21.874  1.00  0.00     0.034 A 
ATOM     75  C   UNL A   1      30.903  25.462  23.469  1.00  0.00     0.293 A 
ATOM     76  C   UNL A   1      31.538  26.224  22.465  1.00  0.00     0.121 A 
BRANCH  75  77
ATOM     77  N   UNL A   1      29.860  26.028  24.340  1.00  0.00     0.065 N 
ATOM     78  O   UNL A   1      30.120  26.186  25.541  1.00  0.00    -0.258 OA
ATOM     79  O   UNL A   1      28.770  26.311  23.822  1.00  0.00    -0.258 OA
ENDBRANCH  75  77
BRANCH  76  80
ATOM     80  N   UNL A   1      31.063  27.497  22.071  1.00  0.00    -0.302 N 
ATOM     81  C   UNL A   1      31.028  28.716  22.677  1.00  0.00     0.322 C 
ATOM     82  H   UNL A   1      30.677  27.504  21.166  1.00  0.00     0.172 HD
ATOM     83  O   UNL A   1      30.249  29.559  22.230  1.00  0.00    -0.248 OA
ATOM     84  N   UNL A   1      31.791  28.966  23.783  1.00  0.00    -0.320 N 
ATOM     85  C   UNL A   1      33.257  28.858  23.821  1.00  0.00     0.150 C 
ATOM     86  C   UNL A   1      31.257  29.871  24.794  1.00  0.00     0.150 C 
ATOM     87  C   UNL A   1      33.765  28.572  25.248  1.00  0.00     0.181 C 
ATOM     88  C   UNL A   1      31.742  29.415  26.169  1.00  0.00     0.181 C 
ATOM     89  O   UNL A   1      33.179  29.449  26.226  1.00  0.00    -0.378 OA
ENDBRANCH  76  80
ENDBRANCH  68  71
ENDBRANCH  66  67
ENDBRANCH  65  66
ENDBRANCH  64  65
ENDBRANCH   1  64
TORSDOF 15
ENDMDL
MODEL 3
REMARK VINA RESULT:     -11.7      0.382      6.138
REMARK SMILES O=C(NCCCCCCNC(=O)c1ccc(NC(=O)N2CCOCC2)c([N+](=O)[O-])c1)c1ccc(-c2c3nc(c(-c4c(F)cccc4F)c4ccc([nH]4)c(-c4c(F)cccc4F)c4nc(c(-c5c(F)cccc5F)c5ccc2[nH]5)C=C4)C=C3)cc1
REMARK SMILES IDX 6 1 5 2 4 3 3 4 1 5 2 6 31 8 32 9 84 10 33 11 83 12 34 13
REMARK SMILES IDX 35 14 36 15 77 16 37 17 82 18 76 19 78 20 38 21 81 22 75 23
REMARK SMILES IDX 74 24 39 26 65 27 48 28 64 29 49 30 52 31 63 32 79 33 50 34
REMARK SMILES IDX 51 35 62 37 80 38 53 39 40 40 41 41 46 42 42 43 43 44 45 45
REMARK SMILES IDX 47 46 44 47 66 48 67 49 72 50 68 51 69 52 71 53 73 54 70 55
REMARK SMILES IDX 54 56 55 57 60 58 56 59 57 60 59 61 61 62 58 63 7 64 8 65
REMARK SMILES IDX 9 66 10 67 11 68 12 70 13 71 14 72 30 73 15 74 26 75 16 76
REMARK SMILES IDX 27 77 28 78 29 79 17 80 18 81 19 83 20 84 21 85 25 86 22 87
REMARK SMILES IDX 24 88 23 89
REMARK H PARENT 3 7 78 25 52 36 10 69 17 82
REMARK Flexibility Score: inf
ROOT
ATOM      1  C   UNL A   1      34.349  33.753  28.913  1.00  0.00     0.002 C 
ENDROOT
BRANCH   1   2
ATOM      2  C   UNL A   1      33.088  34.610  29.007  1.00  0.00     0.021 C 
BRANCH   2   3
ATOM      3  C   UNL A   1      33.307  36.001  29.580  1.00  0.00     0.116 C 
BRANCH   3   4
ATOM      4  N   UNL A   1      32.456  36.267  30.728  1.00  0.00    -0.352 N 
ATOM      5  O   UNL A   1      31.679  35.980  32.832  1.00  0.00    -0.269 OA
ATOM      6  C   UNL A   1      32.578  35.800  32.013  1.00  0.00     0.251 C 
ATOM      7  H   UNL A   1      31.691  36.865  30.564  1.00  0.00     0.163 HD
BRANCH   6   8
ATOM      8  C   UNL A   1      33.794  35.057  32.400  1.00  0.00     0.039 A 
ATOM      9  C   UNL A   1      35.049  35.661  32.299  1.00  0.00     0.014 A 
ATOM     10  C   UNL A   1      33.678  33.742  32.857  1.00  0.00     0.014 A 
ATOM     11  C   UNL A   1      36.195  34.910  32.520  1.00  0.00     0.010 A 
ATOM     12  C   UNL A   1      34.830  33.017  33.174  1.00  0.00     0.010 A 
ATOM     13  C   UNL A   1      36.098  33.589  32.987  1.00  0.00    -0.014 A 
BRANCH  13  14
ATOM     14  C   UNL A   1      37.338  32.863  33.359  1.00  0.00     0.031 A 
ATOM     15  C   UNL A   1      37.940  31.824  32.457  1.00  0.00     0.074 A 
ATOM     16  C   UNL A   1      37.928  33.172  34.532  1.00  0.00     0.049 A 
ATOM     17  N   UNL A   1      39.014  31.100  32.642  1.00  0.00    -0.248 NA
ATOM     18  C   UNL A   1      37.247  31.555  31.188  1.00  0.00     0.031 C 
ATOM     19  C   UNL A   1      37.425  34.157  35.493  1.00  0.00     0.029 A 
ATOM     20  N   UNL A   1      39.079  32.703  35.109  1.00  0.00    -0.354 N 
ATOM     21  C   UNL A   1      39.118  30.279  31.526  1.00  0.00     0.074 A 
ATOM     22  C   UNL A   1      37.984  30.577  30.679  1.00  0.00     0.031 C 
ATOM     23  C   UNL A   1      38.283  34.249  36.520  1.00  0.00     0.029 A 
ATOM     24  C   UNL A   1      39.354  33.281  36.325  1.00  0.00     0.049 A 
ATOM     25  H   UNL A   1      39.652  32.019  34.695  1.00  0.00     0.167 HD
ATOM     26  C   UNL A   1      40.079  29.368  31.237  1.00  0.00     0.037 A 
ATOM     27  C   UNL A   1      40.344  33.041  37.203  1.00  0.00     0.037 A 
ATOM     28  C   UNL A   1      41.210  29.086  32.085  1.00  0.00     0.049 A 
ATOM     29  C   UNL A   1      41.370  31.998  36.870  1.00  0.00     0.074 A 
ATOM     30  C   UNL A   1      42.255  28.205  31.862  1.00  0.00     0.029 A 
ATOM     31  N   UNL A   1      41.440  29.673  33.321  1.00  0.00    -0.354 N 
ATOM     32  N   UNL A   1      41.478  31.259  35.792  1.00  0.00    -0.248 NA
ATOM     33  C   UNL A   1      42.412  31.753  37.876  1.00  0.00     0.031 C 
ATOM     34  C   UNL A   1      43.089  28.220  32.986  1.00  0.00     0.029 A 
ATOM     35  C   UNL A   1      42.596  29.153  33.883  1.00  0.00     0.049 A 
ATOM     36  H   UNL A   1      40.869  30.357  33.737  1.00  0.00     0.167 HD
ATOM     37  C   UNL A   1      42.610  30.479  35.979  1.00  0.00     0.074 A 
ATOM     38  C   UNL A   1      43.165  30.851  37.264  1.00  0.00     0.031 C 
ATOM     39  C   UNL A   1      43.140  29.538  35.161  1.00  0.00     0.037 A 
BRANCH  26  40
ATOM     40  C   UNL A   1      39.947  28.590  29.958  1.00  0.00     0.057 A 
ATOM     41  C   UNL A   1      40.568  29.000  28.772  1.00  0.00     0.134 A 
ATOM     42  C   UNL A   1      39.247  27.377  29.933  1.00  0.00     0.134 A 
ATOM     43  F   UNL A   1      41.247  30.156  28.725  1.00  0.00    -0.206 F 
ATOM     44  C   UNL A   1      40.484  28.241  27.603  1.00  0.00     0.040 A 
ATOM     45  C   UNL A   1      39.177  26.596  28.777  1.00  0.00     0.040 A 
ATOM     46  F   UNL A   1      38.635  26.918  31.036  1.00  0.00    -0.206 F 
ATOM     47  C   UNL A   1      39.795  27.030  27.606  1.00  0.00     0.006 A 
ENDBRANCH  26  40
BRANCH  27  48
ATOM     48  C   UNL A   1      40.398  33.788  38.484  1.00  0.00     0.057 A 
ATOM     49  C   UNL A   1      39.628  33.399  39.585  1.00  0.00     0.134 A 
ATOM     50  C   UNL A   1      41.218  34.914  38.636  1.00  0.00     0.134 A 
ATOM     51  F   UNL A   1      38.812  32.338  39.498  1.00  0.00    -0.206 F 
ATOM     52  C   UNL A   1      39.652  34.115  40.783  1.00  0.00     0.040 A 
ATOM     53  C   UNL A   1      41.277  35.620  39.837  1.00  0.00     0.040 A 
ATOM     54  F   UNL A   1      41.990  35.332  37.622  1.00  0.00    -0.206 F 
ATOM     55  C   UNL A   1      40.484  35.226  40.912  1.00  0.00     0.006 A 
ENDBRANCH  27  48
BRANCH  39  56
ATOM     56  C   UNL A   1      44.408  28.877  35.616  1.00  0.00     0.057 A 
ATOM     57  C   UNL A   1      44.399  27.703  36.379  1.00  0.00     0.134 A 
ATOM     58  C   UNL A   1      45.654  29.412  35.266  1.00  0.00     0.134 A 
ATOM     59  F   UNL A   1      43.239  27.149  36.762  1.00  0.00    -0.206 F 
ATOM     60  C   UNL A   1      45.586  27.098  36.799  1.00  0.00     0.040 A 
ATOM     61  C   UNL A   1      46.846  28.801  35.654  1.00  0.00     0.040 A 
ATOM     62  F   UNL A   1      45.732  30.531  34.531  1.00  0.00    -0.206 F 
ATOM     63  C   UNL A   1      46.814  27.645  36.431  1.00  0.00     0.006 A 
ENDBRANCH  39  56
ENDBRANCH  13  14
ENDBRANCH   6   8
ENDBRANCH   3   4
ENDBRANCH   2   3
ENDBRANCH   1   2
BRANCH   1  64
ATOM     64  C   UNL A   1      34.108  32.263  28.661  1.00  0.00     0.002 C 
BRANCH  64  65
ATOM     65  C   UNL A   1      35.240  31.521  27.946  1.00  0.00     0.021 C 
BRANCH  65  66
ATOM     66  C   UNL A   1      34.833  30.235  27.230  1.00  0.00     0.116 C 
BRANCH  66  67
ATOM     67  N   UNL A   1      33.608  29.661  27.760  1.00  0.00    -0.352 N 
ATOM     68  C   UNL A   1      32.581  29.015  27.127  1.00  0.00     0.251 C 
ATOM     69  H   UNL A   1      33.499  29.753  28.734  1.00  0.00     0.163 HD
ATOM     70  O   UNL A   1      31.570  28.714  27.754  1.00  0.00    -0.269 OA
BRANCH  68  71
ATOM     71  C   UNL A   1      32.649  28.731  25.678  1.00  0.00     0.046 A 
ATOM     72  C   UNL A   1      33.818  28.168  25.181  1.00  0.00     0.016 A 
ATOM     73  C   UNL A   1      31.614  29.038  24.797  1.00  0.00     0.101 A 
ATOM     74  C   UNL A   1      33.883  27.771  23.846  1.00  0.00     0.034 A 
ATOM     75  C   UNL A   1      31.665  28.573  23.467  1.00  0.00     0.293 A 
ATOM     76  C   UNL A   1      32.767  27.820  23.009  1.00  0.00     0.121 A 
BRANCH  75  77
ATOM     77  N   UNL A   1      30.531  28.914  22.593  1.00  0.00     0.065 N 
ATOM     78  O   UNL A   1      30.265  30.111  22.416  1.00  0.00    -0.258 OA
ATOM     79  O   UNL A   1      29.896  27.978  22.084  1.00  0.00    -0.258 OA
ENDBRANCH  75  77
BRANCH  76  80
ATOM     80  N   UNL A   1      32.757  27.150  21.764  1.00  0.00    -0.302 N 
ATOM     81  C   UNL A   1      32.747  25.837  21.403  1.00  0.00     0.322 C 
ATOM     82  H   UNL A   1      32.757  27.763  20.994  1.00  0.00     0.172 HD
ATOM     83  O   UNL A   1      33.085  25.554  20.252  1.00  0.00    -0.248 OA
ATOM     84  N   UNL A   1      32.427  24.868  22.311  1.00  0.00    -0.320 N 
ATOM     85  C   UNL A   1      31.151  24.800  23.039  1.00  0.00     0.150 C 
ATOM     86  C   UNL A   1      33.089  23.573  22.193  1.00  0.00     0.150 C 
ATOM     87  C   UNL A   1      31.304  24.051  24.378  1.00  0.00     0.181 C 
ATOM     88  C   UNL A   1      33.281  22.989  23.592  1.00  0.00     0.181 C 
ATOM     89  O   UNL A   1      32.006  22.804  24.232  1.00  0.00    -0.378 OA
ENDBRANCH  76  80
ENDBRANCH  68  71
ENDBRANCH  66  67
ENDBRANCH  65  66
ENDBRANCH  64  65
ENDBRANCH   1  64
TORSDOF 15
ENDMDL
