MODEL 1
REMARK VINA RESULT:     -11.0      0.000      0.000
REMARK SMILES O=C(CCN1C(=O)/C(=C/c2cc(Br)cc(Br)c2O)SC1=S)NCCCCCCNC(=O)c1ccc(-c2c3nc(c(-c4c(F)cccc4F)c4ccc([nH]4)c(-c4c(F)cccc4F)c4nc(c(-c5c(F)cccc5F)c5ccc2[nH]5)C=C4)C=C3)cc1
REMARK SMILES IDX 24 1 23 2 22 3 1 4 2 5 3 7 4 8 5 9 6 10 20 11 7 12 8 13
REMARK SMILES IDX 19 14 21 15 9 16 10 17 11 18 17 19 12 20 15 21 13 22 14 23
REMARK SMILES IDX 16 24 18 25 25 27 26 28 27 29 28 30 29 31 30 32 31 34 32 35
REMARK SMILES IDX 33 36 85 37 34 38 84 39 35 40 36 41 37 42 78 43 38 44 83 45
REMARK SMILES IDX 77 46 79 47 39 48 82 49 76 50 75 51 40 53 66 54 49 55 65 56
REMARK SMILES IDX 50 57 53 58 64 59 80 60 51 61 52 62 63 64 81 65 54 66 41 67
REMARK SMILES IDX 42 68 47 69 43 70 44 71 46 72 48 73 45 74 67 75 68 76 73 77
REMARK SMILES IDX 69 78 70 79 72 80 74 81 71 82 55 83 56 84 61 85 57 86 58 87
REMARK SMILES IDX 60 88 62 89 59 90
REMARK H PARENT 22 6 18 26 29 33 79 52 53 63
REMARK Flexibility Score: inf
ROOT
ATOM      1  C   UNL A   1      37.210  23.697  25.499  1.00  0.00     0.021 C 
ENDROOT
BRANCH   1   2
ATOM      2  C   UNL A   1      35.759  23.679  25.987  1.00  0.00     0.116 C 
BRANCH   2   3
ATOM      3  N   UNL A   1      34.828  23.399  24.906  1.00  0.00    -0.356 N 
ATOM      4  O   UNL A   1      33.824  21.616  25.919  1.00  0.00    -0.275 OA
ATOM      5  C   UNL A   1      33.949  22.347  24.939  1.00  0.00     0.221 C 
ATOM      6  H   UNL A   1      34.828  23.990  24.119  1.00  0.00     0.163 HD
BRANCH   5   7
ATOM      7  C   UNL A   1      33.227  22.026  23.643  1.00  0.00     0.122 C 
BRANCH   7   8
ATOM      8  C   UNL A   1      31.796  22.529  23.452  1.00  0.00     0.137 C 
BRANCH   8   9
ATOM      9  N   UNL A   1      31.399  23.825  24.028  1.00  0.00    -0.292 N 
ATOM     10  C   UNL A   1      31.842  24.972  23.376  1.00  0.00     0.266 C 
ATOM     11  C   UNL A   1      30.835  24.053  25.265  1.00  0.00     0.148 C 
ATOM     12  O   UNL A   1      32.581  25.011  22.401  1.00  0.00    -0.268 OA
ATOM     13  C   UNL A   1      31.298  26.197  24.029  1.00  0.00     0.081 C 
ATOM     14  S   UNL A   1      30.344  25.737  25.373  1.00  0.00    -0.054 SA
ATOM     15  S   UNL A   1      30.577  23.004  26.528  1.00  0.00    -0.052 S 
ATOM     16  C   UNL A   1      31.525  27.421  23.523  1.00  0.00     0.033 C 
BRANCH  16  17
ATOM     17  C   UNL A   1      30.843  28.690  23.871  1.00  0.00     0.020 A 
ATOM     18  C   UNL A   1      29.756  29.166  23.122  1.00  0.00     0.027 A 
ATOM     19  C   UNL A   1      31.320  29.504  24.923  1.00  0.00     0.137 A 
ATOM     20  C   UNL A   1      29.257  30.457  23.317  1.00  0.00     0.019 A 
ATOM     21  C   UNL A   1      30.787  30.786  25.133  1.00  0.00     0.061 A 
ATOM     22  Br  UNL A   1      27.901  31.113  22.174  1.00  0.00    -0.051 Br
ATOM     23  C   UNL A   1      29.774  31.276  24.311  1.00  0.00     0.035 A 
ATOM     24  Br  UNL A   1      31.431  31.915  26.518  1.00  0.00    -0.047 Br
BRANCH  19  25
ATOM     25  O   UNL A   1      32.343  29.108  25.749  1.00  0.00    -0.506 OA
ATOM     26  H   UNL A   1      32.581  29.637  26.486  1.00  0.00     0.293 HD
ENDBRANCH  19  25
ENDBRANCH  16  17
ENDBRANCH   8   9
ENDBRANCH   7   8
ENDBRANCH   5   7
ENDBRANCH   2   3
ENDBRANCH   1   2
BRANCH   1  27
ATOM     27  C   UNL A   1      37.967  22.371  25.650  1.00  0.00     0.002 C 
BRANCH  27  28
ATOM     28  C   UNL A   1      37.546  21.252  24.693  1.00  0.00     0.002 C 
BRANCH  28  29
ATOM     29  C   UNL A   1      38.281  19.926  24.887  1.00  0.00     0.021 C 
BRANCH  29  30
ATOM     30  C   UNL A   1      39.214  19.881  26.093  1.00  0.00     0.116 C 
BRANCH  30  31
ATOM     31  N   UNL A   1      40.411  19.088  25.851  1.00  0.00    -0.352 N 
ATOM     32  C   UNL A   1      41.730  19.464  25.945  1.00  0.00     0.251 C 
ATOM     33  H   UNL A   1      40.254  18.154  25.584  1.00  0.00     0.163 HD
ATOM     34  O   UNL A   1      42.616  18.702  25.570  1.00  0.00    -0.269 OA
BRANCH  32  35
ATOM     35  C   UNL A   1      42.080  20.801  26.472  1.00  0.00     0.039 A 
ATOM     36  C   UNL A   1      42.421  21.815  25.573  1.00  0.00     0.014 A 
ATOM     37  C   UNL A   1      42.076  21.056  27.847  1.00  0.00     0.014 A 
ATOM     38  C   UNL A   1      42.697  23.099  26.047  1.00  0.00     0.010 A 
ATOM     39  C   UNL A   1      42.282  22.352  28.312  1.00  0.00     0.010 A 
ATOM     40  C   UNL A   1      42.599  23.386  27.418  1.00  0.00    -0.014 A 
BRANCH  40  41
ATOM     41  C   UNL A   1      42.852  24.753  27.943  1.00  0.00     0.031 A 
ATOM     42  C   UNL A   1      44.241  25.150  28.362  1.00  0.00     0.074 A 
ATOM     43  C   UNL A   1      41.828  25.615  28.101  1.00  0.00     0.049 A 
ATOM     44  N   UNL A   1      44.649  26.254  28.936  1.00  0.00    -0.248 NA
ATOM     45  C   UNL A   1      45.309  24.164  28.130  1.00  0.00     0.031 C 
ATOM     46  C   UNL A   1      40.428  25.339  27.773  1.00  0.00     0.029 A 
ATOM     47  N   UNL A   1      41.807  26.897  28.591  1.00  0.00    -0.354 N 
ATOM     48  C   UNL A   1      46.014  26.089  29.143  1.00  0.00     0.074 A 
ATOM     49  C   UNL A   1      46.354  24.760  28.684  1.00  0.00     0.031 C 
ATOM     50  C   UNL A   1      39.687  26.423  28.061  1.00  0.00     0.029 A 
ATOM     51  C   UNL A   1      40.552  27.456  28.621  1.00  0.00     0.049 A 
ATOM     52  H   UNL A   1      42.615  27.371  28.894  1.00  0.00     0.167 HD
ATOM     53  C   UNL A   1      46.908  26.974  29.643  1.00  0.00     0.037 A 
ATOM     54  C   UNL A   1      40.146  28.663  29.060  1.00  0.00     0.037 A 
ATOM     55  C   UNL A   1      46.577  28.306  30.073  1.00  0.00     0.049 A 
ATOM     56  C   UNL A   1      41.162  29.631  29.602  1.00  0.00     0.074 A 
ATOM     57  C   UNL A   1      47.418  29.285  30.575  1.00  0.00     0.029 A 
ATOM     58  N   UNL A   1      45.304  28.851  30.039  1.00  0.00    -0.354 N 
ATOM     59  N   UNL A   1      42.455  29.473  29.754  1.00  0.00    -0.248 NA
ATOM     60  C   UNL A   1      40.665  30.949  30.023  1.00  0.00     0.031 C 
ATOM     61  C   UNL A   1      46.647  30.416  30.865  1.00  0.00     0.029 A 
ATOM     62  C   UNL A   1      45.336  30.153  30.507  1.00  0.00     0.049 A 
ATOM     63  H   UNL A   1      44.496  28.381  29.727  1.00  0.00     0.167 HD
ATOM     64  C   UNL A   1      42.929  30.681  30.251  1.00  0.00     0.074 A 
ATOM     65  C   UNL A   1      41.788  31.565  30.365  1.00  0.00     0.031 C 
ATOM     66  C   UNL A   1      44.195  31.028  30.585  1.00  0.00     0.037 A 
BRANCH  53  67
ATOM     67  C   UNL A   1      48.340  26.535  29.729  1.00  0.00     0.057 A 
ATOM     68  C   UNL A   1      49.260  26.838  28.717  1.00  0.00     0.134 A 
ATOM     69  C   UNL A   1      48.816  25.844  30.850  1.00  0.00     0.134 A 
ATOM     70  F   UNL A   1      48.865  27.487  27.611  1.00  0.00    -0.206 F 
ATOM     71  C   UNL A   1      50.599  26.452  28.807  1.00  0.00     0.040 A 
ATOM     72  C   UNL A   1      50.157  25.474  30.964  1.00  0.00     0.040 A 
ATOM     73  F   UNL A   1      47.988  25.527  31.858  1.00  0.00    -0.206 F 
ATOM     74  C   UNL A   1      51.052  25.775  29.938  1.00  0.00     0.006 A 
ENDBRANCH  53  67
BRANCH  54  75
ATOM     75  C   UNL A   1      38.711  29.043  28.992  1.00  0.00     0.057 A 
ATOM     76  C   UNL A   1      38.155  29.558  27.816  1.00  0.00     0.134 A 
ATOM     77  C   UNL A   1      37.874  28.936  30.108  1.00  0.00     0.134 A 
ATOM     78  F   UNL A   1      38.912  29.703  26.717  1.00  0.00    -0.206 F 
ATOM     79  C   UNL A   1      36.827  29.985  27.758  1.00  0.00     0.040 A 
ATOM     80  C   UNL A   1      36.537  29.335  30.058  1.00  0.00     0.040 A 
ATOM     81  F   UNL A   1      38.343  28.443  31.263  1.00  0.00    -0.206 F 
ATOM     82  C   UNL A   1      36.012  29.871  28.884  1.00  0.00     0.006 A 
ENDBRANCH  54  75
BRANCH  66  83
ATOM     83  C   UNL A   1      44.424  32.437  31.045  1.00  0.00     0.057 A 
ATOM     84  C   UNL A   1      44.697  33.475  30.146  1.00  0.00     0.134 A 
ATOM     85  C   UNL A   1      44.332  32.762  32.405  1.00  0.00     0.134 A 
ATOM     86  F   UNL A   1      44.809  33.225  28.833  1.00  0.00    -0.206 F 
ATOM     87  C   UNL A   1      44.892  34.785  30.587  1.00  0.00     0.040 A 
ATOM     88  C   UNL A   1      44.502  34.072  32.853  1.00  0.00     0.040 A 
ATOM     89  F   UNL A   1      44.065  31.813  33.315  1.00  0.00    -0.206 F 
ATOM     90  C   UNL A   1      44.789  35.087  31.944  1.00  0.00     0.006 A 
ENDBRANCH  66  83
ENDBRANCH  40  41
ENDBRANCH  32  35
ENDBRANCH  30  31
ENDBRANCH  29  30
ENDBRANCH  28  29
ENDBRANCH  27  28
ENDBRANCH   1  27
TORSDOF 17
ENDMDL
MODEL 2
REMARK VINA RESULT:     -10.6      3.733      5.068
REMARK SMILES O=C(CCN1C(=O)/C(=C/c2cc(Br)cc(Br)c2O)SC1=S)NCCCCCCNC(=O)c1ccc(-c2c3nc(c(-c4c(F)cccc4F)c4ccc([nH]4)c(-c4c(F)cccc4F)c4nc(c(-c5c(F)cccc5F)c5ccc2[nH]5)C=C4)C=C3)cc1
REMARK SMILES IDX 24 1 23 2 22 3 1 4 2 5 3 7 4 8 5 9 6 10 20 11 7 12 8 13
REMARK SMILES IDX 19 14 21 15 9 16 10 17 11 18 17 19 12 20 15 21 13 22 14 23
REMARK SMILES IDX 16 24 18 25 25 27 26 28 27 29 28 30 29 31 30 32 31 34 32 35
REMARK SMILES IDX 33 36 85 37 34 38 84 39 35 40 36 41 37 42 78 43 38 44 83 45
REMARK SMILES IDX 77 46 79 47 39 48 82 49 76 50 75 51 40 53 66 54 49 55 65 56
REMARK SMILES IDX 50 57 53 58 64 59 80 60 51 61 52 62 63 64 81 65 54 66 41 67
REMARK SMILES IDX 42 68 47 69 43 70 44 71 46 72 48 73 45 74 67 75 68 76 73 77
REMARK SMILES IDX 69 78 70 79 72 80 74 81 71 82 55 83 56 84 61 85 57 86 58 87
REMARK SMILES IDX 60 88 62 89 59 90
REMARK H PARENT 22 6 18 26 29 33 79 52 53 63
REMARK Flexibility Score: inf
ROOT
ATOM      1  C   UNL A   1      38.785  21.136  25.753  1.00  0.00     0.021 C 
ENDROOT
BRANCH   1   2
ATOM      2  C   UNL A   1      37.806  22.254  25.380  1.00  0.00     0.116 C 
BRANCH   2   3
ATOM      3  N   UNL A   1      36.667  22.300  26.282  1.00  0.00    -0.356 N 
ATOM      4  O   UNL A   1      35.468  20.670  25.225  1.00  0.00    -0.275 OA
ATOM      5  C   UNL A   1      35.551  21.522  26.107  1.00  0.00     0.221 C 
ATOM      6  H   UNL A   1      36.699  22.913  27.051  1.00  0.00     0.163 HD
BRANCH   5   7
ATOM      7  C   UNL A   1      34.347  21.860  26.966  1.00  0.00     0.122 C 
BRANCH   7   8
ATOM      8  C   UNL A   1      32.984  22.023  26.294  1.00  0.00     0.137 C 
BRANCH   8   9
ATOM      9  N   UNL A   1      32.678  23.263  25.562  1.00  0.00    -0.292 N 
ATOM     10  C   UNL A   1      31.818  24.168  26.180  1.00  0.00     0.266 C 
ATOM     11  C   UNL A   1      32.950  23.545  24.241  1.00  0.00     0.148 C 
ATOM     12  O   UNL A   1      31.242  24.007  27.248  1.00  0.00    -0.268 OA
ATOM     13  C   UNL A   1      31.666  25.402  25.356  1.00  0.00     0.081 C 
ATOM     14  S   UNL A   1      32.591  25.236  23.927  1.00  0.00    -0.054 SA
ATOM     15  S   UNL A   1      33.543  22.559  23.041  1.00  0.00    -0.052 S 
ATOM     16  C   UNL A   1      30.947  26.451  25.791  1.00  0.00     0.033 C 
BRANCH  16  17
ATOM     17  C   UNL A   1      30.926  27.828  25.244  1.00  0.00     0.020 A 
ATOM     18  C   UNL A   1      31.458  28.909  25.964  1.00  0.00     0.027 A 
ATOM     19  C   UNL A   1      30.294  28.109  24.012  1.00  0.00     0.137 A 
ATOM     20  C   UNL A   1      31.245  30.226  25.547  1.00  0.00     0.019 A 
ATOM     21  C   UNL A   1      30.117  29.435  23.585  1.00  0.00     0.061 A 
ATOM     22  Br  UNL A   1      31.839  31.655  26.635  1.00  0.00    -0.051 Br
ATOM     23  C   UNL A   1      30.567  30.497  24.367  1.00  0.00     0.035 A 
ATOM     24  Br  UNL A   1      29.242  29.844  21.949  1.00  0.00    -0.047 Br
BRANCH  19  25
ATOM     25  O   UNL A   1      29.789  27.119  23.206  1.00  0.00    -0.506 OA
ATOM     26  H   UNL A   1      30.081  27.043  22.319  1.00  0.00     0.293 HD
ENDBRANCH  19  25
ENDBRANCH  16  17
ENDBRANCH   8   9
ENDBRANCH   7   8
ENDBRANCH   5   7
ENDBRANCH   2   3
ENDBRANCH   1   2
BRANCH   1  27
ATOM     27  C   UNL A   1      39.979  21.573  26.610  1.00  0.00     0.002 C 
BRANCH  27  28
ATOM     28  C   UNL A   1      41.190  20.635  26.590  1.00  0.00     0.002 C 
BRANCH  28  29
ATOM     29  C   UNL A   1      42.496  21.277  26.121  1.00  0.00     0.021 C 
BRANCH  29  30
ATOM     30  C   UNL A   1      42.330  22.606  25.389  1.00  0.00     0.116 C 
BRANCH  30  31
ATOM     31  N   UNL A   1      43.593  23.146  24.907  1.00  0.00    -0.352 N 
ATOM     32  C   UNL A   1      44.196  24.342  25.216  1.00  0.00     0.251 C 
ATOM     33  H   UNL A   1      44.083  22.576  24.271  1.00  0.00     0.163 HD
ATOM     34  O   UNL A   1      45.199  24.702  24.608  1.00  0.00    -0.269 OA
BRANCH  32  35
ATOM     35  C   UNL A   1      43.616  25.209  26.265  1.00  0.00     0.039 A 
ATOM     36  C   UNL A   1      42.651  24.678  27.126  1.00  0.00     0.014 A 
ATOM     37  C   UNL A   1      44.018  26.542  26.401  1.00  0.00     0.014 A 
ATOM     38  C   UNL A   1      42.136  25.463  28.159  1.00  0.00     0.010 A 
ATOM     39  C   UNL A   1      43.557  27.299  27.473  1.00  0.00     0.010 A 
ATOM     40  C   UNL A   1      42.607  26.771  28.361  1.00  0.00    -0.014 A 
BRANCH  40  41
ATOM     41  C   UNL A   1      42.101  27.612  29.476  1.00  0.00     0.031 A 
ATOM     42  C   UNL A   1      42.759  27.540  30.827  1.00  0.00     0.074 A 
ATOM     43  C   UNL A   1      41.017  28.392  29.296  1.00  0.00     0.049 A 
ATOM     44  N   UNL A   1      42.409  28.113  31.951  1.00  0.00    -0.248 NA
ATOM     45  C   UNL A   1      43.955  26.688  30.936  1.00  0.00     0.031 C 
ATOM     46  C   UNL A   1      40.262  28.520  28.048  1.00  0.00     0.029 A 
ATOM     47  N   UNL A   1      40.354  29.217  30.170  1.00  0.00    -0.354 N 
ATOM     48  C   UNL A   1      43.331  27.683  32.898  1.00  0.00     0.074 A 
ATOM     49  C   UNL A   1      44.222  26.759  32.231  1.00  0.00     0.031 C 
ATOM     50  C   UNL A   1      39.247  29.381  28.234  1.00  0.00     0.029 A 
ATOM     51  C   UNL A   1      39.261  29.840  29.619  1.00  0.00     0.049 A 
ATOM     52  H   UNL A   1      40.635  29.348  31.104  1.00  0.00     0.167 HD
ATOM     53  C   UNL A   1      43.443  28.045  34.197  1.00  0.00     0.037 A 
ATOM     54  C   UNL A   1      38.365  30.681  30.173  1.00  0.00     0.037 A 
ATOM     55  C   UNL A   1      42.575  28.985  34.855  1.00  0.00     0.049 A 
ATOM     56  C   UNL A   1      38.519  31.074  31.617  1.00  0.00     0.074 A 
ATOM     57  C   UNL A   1      42.621  29.432  36.164  1.00  0.00     0.029 A 
ATOM     58  N   UNL A   1      41.511  29.632  34.248  1.00  0.00    -0.354 N 
ATOM     59  N   UNL A   1      39.420  30.688  32.488  1.00  0.00    -0.248 NA
ATOM     60  C   UNL A   1      37.538  32.029  32.153  1.00  0.00     0.031 C 
ATOM     61  C   UNL A   1      41.570  30.336  36.355  1.00  0.00     0.029 A 
ATOM     62  C   UNL A   1      40.895  30.478  35.154  1.00  0.00     0.049 A 
ATOM     63  H   UNL A   1      41.235  29.509  33.311  1.00  0.00     0.167 HD
ATOM     64  C   UNL A   1      39.138  31.380  33.659  1.00  0.00     0.074 A 
ATOM     65  C   UNL A   1      37.989  32.218  33.385  1.00  0.00     0.031 C 
ATOM     66  C   UNL A   1      39.771  31.327  34.856  1.00  0.00     0.037 A 
BRANCH  53  67
ATOM     67  C   UNL A   1      44.563  27.438  34.989  1.00  0.00     0.057 A 
ATOM     68  C   UNL A   1      44.401  26.229  35.678  1.00  0.00     0.134 A 
ATOM     69  C   UNL A   1      45.827  28.039  35.029  1.00  0.00     0.134 A 
ATOM     70  F   UNL A   1      43.211  25.608  35.690  1.00  0.00    -0.206 F 
ATOM     71  C   UNL A   1      45.449  25.649  36.394  1.00  0.00     0.040 A 
ATOM     72  C   UNL A   1      46.891  27.457  35.721  1.00  0.00     0.040 A 
ATOM     73  F   UNL A   1      46.052  29.196  34.386  1.00  0.00    -0.206 F 
ATOM     74  C   UNL A   1      46.702  26.260  36.410  1.00  0.00     0.006 A 
ENDBRANCH  53  67
BRANCH  54  75
ATOM     75  C   UNL A   1      37.248  31.228  29.362  1.00  0.00     0.057 A 
ATOM     76  C   UNL A   1      36.129  30.448  29.053  1.00  0.00     0.134 A 
ATOM     77  C   UNL A   1      37.290  32.528  28.845  1.00  0.00     0.134 A 
ATOM     78  F   UNL A   1      36.039  29.187  29.502  1.00  0.00    -0.206 F 
ATOM     79  C   UNL A   1      35.105  30.927  28.233  1.00  0.00     0.040 A 
ATOM     80  C   UNL A   1      36.261  33.030  28.045  1.00  0.00     0.040 A 
ATOM     81  F   UNL A   1      38.331  33.331  29.110  1.00  0.00    -0.206 F 
ATOM     82  C   UNL A   1      35.170  32.224  27.727  1.00  0.00     0.006 A 
ENDBRANCH  54  75
BRANCH  66  83
ATOM     83  C   UNL A   1      39.277  32.240  35.937  1.00  0.00     0.057 A 
ATOM     84  C   UNL A   1      38.355  31.816  36.902  1.00  0.00     0.134 A 
ATOM     85  C   UNL A   1      39.762  33.551  36.033  1.00  0.00     0.134 A 
ATOM     86  F   UNL A   1      37.844  30.577  36.856  1.00  0.00    -0.206 F 
ATOM     87  C   UNL A   1      37.915  32.673  37.912  1.00  0.00     0.040 A 
ATOM     88  C   UNL A   1      39.348  34.408  37.053  1.00  0.00     0.040 A 
ATOM     89  F   UNL A   1      40.654  34.014  35.145  1.00  0.00    -0.206 F 
ATOM     90  C   UNL A   1      38.417  33.971  37.993  1.00  0.00     0.006 A 
ENDBRANCH  66  83
ENDBRANCH  40  41
ENDBRANCH  32  35
ENDBRANCH  30  31
ENDBRANCH  29  30
ENDBRANCH  28  29
ENDBRANCH  27  28
ENDBRANCH   1  27
TORSDOF 17
ENDMDL
MODEL 3
REMARK VINA RESULT:     -10.5      3.997      5.585
REMARK SMILES O=C(CCN1C(=O)/C(=C/c2cc(Br)cc(Br)c2O)SC1=S)NCCCCCCNC(=O)c1ccc(-c2c3nc(c(-c4c(F)cccc4F)c4ccc([nH]4)c(-c4c(F)cccc4F)c4nc(c(-c5c(F)cccc5F)c5ccc2[nH]5)C=C4)C=C3)cc1
REMARK SMILES IDX 24 1 23 2 22 3 1 4 2 5 3 7 4 8 5 9 6 10 20 11 7 12 8 13
REMARK SMILES IDX 19 14 21 15 9 16 10 17 11 18 17 19 12 20 15 21 13 22 14 23
REMARK SMILES IDX 16 24 18 25 25 27 26 28 27 29 28 30 29 31 30 32 31 34 32 35
REMARK SMILES IDX 33 36 85 37 34 38 84 39 35 40 36 41 37 42 78 43 38 44 83 45
REMARK SMILES IDX 77 46 79 47 39 48 82 49 76 50 75 51 40 53 66 54 49 55 65 56
REMARK SMILES IDX 50 57 53 58 64 59 80 60 51 61 52 62 63 64 81 65 54 66 41 67
REMARK SMILES IDX 42 68 47 69 43 70 44 71 46 72 48 73 45 74 67 75 68 76 73 77
REMARK SMILES IDX 69 78 70 79 72 80 74 81 71 82 55 83 56 84 61 85 57 86 58 87
REMARK SMILES IDX 60 88 62 89 59 90
REMARK H PARENT 22 6 18 26 29 33 79 52 53 63
REMARK Flexibility Score: inf
ROOT
ATOM      1  C   UNL A   1      39.319  22.787  25.974  1.00  0.00     0.021 C 
ENDROOT
BRANCH   1   2
ATOM      2  C   UNL A   1      37.893  23.290  26.222  1.00  0.00     0.116 C 
BRANCH   2   3
ATOM      3  N   UNL A   1      36.908  22.239  26.026  1.00  0.00    -0.356 N 
ATOM      4  O   UNL A   1      36.859  22.388  23.748  1.00  0.00    -0.275 OA
ATOM      5  C   UNL A   1      36.429  21.895  24.788  1.00  0.00     0.221 C 
ATOM      6  H   UNL A   1      36.571  21.755  26.813  1.00  0.00     0.163 HD
BRANCH   5   7
ATOM      7  C   UNL A   1      35.225  20.970  24.760  1.00  0.00     0.122 C 
BRANCH   7   8
ATOM      8  C   UNL A   1      33.878  21.529  24.301  1.00  0.00     0.137 C 
BRANCH   8   9
ATOM      9  N   UNL A   1      33.486  22.893  24.693  1.00  0.00    -0.292 N 
ATOM     10  C   UNL A   1      33.647  23.897  23.742  1.00  0.00     0.266 C 
ATOM     11  C   UNL A   1      33.193  23.348  25.960  1.00  0.00     0.148 C 
ATOM     12  O   UNL A   1      34.140  23.768  22.629  1.00  0.00    -0.268 OA
ATOM     13  C   UNL A   1      33.137  25.201  24.256  1.00  0.00     0.081 C 
ATOM     14  S   UNL A   1      32.564  24.985  25.853  1.00  0.00    -0.054 SA
ATOM     15  S   UNL A   1      33.337  22.581  27.428  1.00  0.00    -0.052 S 
ATOM     16  C   UNL A   1      33.115  26.299  23.481  1.00  0.00     0.033 C 
BRANCH  16  17
ATOM     17  C   UNL A   1      32.399  27.573  23.730  1.00  0.00     0.020 A 
ATOM     18  C   UNL A   1      32.689  28.369  24.848  1.00  0.00     0.027 A 
ATOM     19  C   UNL A   1      31.341  27.985  22.889  1.00  0.00     0.137 A 
ATOM     20  C   UNL A   1      31.872  29.449  25.196  1.00  0.00     0.019 A 
ATOM     21  C   UNL A   1      30.548  29.094  23.228  1.00  0.00     0.061 A 
ATOM     22  Br  UNL A   1      32.207  30.391  26.801  1.00  0.00    -0.051 Br
ATOM     23  C   UNL A   1      30.795  29.810  24.398  1.00  0.00     0.035 A 
ATOM     24  Br  UNL A   1      29.100  29.652  22.134  1.00  0.00    -0.047 Br
BRANCH  19  25
ATOM     25  O   UNL A   1      31.011  27.308  21.741  1.00  0.00    -0.506 OA
ATOM     26  H   UNL A   1      31.099  27.728  20.908  1.00  0.00     0.293 HD
ENDBRANCH  19  25
ENDBRANCH  16  17
ENDBRANCH   8   9
ENDBRANCH   7   8
ENDBRANCH   5   7
ENDBRANCH   2   3
ENDBRANCH   1   2
BRANCH   1  27
ATOM     27  C   UNL A   1      39.579  21.332  26.384  1.00  0.00     0.002 C 
BRANCH  27  28
ATOM     28  C   UNL A   1      40.848  21.089  27.206  1.00  0.00     0.002 C 
BRANCH  28  29
ATOM     29  C   UNL A   1      41.318  22.284  28.036  1.00  0.00     0.021 C 
BRANCH  29  30
ATOM     30  C   UNL A   1      42.677  22.849  27.631  1.00  0.00     0.116 C 
BRANCH  30  31
ATOM     31  N   UNL A   1      42.633  23.579  26.373  1.00  0.00    -0.352 N 
ATOM     32  C   UNL A   1      42.319  24.898  26.148  1.00  0.00     0.251 C 
ATOM     33  H   UNL A   1      42.861  23.055  25.571  1.00  0.00     0.163 HD
ATOM     34  O   UNL A   1      42.196  25.316  25.001  1.00  0.00    -0.269 OA
BRANCH  32  35
ATOM     35  C   UNL A   1      42.099  25.808  27.294  1.00  0.00     0.039 A 
ATOM     36  C   UNL A   1      42.997  26.857  27.506  1.00  0.00     0.014 A 
ATOM     37  C   UNL A   1      41.014  25.628  28.158  1.00  0.00     0.014 A 
ATOM     38  C   UNL A   1      42.774  27.762  28.546  1.00  0.00     0.010 A 
ATOM     39  C   UNL A   1      40.755  26.571  29.149  1.00  0.00     0.010 A 
ATOM     40  C   UNL A   1      41.634  27.645  29.358  1.00  0.00    -0.014 A 
BRANCH  40  41
ATOM     41  C   UNL A   1      41.355  28.616  30.446  1.00  0.00     0.031 A 
ATOM     42  C   UNL A   1      42.157  28.566  31.719  1.00  0.00     0.074 A 
ATOM     43  C   UNL A   1      40.346  29.500  30.321  1.00  0.00     0.049 A 
ATOM     44  N   UNL A   1      42.004  29.255  32.822  1.00  0.00    -0.248 NA
ATOM     45  C   UNL A   1      43.261  27.593  31.767  1.00  0.00     0.031 C 
ATOM     46  C   UNL A   1      39.466  29.624  29.157  1.00  0.00     0.029 A 
ATOM     47  N   UNL A   1      39.881  30.456  31.190  1.00  0.00    -0.354 N 
ATOM     48  C   UNL A   1      42.981  28.791  33.695  1.00  0.00     0.074 A 
ATOM     49  C   UNL A   1      43.685  27.726  33.015  1.00  0.00     0.031 C 
ATOM     50  C   UNL A   1      38.577  30.606  29.380  1.00  0.00     0.029 A 
ATOM     51  C   UNL A   1      38.802  31.159  30.712  1.00  0.00     0.049 A 
ATOM     52  H   UNL A   1      40.283  30.621  32.073  1.00  0.00     0.167 HD
ATOM     53  C   UNL A   1      43.284  29.231  34.939  1.00  0.00     0.037 A 
ATOM     54  C   UNL A   1      38.073  32.134  31.287  1.00  0.00     0.037 A 
ATOM     55  C   UNL A   1      42.604  30.308  35.607  1.00  0.00     0.049 A 
ATOM     56  C   UNL A   1      38.436  32.610  32.667  1.00  0.00     0.074 A 
ATOM     57  C   UNL A   1      42.851  30.840  36.860  1.00  0.00     0.029 A 
ATOM     58  N   UNL A   1      41.550  31.028  35.067  1.00  0.00    -0.354 N 
ATOM     59  N   UNL A   1      39.388  32.187  33.463  1.00  0.00    -0.248 NA
ATOM     60  C   UNL A   1      37.632  33.707  33.224  1.00  0.00     0.031 C 
ATOM     61  C   UNL A   1      41.931  31.869  37.088  1.00  0.00     0.029 A 
ATOM     62  C   UNL A   1      41.138  32.001  35.960  1.00  0.00     0.049 A 
ATOM     63  H   UNL A   1      41.153  30.870  34.179  1.00  0.00     0.167 HD
ATOM     64  C   UNL A   1      39.321  32.989  34.595  1.00  0.00     0.074 A 
ATOM     65  C   UNL A   1      38.243  33.931  34.380  1.00  0.00     0.031 C 
ATOM     66  C   UNL A   1      40.082  32.950  35.716  1.00  0.00     0.037 A 
BRANCH  53  67
ATOM     67  C   UNL A   1      44.419  28.558  35.652  1.00  0.00     0.057 A 
ATOM     68  C   UNL A   1      44.210  27.441  36.471  1.00  0.00     0.134 A 
ATOM     69  C   UNL A   1      45.738  28.997  35.484  1.00  0.00     0.134 A 
ATOM     70  F   UNL A   1      42.968  26.978  36.684  1.00  0.00    -0.206 F 
ATOM     71  C   UNL A   1      45.268  26.798  37.115  1.00  0.00     0.040 A 
ATOM     72  C   UNL A   1      46.808  28.348  36.102  1.00  0.00     0.040 A 
ATOM     73  F   UNL A   1      46.010  30.058  34.707  1.00  0.00    -0.206 F 
ATOM     74  C   UNL A   1      46.574  27.247  36.924  1.00  0.00     0.006 A 
ENDBRANCH  53  67
BRANCH  54  75
ATOM     75  C   UNL A   1      36.931  32.747  30.560  1.00  0.00     0.057 A 
ATOM     76  C   UNL A   1      35.619  32.312  30.776  1.00  0.00     0.134 A 
ATOM     77  C   UNL A   1      37.128  33.751  29.606  1.00  0.00     0.134 A 
ATOM     78  F   UNL A   1      35.368  31.338  31.664  1.00  0.00    -0.206 F 
ATOM     79  C   UNL A   1      34.546  32.829  30.049  1.00  0.00     0.040 A 
ATOM     80  C   UNL A   1      36.061  34.297  28.889  1.00  0.00     0.040 A 
ATOM     81  F   UNL A   1      38.360  34.218  29.356  1.00  0.00    -0.206 F 
ATOM     82  C   UNL A   1      34.766  33.828  29.102  1.00  0.00     0.006 A 
ENDBRANCH  54  75
BRANCH  66  83
ATOM     83  C   UNL A   1      39.819  33.989  36.764  1.00  0.00     0.057 A 
ATOM     84  C   UNL A   1      40.377  35.271  36.693  1.00  0.00     0.134 A 
ATOM     85  C   UNL A   1      38.964  33.711  37.838  1.00  0.00     0.134 A 
ATOM     86  F   UNL A   1      41.213  35.595  35.696  1.00  0.00    -0.206 F 
ATOM     87  C   UNL A   1      40.111  36.234  37.668  1.00  0.00     0.040 A 
ATOM     88  C   UNL A   1      38.672  34.673  38.805  1.00  0.00     0.040 A 
ATOM     89  F   UNL A   1      38.391  32.504  37.957  1.00  0.00    -0.206 F 
ATOM     90  C   UNL A   1      39.251  35.938  38.725  1.00  0.00     0.006 A 
ENDBRANCH  66  83
ENDBRANCH  40  41
ENDBRANCH  32  35
ENDBRANCH  30  31
ENDBRANCH  29  30
ENDBRANCH  28  29
ENDBRANCH  27  28
ENDBRANCH   1  27
TORSDOF 17
ENDMDL
