MODEL 1
REMARK VINA RESULT:     -12.3      0.000      0.000
REMARK SMILES CCc1ccc(S(=O)(=O)c2nnn(-c3ccc(C(=O)NCCCCCCNC(=O)c4ccc(-c5c6nc(c(-c7c(F)cccc7F)c7ccc([nH]7)c(-c7c(F)cccc7F)c7nc(c(-c8c(F)cccc8F)c8ccc5[nH]8)C=C7)C=C6)cc4)cc3)c2C)cc1
REMARK SMILES IDX 22 1 21 2 20 3 18 4 19 5 17 7 14 8 15 9 85 10 16 11 84 12
REMARK SMILES IDX 13 13 10 14 11 15 86 16 12 17 87 18 7 19 8 20 9 21 6 22 3 23
REMARK SMILES IDX 4 24 89 25 5 26 88 27 2 28 1 29 23 30 24 31 25 32 26 33
REMARK SMILES IDX 27 34 28 35 29 37 30 38 31 39 83 40 32 41 82 42 33 43 34 44
REMARK SMILES IDX 35 45 76 46 36 47 81 48 75 49 77 50 37 51 80 52 74 53 73 54
REMARK SMILES IDX 38 56 64 57 47 58 63 59 48 60 51 61 62 62 78 63 49 64 50 65
REMARK SMILES IDX 61 67 79 68 52 69 39 70 40 71 45 72 41 73 42 74 44 75 46 76
REMARK SMILES IDX 43 77 65 78 66 79 71 80 67 81 68 82 70 83 72 84 69 85 53 86
REMARK SMILES IDX 54 87 59 88 55 89 56 90 58 91 60 92 57 93
REMARK H PARENT 20 6 27 36 77 55 51 66
REMARK Flexibility Score: inf
ROOT
ATOM      1  C   UNL A   1      31.522  29.242  26.676  1.00  0.00     0.021 C 
ENDROOT
BRANCH   1   2
ATOM      2  C   UNL A   1      31.708  30.455  25.759  1.00  0.00     0.116 C 
BRANCH   2   3
ATOM      3  N   UNL A   1      30.762  30.398  24.660  1.00  0.00    -0.352 N 
ATOM      4  C   UNL A   1      30.625  29.561  23.582  1.00  0.00     0.251 C 
ATOM      5  O   UNL A   1      29.701  29.787  22.800  1.00  0.00    -0.269 OA
ATOM      6  H   UNL A   1      30.078  31.104  24.696  1.00  0.00     0.163 HD
BRANCH   4   7
ATOM      7  C   UNL A   1      31.474  28.357  23.368  1.00  0.00     0.039 A 
ATOM      8  C   UNL A   1      33.000  26.020  23.375  1.00  0.00     0.067 A 
ATOM      9  C   UNL A   1      31.613  25.922  23.481  1.00  0.00     0.029 A 
ATOM     10  C   UNL A   1      33.612  27.250  23.129  1.00  0.00     0.029 A 
ATOM     11  C   UNL A   1      30.860  27.099  23.515  1.00  0.00     0.016 A 
ATOM     12  C   UNL A   1      32.835  28.404  23.060  1.00  0.00     0.016 A 
BRANCH   8  13
ATOM     13  N   UNL A   1      33.805  24.887  23.577  1.00  0.00    -0.216 N 
ATOM     14  C   UNL A   1      34.985  23.275  24.424  1.00  0.00     0.205 A 
ATOM     15  N   UNL A   1      35.091  23.227  23.060  1.00  0.00    -0.117 NA
ATOM     16  C   UNL A   1      34.099  24.280  24.784  1.00  0.00     0.081 A 
ATOM     17  N   UNL A   1      34.294  24.160  22.554  1.00  0.00    -0.061 NA
ATOM     18  C   UNL A   1      33.406  24.584  26.063  1.00  0.00     0.070 C 
BRANCH  14  19
ATOM     19  S   UNL A   1      35.675  22.065  25.449  1.00  0.00     0.227 S 
ATOM     20  O   UNL A   1      35.113  22.342  26.752  1.00  0.00    -0.217 OA
ATOM     21  O   UNL A   1      37.105  22.091  25.193  1.00  0.00    -0.217 OA
BRANCH  19  22
ATOM     22  C   UNL A   1      35.044  20.502  24.902  1.00  0.00     0.073 A 
ATOM     23  C   UNL A   1      34.081  17.958  24.212  1.00  0.00    -0.048 A 
ATOM     24  C   UNL A   1      35.440  18.153  24.511  1.00  0.00     0.005 A 
ATOM     25  C   UNL A   1      33.215  19.056  24.272  1.00  0.00     0.005 A 
ATOM     26  C   UNL A   1      35.922  19.418  24.861  1.00  0.00     0.021 A 
ATOM     27  C   UNL A   1      33.694  20.326  24.590  1.00  0.00     0.021 A 
BRANCH  23  28
ATOM     28  C   UNL A   1      33.580  16.567  23.896  1.00  0.00     0.032 C 
ATOM     29  C   UNL A   1      33.126  15.756  25.104  1.00  0.00     0.009 C 
ENDBRANCH  23  28
ENDBRANCH  19  22
ENDBRANCH  14  19
ENDBRANCH   8  13
ENDBRANCH   4   7
ENDBRANCH   2   3
ENDBRANCH   1   2
BRANCH   1  30
ATOM     30  C   UNL A   1      32.762  28.342  26.743  1.00  0.00     0.002 C 
BRANCH  30  31
ATOM     31  C   UNL A   1      34.111  29.065  26.584  1.00  0.00     0.002 C 
BRANCH  31  32
ATOM     32  C   UNL A   1      34.664  29.756  27.840  1.00  0.00     0.021 C 
BRANCH  32  33
ATOM     33  C   UNL A   1      35.007  31.219  27.619  1.00  0.00     0.116 C 
BRANCH  33  34
ATOM     34  N   UNL A   1      34.769  32.031  28.817  1.00  0.00    -0.352 N 
ATOM     35  C   UNL A   1      35.263  31.850  30.096  1.00  0.00     0.251 C 
ATOM     36  H   UNL A   1      34.181  32.810  28.694  1.00  0.00     0.163 HD
ATOM     37  O   UNL A   1      34.707  32.346  31.067  1.00  0.00    -0.269 OA
BRANCH  35  38
ATOM     38  C   UNL A   1      36.494  31.062  30.262  1.00  0.00     0.039 A 
ATOM     39  C   UNL A   1      36.485  29.716  30.634  1.00  0.00     0.014 A 
ATOM     40  C   UNL A   1      37.689  31.719  29.999  1.00  0.00     0.014 A 
ATOM     41  C   UNL A   1      37.699  29.034  30.683  1.00  0.00     0.010 A 
ATOM     42  C   UNL A   1      38.827  30.997  29.802  1.00  0.00     0.010 A 
ATOM     43  C   UNL A   1      38.866  29.690  30.256  1.00  0.00    -0.014 A 
BRANCH  43  44
ATOM     44  C   UNL A   1      40.151  29.019  30.161  1.00  0.00     0.031 A 
ATOM     45  C   UNL A   1      40.818  28.849  31.473  1.00  0.00     0.074 A 
ATOM     46  C   UNL A   1      40.555  28.390  29.034  1.00  0.00     0.049 A 
ATOM     47  N   UNL A   1      41.859  29.474  31.906  1.00  0.00    -0.248 NA
ATOM     48  C   UNL A   1      40.144  28.033  32.498  1.00  0.00     0.031 C 
ATOM     49  C   UNL A   1      39.825  28.207  27.771  1.00  0.00     0.029 A 
ATOM     50  N   UNL A   1      41.696  27.681  28.812  1.00  0.00    -0.354 N 
ATOM     51  C   UNL A   1      42.121  28.938  33.162  1.00  0.00     0.074 A 
ATOM     52  C   UNL A   1      40.921  28.254  33.561  1.00  0.00     0.031 C 
ATOM     53  C   UNL A   1      40.434  27.263  27.018  1.00  0.00     0.029 A 
ATOM     54  C   UNL A   1      41.684  26.899  27.657  1.00  0.00     0.049 A 
ATOM     55  H   UNL A   1      42.469  27.718  29.421  1.00  0.00     0.167 HD
ATOM     56  C   UNL A   1      43.402  28.846  33.615  1.00  0.00     0.037 A 
ATOM     57  C   UNL A   1      42.637  26.008  27.280  1.00  0.00     0.037 A 
ATOM     58  C   UNL A   1      44.280  29.682  32.827  1.00  0.00     0.049 A 
ATOM     59  C   UNL A   1      43.870  26.347  28.035  1.00  0.00     0.074 A 
ATOM     60  C   UNL A   1      44.337  31.030  32.527  1.00  0.00     0.029 A 
ATOM     61  N   UNL A   1      45.052  29.060  31.874  1.00  0.00    -0.354 N 
ATOM     62  N   UNL A   1      44.549  27.443  27.848  1.00  0.00    -0.248 NA
ATOM     63  C   UNL A   1      44.052  25.710  29.330  1.00  0.00     0.031 C 
ATOM     64  C   UNL A   1      44.721  31.088  31.155  1.00  0.00     0.029 A 
ATOM     65  C   UNL A   1      44.964  29.786  30.717  1.00  0.00     0.049 A 
ATOM     66  H   UNL A   1      45.575  28.235  32.002  1.00  0.00     0.167 HD
ATOM     67  C   UNL A   1      44.881  27.873  29.125  1.00  0.00     0.074 A 
ATOM     68  C   UNL A   1      44.608  26.727  29.993  1.00  0.00     0.031 C 
ATOM     69  C   UNL A   1      45.050  29.201  29.398  1.00  0.00     0.037 A 
BRANCH  56  70
ATOM     70  C   UNL A   1      43.934  27.700  34.447  1.00  0.00     0.057 A 
ATOM     71  C   UNL A   1      44.644  28.000  35.625  1.00  0.00     0.134 A 
ATOM     72  C   UNL A   1      44.054  26.365  34.006  1.00  0.00     0.134 A 
ATOM     73  F   UNL A   1      44.611  29.233  36.154  1.00  0.00    -0.206 F 
ATOM     74  C   UNL A   1      45.492  27.077  36.247  1.00  0.00     0.040 A 
ATOM     75  C   UNL A   1      44.857  25.422  34.651  1.00  0.00     0.040 A 
ATOM     76  F   UNL A   1      43.488  25.916  32.881  1.00  0.00    -0.206 F 
ATOM     77  C   UNL A   1      45.612  25.786  35.753  1.00  0.00     0.006 A 
ENDBRANCH  56  70
BRANCH  57  78
ATOM     78  C   UNL A   1      42.488  24.713  26.573  1.00  0.00     0.057 A 
ATOM     79  C   UNL A   1      43.217  24.435  25.405  1.00  0.00     0.134 A 
ATOM     80  C   UNL A   1      41.868  23.612  27.186  1.00  0.00     0.134 A 
ATOM     81  F   UNL A   1      43.877  25.412  24.767  1.00  0.00    -0.206 F 
ATOM     82  C   UNL A   1      43.348  23.135  24.897  1.00  0.00     0.040 A 
ATOM     83  C   UNL A   1      41.990  22.308  26.689  1.00  0.00     0.040 A 
ATOM     84  F   UNL A   1      41.204  23.748  28.343  1.00  0.00    -0.206 F 
ATOM     85  C   UNL A   1      42.745  22.063  25.548  1.00  0.00     0.006 A 
ENDBRANCH  57  78
BRANCH  69  86
ATOM     86  C   UNL A   1      45.117  30.154  28.234  1.00  0.00     0.057 A 
ATOM     87  C   UNL A   1      44.005  30.790  27.657  1.00  0.00     0.134 A 
ATOM     88  C   UNL A   1      46.375  30.552  27.770  1.00  0.00     0.134 A 
ATOM     89  F   UNL A   1      42.763  30.550  28.096  1.00  0.00    -0.206 F 
ATOM     90  C   UNL A   1      44.139  31.740  26.640  1.00  0.00     0.040 A 
ATOM     91  C   UNL A   1      46.525  31.523  26.779  1.00  0.00     0.040 A 
ATOM     92  F   UNL A   1      47.487  30.029  28.310  1.00  0.00    -0.206 F 
ATOM     93  C   UNL A   1      45.405  32.115  26.201  1.00  0.00     0.006 A 
ENDBRANCH  69  86
ENDBRANCH  43  44
ENDBRANCH  35  38
ENDBRANCH  33  34
ENDBRANCH  32  33
ENDBRANCH  31  32
ENDBRANCH  30  31
ENDBRANCH   1  30
TORSDOF 17
ENDMDL
MODEL 2
REMARK VINA RESULT:     -12.3      2.229      6.222
REMARK SMILES CCc1ccc(S(=O)(=O)c2nnn(-c3ccc(C(=O)NCCCCCCNC(=O)c4ccc(-c5c6nc(c(-c7c(F)cccc7F)c7ccc([nH]7)c(-c7c(F)cccc7F)c7nc(c(-c8c(F)cccc8F)c8ccc5[nH]8)C=C7)C=C6)cc4)cc3)c2C)cc1
REMARK SMILES IDX 22 1 21 2 20 3 18 4 19 5 17 7 14 8 15 9 85 10 16 11 84 12
REMARK SMILES IDX 13 13 10 14 11 15 86 16 12 17 87 18 7 19 8 20 9 21 6 22 3 23
REMARK SMILES IDX 4 24 89 25 5 26 88 27 2 28 1 29 23 30 24 31 25 32 26 33
REMARK SMILES IDX 27 34 28 35 29 37 30 38 31 39 83 40 32 41 82 42 33 43 34 44
REMARK SMILES IDX 35 45 76 46 36 47 81 48 75 49 77 50 37 51 80 52 74 53 73 54
REMARK SMILES IDX 38 56 64 57 47 58 63 59 48 60 51 61 62 62 78 63 49 64 50 65
REMARK SMILES IDX 61 67 79 68 52 69 39 70 40 71 45 72 41 73 42 74 44 75 46 76
REMARK SMILES IDX 43 77 65 78 66 79 71 80 67 81 68 82 70 83 72 84 69 85 53 86
REMARK SMILES IDX 54 87 59 88 55 89 56 90 58 91 60 92 57 93
REMARK H PARENT 20 6 27 36 77 55 51 66
REMARK Flexibility Score: inf
ROOT
ATOM      1  C   UNL A   1      31.475  28.811  25.929  1.00  0.00     0.021 C 
ENDROOT
BRANCH   1   2
ATOM      2  C   UNL A   1      31.692  29.766  24.752  1.00  0.00     0.116 C 
BRANCH   2   3
ATOM      3  N   UNL A   1      30.510  29.797  23.910  1.00  0.00    -0.352 N 
ATOM      4  C   UNL A   1      29.911  28.869  23.098  1.00  0.00     0.251 C 
ATOM      5  O   UNL A   1      28.896  29.213  22.491  1.00  0.00    -0.269 OA
ATOM      6  H   UNL A   1      30.040  30.662  23.928  1.00  0.00     0.163 HD
BRANCH   4   7
ATOM      7  C   UNL A   1      30.376  27.458  22.987  1.00  0.00     0.039 A 
ATOM      8  C   UNL A   1      31.318  24.840  23.195  1.00  0.00     0.067 A 
ATOM      9  C   UNL A   1      30.075  25.156  23.741  1.00  0.00     0.029 A 
ATOM     10  C   UNL A   1      32.023  25.775  22.435  1.00  0.00     0.029 A 
ATOM     11  C   UNL A   1      29.628  26.478  23.666  1.00  0.00     0.016 A 
ATOM     12  C   UNL A   1      31.512  27.061  22.281  1.00  0.00     0.016 A 
BRANCH   8  13
ATOM     13  N   UNL A   1      31.908  23.592  23.456  1.00  0.00    -0.216 N 
ATOM     14  C   UNL A   1      33.000  21.925  24.316  1.00  0.00     0.205 A 
ATOM     15  N   UNL A   1      32.543  21.560  23.078  1.00  0.00    -0.117 NA
ATOM     16  C   UNL A   1      32.538  23.197  24.622  1.00  0.00     0.081 A 
ATOM     17  N   UNL A   1      31.803  22.554  22.604  1.00  0.00    -0.061 NA
ATOM     18  C   UNL A   1      32.480  23.954  25.900  1.00  0.00     0.070 C 
BRANCH  14  19
ATOM     19  S   UNL A   1      33.798  20.815  25.373  1.00  0.00     0.227 S 
ATOM     20  O   UNL A   1      33.728  19.550  24.677  1.00  0.00    -0.217 OA
ATOM     21  O   UNL A   1      33.210  21.018  26.686  1.00  0.00    -0.217 OA
BRANCH  19  22
ATOM     22  C   UNL A   1      35.500  21.304  25.449  1.00  0.00     0.073 A 
ATOM     23  C   UNL A   1      38.181  22.077  25.760  1.00  0.00    -0.048 A 
ATOM     24  C   UNL A   1      37.138  22.931  26.154  1.00  0.00     0.005 A 
ATOM     25  C   UNL A   1      37.857  20.828  25.215  1.00  0.00     0.005 A 
ATOM     26  C   UNL A   1      35.802  22.548  26.006  1.00  0.00     0.021 A 
ATOM     27  C   UNL A   1      36.526  20.451  25.035  1.00  0.00     0.021 A 
BRANCH  23  28
ATOM     28  C   UNL A   1      39.615  22.495  25.989  1.00  0.00     0.032 C 
ATOM     29  C   UNL A   1      40.360  21.690  27.046  1.00  0.00     0.009 C 
ENDBRANCH  23  28
ENDBRANCH  19  22
ENDBRANCH  14  19
ENDBRANCH   8  13
ENDBRANCH   4   7
ENDBRANCH   2   3
ENDBRANCH   1   2
BRANCH   1  30
ATOM     30  C   UNL A   1      32.476  27.649  25.954  1.00  0.00     0.002 C 
BRANCH  30  31
ATOM     31  C   UNL A   1      33.936  28.043  26.234  1.00  0.00     0.002 C 
BRANCH  31  32
ATOM     32  C   UNL A   1      34.150  29.204  27.218  1.00  0.00     0.021 C 
BRANCH  32  33
ATOM     33  C   UNL A   1      35.581  29.314  27.717  1.00  0.00     0.116 C 
BRANCH  33  34
ATOM     34  N   UNL A   1      35.648  29.748  29.115  1.00  0.00    -0.352 N 
ATOM     35  C   UNL A   1      36.610  29.456  30.066  1.00  0.00     0.251 C 
ATOM     36  H   UNL A   1      34.912  30.327  29.419  1.00  0.00     0.163 HD
ATOM     37  O   UNL A   1      36.369  29.549  31.262  1.00  0.00    -0.269 OA
BRANCH  35  38
ATOM     38  C   UNL A   1      37.945  29.049  29.603  1.00  0.00     0.039 A 
ATOM     39  C   UNL A   1      38.602  29.679  28.542  1.00  0.00     0.014 A 
ATOM     40  C   UNL A   1      38.552  28.011  30.299  1.00  0.00     0.014 A 
ATOM     41  C   UNL A   1      39.900  29.276  28.234  1.00  0.00     0.010 A 
ATOM     42  C   UNL A   1      39.891  27.800  30.163  1.00  0.00     0.010 A 
ATOM     43  C   UNL A   1      40.535  28.336  29.062  1.00  0.00    -0.014 A 
BRANCH  43  44
ATOM     44  C   UNL A   1      41.924  27.949  28.884  1.00  0.00     0.031 A 
ATOM     45  C   UNL A   1      42.089  26.718  28.077  1.00  0.00     0.074 A 
ATOM     46  C   UNL A   1      42.949  28.776  29.197  1.00  0.00     0.049 A 
ATOM     47  N   UNL A   1      42.450  25.553  28.497  1.00  0.00    -0.248 NA
ATOM     48  C   UNL A   1      41.614  26.728  26.683  1.00  0.00     0.031 C 
ATOM     49  C   UNL A   1      42.896  30.158  29.694  1.00  0.00     0.029 A 
ATOM     50  N   UNL A   1      44.287  28.577  29.040  1.00  0.00    -0.354 N 
ATOM     51  C   UNL A   1      42.497  24.747  27.364  1.00  0.00     0.074 A 
ATOM     52  C   UNL A   1      41.754  25.443  26.349  1.00  0.00     0.031 C 
ATOM     53  C   UNL A   1      44.113  30.737  29.580  1.00  0.00     0.029 A 
ATOM     54  C   UNL A   1      45.067  29.726  29.169  1.00  0.00     0.049 A 
ATOM     55  H   UNL A   1      44.672  27.691  28.851  1.00  0.00     0.167 HD
ATOM     56  C   UNL A   1      43.403  23.733  27.281  1.00  0.00     0.037 A 
ATOM     57  C   UNL A   1      46.401  29.822  28.932  1.00  0.00     0.037 A 
ATOM     58  C   UNL A   1      43.948  23.432  28.585  1.00  0.00     0.049 A 
ATOM     59  C   UNL A   1      46.948  28.441  28.974  1.00  0.00     0.074 A 
ATOM     60  C   UNL A   1      43.416  23.040  29.799  1.00  0.00     0.029 A 
ATOM     61  N   UNL A   1      45.200  23.922  28.872  1.00  0.00    -0.354 N 
ATOM     62  N   UNL A   1      46.999  27.720  30.059  1.00  0.00    -0.248 NA
ATOM     63  C   UNL A   1      46.969  27.697  27.725  1.00  0.00     0.031 C 
ATOM     64  C   UNL A   1      44.162  23.760  30.780  1.00  0.00     0.029 A 
ATOM     65  C   UNL A   1      45.162  24.478  30.123  1.00  0.00     0.049 A 
ATOM     66  H   UNL A   1      45.986  23.880  28.280  1.00  0.00     0.167 HD
ATOM     67  C   UNL A   1      46.607  26.452  29.656  1.00  0.00     0.074 A 
ATOM     68  C   UNL A   1      46.670  26.482  28.194  1.00  0.00     0.031 C 
ATOM     69  C   UNL A   1      45.977  25.603  30.522  1.00  0.00     0.037 A 
BRANCH  56  70
ATOM     70  C   UNL A   1      44.117  23.329  26.009  1.00  0.00     0.057 A 
ATOM     71  C   UNL A   1      44.184  21.961  25.685  1.00  0.00     0.134 A 
ATOM     72  C   UNL A   1      44.987  24.157  25.269  1.00  0.00     0.134 A 
ATOM     73  F   UNL A   1      43.405  21.066  26.313  1.00  0.00    -0.206 F 
ATOM     74  C   UNL A   1      45.118  21.447  24.779  1.00  0.00     0.040 A 
ATOM     75  C   UNL A   1      45.887  23.658  24.324  1.00  0.00     0.040 A 
ATOM     76  F   UNL A   1      45.093  25.473  25.477  1.00  0.00    -0.206 F 
ATOM     77  C   UNL A   1      45.984  22.296  24.104  1.00  0.00     0.006 A 
ENDBRANCH  56  70
BRANCH  57  78
ATOM     78  C   UNL A   1      47.179  30.950  28.366  1.00  0.00     0.057 A 
ATOM     79  C   UNL A   1      46.914  31.440  27.077  1.00  0.00     0.134 A 
ATOM     80  C   UNL A   1      47.981  31.767  29.180  1.00  0.00     0.134 A 
ATOM     81  F   UNL A   1      46.126  30.754  26.237  1.00  0.00    -0.206 F 
ATOM     82  C   UNL A   1      47.391  32.683  26.636  1.00  0.00     0.040 A 
ATOM     83  C   UNL A   1      48.466  33.009  28.753  1.00  0.00     0.040 A 
ATOM     84  F   UNL A   1      48.241  31.432  30.453  1.00  0.00    -0.206 F 
ATOM     85  C   UNL A   1      48.159  33.479  27.481  1.00  0.00     0.006 A 
ENDBRANCH  57  78
BRANCH  69  86
ATOM     86  C   UNL A   1      45.950  25.980  31.980  1.00  0.00     0.057 A 
ATOM     87  C   UNL A   1      47.017  25.793  32.873  1.00  0.00     0.134 A 
ATOM     88  C   UNL A   1      44.846  26.690  32.463  1.00  0.00     0.134 A 
ATOM     89  F   UNL A   1      48.157  25.210  32.481  1.00  0.00    -0.206 F 
ATOM     90  C   UNL A   1      46.968  26.253  34.194  1.00  0.00     0.040 A 
ATOM     91  C   UNL A   1      44.797  27.183  33.768  1.00  0.00     0.040 A 
ATOM     92  F   UNL A   1      43.809  26.955  31.653  1.00  0.00    -0.206 F 
ATOM     93  C   UNL A   1      45.856  26.957  34.643  1.00  0.00     0.006 A 
ENDBRANCH  69  86
ENDBRANCH  43  44
ENDBRANCH  35  38
ENDBRANCH  33  34
ENDBRANCH  32  33
ENDBRANCH  31  32
ENDBRANCH  30  31
ENDBRANCH   1  30
TORSDOF 17
ENDMDL
MODEL 3
REMARK VINA RESULT:     -12.2      2.866      3.966
REMARK SMILES CCc1ccc(S(=O)(=O)c2nnn(-c3ccc(C(=O)NCCCCCCNC(=O)c4ccc(-c5c6nc(c(-c7c(F)cccc7F)c7ccc([nH]7)c(-c7c(F)cccc7F)c7nc(c(-c8c(F)cccc8F)c8ccc5[nH]8)C=C7)C=C6)cc4)cc3)c2C)cc1
REMARK SMILES IDX 22 1 21 2 20 3 18 4 19 5 17 7 14 8 15 9 85 10 16 11 84 12
REMARK SMILES IDX 13 13 10 14 11 15 86 16 12 17 87 18 7 19 8 20 9 21 6 22 3 23
REMARK SMILES IDX 4 24 89 25 5 26 88 27 2 28 1 29 23 30 24 31 25 32 26 33
REMARK SMILES IDX 27 34 28 35 29 37 30 38 31 39 83 40 32 41 82 42 33 43 34 44
REMARK SMILES IDX 35 45 76 46 36 47 81 48 75 49 77 50 37 51 80 52 74 53 73 54
REMARK SMILES IDX 38 56 64 57 47 58 63 59 48 60 51 61 62 62 78 63 49 64 50 65
REMARK SMILES IDX 61 67 79 68 52 69 39 70 40 71 45 72 41 73 42 74 44 75 46 76
REMARK SMILES IDX 43 77 65 78 66 79 71 80 67 81 68 82 70 83 72 84 69 85 53 86
REMARK SMILES IDX 54 87 59 88 55 89 56 90 58 91 60 92 57 93
REMARK H PARENT 20 6 27 36 77 55 51 66
REMARK Flexibility Score: inf
ROOT
ATOM      1  C   UNL A   1      34.920  31.717  28.394  1.00  0.00     0.021 C 
ENDROOT
BRANCH   1   2
ATOM      2  C   UNL A   1      33.951  30.784  27.663  1.00  0.00     0.116 C 
BRANCH   2   3
ATOM      3  N   UNL A   1      32.819  31.539  27.157  1.00  0.00    -0.352 N 
ATOM      4  C   UNL A   1      31.748  31.210  26.366  1.00  0.00     0.251 C 
ATOM      5  O   UNL A   1      30.942  32.101  26.098  1.00  0.00    -0.269 OA
ATOM      6  H   UNL A   1      32.820  32.482  27.441  1.00  0.00     0.163 HD
BRANCH   4   7
ATOM      7  C   UNL A   1      31.473  29.823  25.899  1.00  0.00     0.039 A 
ATOM      8  C   UNL A   1      31.367  27.152  25.097  1.00  0.00     0.067 A 
ATOM      9  C   UNL A   1      31.532  27.445  26.450  1.00  0.00     0.029 A 
ATOM     10  C   UNL A   1      31.119  28.168  24.171  1.00  0.00     0.029 A 
ATOM     11  C   UNL A   1      31.622  28.784  26.838  1.00  0.00     0.016 A 
ATOM     12  C   UNL A   1      31.108  29.495  24.593  1.00  0.00     0.016 A 
BRANCH   8  13
ATOM     13  N   UNL A   1      31.511  25.833  24.638  1.00  0.00    -0.216 N 
ATOM     14  C   UNL A   1      32.188  24.003  23.686  1.00  0.00     0.205 A 
ATOM     15  N   UNL A   1      30.971  23.771  24.268  1.00  0.00    -0.117 NA
ATOM     16  C   UNL A   1      32.601  25.296  23.977  1.00  0.00     0.081 A 
ATOM     17  N   UNL A   1      30.612  24.870  24.921  1.00  0.00    -0.061 NA
ATOM     18  C   UNL A   1      33.919  25.970  23.857  1.00  0.00     0.070 C 
BRANCH  14  19
ATOM     19  S   UNL A   1      33.116  22.745  22.948  1.00  0.00     0.227 S 
ATOM     20  O   UNL A   1      33.496  23.291  21.665  1.00  0.00    -0.217 OA
ATOM     21  O   UNL A   1      32.324  21.534  23.079  1.00  0.00    -0.217 OA
BRANCH  19  22
ATOM     22  C   UNL A   1      34.587  22.550  23.917  1.00  0.00     0.073 A 
ATOM     23  C   UNL A   1      36.952  22.428  25.423  1.00  0.00    -0.048 A 
ATOM     24  C   UNL A   1      36.994  22.681  24.042  1.00  0.00     0.005 A 
ATOM     25  C   UNL A   1      35.706  22.247  26.036  1.00  0.00     0.005 A 
ATOM     26  C   UNL A   1      35.818  22.748  23.290  1.00  0.00     0.021 A 
ATOM     27  C   UNL A   1      34.531  22.281  25.287  1.00  0.00     0.021 A 
BRANCH  23  28
ATOM     28  C   UNL A   1      38.237  22.422  26.220  1.00  0.00     0.032 C 
ATOM     29  C   UNL A   1      39.273  21.401  25.765  1.00  0.00     0.009 C 
ENDBRANCH  23  28
ENDBRANCH  19  22
ENDBRANCH  14  19
ENDBRANCH   8  13
ENDBRANCH   4   7
ENDBRANCH   2   3
ENDBRANCH   1   2
BRANCH   1  30
ATOM     30  C   UNL A   1      34.991  33.118  27.772  1.00  0.00     0.002 C 
BRANCH  30  31
ATOM     31  C   UNL A   1      35.506  34.228  28.704  1.00  0.00     0.002 C 
BRANCH  31  32
ATOM     32  C   UNL A   1      34.508  35.346  29.047  1.00  0.00     0.021 C 
BRANCH  32  33
ATOM     33  C   UNL A   1      33.278  34.847  29.785  1.00  0.00     0.116 C 
BRANCH  33  34
ATOM     34  N   UNL A   1      33.142  35.457  31.111  1.00  0.00    -0.352 N 
ATOM     35  C   UNL A   1      33.650  35.017  32.320  1.00  0.00     0.251 C 
ATOM     36  H   UNL A   1      32.622  36.291  31.146  1.00  0.00     0.163 HD
ATOM     37  O   UNL A   1      33.165  35.381  33.383  1.00  0.00    -0.269 OA
BRANCH  35  38
ATOM     38  C   UNL A   1      34.810  34.114  32.301  1.00  0.00     0.039 A 
ATOM     39  C   UNL A   1      34.690  32.732  32.138  1.00  0.00     0.014 A 
ATOM     40  C   UNL A   1      36.060  34.709  32.424  1.00  0.00     0.014 A 
ATOM     41  C   UNL A   1      35.854  31.971  32.049  1.00  0.00     0.010 A 
ATOM     42  C   UNL A   1      37.177  34.007  32.085  1.00  0.00     0.010 A 
ATOM     43  C   UNL A   1      37.095  32.628  32.017  1.00  0.00    -0.014 A 
BRANCH  43  44
ATOM     44  C   UNL A   1      38.348  31.923  31.807  1.00  0.00     0.031 A 
ATOM     45  C   UNL A   1      39.068  31.623  33.066  1.00  0.00     0.074 A 
ATOM     46  C   UNL A   1      38.676  31.374  30.614  1.00  0.00     0.049 A 
ATOM     47  N   UNL A   1      40.151  32.176  33.496  1.00  0.00    -0.248 NA
ATOM     48  C   UNL A   1      38.411  30.751  34.055  1.00  0.00     0.031 C 
ATOM     49  C   UNL A   1      37.882  31.320  29.378  1.00  0.00     0.029 A 
ATOM     50  N   UNL A   1      39.778  30.647  30.281  1.00  0.00    -0.354 N 
ATOM     51  C   UNL A   1      40.449  31.530  34.691  1.00  0.00     0.074 A 
ATOM     52  C   UNL A   1      39.244  30.857  35.093  1.00  0.00     0.031 C 
ATOM     53  C   UNL A   1      38.420  30.420  28.523  1.00  0.00     0.029 A 
ATOM     54  C   UNL A   1      39.682  29.963  29.069  1.00  0.00     0.049 A 
ATOM     55  H   UNL A   1      40.579  30.608  30.852  1.00  0.00     0.167 HD
ATOM     56  C   UNL A   1      41.746  31.358  35.073  1.00  0.00     0.037 A 
ATOM     57  C   UNL A   1      40.582  29.073  28.576  1.00  0.00     0.037 A 
ATOM     58  C   UNL A   1      42.618  32.224  34.312  1.00  0.00     0.049 A 
ATOM     59  C   UNL A   1      41.861  29.307  29.295  1.00  0.00     0.074 A 
ATOM     60  C   UNL A   1      42.712  33.590  34.119  1.00  0.00     0.029 A 
ATOM     61  N   UNL A   1      43.321  31.656  33.276  1.00  0.00    -0.354 N 
ATOM     62  N   UNL A   1      42.573  30.391  29.163  1.00  0.00    -0.248 NA
ATOM     63  C   UNL A   1      42.078  28.561  30.525  1.00  0.00     0.031 C 
ATOM     64  C   UNL A   1      43.035  33.746  32.738  1.00  0.00     0.029 A 
ATOM     65  C   UNL A   1      43.208  32.477  32.186  1.00  0.00     0.049 A 
ATOM     66  H   UNL A   1      43.817  30.806  33.312  1.00  0.00     0.167 HD
ATOM     67  C   UNL A   1      42.979  30.704  30.453  1.00  0.00     0.074 A 
ATOM     68  C   UNL A   1      42.702  29.500  31.239  1.00  0.00     0.031 C 
ATOM     69  C   UNL A   1      43.210  31.999  30.822  1.00  0.00     0.037 A 
BRANCH  56  70
ATOM     70  C   UNL A   1      42.271  30.130  35.784  1.00  0.00     0.057 A 
ATOM     71  C   UNL A   1      43.202  30.305  36.825  1.00  0.00     0.134 A 
ATOM     72  C   UNL A   1      42.154  28.806  35.310  1.00  0.00     0.134 A 
ATOM     73  F   UNL A   1      43.406  31.515  37.369  1.00  0.00    -0.206 F 
ATOM     74  C   UNL A   1      44.027  29.270  37.278  1.00  0.00     0.040 A 
ATOM     75  C   UNL A   1      42.938  27.755  35.792  1.00  0.00     0.040 A 
ATOM     76  F   UNL A   1      41.356  28.464  34.293  1.00  0.00    -0.206 F 
ATOM     77  C   UNL A   1      43.907  27.991  36.752  1.00  0.00     0.006 A 
ENDBRANCH  56  70
BRANCH  57  78
ATOM     78  C   UNL A   1      40.352  27.846  27.776  1.00  0.00     0.057 A 
ATOM     79  C   UNL A   1      41.000  27.649  26.546  1.00  0.00     0.134 A 
ATOM     80  C   UNL A   1      39.738  26.713  28.335  1.00  0.00     0.134 A 
ATOM     81  F   UNL A   1      41.650  28.658  25.950  1.00  0.00    -0.206 F 
ATOM     82  C   UNL A   1      41.062  26.393  25.926  1.00  0.00     0.040 A 
ATOM     83  C   UNL A   1      39.789  25.453  27.726  1.00  0.00     0.040 A 
ATOM     84  F   UNL A   1      39.149  26.769  29.539  1.00  0.00    -0.206 F 
ATOM     85  C   UNL A   1      40.467  25.286  26.524  1.00  0.00     0.006 A 
ENDBRANCH  57  78
BRANCH  69  86
ATOM     86  C   UNL A   1      43.260  33.040  29.736  1.00  0.00     0.057 A 
ATOM     87  C   UNL A   1      42.201  33.902  29.407  1.00  0.00     0.134 A 
ATOM     88  C   UNL A   1      44.479  33.274  29.092  1.00  0.00     0.134 A 
ATOM     89  F   UNL A   1      41.022  33.824  30.035  1.00  0.00    -0.206 F 
ATOM     90  C   UNL A   1      42.339  34.916  28.453  1.00  0.00     0.040 A 
ATOM     91  C   UNL A   1      44.641  34.303  28.162  1.00  0.00     0.040 A 
ATOM     92  F   UNL A   1      45.553  32.526  29.393  1.00  0.00    -0.206 F 
ATOM     93  C   UNL A   1      43.566  35.123  27.831  1.00  0.00     0.006 A 
ENDBRANCH  69  86
ENDBRANCH  43  44
ENDBRANCH  35  38
ENDBRANCH  33  34
ENDBRANCH  32  33
ENDBRANCH  31  32
ENDBRANCH  30  31
ENDBRANCH   1  30
TORSDOF 17
ENDMDL
