MODEL 1
REMARK VINA RESULT:     -12.8      0.000      0.000
REMARK SMILES Cc1ccc([C@H](C)NC(=O)[C@H]2[C@@H]3CC[C@@H](C3)[C@@H]2C(=O)NCCCCCCNC(=O)c2ccc(-c3c4nc(c(-c5c(F)cccc5F)c5ccc([nH]5)c(-c5c(F)cccc5F)c5nc(c(-c6c(F)cccc6F)c6ccc3[nH]6)C=C5)C=C4)cc2)cc1
REMARK SMILES IDX 23 1 22 2 21 3 20 4 18 5 19 6 17 8 11 9 12 10 13 11 16 12
REMARK SMILES IDX 15 13 14 14 9 15 8 16 10 18 6 19 7 20 5 21 1 22 2 23 3 24
REMARK SMILES IDX 85 25 4 26 84 27 24 28 25 29 26 30 27 31 28 32 29 34 30 35
REMARK SMILES IDX 31 36 83 37 32 38 82 39 33 40 34 41 35 42 76 43 36 44 81 45
REMARK SMILES IDX 75 46 77 47 37 48 80 49 74 50 73 51 38 53 64 54 47 55 63 56
REMARK SMILES IDX 48 57 51 58 62 59 78 60 49 61 50 62 61 64 79 65 52 66 39 67
REMARK SMILES IDX 40 68 45 69 41 70 42 71 44 72 46 73 43 74 65 75 66 76 71 77
REMARK SMILES IDX 67 78 68 79 70 80 72 81 69 82 53 83 54 84 59 85 55 86 56 87
REMARK SMILES IDX 58 88 60 89 57 90
REMARK H PARENT 20 7 8 17 27 33 77 52 51 63
REMARK Flexibility Score: inf
ROOT
ATOM      1  C   UNL A   1      38.648  22.225  26.112  1.00  0.00     0.002 C 
ENDROOT
BRANCH   1   2
ATOM      2  C   UNL A   1      38.113  23.615  25.739  1.00  0.00     0.021 C 
BRANCH   2   3
ATOM      3  C   UNL A   1      36.585  23.696  25.673  1.00  0.00     0.116 C 
BRANCH   3   4
ATOM      4  N   UNL A   1      35.985  22.689  26.522  1.00  0.00    -0.356 N 
ATOM      5  C   UNL A   1      34.695  22.337  26.741  1.00  0.00     0.224 C 
ATOM      6  O   UNL A   1      34.506  21.458  27.589  1.00  0.00    -0.275 OA
ATOM      7  H   UNL A   1      36.636  22.161  27.038  1.00  0.00     0.163 HD
BRANCH   5   8
ATOM      8  C   UNL A   1      33.541  22.840  25.873  1.00  0.00     0.094 C 
ATOM      9  C   UNL A   1      32.092  22.470  26.205  1.00  0.00     0.094 C 
ATOM     10  C   UNL A   1      31.543  21.874  24.884  1.00  0.00     0.002 C 
ATOM     11  C   UNL A   1      32.154  20.471  24.701  1.00  0.00     0.005 C 
ATOM     12  C   UNL A   1      32.292  22.654  23.811  1.00  0.00     0.009 C 
ATOM     13  C   UNL A   1      33.664  22.328  24.403  1.00  0.00     0.002 C 
ATOM     14  C   UNL A   1      33.618  20.785  24.357  1.00  0.00     0.005 C 
BRANCH   9  15
ATOM     15  C   UNL A   1      31.150  23.534  26.779  1.00  0.00     0.224 C 
ATOM     16  N   UNL A   1      31.102  24.848  26.465  1.00  0.00    -0.349 N 
ATOM     17  H   UNL A   1      30.457  25.336  27.026  1.00  0.00     0.164 HD
ATOM     18  O   UNL A   1      30.320  23.171  27.626  1.00  0.00    -0.275 OA
BRANCH  16  19
ATOM     19  C   UNL A   1      31.765  25.728  25.506  1.00  0.00     0.109 C 
ATOM     20  C   UNL A   1      30.808  26.042  24.352  1.00  0.00     0.036 C 
BRANCH  19  21
ATOM     21  C   UNL A   1      32.271  27.008  26.154  1.00  0.00    -0.026 A 
ATOM     22  C   UNL A   1      33.761  30.804  27.619  1.00  0.00     0.044 C 
ATOM     23  C   UNL A   1      33.240  29.476  27.153  1.00  0.00    -0.051 A 
ATOM     24  C   UNL A   1      34.117  28.547  26.587  1.00  0.00     0.004 A 
ATOM     25  C   UNL A   1      31.884  29.151  27.251  1.00  0.00     0.004 A 
ATOM     26  C   UNL A   1      33.637  27.334  26.086  1.00  0.00     0.006 A 
ATOM     27  C   UNL A   1      31.405  27.928  26.763  1.00  0.00     0.006 A 
ENDBRANCH  19  21
ENDBRANCH  16  19
ENDBRANCH   9  15
ENDBRANCH   5   8
ENDBRANCH   3   4
ENDBRANCH   2   3
ENDBRANCH   1   2
BRANCH   1  28
ATOM     28  C   UNL A   1      39.982  22.199  26.880  1.00  0.00     0.002 C 
BRANCH  28  29
ATOM     29  C   UNL A   1      41.230  21.967  26.026  1.00  0.00     0.021 C 
BRANCH  29  30
ATOM     30  C   UNL A   1      42.031  20.743  26.443  1.00  0.00     0.116 C 
BRANCH  30  31
ATOM     31  N   UNL A   1      42.896  20.218  25.394  1.00  0.00    -0.352 N 
ATOM     32  C   UNL A   1      43.970  20.801  24.741  1.00  0.00     0.251 C 
ATOM     33  H   UNL A   1      42.682  19.302  25.101  1.00  0.00     0.163 HD
ATOM     34  O   UNL A   1      44.521  20.206  23.830  1.00  0.00    -0.269 OA
BRANCH  32  35
ATOM     35  C   UNL A   1      44.544  22.076  25.246  1.00  0.00     0.039 A 
ATOM     36  C   UNL A   1      45.068  22.083  26.546  1.00  0.00     0.014 A 
ATOM     37  C   UNL A   1      44.371  23.274  24.562  1.00  0.00     0.014 A 
ATOM     38  C   UNL A   1      45.159  23.287  27.243  1.00  0.00     0.010 A 
ATOM     39  C   UNL A   1      44.345  24.448  25.281  1.00  0.00     0.010 A 
ATOM     40  C   UNL A   1      44.678  24.444  26.638  1.00  0.00    -0.014 A 
BRANCH  40  41
ATOM     41  C   UNL A   1      44.383  25.670  27.362  1.00  0.00     0.031 A 
ATOM     42  C   UNL A   1      43.016  26.228  27.364  1.00  0.00     0.074 A 
ATOM     43  C   UNL A   1      45.339  26.230  28.137  1.00  0.00     0.049 A 
ATOM     44  N   UNL A   1      42.744  27.464  27.609  1.00  0.00    -0.248 NA
ATOM     45  C   UNL A   1      41.837  25.434  27.045  1.00  0.00     0.031 C 
ATOM     46  C   UNL A   1      45.150  27.229  29.184  1.00  0.00     0.029 A 
ATOM     47  N   UNL A   1      46.729  26.127  27.999  1.00  0.00    -0.354 N 
ATOM     48  C   UNL A   1      41.381  27.573  27.763  1.00  0.00     0.074 A 
ATOM     49  C   UNL A   1      40.858  26.299  27.327  1.00  0.00     0.031 C 
ATOM     50  C   UNL A   1      46.320  27.844  29.415  1.00  0.00     0.029 A 
ATOM     51  C   UNL A   1      47.261  27.365  28.420  1.00  0.00     0.049 A 
ATOM     52  H   UNL A   1      47.234  25.348  27.672  1.00  0.00     0.167 HD
ATOM     53  C   UNL A   1      40.870  28.680  28.375  1.00  0.00     0.037 A 
ATOM     54  C   UNL A   1      47.970  28.168  27.574  1.00  0.00     0.037 A 
ATOM     55  C   UNL A   1      41.935  29.608  28.749  1.00  0.00     0.049 A 
ATOM     56  C   UNL A   1      47.379  29.544  27.391  1.00  0.00     0.074 A 
ATOM     57  C   UNL A   1      42.598  29.830  29.945  1.00  0.00     0.029 A 
ATOM     58  N   UNL A   1      42.662  30.266  27.767  1.00  0.00    -0.354 N 
ATOM     59  N   UNL A   1      46.135  29.836  27.646  1.00  0.00    -0.248 NA
ATOM     60  C   UNL A   1      48.130  30.694  26.897  1.00  0.00     0.031 C 
ATOM     61  C   UNL A   1      43.736  30.626  29.678  1.00  0.00     0.029 A 
ATOM     62  C   UNL A   1      43.758  30.896  28.321  1.00  0.00     0.049 A 
ATOM     63  H   UNL A   1      42.428  30.282  26.810  1.00  0.00     0.167 HD
ATOM     64  C   UNL A   1      45.899  31.156  27.351  1.00  0.00     0.074 A 
ATOM     65  C   UNL A   1      47.186  31.653  26.904  1.00  0.00     0.031 C 
ATOM     66  C   UNL A   1      44.653  31.701  27.502  1.00  0.00     0.037 A 
BRANCH  53  67
ATOM     67  C   UNL A   1      39.457  28.802  28.911  1.00  0.00     0.057 A 
ATOM     68  C   UNL A   1      38.443  29.408  28.138  1.00  0.00     0.134 A 
ATOM     69  C   UNL A   1      39.031  28.387  30.183  1.00  0.00     0.134 A 
ATOM     70  F   UNL A   1      38.634  29.742  26.854  1.00  0.00    -0.206 F 
ATOM     71  C   UNL A   1      37.167  29.701  28.638  1.00  0.00     0.040 A 
ATOM     72  C   UNL A   1      37.774  28.716  30.715  1.00  0.00     0.040 A 
ATOM     73  F   UNL A   1      39.779  27.587  30.950  1.00  0.00    -0.206 F 
ATOM     74  C   UNL A   1      36.840  29.393  29.947  1.00  0.00     0.006 A 
ENDBRANCH  53  67
BRANCH  54  75
ATOM     75  C   UNL A   1      48.713  27.411  26.536  1.00  0.00     0.057 A 
ATOM     76  C   UNL A   1      48.142  27.294  25.257  1.00  0.00     0.134 A 
ATOM     77  C   UNL A   1      50.089  27.186  26.645  1.00  0.00     0.134 A 
ATOM     78  F   UNL A   1      46.826  27.500  25.088  1.00  0.00    -0.206 F 
ATOM     79  C   UNL A   1      48.921  27.082  24.119  1.00  0.00     0.040 A 
ATOM     80  C   UNL A   1      50.879  26.966  25.510  1.00  0.00     0.040 A 
ATOM     81  F   UNL A   1      50.707  27.302  27.829  1.00  0.00    -0.206 F 
ATOM     82  C   UNL A   1      50.302  26.954  24.242  1.00  0.00     0.006 A 
ENDBRANCH  54  75
BRANCH  66  83
ATOM     83  C   UNL A   1      44.150  33.043  27.002  1.00  0.00     0.057 A 
ATOM     84  C   UNL A   1      43.865  33.350  25.664  1.00  0.00     0.134 A 
ATOM     85  C   UNL A   1      43.789  34.059  27.924  1.00  0.00     0.134 A 
ATOM     86  F   UNL A   1      44.052  32.464  24.679  1.00  0.00    -0.206 F 
ATOM     87  C   UNL A   1      43.310  34.578  25.271  1.00  0.00     0.040 A 
ATOM     88  C   UNL A   1      43.182  35.262  27.548  1.00  0.00     0.040 A 
ATOM     89  F   UNL A   1      43.982  33.925  29.244  1.00  0.00    -0.206 F 
ATOM     90  C   UNL A   1      42.951  35.532  26.213  1.00  0.00     0.006 A 
ENDBRANCH  66  83
ENDBRANCH  40  41
ENDBRANCH  32  35
ENDBRANCH  30  31
ENDBRANCH  29  30
ENDBRANCH  28  29
ENDBRANCH   1  28
TORSDOF 16
ENDMDL
MODEL 2
REMARK VINA RESULT:     -12.7      4.912     10.312
REMARK SMILES Cc1ccc([C@H](C)NC(=O)[C@H]2[C@@H]3CC[C@@H](C3)[C@@H]2C(=O)NCCCCCCNC(=O)c2ccc(-c3c4nc(c(-c5c(F)cccc5F)c5ccc([nH]5)c(-c5c(F)cccc5F)c5nc(c(-c6c(F)cccc6F)c6ccc3[nH]6)C=C5)C=C4)cc2)cc1
REMARK SMILES IDX 23 1 22 2 21 3 20 4 18 5 19 6 17 8 11 9 12 10 13 11 16 12
REMARK SMILES IDX 15 13 14 14 9 15 8 16 10 18 6 19 7 20 5 21 1 22 2 23 3 24
REMARK SMILES IDX 85 25 4 26 84 27 24 28 25 29 26 30 27 31 28 32 29 34 30 35
REMARK SMILES IDX 31 36 83 37 32 38 82 39 33 40 34 41 35 42 76 43 36 44 81 45
REMARK SMILES IDX 75 46 77 47 37 48 80 49 74 50 73 51 38 53 64 54 47 55 63 56
REMARK SMILES IDX 48 57 51 58 62 59 78 60 49 61 50 62 61 64 79 65 52 66 39 67
REMARK SMILES IDX 40 68 45 69 41 70 42 71 44 72 46 73 43 74 65 75 66 76 71 77
REMARK SMILES IDX 67 78 68 79 70 80 72 81 69 82 53 83 54 84 59 85 55 86 56 87
REMARK SMILES IDX 58 88 60 89 57 90
REMARK H PARENT 20 7 8 17 27 33 77 52 51 63
REMARK Flexibility Score: inf
ROOT
ATOM      1  C   UNL A   1      34.545  30.813  27.236  1.00  0.00     0.002 C 
ENDROOT
BRANCH   1   2
ATOM      2  C   UNL A   1      34.641  29.330  27.625  1.00  0.00     0.021 C 
BRANCH   2   3
ATOM      3  C   UNL A   1      34.076  28.373  26.571  1.00  0.00     0.116 C 
BRANCH   3   4
ATOM      4  N   UNL A   1      34.021  29.018  25.277  1.00  0.00    -0.356 N 
ATOM      5  C   UNL A   1      33.587  28.590  24.066  1.00  0.00     0.224 C 
ATOM      6  O   UNL A   1      33.732  29.378  23.125  1.00  0.00    -0.275 OA
ATOM      7  H   UNL A   1      34.362  29.941  25.274  1.00  0.00     0.163 HD
BRANCH   5   8
ATOM      8  C   UNL A   1      32.791  27.297  23.882  1.00  0.00     0.094 C 
ATOM      9  C   UNL A   1      32.366  26.831  22.486  1.00  0.00     0.094 C 
ATOM     10  C   UNL A   1      30.837  26.609  22.612  1.00  0.00     0.002 C 
ATOM     11  C   UNL A   1      30.156  27.990  22.664  1.00  0.00     0.005 C 
ATOM     12  C   UNL A   1      30.668  26.152  24.055  1.00  0.00     0.009 C 
ATOM     13  C   UNL A   1      31.418  27.360  24.621  1.00  0.00     0.002 C 
ATOM     14  C   UNL A   1      30.546  28.505  24.058  1.00  0.00     0.005 C 
BRANCH   9  15
ATOM     15  C   UNL A   1      33.061  25.625  21.845  1.00  0.00     0.224 C 
ATOM     16  N   UNL A   1      33.533  24.520  22.465  1.00  0.00    -0.349 N 
ATOM     17  H   UNL A   1      34.002  23.922  21.840  1.00  0.00     0.164 HD
ATOM     18  O   UNL A   1      33.212  25.635  20.614  1.00  0.00    -0.275 OA
BRANCH  16  19
ATOM     19  C   UNL A   1      33.525  23.990  23.826  1.00  0.00     0.109 C 
ATOM     20  C   UNL A   1      32.542  22.818  23.914  1.00  0.00     0.036 C 
BRANCH  19  21
ATOM     21  C   UNL A   1      34.911  23.569  24.289  1.00  0.00    -0.026 A 
ATOM     22  C   UNL A   1      38.675  22.154  25.902  1.00  0.00     0.044 C 
ATOM     23  C   UNL A   1      37.394  22.666  25.312  1.00  0.00    -0.051 A 
ATOM     24  C   UNL A   1      36.666  23.651  25.984  1.00  0.00     0.004 A 
ATOM     25  C   UNL A   1      36.894  22.162  24.108  1.00  0.00     0.004 A 
ATOM     26  C   UNL A   1      35.438  24.090  25.484  1.00  0.00     0.006 A 
ATOM     27  C   UNL A   1      35.670  22.612  23.599  1.00  0.00     0.006 A 
ENDBRANCH  19  21
ENDBRANCH  16  19
ENDBRANCH   9  15
ENDBRANCH   5   8
ENDBRANCH   3   4
ENDBRANCH   2   3
ENDBRANCH   1   2
BRANCH   1  28
ATOM     28  C   UNL A   1      34.461  31.812  28.404  1.00  0.00     0.002 C 
BRANCH  28  29
ATOM     29  C   UNL A   1      33.941  33.205  28.043  1.00  0.00     0.021 C 
BRANCH  29  30
ATOM     30  C   UNL A   1      34.557  34.317  28.880  1.00  0.00     0.116 C 
BRANCH  30  31
ATOM     31  N   UNL A   1      33.665  34.849  29.903  1.00  0.00    -0.352 N 
ATOM     32  C   UNL A   1      33.659  34.658  31.275  1.00  0.00     0.251 C 
ATOM     33  H   UNL A   1      32.952  35.438  29.564  1.00  0.00     0.163 HD
ATOM     34  O   UNL A   1      32.769  35.146  31.951  1.00  0.00    -0.269 OA
BRANCH  32  35
ATOM     35  C   UNL A   1      34.811  33.991  31.938  1.00  0.00     0.039 A 
ATOM     36  C   UNL A   1      35.969  34.753  32.150  1.00  0.00     0.014 A 
ATOM     37  C   UNL A   1      34.840  32.616  32.138  1.00  0.00     0.014 A 
ATOM     38  C   UNL A   1      37.197  34.110  32.295  1.00  0.00     0.010 A 
ATOM     39  C   UNL A   1      36.060  31.976  32.161  1.00  0.00     0.010 A 
ATOM     40  C   UNL A   1      37.240  32.724  32.175  1.00  0.00    -0.014 A 
BRANCH  40  41
ATOM     41  C   UNL A   1      38.464  31.971  31.947  1.00  0.00     0.031 A 
ATOM     42  C   UNL A   1      38.453  30.765  31.097  1.00  0.00     0.074 A 
ATOM     43  C   UNL A   1      39.636  32.453  32.417  1.00  0.00     0.049 A 
ATOM     44  N   UNL A   1      39.340  29.832  31.160  1.00  0.00    -0.248 NA
ATOM     45  C   UNL A   1      37.404  30.492  30.123  1.00  0.00     0.031 C 
ATOM     46  C   UNL A   1      40.979  32.049  32.012  1.00  0.00     0.029 A 
ATOM     47  N   UNL A   1      39.842  33.301  33.512  1.00  0.00    -0.354 N 
ATOM     48  C   UNL A   1      39.158  29.002  30.078  1.00  0.00     0.074 A 
ATOM     49  C   UNL A   1      37.895  29.412  29.509  1.00  0.00     0.031 C 
ATOM     50  C   UNL A   1      41.849  32.408  32.969  1.00  0.00     0.029 A 
ATOM     51  C   UNL A   1      41.073  32.916  34.085  1.00  0.00     0.049 A 
ATOM     52  H   UNL A   1      39.246  34.021  33.822  1.00  0.00     0.167 HD
ATOM     53  C   UNL A   1      40.167  28.160  29.711  1.00  0.00     0.037 A 
ATOM     54  C   UNL A   1      41.156  32.448  35.364  1.00  0.00     0.037 A 
ATOM     55  C   UNL A   1      41.311  28.292  30.611  1.00  0.00     0.049 A 
ATOM     56  C   UNL A   1      41.736  31.059  35.474  1.00  0.00     0.074 A 
ATOM     57  C   UNL A   1      42.497  29.001  30.510  1.00  0.00     0.029 A 
ATOM     58  N   UNL A   1      41.207  27.882  31.933  1.00  0.00    -0.354 N 
ATOM     59  N   UNL A   1      41.774  30.211  34.486  1.00  0.00    -0.248 NA
ATOM     60  C   UNL A   1      42.305  30.509  36.700  1.00  0.00     0.031 C 
ATOM     61  C   UNL A   1      43.110  29.018  31.784  1.00  0.00     0.029 A 
ATOM     62  C   UNL A   1      42.301  28.312  32.657  1.00  0.00     0.049 A 
ATOM     63  H   UNL A   1      40.459  27.358  32.302  1.00  0.00     0.167 HD
ATOM     64  C   UNL A   1      42.332  29.030  34.909  1.00  0.00     0.074 A 
ATOM     65  C   UNL A   1      42.665  29.276  36.299  1.00  0.00     0.031 C 
ATOM     66  C   UNL A   1      42.454  27.963  34.062  1.00  0.00     0.037 A 
BRANCH  53  67
ATOM     67  C   UNL A   1      40.256  27.440  28.380  1.00  0.00     0.057 A 
ATOM     68  C   UNL A   1      39.735  26.137  28.229  1.00  0.00     0.134 A 
ATOM     69  C   UNL A   1      40.872  27.944  27.222  1.00  0.00     0.134 A 
ATOM     70  F   UNL A   1      38.999  25.553  29.184  1.00  0.00    -0.206 F 
ATOM     71  C   UNL A   1      39.935  25.357  27.082  1.00  0.00     0.040 A 
ATOM     72  C   UNL A   1      41.122  27.160  26.085  1.00  0.00     0.040 A 
ATOM     73  F   UNL A   1      41.202  29.234  27.105  1.00  0.00    -0.206 F 
ATOM     74  C   UNL A   1      40.668  25.852  26.018  1.00  0.00     0.006 A 
ENDBRANCH  53  67
BRANCH  54  75
ATOM     75  C   UNL A   1      40.121  33.016  36.263  1.00  0.00     0.057 A 
ATOM     76  C   UNL A   1      38.966  32.256  36.516  1.00  0.00     0.134 A 
ATOM     77  C   UNL A   1      40.424  34.040  37.166  1.00  0.00     0.134 A 
ATOM     78  F   UNL A   1      38.622  31.258  35.686  1.00  0.00    -0.206 F 
ATOM     79  C   UNL A   1      38.212  32.427  37.680  1.00  0.00     0.040 A 
ATOM     80  C   UNL A   1      39.672  34.223  38.332  1.00  0.00     0.040 A 
ATOM     81  F   UNL A   1      41.522  34.791  37.001  1.00  0.00    -0.206 F 
ATOM     82  C   UNL A   1      38.589  33.390  38.611  1.00  0.00     0.006 A 
ENDBRANCH  54  75
BRANCH  66  83
ATOM     83  C   UNL A   1      42.806  26.528  34.407  1.00  0.00     0.057 A 
ATOM     84  C   UNL A   1      42.007  25.662  35.167  1.00  0.00     0.134 A 
ATOM     85  C   UNL A   1      43.947  25.914  33.830  1.00  0.00     0.134 A 
ATOM     86  F   UNL A   1      40.844  26.055  35.698  1.00  0.00    -0.206 F 
ATOM     87  C   UNL A   1      42.337  24.312  35.374  1.00  0.00     0.040 A 
ATOM     88  C   UNL A   1      44.254  24.557  33.982  1.00  0.00     0.040 A 
ATOM     89  F   UNL A   1      44.813  26.594  33.065  1.00  0.00    -0.206 F 
ATOM     90  C   UNL A   1      43.453  23.751  34.769  1.00  0.00     0.006 A 
ENDBRANCH  66  83
ENDBRANCH  40  41
ENDBRANCH  32  35
ENDBRANCH  30  31
ENDBRANCH  29  30
ENDBRANCH  28  29
ENDBRANCH   1  28
TORSDOF 16
ENDMDL
MODEL 3
REMARK VINA RESULT:     -12.5      2.736      5.442
REMARK SMILES Cc1ccc([C@H](C)NC(=O)[C@H]2[C@@H]3CC[C@@H](C3)[C@@H]2C(=O)NCCCCCCNC(=O)c2ccc(-c3c4nc(c(-c5c(F)cccc5F)c5ccc([nH]5)c(-c5c(F)cccc5F)c5nc(c(-c6c(F)cccc6F)c6ccc3[nH]6)C=C5)C=C4)cc2)cc1
REMARK SMILES IDX 23 1 22 2 21 3 20 4 18 5 19 6 17 8 11 9 12 10 13 11 16 12
REMARK SMILES IDX 15 13 14 14 9 15 8 16 10 18 6 19 7 20 5 21 1 22 2 23 3 24
REMARK SMILES IDX 85 25 4 26 84 27 24 28 25 29 26 30 27 31 28 32 29 34 30 35
REMARK SMILES IDX 31 36 83 37 32 38 82 39 33 40 34 41 35 42 76 43 36 44 81 45
REMARK SMILES IDX 75 46 77 47 37 48 80 49 74 50 73 51 38 53 64 54 47 55 63 56
REMARK SMILES IDX 48 57 51 58 62 59 78 60 49 61 50 62 61 64 79 65 52 66 39 67
REMARK SMILES IDX 40 68 45 69 41 70 42 71 44 72 46 73 43 74 65 75 66 76 71 77
REMARK SMILES IDX 67 78 68 79 70 80 72 81 69 82 53 83 54 84 59 85 55 86 56 87
REMARK SMILES IDX 58 88 60 89 57 90
REMARK H PARENT 20 7 8 17 27 33 77 52 51 63
REMARK Flexibility Score: inf
ROOT
ATOM      1  C   UNL A   1      36.763  22.773  24.128  1.00  0.00     0.002 C 
ENDROOT
BRANCH   1   2
ATOM      2  C   UNL A   1      35.502  22.937  23.268  1.00  0.00     0.021 C 
BRANCH   2   3
ATOM      3  C   UNL A   1      34.757  24.254  23.502  1.00  0.00     0.116 C 
BRANCH   3   4
ATOM      4  N   UNL A   1      33.463  24.230  22.855  1.00  0.00    -0.356 N 
ATOM      5  C   UNL A   1      32.203  24.359  23.337  1.00  0.00     0.224 C 
ATOM      6  O   UNL A   1      31.290  24.231  22.515  1.00  0.00    -0.275 OA
ATOM      7  H   UNL A   1      33.506  24.095  21.881  1.00  0.00     0.163 HD
BRANCH   5   8
ATOM      8  C   UNL A   1      31.907  24.824  24.763  1.00  0.00     0.094 C 
ATOM      9  C   UNL A   1      30.635  24.370  25.486  1.00  0.00     0.094 C 
ATOM     10  C   UNL A   1      29.976  25.692  25.956  1.00  0.00     0.002 C 
ATOM     11  C   UNL A   1      29.363  26.386  24.725  1.00  0.00     0.005 C 
ATOM     12  C   UNL A   1      31.169  26.598  26.232  1.00  0.00     0.009 C 
ATOM     13  C   UNL A   1      31.772  26.378  24.843  1.00  0.00     0.002 C 
ATOM     14  C   UNL A   1      30.604  26.871  23.961  1.00  0.00     0.005 C 
BRANCH   9  15
ATOM     15  C   UNL A   1      30.734  23.352  26.628  1.00  0.00     0.224 C 
ATOM     16  N   UNL A   1      31.757  22.508  26.892  1.00  0.00    -0.349 N 
ATOM     17  H   UNL A   1      31.547  21.902  27.639  1.00  0.00     0.164 HD
ATOM     18  O   UNL A   1      29.782  23.280  27.419  1.00  0.00    -0.275 OA
BRANCH  16  19
ATOM     19  C   UNL A   1      33.091  22.266  26.351  1.00  0.00     0.109 C 
ATOM     20  C   UNL A   1      34.072  22.007  27.500  1.00  0.00     0.036 C 
BRANCH  19  21
ATOM     21  C   UNL A   1      33.110  21.117  25.354  1.00  0.00    -0.026 A 
ATOM     22  C   UNL A   1      32.978  17.618  22.803  1.00  0.00     0.044 C 
ATOM     23  C   UNL A   1      33.043  18.852  23.653  1.00  0.00    -0.051 A 
ATOM     24  C   UNL A   1      33.958  18.921  24.707  1.00  0.00     0.004 A 
ATOM     25  C   UNL A   1      32.188  19.935  23.432  1.00  0.00     0.004 A 
ATOM     26  C   UNL A   1      33.985  20.034  25.551  1.00  0.00     0.006 A 
ATOM     27  C   UNL A   1      32.224  21.058  24.268  1.00  0.00     0.006 A 
ENDBRANCH  19  21
ENDBRANCH  16  19
ENDBRANCH   9  15
ENDBRANCH   5   8
ENDBRANCH   3   4
ENDBRANCH   2   3
ENDBRANCH   1   2
BRANCH   1  28
ATOM     28  C   UNL A   1      37.060  21.347  24.624  1.00  0.00     0.002 C 
BRANCH  28  29
ATOM     29  C   UNL A   1      38.309  21.199  25.497  1.00  0.00     0.021 C 
BRANCH  29  30
ATOM     30  C   UNL A   1      38.783  22.511  26.104  1.00  0.00     0.116 C 
BRANCH  30  31
ATOM     31  N   UNL A   1      40.231  22.608  26.242  1.00  0.00    -0.352 N 
ATOM     32  C   UNL A   1      41.035  23.706  26.504  1.00  0.00     0.251 C 
ATOM     33  H   UNL A   1      40.715  21.758  26.131  1.00  0.00     0.163 HD
ATOM     34  O   UNL A   1      42.248  23.581  26.508  1.00  0.00    -0.269 OA
BRANCH  32  35
ATOM     35  C   UNL A   1      40.421  24.994  26.924  1.00  0.00     0.039 A 
ATOM     36  C   UNL A   1      40.750  26.141  26.188  1.00  0.00     0.014 A 
ATOM     37  C   UNL A   1      39.733  25.115  28.125  1.00  0.00     0.014 A 
ATOM     38  C   UNL A   1      40.629  27.396  26.782  1.00  0.00     0.010 A 
ATOM     39  C   UNL A   1      39.723  26.336  28.762  1.00  0.00     0.010 A 
ATOM     40  C   UNL A   1      40.230  27.466  28.114  1.00  0.00    -0.014 A 
BRANCH  40  41
ATOM     41  C   UNL A   1      40.405  28.644  28.948  1.00  0.00     0.031 A 
ATOM     42  C   UNL A   1      39.301  29.610  29.118  1.00  0.00     0.074 A 
ATOM     43  C   UNL A   1      41.540  28.785  29.668  1.00  0.00     0.049 A 
ATOM     44  N   UNL A   1      39.469  30.837  29.476  1.00  0.00    -0.248 NA
ATOM     45  C   UNL A   1      37.908  29.275  28.856  1.00  0.00     0.031 C 
ATOM     46  C   UNL A   1      41.760  29.684  30.797  1.00  0.00     0.029 A 
ATOM     47  N   UNL A   1      42.806  28.253  29.392  1.00  0.00    -0.354 N 
ATOM     48  C   UNL A   1      38.232  31.365  29.766  1.00  0.00     0.074 A 
ATOM     49  C   UNL A   1      37.290  30.378  29.290  1.00  0.00     0.031 C 
ATOM     50  C   UNL A   1      43.080  29.861  30.960  1.00  0.00     0.029 A 
ATOM     51  C   UNL A   1      43.743  29.205  29.849  1.00  0.00     0.049 A 
ATOM     52  H   UNL A   1      43.003  27.389  28.964  1.00  0.00     0.167 HD
ATOM     53  C   UNL A   1      38.155  32.512  30.501  1.00  0.00     0.037 A 
ATOM     54  C   UNL A   1      44.620  29.815  29.000  1.00  0.00     0.037 A 
ATOM     55  C   UNL A   1      39.489  33.004  30.839  1.00  0.00     0.049 A 
ATOM     56  C   UNL A   1      44.506  31.319  28.973  1.00  0.00     0.074 A 
ATOM     57  C   UNL A   1      40.265  32.880  31.980  1.00  0.00     0.029 A 
ATOM     58  N   UNL A   1      40.327  33.486  29.842  1.00  0.00    -0.354 N 
ATOM     59  N   UNL A   1      43.447  31.971  29.364  1.00  0.00    -0.248 NA
ATOM     60  C   UNL A   1      45.560  32.208  28.494  1.00  0.00     0.031 C 
ATOM     61  C   UNL A   1      41.582  33.288  31.664  1.00  0.00     0.029 A 
ATOM     62  C   UNL A   1      41.603  33.669  30.334  1.00  0.00     0.049 A 
ATOM     63  H   UNL A   1      40.049  33.670  28.915  1.00  0.00     0.167 HD
ATOM     64  C   UNL A   1      43.641  33.319  29.188  1.00  0.00     0.074 A 
ATOM     65  C   UNL A   1      44.988  33.415  28.658  1.00  0.00     0.031 C 
ATOM     66  C   UNL A   1      42.658  34.219  29.495  1.00  0.00     0.037 A 
BRANCH  53  67
ATOM     67  C   UNL A   1      36.900  33.030  31.175  1.00  0.00     0.057 A 
ATOM     68  C   UNL A   1      36.621  32.711  32.521  1.00  0.00     0.134 A 
ATOM     69  C   UNL A   1      35.907  33.808  30.556  1.00  0.00     0.134 A 
ATOM     70  F   UNL A   1      37.516  32.093  33.304  1.00  0.00    -0.206 F 
ATOM     71  C   UNL A   1      35.405  33.015  33.146  1.00  0.00     0.040 A 
ATOM     72  C   UNL A   1      34.665  34.079  31.152  1.00  0.00     0.040 A 
ATOM     73  F   UNL A   1      36.111  34.401  29.375  1.00  0.00    -0.206 F 
ATOM     74  C   UNL A   1      34.402  33.666  32.448  1.00  0.00     0.006 A 
ENDBRANCH  53  67
BRANCH  54  75
ATOM     75  C   UNL A   1      45.002  28.965  27.845  1.00  0.00     0.057 A 
ATOM     76  C   UNL A   1      45.991  27.984  28.035  1.00  0.00     0.134 A 
ATOM     77  C   UNL A   1      44.157  28.816  26.741  1.00  0.00     0.134 A 
ATOM     78  F   UNL A   1      46.832  28.070  29.079  1.00  0.00    -0.206 F 
ATOM     79  C   UNL A   1      46.059  26.842  27.234  1.00  0.00     0.040 A 
ATOM     80  C   UNL A   1      44.222  27.678  25.928  1.00  0.00     0.040 A 
ATOM     81  F   UNL A   1      43.177  29.700  26.508  1.00  0.00    -0.206 F 
ATOM     82  C   UNL A   1      45.146  26.670  26.198  1.00  0.00     0.006 A 
ENDBRANCH  54  75
BRANCH  66  83
ATOM     83  C   UNL A   1      42.595  35.693  29.142  1.00  0.00     0.057 A 
ATOM     84  C   UNL A   1      43.347  36.704  29.757  1.00  0.00     0.134 A 
ATOM     85  C   UNL A   1      41.842  36.128  28.021  1.00  0.00     0.134 A 
ATOM     86  F   UNL A   1      44.187  36.445  30.767  1.00  0.00    -0.206 F 
ATOM     87  C   UNL A   1      43.320  38.039  29.325  1.00  0.00     0.040 A 
ATOM     88  C   UNL A   1      41.853  37.444  27.546  1.00  0.00     0.040 A 
ATOM     89  F   UNL A   1      41.075  35.290  27.308  1.00  0.00    -0.206 F 
ATOM     90  C   UNL A   1      42.585  38.411  28.207  1.00  0.00     0.006 A 
ENDBRANCH  66  83
ENDBRANCH  40  41
ENDBRANCH  32  35
ENDBRANCH  30  31
ENDBRANCH  29  30
ENDBRANCH  28  29
ENDBRANCH   1  28
TORSDOF 16
ENDMDL
