MODEL 1
REMARK VINA RESULT:     -11.4      0.000      0.000
REMARK SMILES Cc1cc(F)ccc1S(=O)(=O)N1CCO[C@H](CC(=O)NCCCCCCNC(=O)c2ccc(-c3c4nc(c(-c5c(F)cccc5F)c5ccc([nH]5)c(-c5c(F)cccc5F)c5nc(c(-c6c(F)cccc6F)c6ccc3[nH]6)C=C5)C=C4)cc2)C1
REMARK SMILES IDX 23 1 22 2 21 3 20 4 18 5 19 6 17 8 16 9 12 10 13 11 84 12
REMARK SMILES IDX 14 13 15 14 9 15 10 16 11 17 8 18 1 19 2 20 3 21 4 22 7 23
REMARK SMILES IDX 5 24 6 25 24 26 25 27 26 28 27 29 28 30 29 32 30 33 31 34
REMARK SMILES IDX 83 35 32 36 82 37 33 38 34 39 35 40 76 41 36 42 81 43 75 44
REMARK SMILES IDX 77 45 37 46 80 47 74 48 73 49 38 51 64 52 47 53 63 54 48 55
REMARK SMILES IDX 51 56 62 57 78 58 49 59 50 60 61 62 79 63 52 64 39 65 40 66
REMARK SMILES IDX 45 67 41 68 42 69 44 70 46 71 43 72 65 73 66 74 71 75 67 76
REMARK SMILES IDX 68 77 70 78 72 79 69 80 53 81 54 82 59 83 55 84 56 85 58 86
REMARK SMILES IDX 60 87 57 88
REMARK H PARENT 20 7 27 31 77 50 51 61
REMARK Flexibility Score: inf
ROOT
ATOM      1  C   UNL A   1      37.044  21.836  24.327  1.00  0.00     0.002 C 
ENDROOT
BRANCH   1   2
ATOM      2  C   UNL A   1      37.696  22.796  25.329  1.00  0.00     0.021 C 
BRANCH   2   3
ATOM      3  C   UNL A   1      36.679  23.671  26.052  1.00  0.00     0.116 C 
BRANCH   3   4
ATOM      4  N   UNL A   1      35.588  22.848  26.529  1.00  0.00    -0.356 N 
ATOM      5  C   UNL A   1      34.313  23.249  26.773  1.00  0.00     0.222 C 
ATOM      6  O   UNL A   1      33.577  22.571  27.486  1.00  0.00    -0.275 OA
ATOM      7  H   UNL A   1      35.790  21.899  26.695  1.00  0.00     0.163 HD
BRANCH   5   8
ATOM      8  C   UNL A   1      33.830  24.497  26.093  1.00  0.00     0.133 C 
BRANCH   8   9
ATOM      9  C   UNL A   1      33.733  24.362  24.569  1.00  0.00     0.142 C 
ATOM     10  N   UNL A   1      31.383  24.871  24.653  1.00  0.00    -0.193 NA
ATOM     11  C   UNL A   1      30.967  23.598  24.034  1.00  0.00     0.131 C 
ATOM     12  C   UNL A   1      32.663  25.337  24.069  1.00  0.00     0.135 C 
ATOM     13  C   UNL A   1      32.097  22.551  24.195  1.00  0.00     0.177 C 
ATOM     14  O   UNL A   1      33.452  23.024  24.089  1.00  0.00    -0.375 OA
BRANCH  10  15
ATOM     15  S   UNL A   1      30.269  25.948  25.285  1.00  0.00     0.243 S 
ATOM     16  O   UNL A   1      29.807  25.433  26.558  1.00  0.00    -0.207 OA
ATOM     17  O   UNL A   1      29.341  26.256  24.218  1.00  0.00    -0.207 OA
BRANCH  15  18
ATOM     18  C   UNL A   1      31.116  27.508  25.663  1.00  0.00     0.085 A 
ATOM     19  C   UNL A   1      30.953  28.634  23.340  1.00  0.00     0.046 C 
ATOM     20  C   UNL A   1      31.330  28.590  24.781  1.00  0.00    -0.028 A 
ATOM     21  C   UNL A   1      32.045  29.716  25.246  1.00  0.00     0.044 A 
ATOM     22  C   UNL A   1      32.568  29.755  26.530  1.00  0.00     0.123 A 
ATOM     23  C   UNL A   1      31.659  27.577  26.966  1.00  0.00     0.025 A 
ATOM     24  F   UNL A   1      33.270  30.826  26.922  1.00  0.00    -0.207 F 
ATOM     25  C   UNL A   1      32.392  28.688  27.392  1.00  0.00     0.040 A 
ENDBRANCH  15  18
ENDBRANCH  10  15
ENDBRANCH   8   9
ENDBRANCH   5   8
ENDBRANCH   3   4
ENDBRANCH   2   3
ENDBRANCH   1   2
BRANCH   1  26
ATOM     26  C   UNL A   1      36.976  20.383  24.808  1.00  0.00     0.002 C 
BRANCH  26  27
ATOM     27  C   UNL A   1      38.306  19.633  24.727  1.00  0.00     0.021 C 
BRANCH  27  28
ATOM     28  C   UNL A   1      39.112  19.671  26.019  1.00  0.00     0.116 C 
BRANCH  28  29
ATOM     29  N   UNL A   1      40.392  18.997  25.871  1.00  0.00    -0.352 N 
ATOM     30  C   UNL A   1      41.657  19.518  25.949  1.00  0.00     0.251 C 
ATOM     31  H   UNL A   1      40.343  18.032  25.688  1.00  0.00     0.163 HD
ATOM     32  O   UNL A   1      42.623  18.861  25.574  1.00  0.00    -0.269 OA
BRANCH  30  33
ATOM     33  C   UNL A   1      41.849  20.884  26.475  1.00  0.00     0.039 A 
ATOM     34  C   UNL A   1      41.648  21.114  27.837  1.00  0.00     0.014 A 
ATOM     35  C   UNL A   1      42.221  21.931  25.627  1.00  0.00     0.014 A 
ATOM     36  C   UNL A   1      41.866  22.390  28.357  1.00  0.00     0.010 A 
ATOM     37  C   UNL A   1      42.516  23.181  26.160  1.00  0.00     0.010 A 
ATOM     38  C   UNL A   1      42.330  23.425  27.528  1.00  0.00    -0.014 A 
BRANCH  38  39
ATOM     39  C   UNL A   1      42.624  24.770  28.082  1.00  0.00     0.031 A 
ATOM     40  C   UNL A   1      44.020  25.125  28.512  1.00  0.00     0.074 A 
ATOM     41  C   UNL A   1      41.620  25.654  28.241  1.00  0.00     0.049 A 
ATOM     42  N   UNL A   1      44.463  26.236  29.043  1.00  0.00    -0.248 NA
ATOM     43  C   UNL A   1      45.049  24.086  28.349  1.00  0.00     0.031 C 
ATOM     44  C   UNL A   1      40.215  25.407  27.912  1.00  0.00     0.029 A 
ATOM     45  N   UNL A   1      41.628  26.937  28.725  1.00  0.00    -0.354 N 
ATOM     46  C   UNL A   1      45.814  26.026  29.286  1.00  0.00     0.074 A 
ATOM     47  C   UNL A   1      46.106  24.663  28.901  1.00  0.00     0.031 C 
ATOM     48  C   UNL A   1      39.502  26.513  28.175  1.00  0.00     0.029 A 
ATOM     49  C   UNL A   1      40.390  27.532  28.727  1.00  0.00     0.049 A 
ATOM     50  H   UNL A   1      42.444  27.390  29.041  1.00  0.00     0.167 HD
ATOM     51  C   UNL A   1      46.734  26.898  29.762  1.00  0.00     0.037 A 
ATOM     52  C   UNL A   1      40.012  28.759  29.131  1.00  0.00     0.037 A 
ATOM     53  C   UNL A   1      46.442  28.260  30.127  1.00  0.00     0.049 A 
ATOM     54  C   UNL A   1      41.051  29.707  29.660  1.00  0.00     0.074 A 
ATOM     55  C   UNL A   1      47.314  29.242  30.563  1.00  0.00     0.029 A 
ATOM     56  N   UNL A   1      45.178  28.831  30.104  1.00  0.00    -0.354 N 
ATOM     57  N   UNL A   1      42.341  29.521  29.814  1.00  0.00    -0.248 NA
ATOM     58  C   UNL A   1      40.585  31.041  30.064  1.00  0.00     0.031 C 
ATOM     59  C   UNL A   1      46.570  30.390  30.855  1.00  0.00     0.029 A 
ATOM     60  C   UNL A   1      45.243  30.143  30.544  1.00  0.00     0.049 A 
ATOM     61  H   UNL A   1      44.356  28.371  29.817  1.00  0.00     0.167 HD
ATOM     62  C   UNL A   1      42.843  30.720  30.303  1.00  0.00     0.074 A 
ATOM     63  C   UNL A   1      41.722  31.632  30.403  1.00  0.00     0.031 C 
ATOM     64  C   UNL A   1      44.118  31.039  30.639  1.00  0.00     0.037 A 
BRANCH  51  65
ATOM     65  C   UNL A   1      48.144  26.402  29.918  1.00  0.00     0.057 A 
ATOM     66  C   UNL A   1      49.085  26.505  28.884  1.00  0.00     0.134 A 
ATOM     67  C   UNL A   1      48.576  25.843  31.128  1.00  0.00     0.134 A 
ATOM     68  F   UNL A   1      48.735  27.019  27.695  1.00  0.00    -0.206 F 
ATOM     69  C   UNL A   1      50.393  26.043  29.037  1.00  0.00     0.040 A 
ATOM     70  C   UNL A   1      49.890  25.406  31.303  1.00  0.00     0.040 A 
ATOM     71  F   UNL A   1      47.731  25.720  32.162  1.00  0.00    -0.206 F 
ATOM     72  C   UNL A   1      50.801  25.498  30.254  1.00  0.00     0.006 A 
ENDBRANCH  51  65
BRANCH  52  73
ATOM     73  C   UNL A   1      38.589  29.169  29.029  1.00  0.00     0.057 A 
ATOM     74  C   UNL A   1      37.735  29.102  30.137  1.00  0.00     0.134 A 
ATOM     75  C   UNL A   1      38.046  29.633  27.825  1.00  0.00     0.134 A 
ATOM     76  F   UNL A   1      38.192  28.651  31.314  1.00  0.00    -0.206 F 
ATOM     77  C   UNL A   1      36.389  29.457  30.045  1.00  0.00     0.040 A 
ATOM     78  C   UNL A   1      36.708  30.017  27.726  1.00  0.00     0.040 A 
ATOM     79  F   UNL A   1      38.814  29.732  26.729  1.00  0.00    -0.206 F 
ATOM     80  C   UNL A   1      35.873  29.922  28.838  1.00  0.00     0.006 A 
ENDBRANCH  52  73
BRANCH  64  81
ATOM     81  C   UNL A   1      44.370  32.441  31.112  1.00  0.00     0.057 A 
ATOM     82  C   UNL A   1      44.330  32.786  32.470  1.00  0.00     0.134 A 
ATOM     83  C   UNL A   1      44.683  33.455  30.199  1.00  0.00     0.134 A 
ATOM     84  F   UNL A   1      44.025  31.864  33.396  1.00  0.00    -0.206 F 
ATOM     85  C   UNL A   1      44.558  34.094  32.898  1.00  0.00     0.040 A 
ATOM     86  C   UNL A   1      44.945  34.761  30.616  1.00  0.00     0.040 A 
ATOM     87  F   UNL A   1      44.749  33.193  28.885  1.00  0.00    -0.206 F 
ATOM     88  C   UNL A   1      44.874  35.085  31.969  1.00  0.00     0.006 A 
ENDBRANCH  64  81
ENDBRANCH  38  39
ENDBRANCH  30  33
ENDBRANCH  28  29
ENDBRANCH  27  28
ENDBRANCH  26  27
ENDBRANCH   1  26
TORSDOF 16
ENDMDL
MODEL 2
REMARK VINA RESULT:     -11.4      3.501      8.812
REMARK SMILES Cc1cc(F)ccc1S(=O)(=O)N1CCO[C@H](CC(=O)NCCCCCCNC(=O)c2ccc(-c3c4nc(c(-c5c(F)cccc5F)c5ccc([nH]5)c(-c5c(F)cccc5F)c5nc(c(-c6c(F)cccc6F)c6ccc3[nH]6)C=C5)C=C4)cc2)C1
REMARK SMILES IDX 23 1 22 2 21 3 20 4 18 5 19 6 17 8 16 9 12 10 13 11 84 12
REMARK SMILES IDX 14 13 15 14 9 15 10 16 11 17 8 18 1 19 2 20 3 21 4 22 7 23
REMARK SMILES IDX 5 24 6 25 24 26 25 27 26 28 27 29 28 30 29 32 30 33 31 34
REMARK SMILES IDX 83 35 32 36 82 37 33 38 34 39 35 40 76 41 36 42 81 43 75 44
REMARK SMILES IDX 77 45 37 46 80 47 74 48 73 49 38 51 64 52 47 53 63 54 48 55
REMARK SMILES IDX 51 56 62 57 78 58 49 59 50 60 61 62 79 63 52 64 39 65 40 66
REMARK SMILES IDX 45 67 41 68 42 69 44 70 46 71 43 72 65 73 66 74 71 75 67 76
REMARK SMILES IDX 68 77 70 78 72 79 69 80 53 81 54 82 59 83 55 84 56 85 58 86
REMARK SMILES IDX 60 87 57 88
REMARK H PARENT 20 7 27 31 77 50 51 61
REMARK Flexibility Score: inf
ROOT
ATOM      1  C   UNL A   1      32.489  29.522  27.040  1.00  0.00     0.002 C 
ENDROOT
BRANCH   1   2
ATOM      2  C   UNL A   1      31.767  28.322  27.664  1.00  0.00     0.021 C 
BRANCH   2   3
ATOM      3  C   UNL A   1      31.979  27.034  26.877  1.00  0.00     0.116 C 
BRANCH   3   4
ATOM      4  N   UNL A   1      30.700  26.530  26.424  1.00  0.00    -0.356 N 
ATOM      5  C   UNL A   1      30.347  26.240  25.144  1.00  0.00     0.222 C 
ATOM      6  O   UNL A   1      29.161  26.153  24.835  1.00  0.00    -0.275 OA
ATOM      7  H   UNL A   1      30.014  26.381  27.114  1.00  0.00     0.163 HD
BRANCH   5   8
ATOM      8  C   UNL A   1      31.447  25.972  24.159  1.00  0.00     0.133 C 
BRANCH   8   9
ATOM      9  C   UNL A   1      30.977  25.207  22.916  1.00  0.00     0.142 C 
ATOM     10  N   UNL A   1      32.328  23.316  23.544  1.00  0.00    -0.193 NA
ATOM     11  C   UNL A   1      33.128  23.330  22.304  1.00  0.00     0.131 C 
ATOM     12  C   UNL A   1      30.929  23.715  23.262  1.00  0.00     0.135 C 
ATOM     13  C   UNL A   1      33.042  24.729  21.647  1.00  0.00     0.177 C 
ATOM     14  O   UNL A   1      31.780  25.417  21.728  1.00  0.00    -0.375 OA
BRANCH  10  15
ATOM     15  S   UNL A   1      32.706  22.310  24.825  1.00  0.00     0.243 S 
ATOM     16  O   UNL A   1      32.406  20.945  24.438  1.00  0.00    -0.207 OA
ATOM     17  O   UNL A   1      32.113  22.903  26.005  1.00  0.00    -0.207 OA
BRANCH  15  18
ATOM     18  C   UNL A   1      34.499  22.360  25.098  1.00  0.00     0.085 A 
ATOM     19  C   UNL A   1      34.794  24.913  25.398  1.00  0.00     0.046 C 
ATOM     20  C   UNL A   1      35.283  23.506  25.359  1.00  0.00    -0.028 A 
ATOM     21  C   UNL A   1      36.680  23.355  25.511  1.00  0.00     0.044 A 
ATOM     22  C   UNL A   1      37.288  22.116  25.371  1.00  0.00     0.123 A 
ATOM     23  C   UNL A   1      35.146  21.112  24.962  1.00  0.00     0.025 A 
ATOM     24  F   UNL A   1      38.618  22.020  25.488  1.00  0.00    -0.207 F 
ATOM     25  C   UNL A   1      36.534  20.993  25.085  1.00  0.00     0.040 A 
ENDBRANCH  15  18
ENDBRANCH  10  15
ENDBRANCH   8   9
ENDBRANCH   5   8
ENDBRANCH   3   4
ENDBRANCH   2   3
ENDBRANCH   1   2
BRANCH   1  26
ATOM     26  C   UNL A   1      31.613  30.359  26.103  1.00  0.00     0.002 C 
BRANCH  26  27
ATOM     27  C   UNL A   1      31.452  31.818  26.532  1.00  0.00     0.021 C 
BRANCH  27  28
ATOM     28  C   UNL A   1      32.673  32.387  27.244  1.00  0.00     0.116 C 
BRANCH  28  29
ATOM     29  N   UNL A   1      32.479  33.781  27.606  1.00  0.00    -0.352 N 
ATOM     30  C   UNL A   1      33.168  34.543  28.514  1.00  0.00     0.251 C 
ATOM     31  H   UNL A   1      31.751  34.244  27.133  1.00  0.00     0.163 HD
ATOM     32  O   UNL A   1      32.733  35.634  28.866  1.00  0.00    -0.269 OA
BRANCH  30  33
ATOM     33  C   UNL A   1      34.433  34.032  29.078  1.00  0.00     0.039 A 
ATOM     34  C   UNL A   1      34.386  33.245  30.230  1.00  0.00     0.014 A 
ATOM     35  C   UNL A   1      35.657  34.333  28.474  1.00  0.00     0.014 A 
ATOM     36  C   UNL A   1      35.569  32.720  30.750  1.00  0.00     0.010 A 
ATOM     37  C   UNL A   1      36.824  33.743  28.947  1.00  0.00     0.010 A 
ATOM     38  C   UNL A   1      36.793  32.940  30.096  1.00  0.00    -0.014 A 
BRANCH  38  39
ATOM     39  C   UNL A   1      38.048  32.336  30.607  1.00  0.00     0.031 A 
ATOM     40  C   UNL A   1      38.567  31.054  30.018  1.00  0.00     0.074 A 
ATOM     41  C   UNL A   1      38.694  32.920  31.634  1.00  0.00     0.049 A 
ATOM     42  N   UNL A   1      39.627  30.362  30.351  1.00  0.00    -0.248 NA
ATOM     43  C   UNL A   1      37.776  30.454  28.932  1.00  0.00     0.031 C 
ATOM     44  C   UNL A   1      38.260  34.136  32.325  1.00  0.00     0.029 A 
ATOM     45  N   UNL A   1      39.850  32.566  32.281  1.00  0.00    -0.354 N 
ATOM     46  C   UNL A   1      39.625  29.246  29.524  1.00  0.00     0.074 A 
ATOM     47  C   UNL A   1      38.427  29.321  28.716  1.00  0.00     0.031 C 
ATOM     48  C   UNL A   1      39.154  34.443  33.277  1.00  0.00     0.029 A 
ATOM     49  C   UNL A   1      40.202  33.427  33.291  1.00  0.00     0.049 A 
ATOM     50  H   UNL A   1      40.379  31.770  32.042  1.00  0.00     0.167 HD
ATOM     51  C   UNL A   1      40.549  28.262  29.428  1.00  0.00     0.037 A 
ATOM     52  C   UNL A   1      41.249  33.398  34.137  1.00  0.00     0.037 A 
ATOM     53  C   UNL A   1      41.750  28.202  30.222  1.00  0.00     0.049 A 
ATOM     54  C   UNL A   1      42.260  32.293  34.013  1.00  0.00     0.074 A 
ATOM     55  C   UNL A   1      42.779  27.279  30.160  1.00  0.00     0.029 A 
ATOM     56  N   UNL A   1      42.078  29.099  31.228  1.00  0.00    -0.354 N 
ATOM     57  N   UNL A   1      42.285  31.284  33.175  1.00  0.00    -0.248 NA
ATOM     58  C   UNL A   1      43.394  32.327  34.946  1.00  0.00     0.031 C 
ATOM     59  C   UNL A   1      43.703  27.587  31.163  1.00  0.00     0.029 A 
ATOM     60  C   UNL A   1      43.280  28.735  31.812  1.00  0.00     0.049 A 
ATOM     61  H   UNL A   1      41.535  29.878  31.488  1.00  0.00     0.167 HD
ATOM     62  C   UNL A   1      43.448  30.581  33.460  1.00  0.00     0.074 A 
ATOM     63  C   UNL A   1      44.110  31.290  34.536  1.00  0.00     0.031 C 
ATOM     64  C   UNL A   1      43.927  29.451  32.883  1.00  0.00     0.037 A 
BRANCH  51  65
ATOM     65  C   UNL A   1      40.297  27.168  28.430  1.00  0.00     0.057 A 
ATOM     66  C   UNL A   1      39.465  26.077  28.719  1.00  0.00     0.134 A 
ATOM     67  C   UNL A   1      40.866  27.222  27.151  1.00  0.00     0.134 A 
ATOM     68  F   UNL A   1      38.897  25.957  29.929  1.00  0.00    -0.206 F 
ATOM     69  C   UNL A   1      39.235  25.065  27.785  1.00  0.00     0.040 A 
ATOM     70  C   UNL A   1      40.618  26.232  26.198  1.00  0.00     0.040 A 
ATOM     71  F   UNL A   1      41.666  28.240  26.803  1.00  0.00    -0.206 F 
ATOM     72  C   UNL A   1      39.806  25.145  26.517  1.00  0.00     0.006 A 
ENDBRANCH  51  65
BRANCH  52  73
ATOM     73  C   UNL A   1      41.407  34.463  35.159  1.00  0.00     0.057 A 
ATOM     74  C   UNL A   1      40.900  34.304  36.455  1.00  0.00     0.134 A 
ATOM     75  C   UNL A   1      42.062  35.666  34.867  1.00  0.00     0.134 A 
ATOM     76  F   UNL A   1      40.249  33.180  36.790  1.00  0.00    -0.206 F 
ATOM     77  C   UNL A   1      41.017  35.309  37.415  1.00  0.00     0.040 A 
ATOM     78  C   UNL A   1      42.210  36.669  35.827  1.00  0.00     0.040 A 
ATOM     79  F   UNL A   1      42.580  35.877  33.648  1.00  0.00    -0.206 F 
ATOM     80  C   UNL A   1      41.679  36.495  37.103  1.00  0.00     0.006 A 
ENDBRANCH  52  73
BRANCH  64  81
ATOM     81  C   UNL A   1      45.245  28.933  33.383  1.00  0.00     0.057 A 
ATOM     82  C   UNL A   1      46.465  29.359  32.841  1.00  0.00     0.134 A 
ATOM     83  C   UNL A   1      45.294  28.013  34.437  1.00  0.00     0.134 A 
ATOM     84  F   UNL A   1      46.488  30.229  31.820  1.00  0.00    -0.206 F 
ATOM     85  C   UNL A   1      47.683  28.864  33.307  1.00  0.00     0.040 A 
ATOM     86  C   UNL A   1      46.507  27.534  34.935  1.00  0.00     0.040 A 
ATOM     87  F   UNL A   1      44.164  27.571  35.010  1.00  0.00    -0.206 F 
ATOM     88  C   UNL A   1      47.706  27.953  34.363  1.00  0.00     0.006 A 
ENDBRANCH  64  81
ENDBRANCH  38  39
ENDBRANCH  30  33
ENDBRANCH  28  29
ENDBRANCH  27  28
ENDBRANCH  26  27
ENDBRANCH   1  26
TORSDOF 16
ENDMDL
MODEL 3
REMARK VINA RESULT:     -11.2      1.697      2.256
REMARK SMILES Cc1cc(F)ccc1S(=O)(=O)N1CCO[C@H](CC(=O)NCCCCCCNC(=O)c2ccc(-c3c4nc(c(-c5c(F)cccc5F)c5ccc([nH]5)c(-c5c(F)cccc5F)c5nc(c(-c6c(F)cccc6F)c6ccc3[nH]6)C=C5)C=C4)cc2)C1
REMARK SMILES IDX 23 1 22 2 21 3 20 4 18 5 19 6 17 8 16 9 12 10 13 11 84 12
REMARK SMILES IDX 14 13 15 14 9 15 10 16 11 17 8 18 1 19 2 20 3 21 4 22 7 23
REMARK SMILES IDX 5 24 6 25 24 26 25 27 26 28 27 29 28 30 29 32 30 33 31 34
REMARK SMILES IDX 83 35 32 36 82 37 33 38 34 39 35 40 76 41 36 42 81 43 75 44
REMARK SMILES IDX 77 45 37 46 80 47 74 48 73 49 38 51 64 52 47 53 63 54 48 55
REMARK SMILES IDX 51 56 62 57 78 58 49 59 50 60 61 62 79 63 52 64 39 65 40 66
REMARK SMILES IDX 45 67 41 68 42 69 44 70 46 71 43 72 65 73 66 74 71 75 67 76
REMARK SMILES IDX 68 77 70 78 72 79 69 80 53 81 54 82 59 83 55 84 56 85 58 86
REMARK SMILES IDX 60 87 57 88
REMARK H PARENT 20 7 27 31 77 50 51 61
REMARK Flexibility Score: inf
ROOT
ATOM      1  C   UNL A   1      37.542  22.067  25.102  1.00  0.00     0.002 C 
ENDROOT
BRANCH   1   2
ATOM      2  C   UNL A   1      36.622  23.140  24.506  1.00  0.00     0.021 C 
BRANCH   2   3
ATOM      3  C   UNL A   1      35.205  22.632  24.266  1.00  0.00     0.116 C 
BRANCH   3   4
ATOM      4  N   UNL A   1      34.801  22.952  22.913  1.00  0.00    -0.356 N 
ATOM      5  C   UNL A   1      33.669  23.602  22.535  1.00  0.00     0.222 C 
ATOM      6  O   UNL A   1      33.265  23.516  21.377  1.00  0.00    -0.275 OA
ATOM      7  H   UNL A   1      35.409  22.671  22.192  1.00  0.00     0.163 HD
BRANCH   5   8
ATOM      8  C   UNL A   1      32.983  24.465  23.554  1.00  0.00     0.133 C 
BRANCH   8   9
ATOM      9  C   UNL A   1      31.503  24.116  23.750  1.00  0.00     0.142 C 
ATOM     10  N   UNL A   1      31.026  26.395  24.357  1.00  0.00    -0.193 NA
ATOM     11  C   UNL A   1      30.504  26.052  25.693  1.00  0.00     0.131 C 
ATOM     12  C   UNL A   1      30.668  25.344  23.375  1.00  0.00     0.135 C 
ATOM     13  C   UNL A   1      31.032  24.659  26.113  1.00  0.00     0.177 C 
ATOM     14  O   UNL A   1      31.153  23.663  25.081  1.00  0.00    -0.375 OA
BRANCH  10  15
ATOM     15  S   UNL A   1      31.266  27.983  23.886  1.00  0.00     0.243 S 
ATOM     16  O   UNL A   1      29.976  28.642  23.827  1.00  0.00    -0.207 OA
ATOM     17  O   UNL A   1      32.142  27.944  22.735  1.00  0.00    -0.207 OA
BRANCH  15  18
ATOM     18  C   UNL A   1      32.199  28.842  25.184  1.00  0.00     0.085 A 
ATOM     19  C   UNL A   1      34.028  27.065  25.616  1.00  0.00     0.046 C 
ATOM     20  C   UNL A   1      33.366  28.383  25.831  1.00  0.00    -0.028 A 
ATOM     21  C   UNL A   1      33.938  29.179  26.849  1.00  0.00     0.044 A 
ATOM     22  C   UNL A   1      33.352  30.372  27.243  1.00  0.00     0.123 A 
ATOM     23  C   UNL A   1      31.625  30.063  25.605  1.00  0.00     0.025 A 
ATOM     24  F   UNL A   1      33.904  31.080  28.235  1.00  0.00    -0.207 F 
ATOM     25  C   UNL A   1      32.191  30.816  26.637  1.00  0.00     0.040 A 
ENDBRANCH  15  18
ENDBRANCH  10  15
ENDBRANCH   8   9
ENDBRANCH   5   8
ENDBRANCH   3   4
ENDBRANCH   2   3
ENDBRANCH   1   2
BRANCH   1  26
ATOM     26  C   UNL A   1      37.048  20.633  24.887  1.00  0.00     0.002 C 
BRANCH  26  27
ATOM     27  C   UNL A   1      38.142  19.571  25.002  1.00  0.00     0.021 C 
BRANCH  27  28
ATOM     28  C   UNL A   1      39.171  19.863  26.086  1.00  0.00     0.116 C 
BRANCH  28  29
ATOM     29  N   UNL A   1      40.290  18.937  26.025  1.00  0.00    -0.352 N 
ATOM     30  C   UNL A   1      41.635  19.203  26.042  1.00  0.00     0.251 C 
ATOM     31  H   UNL A   1      40.049  17.985  25.961  1.00  0.00     0.163 HD
ATOM     32  O   UNL A   1      42.444  18.329  25.753  1.00  0.00    -0.269 OA
BRANCH  30  33
ATOM     33  C   UNL A   1      42.102  20.558  26.398  1.00  0.00     0.039 A 
ATOM     34  C   UNL A   1      42.371  21.467  25.374  1.00  0.00     0.014 A 
ATOM     35  C   UNL A   1      42.275  20.925  27.736  1.00  0.00     0.014 A 
ATOM     36  C   UNL A   1      42.772  22.764  25.696  1.00  0.00     0.010 A 
ATOM     37  C   UNL A   1      42.596  22.239  28.056  1.00  0.00     0.010 A 
ATOM     38  C   UNL A   1      42.859  23.169  27.039  1.00  0.00    -0.014 A 
BRANCH  38  39
ATOM     39  C   UNL A   1      43.225  24.562  27.392  1.00  0.00     0.031 A 
ATOM     40  C   UNL A   1      44.661  25.002  27.353  1.00  0.00     0.074 A 
ATOM     41  C   UNL A   1      42.265  25.417  27.794  1.00  0.00     0.049 A 
ATOM     42  N   UNL A   1      45.177  26.167  27.653  1.00  0.00    -0.248 NA
ATOM     43  C   UNL A   1      45.654  23.993  26.949  1.00  0.00     0.031 C 
ATOM     44  C   UNL A   1      40.844  25.093  27.926  1.00  0.00     0.029 A 
ATOM     45  N   UNL A   1      42.342  26.733  28.172  1.00  0.00    -0.354 N 
ATOM     46  C   UNL A   1      46.549  26.027  27.485  1.00  0.00     0.074 A 
ATOM     47  C   UNL A   1      46.792  24.650  27.114  1.00  0.00     0.031 C 
ATOM     48  C   UNL A   1      40.178  26.188  28.325  1.00  0.00     0.029 A 
ATOM     49  C   UNL A   1      41.129  27.279  28.515  1.00  0.00     0.049 A 
ATOM     50  H   UNL A   1      43.187  27.239  28.195  1.00  0.00     0.167 HD
ATOM     51  C   UNL A   1      47.516  26.968  27.603  1.00  0.00     0.037 A 
ATOM     52  C   UNL A   1      40.819  28.519  28.938  1.00  0.00     0.037 A 
ATOM     53  C   UNL A   1      47.267  28.342  27.953  1.00  0.00     0.049 A 
ATOM     54  C   UNL A   1      41.910  29.544  29.064  1.00  0.00     0.074 A 
ATOM     55  C   UNL A   1      48.170  29.387  28.041  1.00  0.00     0.029 A 
ATOM     56  N   UNL A   1      46.023  28.861  28.282  1.00  0.00    -0.354 N 
ATOM     57  N   UNL A   1      43.195  29.419  28.829  1.00  0.00    -0.248 NA
ATOM     58  C   UNL A   1      41.509  30.886  29.507  1.00  0.00     0.031 C 
ATOM     59  C   UNL A   1      47.482  30.525  28.474  1.00  0.00     0.029 A 
ATOM     60  C   UNL A   1      46.140  30.205  28.599  1.00  0.00     0.049 A 
ATOM     61  H   UNL A   1      45.182  28.349  28.289  1.00  0.00     0.167 HD
ATOM     62  C   UNL A   1      43.749  30.670  29.066  1.00  0.00     0.074 A 
ATOM     63  C   UNL A   1      42.658  31.544  29.446  1.00  0.00     0.031 C 
ATOM     64  C   UNL A   1      45.044  31.062  28.976  1.00  0.00     0.037 A 
BRANCH  51  65
ATOM     65  C   UNL A   1      48.934  26.539  27.351  1.00  0.00     0.057 A 
ATOM     66  C   UNL A   1      49.495  26.548  26.067  1.00  0.00     0.134 A 
ATOM     67  C   UNL A   1      49.760  26.143  28.412  1.00  0.00     0.134 A 
ATOM     68  F   UNL A   1      48.756  26.904  25.005  1.00  0.00    -0.206 F 
ATOM     69  C   UNL A   1      50.814  26.149  25.842  1.00  0.00     0.040 A 
ATOM     70  C   UNL A   1      51.089  25.772  28.203  1.00  0.00     0.040 A 
ATOM     71  F   UNL A   1      49.291  26.118  29.668  1.00  0.00    -0.206 F 
ATOM     72  C   UNL A   1      51.618  25.767  26.914  1.00  0.00     0.006 A 
ENDBRANCH  51  65
BRANCH  52  73
ATOM     73  C   UNL A   1      39.409  28.866  29.250  1.00  0.00     0.057 A 
ATOM     74  C   UNL A   1      38.877  28.656  30.528  1.00  0.00     0.134 A 
ATOM     75  C   UNL A   1      38.558  29.410  28.280  1.00  0.00     0.134 A 
ATOM     76  F   UNL A   1      39.639  28.123  31.495  1.00  0.00    -0.206 F 
ATOM     77  C   UNL A   1      37.547  28.950  30.824  1.00  0.00     0.040 A 
ATOM     78  C   UNL A   1      37.232  29.735  28.570  1.00  0.00     0.040 A 
ATOM     79  F   UNL A   1      39.009  29.646  27.039  1.00  0.00    -0.206 F 
ATOM     80  C   UNL A   1      36.721  29.498  29.845  1.00  0.00     0.006 A 
ENDBRANCH  52  73
BRANCH  64  81
ATOM     81  C   UNL A   1      45.344  32.505  29.262  1.00  0.00     0.057 A 
ATOM     82  C   UNL A   1      45.710  32.950  30.540  1.00  0.00     0.134 A 
ATOM     83  C   UNL A   1      45.289  33.459  28.238  1.00  0.00     0.134 A 
ATOM     84  F   UNL A   1      45.770  32.089  31.567  1.00  0.00    -0.206 F 
ATOM     85  C   UNL A   1      45.979  34.295  30.795  1.00  0.00     0.040 A 
ATOM     86  C   UNL A   1      45.586  34.803  28.474  1.00  0.00     0.040 A 
ATOM     87  F   UNL A   1      44.955  33.102  26.989  1.00  0.00    -0.206 F 
ATOM     88  C   UNL A   1      45.924  35.225  29.758  1.00  0.00     0.006 A 
ENDBRANCH  64  81
ENDBRANCH  38  39
ENDBRANCH  30  33
ENDBRANCH  28  29
ENDBRANCH  27  28
ENDBRANCH  26  27
ENDBRANCH   1  26
TORSDOF 16
ENDMDL
