MODEL 1
REMARK VINA RESULT:     -12.0      0.000      0.000
REMARK SMILES CCc1cc(Nc2ccc(C(=O)NCCCCCCNC(=O)c3ccc(-c4c5nc(c(-c6c(F)cccc6F)c6ccc([nH]6)c(-c6c(F)cccc6F)c6nc(c(-c7c(F)cccc7F)c7ccc4[nH]7)C=C6)C=C5)cc3)cc2)nc(C(C)C)n1
REMARK SMILES IDX 16 1 15 2 14 3 13 4 11 5 12 6 10 8 7 9 8 10 78 11 9 12 77 13
REMARK SMILES IDX 6 14 5 16 3 17 4 18 84 19 80 20 79 21 2 22 1 23 81 24 82 25
REMARK SMILES IDX 83 26 17 27 18 28 19 29 20 30 21 31 22 33 23 34 24 35 76 36
REMARK SMILES IDX 25 37 75 38 26 39 27 40 28 41 69 42 29 43 74 44 68 45 70 46
REMARK SMILES IDX 30 47 73 48 67 49 66 50 31 52 57 53 40 54 56 55 41 56 44 57
REMARK SMILES IDX 55 58 71 59 42 60 43 61 54 63 72 64 45 65 32 66 33 67 38 68
REMARK SMILES IDX 34 69 35 70 37 71 39 72 36 73 58 74 59 75 64 76 60 77 61 78
REMARK SMILES IDX 63 79 65 80 62 81 46 82 47 83 52 84 48 85 49 86 51 87 53 88
REMARK SMILES IDX 50 89
REMARK H PARENT 13 7 6 15 20 32 70 51 44 62
REMARK Flexibility Score: inf
ROOT
ATOM      1  C   UNL A   1      36.424  21.552  25.374  1.00  0.00     0.002 C 
ENDROOT
BRANCH   1   2
ATOM      2  C   UNL A   1      35.173  22.299  24.890  1.00  0.00     0.021 C 
BRANCH   2   3
ATOM      3  C   UNL A   1      33.873  21.716  25.449  1.00  0.00     0.116 C 
BRANCH   3   4
ATOM      4  N   UNL A   1      33.173  20.993  24.404  1.00  0.00    -0.352 N 
ATOM      5  C   UNL A   1      32.451  21.405  23.314  1.00  0.00     0.251 C 
ATOM      6  O   UNL A   1      31.937  20.540  22.605  1.00  0.00    -0.269 OA
ATOM      7  H   UNL A   1      33.225  20.013  24.496  1.00  0.00     0.163 HD
BRANCH   5   8
ATOM      8  C   UNL A   1      32.332  22.833  22.914  1.00  0.00     0.039 A 
ATOM      9  C   UNL A   1      31.801  25.470  22.083  1.00  0.00     0.040 A 
ATOM     10  C   UNL A   1      31.019  24.876  23.072  1.00  0.00     0.027 A 
ATOM     11  C   UNL A   1      32.919  24.782  21.604  1.00  0.00     0.027 A 
ATOM     12  C   UNL A   1      31.267  23.559  23.468  1.00  0.00     0.016 A 
ATOM     13  C   UNL A   1      33.203  23.483  22.039  1.00  0.00     0.016 A 
BRANCH   9  14
ATOM     14  N   UNL A   1      31.507  26.762  21.631  1.00  0.00    -0.340 N 
ATOM     15  H   UNL A   1      31.640  26.943  20.672  1.00  0.00     0.168 HD
BRANCH  14  16
ATOM     16  C   UNL A   1      31.038  27.822  22.424  1.00  0.00     0.134 A 
ATOM     17  C   UNL A   1      31.290  29.289  24.256  1.00  0.00     0.046 A 
ATOM     18  C   UNL A   1      31.812  28.276  23.474  1.00  0.00     0.071 A 
ATOM     19  N   UNL A   1      30.078  29.824  24.015  1.00  0.00    -0.238 NA
ATOM     20  C   UNL A   1      29.374  29.311  22.990  1.00  0.00     0.133 A 
ATOM     21  N   UNL A   1      29.820  28.338  22.180  1.00  0.00    -0.216 NA
BRANCH  17  22
ATOM     22  C   UNL A   1      32.094  29.875  25.389  1.00  0.00     0.053 C 
ATOM     23  C   UNL A   1      31.965  29.075  26.677  1.00  0.00     0.011 C 
ENDBRANCH  17  22
BRANCH  20  24
ATOM     24  C   UNL A   1      27.971  29.820  22.755  1.00  0.00     0.051 C 
ATOM     25  C   UNL A   1      26.940  28.781  23.199  1.00  0.00     0.016 C 
ATOM     26  C   UNL A   1      27.742  31.157  23.456  1.00  0.00     0.016 C 
ENDBRANCH  20  24
ENDBRANCH  14  16
ENDBRANCH   9  14
ENDBRANCH   5   8
ENDBRANCH   3   4
ENDBRANCH   2   3
ENDBRANCH   1   2
BRANCH   1  27
ATOM     27  C   UNL A   1      36.505  20.083  24.937  1.00  0.00     0.002 C 
BRANCH  27  28
ATOM     28  C   UNL A   1      37.921  19.565  24.671  1.00  0.00     0.021 C 
BRANCH  28  29
ATOM     29  C   UNL A   1      38.979  20.107  25.627  1.00  0.00     0.116 C 
BRANCH  29  30
ATOM     30  N   UNL A   1      40.103  19.193  25.763  1.00  0.00    -0.352 N 
ATOM     31  C   UNL A   1      41.407  19.465  26.088  1.00  0.00     0.251 C 
ATOM     32  H   UNL A   1      39.898  18.245  25.598  1.00  0.00     0.163 HD
ATOM     33  O   UNL A   1      42.274  18.609  25.947  1.00  0.00    -0.269 OA
BRANCH  31  34
ATOM     34  C   UNL A   1      41.772  20.804  26.600  1.00  0.00     0.039 A 
ATOM     35  C   UNL A   1      42.479  21.676  25.769  1.00  0.00     0.014 A 
ATOM     36  C   UNL A   1      41.438  21.187  27.903  1.00  0.00     0.014 A 
ATOM     37  C   UNL A   1      42.806  22.955  26.227  1.00  0.00     0.010 A 
ATOM     38  C   UNL A   1      41.707  22.482  28.334  1.00  0.00     0.010 A 
ATOM     39  C   UNL A   1      42.399  23.377  27.503  1.00  0.00    -0.014 A 
BRANCH  39  40
ATOM     40  C   UNL A   1      42.703  24.745  27.993  1.00  0.00     0.031 A 
ATOM     41  C   UNL A   1      44.116  25.123  28.340  1.00  0.00     0.074 A 
ATOM     42  C   UNL A   1      41.702  25.630  28.170  1.00  0.00     0.049 A 
ATOM     43  N   UNL A   1      44.573  26.237  28.852  1.00  0.00    -0.248 NA
ATOM     44  C   UNL A   1      45.151  24.104  28.100  1.00  0.00     0.031 C 
ATOM     45  C   UNL A   1      40.287  25.374  27.898  1.00  0.00     0.029 A 
ATOM     46  N   UNL A   1      41.723  26.922  28.629  1.00  0.00    -0.354 N 
ATOM     47  C   UNL A   1      45.942  26.054  28.998  1.00  0.00     0.074 A 
ATOM     48  C   UNL A   1      46.235  24.701  28.575  1.00  0.00     0.031 C 
ATOM     49  C   UNL A   1      39.578  26.482  28.174  1.00  0.00     0.029 A 
ATOM     50  C   UNL A   1      40.482  27.511  28.676  1.00  0.00     0.049 A 
ATOM     51  H   UNL A   1      42.549  27.385  28.899  1.00  0.00     0.167 HD
ATOM     52  C   UNL A   1      46.875  26.940  29.418  1.00  0.00     0.037 A 
ATOM     53  C   UNL A   1      40.118  28.740  29.085  1.00  0.00     0.037 A 
ATOM     54  C   UNL A   1      46.586  28.290  29.822  1.00  0.00     0.049 A 
ATOM     55  C   UNL A   1      41.172  29.694  29.576  1.00  0.00     0.074 A 
ATOM     56  C   UNL A   1      47.465  29.272  30.247  1.00  0.00     0.029 A 
ATOM     57  N   UNL A   1      45.319  28.852  29.845  1.00  0.00    -0.354 N 
ATOM     58  N   UNL A   1      42.468  29.519  29.670  1.00  0.00    -0.248 NA
ATOM     59  C   UNL A   1      40.713  31.019  30.015  1.00  0.00     0.031 C 
ATOM     60  C   UNL A   1      46.726  30.418  30.555  1.00  0.00     0.029 A 
ATOM     61  C   UNL A   1      45.391  30.163  30.284  1.00  0.00     0.049 A 
ATOM     62  H   UNL A   1      44.490  28.387  29.588  1.00  0.00     0.167 HD
ATOM     63  C   UNL A   1      42.980  30.721  30.141  1.00  0.00     0.074 A 
ATOM     64  C   UNL A   1      41.858  31.620  30.304  1.00  0.00     0.031 C 
ATOM     65  C   UNL A   1      44.266  31.050  30.417  1.00  0.00     0.037 A 
BRANCH  52  66
ATOM     66  C   UNL A   1      48.304  26.480  29.441  1.00  0.00     0.057 A 
ATOM     67  C   UNL A   1      48.860  25.878  30.577  1.00  0.00     0.134 A 
ATOM     68  C   UNL A   1      49.118  26.600  28.309  1.00  0.00     0.134 A 
ATOM     69  F   UNL A   1      48.136  25.745  31.700  1.00  0.00    -0.206 F 
ATOM     70  C   UNL A   1      50.181  25.429  30.594  1.00  0.00     0.040 A 
ATOM     71  C   UNL A   1      50.434  26.131  28.305  1.00  0.00     0.040 A 
ATOM     72  F   UNL A   1      48.647  27.161  27.185  1.00  0.00    -0.206 F 
ATOM     73  C   UNL A   1      50.970  25.549  29.452  1.00  0.00     0.006 A 
ENDBRANCH  52  66
BRANCH  53  74
ATOM     74  C   UNL A   1      38.694  29.158  29.035  1.00  0.00     0.057 A 
ATOM     75  C   UNL A   1      37.863  29.017  30.154  1.00  0.00     0.134 A 
ATOM     76  C   UNL A   1      38.119  29.670  27.867  1.00  0.00     0.134 A 
ATOM     77  F   UNL A   1      38.351  28.514  31.298  1.00  0.00    -0.206 F 
ATOM     78  C   UNL A   1      36.506  29.339  30.103  1.00  0.00     0.040 A 
ATOM     79  C   UNL A   1      36.769  30.021  27.809  1.00  0.00     0.040 A 
ATOM     80  F   UNL A   1      38.861  29.836  26.763  1.00  0.00    -0.206 F 
ATOM     81  C   UNL A   1      35.956  29.844  28.927  1.00  0.00     0.006 A 
ENDBRANCH  53  74
BRANCH  65  82
ATOM     82  C   UNL A   1      44.530  32.455  30.870  1.00  0.00     0.057 A 
ATOM     83  C   UNL A   1      44.702  33.507  29.962  1.00  0.00     0.134 A 
ATOM     84  C   UNL A   1      44.580  32.763  32.236  1.00  0.00     0.134 A 
ATOM     85  F   UNL A   1      44.678  33.275  28.641  1.00  0.00    -0.206 F 
ATOM     86  C   UNL A   1      44.939  34.812  30.397  1.00  0.00     0.040 A 
ATOM     87  C   UNL A   1      44.791  34.068  32.682  1.00  0.00     0.040 A 
ATOM     88  F   UNL A   1      44.416  31.803  33.157  1.00  0.00    -0.206 F 
ATOM     89  C   UNL A   1      44.978  35.096  31.760  1.00  0.00     0.006 A 
ENDBRANCH  65  82
ENDBRANCH  39  40
ENDBRANCH  31  34
ENDBRANCH  29  30
ENDBRANCH  28  29
ENDBRANCH  27  28
ENDBRANCH   1  27
TORSDOF 17
ENDMDL
MODEL 2
REMARK VINA RESULT:     -11.9      1.222      6.206
REMARK SMILES CCc1cc(Nc2ccc(C(=O)NCCCCCCNC(=O)c3ccc(-c4c5nc(c(-c6c(F)cccc6F)c6ccc([nH]6)c(-c6c(F)cccc6F)c6nc(c(-c7c(F)cccc7F)c7ccc4[nH]7)C=C6)C=C5)cc3)cc2)nc(C(C)C)n1
REMARK SMILES IDX 16 1 15 2 14 3 13 4 11 5 12 6 10 8 7 9 8 10 78 11 9 12 77 13
REMARK SMILES IDX 6 14 5 16 3 17 4 18 84 19 80 20 79 21 2 22 1 23 81 24 82 25
REMARK SMILES IDX 83 26 17 27 18 28 19 29 20 30 21 31 22 33 23 34 24 35 76 36
REMARK SMILES IDX 25 37 75 38 26 39 27 40 28 41 69 42 29 43 74 44 68 45 70 46
REMARK SMILES IDX 30 47 73 48 67 49 66 50 31 52 57 53 40 54 56 55 41 56 44 57
REMARK SMILES IDX 55 58 71 59 42 60 43 61 54 63 72 64 45 65 32 66 33 67 38 68
REMARK SMILES IDX 34 69 35 70 37 71 39 72 36 73 58 74 59 75 64 76 60 77 61 78
REMARK SMILES IDX 63 79 65 80 62 81 46 82 47 83 52 84 48 85 49 86 51 87 53 88
REMARK SMILES IDX 50 89
REMARK H PARENT 13 7 6 15 20 32 70 51 44 62
REMARK Flexibility Score: inf
ROOT
ATOM      1  C   UNL A   1      36.317  21.486  25.413  1.00  0.00     0.002 C 
ENDROOT
BRANCH   1   2
ATOM      2  C   UNL A   1      35.086  22.194  24.830  1.00  0.00     0.021 C 
BRANCH   2   3
ATOM      3  C   UNL A   1      33.764  21.613  25.338  1.00  0.00     0.116 C 
BRANCH   3   4
ATOM      4  N   UNL A   1      33.065  20.962  24.247  1.00  0.00    -0.352 N 
ATOM      5  C   UNL A   1      32.374  21.447  23.167  1.00  0.00     0.251 C 
ATOM      6  O   UNL A   1      31.851  20.632  22.407  1.00  0.00    -0.269 OA
ATOM      7  H   UNL A   1      33.090  19.978  24.291  1.00  0.00     0.163 HD
BRANCH   5   8
ATOM      8  C   UNL A   1      32.300  22.896  22.836  1.00  0.00     0.039 A 
ATOM      9  C   UNL A   1      31.860  25.579  22.106  1.00  0.00     0.040 A 
ATOM     10  C   UNL A   1      30.986  24.939  22.984  1.00  0.00     0.027 A 
ATOM     11  C   UNL A   1      33.015  24.908  21.697  1.00  0.00     0.027 A 
ATOM     12  C   UNL A   1      31.191  23.600  23.328  1.00  0.00     0.016 A 
ATOM     13  C   UNL A   1      33.251  23.585  22.084  1.00  0.00     0.016 A 
BRANCH   9  14
ATOM     14  N   UNL A   1      31.615  26.896  21.701  1.00  0.00    -0.340 N 
ATOM     15  H   UNL A   1      31.783  27.113  20.755  1.00  0.00     0.168 HD
BRANCH  14  16
ATOM     16  C   UNL A   1      31.151  27.936  22.524  1.00  0.00     0.134 A 
ATOM     17  C   UNL A   1      31.386  29.317  24.424  1.00  0.00     0.046 A 
ATOM     18  C   UNL A   1      31.904  28.322  23.615  1.00  0.00     0.071 A 
ATOM     19  N   UNL A   1      30.198  29.896  24.169  1.00  0.00    -0.238 NA
ATOM     20  C   UNL A   1      29.513  29.448  23.102  1.00  0.00     0.133 A 
ATOM     21  N   UNL A   1      29.956  28.497  22.265  1.00  0.00    -0.216 NA
BRANCH  17  22
ATOM     22  C   UNL A   1      32.170  29.831  25.604  1.00  0.00     0.053 C 
ATOM     23  C   UNL A   1      32.214  28.839  26.759  1.00  0.00     0.011 C 
ENDBRANCH  17  22
BRANCH  20  24
ATOM     24  C   UNL A   1      28.133  30.008  22.847  1.00  0.00     0.051 C 
ATOM     25  C   UNL A   1      28.029  30.551  21.420  1.00  0.00     0.016 C 
ATOM     26  C   UNL A   1      27.052  28.964  23.118  1.00  0.00     0.016 C 
ENDBRANCH  20  24
ENDBRANCH  14  16
ENDBRANCH   9  14
ENDBRANCH   5   8
ENDBRANCH   3   4
ENDBRANCH   2   3
ENDBRANCH   1   2
BRANCH   1  27
ATOM     27  C   UNL A   1      36.468  20.015  25.001  1.00  0.00     0.002 C 
BRANCH  27  28
ATOM     28  C   UNL A   1      37.903  19.572  24.701  1.00  0.00     0.021 C 
BRANCH  28  29
ATOM     29  C   UNL A   1      38.925  19.996  25.752  1.00  0.00     0.116 C 
BRANCH  29  30
ATOM     30  N   UNL A   1      40.047  19.073  25.816  1.00  0.00    -0.352 N 
ATOM     31  C   UNL A   1      41.383  19.343  25.972  1.00  0.00     0.251 C 
ATOM     32  H   UNL A   1      39.815  18.120  25.736  1.00  0.00     0.163 HD
ATOM     33  O   UNL A   1      42.219  18.465  25.788  1.00  0.00    -0.269 OA
BRANCH  31  34
ATOM     34  C   UNL A   1      41.818  20.704  26.352  1.00  0.00     0.039 A 
ATOM     35  C   UNL A   1      41.972  21.011  27.706  1.00  0.00     0.014 A 
ATOM     36  C   UNL A   1      42.051  21.679  25.377  1.00  0.00     0.014 A 
ATOM     37  C   UNL A   1      42.410  22.284  28.081  1.00  0.00     0.010 A 
ATOM     38  C   UNL A   1      42.550  22.924  25.748  1.00  0.00     0.010 A 
ATOM     39  C   UNL A   1      42.728  23.241  27.103  1.00  0.00    -0.014 A 
BRANCH  39  40
ATOM     40  C   UNL A   1      43.232  24.585  27.480  1.00  0.00     0.031 A 
ATOM     41  C   UNL A   1      42.272  25.648  27.937  1.00  0.00     0.074 A 
ATOM     42  C   UNL A   1      44.546  24.864  27.365  1.00  0.00     0.049 A 
ATOM     43  N   UNL A   1      42.504  26.901  28.236  1.00  0.00    -0.248 NA
ATOM     44  C   UNL A   1      40.857  25.256  28.051  1.00  0.00     0.031 C 
ATOM     45  C   UNL A   1      45.573  23.927  26.906  1.00  0.00     0.029 A 
ATOM     46  N   UNL A   1      45.240  26.018  27.621  1.00  0.00    -0.354 N 
ATOM     47  C   UNL A   1      41.271  27.446  28.570  1.00  0.00     0.074 A 
ATOM     48  C   UNL A   1      40.284  26.405  28.381  1.00  0.00     0.031 C 
ATOM     49  C   UNL A   1      46.769  24.539  26.933  1.00  0.00     0.029 A 
ATOM     50  C   UNL A   1      46.588  25.918  27.375  1.00  0.00     0.049 A 
ATOM     51  H   UNL A   1      44.813  26.843  27.949  1.00  0.00     0.167 HD
ATOM     52  C   UNL A   1      40.990  28.690  29.021  1.00  0.00     0.037 A 
ATOM     53  C   UNL A   1      47.564  26.837  27.489  1.00  0.00     0.037 A 
ATOM     54  C   UNL A   1      41.974  29.720  29.225  1.00  0.00     0.049 A 
ATOM     55  C   UNL A   1      47.217  28.222  27.963  1.00  0.00     0.074 A 
ATOM     56  C   UNL A   1      41.790  31.009  29.697  1.00  0.00     0.029 A 
ATOM     57  N   UNL A   1      43.330  29.575  28.976  1.00  0.00    -0.354 N 
ATOM     58  N   UNL A   1      46.053  28.710  28.313  1.00  0.00    -0.248 NA
ATOM     59  C   UNL A   1      48.325  29.184  28.061  1.00  0.00     0.031 C 
ATOM     60  C   UNL A   1      43.032  31.653  29.704  1.00  0.00     0.029 A 
ATOM     61  C   UNL A   1      43.994  30.752  29.276  1.00  0.00     0.049 A 
ATOM     62  H   UNL A   1      43.757  28.756  28.636  1.00  0.00     0.167 HD
ATOM     63  C   UNL A   1      46.292  30.019  28.709  1.00  0.00     0.074 A 
ATOM     64  C   UNL A   1      47.714  30.247  28.565  1.00  0.00     0.031 C 
ATOM     65  C   UNL A   1      45.413  30.952  29.148  1.00  0.00     0.037 A 
BRANCH  52  66
ATOM     66  C   UNL A   1      39.557  29.001  29.345  1.00  0.00     0.057 A 
ATOM     67  C   UNL A   1      39.047  28.833  30.639  1.00  0.00     0.134 A 
ATOM     68  C   UNL A   1      38.692  29.511  28.371  1.00  0.00     0.134 A 
ATOM     69  F   UNL A   1      39.820  28.336  31.616  1.00  0.00    -0.206 F 
ATOM     70  C   UNL A   1      37.721  29.143  30.948  1.00  0.00     0.040 A 
ATOM     71  C   UNL A   1      37.371  29.849  28.673  1.00  0.00     0.040 A 
ATOM     72  F   UNL A   1      39.117  29.702  27.112  1.00  0.00    -0.206 F 
ATOM     73  C   UNL A   1      36.881  29.660  29.963  1.00  0.00     0.006 A 
ENDBRANCH  52  66
BRANCH  53  74
ATOM     74  C   UNL A   1      48.971  26.485  27.168  1.00  0.00     0.057 A 
ATOM     75  C   UNL A   1      49.474  26.642  25.870  1.00  0.00     0.134 A 
ATOM     76  C   UNL A   1      49.832  25.950  28.132  1.00  0.00     0.134 A 
ATOM     77  F   UNL A   1      48.690  27.132  24.898  1.00  0.00    -0.206 F 
ATOM     78  C   UNL A   1      50.771  26.250  25.536  1.00  0.00     0.040 A 
ATOM     79  C   UNL A   1      51.141  25.577  27.818  1.00  0.00     0.040 A 
ATOM     80  F   UNL A   1      49.414  25.780  29.395  1.00  0.00    -0.206 F 
ATOM     81  C   UNL A   1      51.609  25.717  26.513  1.00  0.00     0.006 A 
ENDBRANCH  53  74
BRANCH  65  82
ATOM     82  C   UNL A   1      45.973  32.282  29.556  1.00  0.00     0.057 A 
ATOM     83  C   UNL A   1      46.422  32.530  30.859  1.00  0.00     0.134 A 
ATOM     84  C   UNL A   1      46.095  33.318  28.621  1.00  0.00     0.134 A 
ATOM     85  F   UNL A   1      46.320  31.583  31.804  1.00  0.00    -0.206 F 
ATOM     86  C   UNL A   1      46.948  33.770  31.224  1.00  0.00     0.040 A 
ATOM     87  C   UNL A   1      46.644  34.554  28.967  1.00  0.00     0.040 A 
ATOM     88  F   UNL A   1      45.691  33.143  27.354  1.00  0.00    -0.206 F 
ATOM     89  C   UNL A   1      47.066  34.783  30.275  1.00  0.00     0.006 A 
ENDBRANCH  65  82
ENDBRANCH  39  40
ENDBRANCH  31  34
ENDBRANCH  29  30
ENDBRANCH  28  29
ENDBRANCH  27  28
ENDBRANCH   1  27
TORSDOF 17
ENDMDL
MODEL 3
REMARK VINA RESULT:     -11.8      2.897      8.336
REMARK SMILES CCc1cc(Nc2ccc(C(=O)NCCCCCCNC(=O)c3ccc(-c4c5nc(c(-c6c(F)cccc6F)c6ccc([nH]6)c(-c6c(F)cccc6F)c6nc(c(-c7c(F)cccc7F)c7ccc4[nH]7)C=C6)C=C5)cc3)cc2)nc(C(C)C)n1
REMARK SMILES IDX 16 1 15 2 14 3 13 4 11 5 12 6 10 8 7 9 8 10 78 11 9 12 77 13
REMARK SMILES IDX 6 14 5 16 3 17 4 18 84 19 80 20 79 21 2 22 1 23 81 24 82 25
REMARK SMILES IDX 83 26 17 27 18 28 19 29 20 30 21 31 22 33 23 34 24 35 76 36
REMARK SMILES IDX 25 37 75 38 26 39 27 40 28 41 69 42 29 43 74 44 68 45 70 46
REMARK SMILES IDX 30 47 73 48 67 49 66 50 31 52 57 53 40 54 56 55 41 56 44 57
REMARK SMILES IDX 55 58 71 59 42 60 43 61 54 63 72 64 45 65 32 66 33 67 38 68
REMARK SMILES IDX 34 69 35 70 37 71 39 72 36 73 58 74 59 75 64 76 60 77 61 78
REMARK SMILES IDX 63 79 65 80 62 81 46 82 47 83 52 84 48 85 49 86 51 87 53 88
REMARK SMILES IDX 50 89
REMARK H PARENT 13 7 6 15 20 32 70 51 44 62
REMARK Flexibility Score: inf
ROOT
ATOM      1  C   UNL A   1      33.608  27.777  24.716  1.00  0.00     0.002 C 
ENDROOT
BRANCH   1   2
ATOM      2  C   UNL A   1      32.529  28.782  24.292  1.00  0.00     0.021 C 
BRANCH   2   3
ATOM      3  C   UNL A   1      31.923  28.471  22.921  1.00  0.00     0.116 C 
BRANCH   3   4
ATOM      4  N   UNL A   1      30.480  28.374  23.035  1.00  0.00    -0.352 N 
ATOM      5  C   UNL A   1      29.651  27.389  23.505  1.00  0.00     0.251 C 
ATOM      6  O   UNL A   1      28.437  27.585  23.447  1.00  0.00    -0.269 OA
ATOM      7  H   UNL A   1      30.002  29.172  22.710  1.00  0.00     0.163 HD
BRANCH   5   8
ATOM      8  C   UNL A   1      30.153  26.144  24.147  1.00  0.00     0.039 A 
ATOM      9  C   UNL A   1      30.883  23.632  25.187  1.00  0.00     0.040 A 
ATOM     10  C   UNL A   1      30.882  23.847  23.810  1.00  0.00     0.027 A 
ATOM     11  C   UNL A   1      30.636  24.713  26.038  1.00  0.00     0.027 A 
ATOM     12  C   UNL A   1      30.498  25.087  23.292  1.00  0.00     0.016 A 
ATOM     13  C   UNL A   1      30.303  25.970  25.522  1.00  0.00     0.016 A 
BRANCH   9  14
ATOM     14  N   UNL A   1      31.195  22.369  25.705  1.00  0.00    -0.340 N 
ATOM     15  H   UNL A   1      30.594  22.007  26.396  1.00  0.00     0.168 HD
BRANCH  14  16
ATOM     16  C   UNL A   1      32.288  21.574  25.325  1.00  0.00     0.134 A 
ATOM     17  C   UNL A   1      34.582  21.334  24.825  1.00  0.00     0.046 A 
ATOM     18  C   UNL A   1      33.545  22.143  25.248  1.00  0.00     0.071 A 
ATOM     19  N   UNL A   1      34.393  20.041  24.500  1.00  0.00    -0.238 NA
ATOM     20  C   UNL A   1      33.137  19.567  24.577  1.00  0.00     0.133 A 
ATOM     21  N   UNL A   1      32.082  20.287  24.991  1.00  0.00    -0.216 NA
BRANCH  17  22
ATOM     22  C   UNL A   1      35.992  21.865  24.763  1.00  0.00     0.053 C 
ATOM     23  C   UNL A   1      37.038  20.792  25.034  1.00  0.00     0.011 C 
ENDBRANCH  17  22
BRANCH  20  24
ATOM     24  C   UNL A   1      32.873  18.150  24.125  1.00  0.00     0.051 C 
ATOM     25  C   UNL A   1      32.374  18.131  22.679  1.00  0.00     0.016 C 
ATOM     26  C   UNL A   1      34.114  17.275  24.290  1.00  0.00     0.016 C 
ENDBRANCH  20  24
ENDBRANCH  14  16
ENDBRANCH   9  14
ENDBRANCH   5   8
ENDBRANCH   3   4
ENDBRANCH   2   3
ENDBRANCH   1   2
BRANCH   1  27
ATOM     27  C   UNL A   1      33.565  27.372  26.195  1.00  0.00     0.002 C 
BRANCH  27  28
ATOM     28  C   UNL A   1      33.544  28.541  27.185  1.00  0.00     0.021 C 
BRANCH  28  29
ATOM     29  C   UNL A   1      34.886  29.248  27.351  1.00  0.00     0.116 C 
BRANCH  29  30
ATOM     30  N   UNL A   1      34.882  30.153  28.489  1.00  0.00    -0.352 N 
ATOM     31  C   UNL A   1      35.881  30.415  29.392  1.00  0.00     0.251 C 
ATOM     32  H   UNL A   1      34.043  30.648  28.633  1.00  0.00     0.163 HD
ATOM     33  O   UNL A   1      35.641  31.041  30.419  1.00  0.00    -0.269 OA
BRANCH  31  34
ATOM     34  C   UNL A   1      37.253  29.928  29.131  1.00  0.00     0.039 A 
ATOM     35  C   UNL A   1      37.767  30.019  27.835  1.00  0.00     0.014 A 
ATOM     36  C   UNL A   1      38.019  29.365  30.156  1.00  0.00     0.014 A 
ATOM     37  C   UNL A   1      39.071  29.591  27.578  1.00  0.00     0.010 A 
ATOM     38  C   UNL A   1      39.339  28.999  29.912  1.00  0.00     0.010 A 
ATOM     39  C   UNL A   1      39.877  29.102  28.620  1.00  0.00    -0.014 A 
BRANCH  39  40
ATOM     40  C   UNL A   1      41.278  28.679  28.373  1.00  0.00     0.031 A 
ATOM     41  C   UNL A   1      41.586  27.239  28.069  1.00  0.00     0.074 A 
ATOM     42  C   UNL A   1      42.276  29.579  28.472  1.00  0.00     0.049 A 
ATOM     43  N   UNL A   1      42.747  26.659  27.900  1.00  0.00    -0.248 NA
ATOM     44  C   UNL A   1      40.437  26.325  27.961  1.00  0.00     0.031 C 
ATOM     45  C   UNL A   1      42.109  30.998  28.792  1.00  0.00     0.029 A 
ATOM     46  N   UNL A   1      43.631  29.431  28.320  1.00  0.00    -0.354 N 
ATOM     47  C   UNL A   1      42.470  25.318  27.669  1.00  0.00     0.074 A 
ATOM     48  C   UNL A   1      41.036  25.157  27.778  1.00  0.00     0.031 C 
ATOM     49  C   UNL A   1      43.313  31.594  28.790  1.00  0.00     0.029 A 
ATOM     50  C   UNL A   1      44.338  30.595  28.506  1.00  0.00     0.049 A 
ATOM     51  H   UNL A   1      44.058  28.572  28.098  1.00  0.00     0.167 HD
ATOM     52  C   UNL A   1      43.329  24.316  27.366  1.00  0.00     0.037 A 
ATOM     53  C   UNL A   1      45.663  30.825  28.459  1.00  0.00     0.037 A 
ATOM     54  C   UNL A   1      44.753  24.479  27.241  1.00  0.00     0.049 A 
ATOM     55  C   UNL A   1      46.596  29.686  28.151  1.00  0.00     0.074 A 
ATOM     56  C   UNL A   1      45.706  23.528  26.919  1.00  0.00     0.029 A 
ATOM     57  N   UNL A   1      45.428  25.675  27.426  1.00  0.00    -0.354 N 
ATOM     58  N   UNL A   1      46.315  28.431  27.896  1.00  0.00    -0.248 NA
ATOM     59  C   UNL A   1      48.032  29.997  28.119  1.00  0.00     0.031 C 
ATOM     60  C   UNL A   1      46.962  24.143  26.939  1.00  0.00     0.029 A 
ATOM     61  C   UNL A   1      46.786  25.486  27.233  1.00  0.00     0.049 A 
ATOM     62  H   UNL A   1      45.005  26.533  27.660  1.00  0.00     0.167 HD
ATOM     63  C   UNL A   1      47.532  27.814  27.637  1.00  0.00     0.074 A 
ATOM     64  C   UNL A   1      48.552  28.834  27.756  1.00  0.00     0.031 C 
ATOM     65  C   UNL A   1      47.784  26.518  27.332  1.00  0.00     0.037 A 
BRANCH  52  66
ATOM     66  C   UNL A   1      42.744  22.954  27.128  1.00  0.00     0.057 A 
ATOM     67  C   UNL A   1      42.386  22.115  28.191  1.00  0.00     0.134 A 
ATOM     68  C   UNL A   1      42.498  22.492  25.830  1.00  0.00     0.134 A 
ATOM     69  F   UNL A   1      42.607  22.493  29.460  1.00  0.00    -0.206 F 
ATOM     70  C   UNL A   1      41.822  20.858  27.973  1.00  0.00     0.040 A 
ATOM     71  C   UNL A   1      41.910  21.247  25.598  1.00  0.00     0.040 A 
ATOM     72  F   UNL A   1      42.812  23.246  24.765  1.00  0.00    -0.206 F 
ATOM     73  C   UNL A   1      41.575  20.424  26.671  1.00  0.00     0.006 A 
ENDBRANCH  52  66
BRANCH  53  74
ATOM     74  C   UNL A   1      46.198  32.191  28.691  1.00  0.00     0.057 A 
ATOM     75  C   UNL A   1      46.521  32.627  29.982  1.00  0.00     0.134 A 
ATOM     76  C   UNL A   1      46.362  33.102  27.643  1.00  0.00     0.134 A 
ATOM     77  F   UNL A   1      46.367  31.805  31.031  1.00  0.00    -0.206 F 
ATOM     78  C   UNL A   1      46.959  33.929  30.226  1.00  0.00     0.040 A 
ATOM     79  C   UNL A   1      46.824  34.401  27.869  1.00  0.00     0.040 A 
ATOM     80  F   UNL A   1      46.077  32.745  26.382  1.00  0.00    -0.206 F 
ATOM     81  C   UNL A   1      47.112  34.820  29.166  1.00  0.00     0.006 A 
ENDBRANCH  53  74
BRANCH  65  82
ATOM     82  C   UNL A   1      49.209  26.145  27.052  1.00  0.00     0.057 A 
ATOM     83  C   UNL A   1      49.743  26.175  25.758  1.00  0.00     0.134 A 
ATOM     84  C   UNL A   1      50.067  25.782  28.099  1.00  0.00     0.134 A 
ATOM     85  F   UNL A   1      48.970  26.501  24.712  1.00  0.00    -0.206 F 
ATOM     86  C   UNL A   1      51.073  25.833  25.512  1.00  0.00     0.040 A 
ATOM     87  C   UNL A   1      51.405  25.464  27.868  1.00  0.00     0.040 A 
ATOM     88  F   UNL A   1      49.620  25.741  29.363  1.00  0.00    -0.206 F 
ATOM     89  C   UNL A   1      51.910  25.482  26.569  1.00  0.00     0.006 A 
ENDBRANCH  65  82
ENDBRANCH  39  40
ENDBRANCH  31  34
ENDBRANCH  29  30
ENDBRANCH  28  29
ENDBRANCH  27  28
ENDBRANCH   1  27
TORSDOF 17
ENDMDL
