MODEL 1
REMARK VINA RESULT:     -12.9      0.000      0.000
REMARK SMILES Cc1cccc(-n2c(C)cc(/C=N\c3ccc(O)c(C(=O)NCCCCCCNC(=O)c4ccc(-c5c6nc(c(-c7c(F)cccc7F)c7ccc([nH]7)c(-c7c(F)cccc7F)c7nc(c(-c8c(F)cccc8F)c8ccc5[nH]8)C=C7)C=C6)cc4)c3)c2C)c1
REMARK SMILES IDX 25 1 24 2 23 3 22 4 20 5 21 6 19 8 14 9 15 10 86 11 16 12
REMARK SMILES IDX 17 13 13 14 12 15 11 16 7 17 8 18 87 19 9 20 10 21 88 22
REMARK SMILES IDX 6 23 1 24 2 25 3 26 89 27 4 28 5 29 18 30 26 32 27 33 28 34
REMARK SMILES IDX 29 35 30 36 31 38 32 39 33 40 85 41 34 42 84 43 35 44 36 45
REMARK SMILES IDX 37 46 78 47 38 48 83 49 77 50 79 51 39 52 82 53 76 54 75 55
REMARK SMILES IDX 40 57 66 58 49 59 65 60 50 61 53 62 64 63 80 64 51 65 52 66
REMARK SMILES IDX 63 68 81 69 54 70 41 71 42 72 47 73 43 74 44 75 46 76 48 77
REMARK SMILES IDX 45 78 67 79 68 80 73 81 69 82 70 83 72 84 74 85 71 86 55 87
REMARK SMILES IDX 56 88 61 89 57 90 58 91 60 92 62 93 59 94
REMARK H PARENT 22 7 18 31 29 37 79 56 53 67
REMARK Flexibility Score: inf
ROOT
ATOM      1  C   UNL A   1      33.391  27.031  25.963  1.00  0.00     0.002 C 
ENDROOT
BRANCH   1   2
ATOM      2  C   UNL A   1      32.043  26.798  26.653  1.00  0.00     0.021 C 
BRANCH   2   3
ATOM      3  C   UNL A   1      31.225  25.560  26.309  1.00  0.00     0.116 C 
BRANCH   3   4
ATOM      4  N   UNL A   1      31.424  24.393  27.139  1.00  0.00    -0.352 N 
ATOM      5  C   UNL A   1      32.373  23.395  27.081  1.00  0.00     0.255 C 
ATOM      6  O   UNL A   1      32.358  22.573  28.000  1.00  0.00    -0.269 OA
ATOM      7  H   UNL A   1      30.771  24.295  27.869  1.00  0.00     0.163 HD
BRANCH   5   8
ATOM      8  C   UNL A   1      33.391  23.229  25.987  1.00  0.00     0.083 A 
ATOM      9  C   UNL A   1      33.744  23.196  23.558  1.00  0.00     0.064 A 
ATOM     10  C   UNL A   1      35.102  22.958  23.746  1.00  0.00     0.032 A 
ATOM     11  C   UNL A   1      32.935  23.462  24.675  1.00  0.00     0.046 A 
ATOM     12  C   UNL A   1      35.580  22.722  25.028  1.00  0.00     0.049 A 
ATOM     13  C   UNL A   1      34.695  22.738  26.109  1.00  0.00     0.128 A 
BRANCH   9  14
ATOM     14  N   UNL A   1      33.160  23.146  22.292  1.00  0.00    -0.256 NA
ATOM     15  C   UNL A   1      32.655  24.189  21.694  1.00  0.00     0.121 C 
BRANCH  15  16
ATOM     16  C   UNL A   1      32.548  25.594  22.106  1.00  0.00     0.014 A 
ATOM     17  N   UNL A   1      31.891  27.660  22.771  1.00  0.00    -0.318 N 
ATOM     18  C   UNL A   1      33.247  27.736  22.497  1.00  0.00     0.021 A 
ATOM     19  C   UNL A   1      31.512  26.314  22.707  1.00  0.00     0.029 A 
ATOM     20  C   UNL A   1      34.071  28.955  22.743  1.00  0.00     0.065 C 
ATOM     21  C   UNL A   1      33.654  26.495  22.054  1.00  0.00     0.033 A 
ATOM     22  C   UNL A   1      30.172  25.859  23.165  1.00  0.00     0.065 C 
BRANCH  17  23
ATOM     23  C   UNL A   1      31.025  28.772  22.995  1.00  0.00     0.046 A 
ATOM     24  C   UNL A   1      28.108  30.484  21.227  1.00  0.00     0.044 C 
ATOM     25  C   UNL A   1      29.142  30.121  22.254  1.00  0.00    -0.049 A 
ATOM     26  C   UNL A   1      29.117  30.748  23.506  1.00  0.00     0.003 A 
ATOM     27  C   UNL A   1      30.104  29.131  21.999  1.00  0.00     0.030 A 
ATOM     28  C   UNL A   1      30.063  30.425  24.476  1.00  0.00     0.002 A 
ATOM     29  C   UNL A   1      31.023  29.448  24.218  1.00  0.00     0.026 A 
ENDBRANCH  17  23
ENDBRANCH  15  16
ENDBRANCH   9  14
BRANCH  13  30
ATOM     30  O   UNL A   1      35.147  22.037  27.193  1.00  0.00    -0.507 OA
ATOM     31  H   UNL A   1      35.867  22.363  27.696  1.00  0.00     0.293 HD
ENDBRANCH  13  30
ENDBRANCH   5   8
ENDBRANCH   3   4
ENDBRANCH   2   3
ENDBRANCH   1   2
BRANCH   1  32
ATOM     32  C   UNL A   1      34.336  28.135  26.455  1.00  0.00     0.002 C 
BRANCH  32  33
ATOM     33  C   UNL A   1      33.837  29.578  26.503  1.00  0.00     0.021 C 
BRANCH  33  34
ATOM     34  C   UNL A   1      33.565  30.164  27.880  1.00  0.00     0.116 C 
BRANCH  34  35
ATOM     35  N   UNL A   1      34.336  31.350  28.226  1.00  0.00    -0.352 N 
ATOM     36  C   UNL A   1      35.661  31.437  28.623  1.00  0.00     0.251 C 
ATOM     37  H   UNL A   1      33.850  32.204  28.172  1.00  0.00     0.163 HD
ATOM     38  O   UNL A   1      36.144  32.529  28.912  1.00  0.00    -0.269 OA
BRANCH  36  39
ATOM     39  C   UNL A   1      36.535  30.236  28.571  1.00  0.00     0.039 A 
ATOM     40  C   UNL A   1      36.653  29.458  29.731  1.00  0.00     0.014 A 
ATOM     41  C   UNL A   1      37.366  29.984  27.483  1.00  0.00     0.014 A 
ATOM     42  C   UNL A   1      37.761  28.629  29.892  1.00  0.00     0.010 A 
ATOM     43  C   UNL A   1      38.516  29.244  27.675  1.00  0.00     0.010 A 
ATOM     44  C   UNL A   1      38.748  28.632  28.910  1.00  0.00    -0.014 A 
BRANCH  44  45
ATOM     45  C   UNL A   1      40.108  28.160  29.142  1.00  0.00     0.031 A 
ATOM     46  C   UNL A   1      40.528  26.809  28.720  1.00  0.00     0.074 A 
ATOM     47  C   UNL A   1      41.015  29.028  29.646  1.00  0.00     0.049 A 
ATOM     48  N   UNL A   1      41.609  26.235  29.131  1.00  0.00    -0.248 NA
ATOM     49  C   UNL A   1      39.722  25.951  27.853  1.00  0.00     0.031 C 
ATOM     50  C   UNL A   1      42.470  28.903  29.640  1.00  0.00     0.029 A 
ATOM     51  N   UNL A   1      40.765  30.123  30.489  1.00  0.00    -0.354 N 
ATOM     52  C   UNL A   1      41.802  25.121  28.355  1.00  0.00     0.074 A 
ATOM     53  C   UNL A   1      40.539  24.902  27.699  1.00  0.00     0.031 C 
ATOM     54  C   UNL A   1      42.975  29.661  30.626  1.00  0.00     0.029 A 
ATOM     55  C   UNL A   1      41.850  30.164  31.393  1.00  0.00     0.049 A 
ATOM     56  H   UNL A   1      39.994  30.734  30.456  1.00  0.00     0.167 HD
ATOM     57  C   UNL A   1      43.061  24.614  28.241  1.00  0.00     0.037 A 
ATOM     58  C   UNL A   1      41.671  29.961  32.731  1.00  0.00     0.037 A 
ATOM     59  C   UNL A   1      43.940  25.154  29.277  1.00  0.00     0.049 A 
ATOM     60  C   UNL A   1      42.457  28.799  33.295  1.00  0.00     0.074 A 
ATOM     61  C   UNL A   1      44.996  26.049  29.266  1.00  0.00     0.029 A 
ATOM     62  N   UNL A   1      43.615  24.945  30.615  1.00  0.00    -0.354 N 
ATOM     63  N   UNL A   1      42.987  27.858  32.565  1.00  0.00    -0.248 NA
ATOM     64  C   UNL A   1      42.677  28.586  34.723  1.00  0.00     0.031 C 
ATOM     65  C   UNL A   1      45.225  26.463  30.608  1.00  0.00     0.029 A 
ATOM     66  C   UNL A   1      44.348  25.779  31.433  1.00  0.00     0.049 A 
ATOM     67  H   UNL A   1      42.952  24.291  30.934  1.00  0.00     0.167 HD
ATOM     68  C   UNL A   1      43.562  26.917  33.377  1.00  0.00     0.074 A 
ATOM     69  C   UNL A   1      43.367  27.432  34.720  1.00  0.00     0.031 C 
ATOM     70  C   UNL A   1      44.129  25.781  32.874  1.00  0.00     0.037 A 
BRANCH  57  71
ATOM     71  C   UNL A   1      43.562  23.785  27.075  1.00  0.00     0.057 A 
ATOM     72  C   UNL A   1      44.194  24.410  25.981  1.00  0.00     0.134 A 
ATOM     73  C   UNL A   1      43.333  22.405  26.890  1.00  0.00     0.134 A 
ATOM     74  F   UNL A   1      44.468  25.724  25.991  1.00  0.00    -0.206 F 
ATOM     75  C   UNL A   1      44.553  23.726  24.809  1.00  0.00     0.040 A 
ATOM     76  C   UNL A   1      43.735  21.700  25.747  1.00  0.00     0.040 A 
ATOM     77  F   UNL A   1      42.646  21.665  27.768  1.00  0.00    -0.206 F 
ATOM     78  C   UNL A   1      44.336  22.362  24.692  1.00  0.00     0.006 A 
ENDBRANCH  57  71
BRANCH  58  79
ATOM     79  C   UNL A   1      40.346  30.414  33.225  1.00  0.00     0.057 A 
ATOM     80  C   UNL A   1      40.141  31.789  33.433  1.00  0.00     0.134 A 
ATOM     81  C   UNL A   1      39.208  29.609  33.123  1.00  0.00     0.134 A 
ATOM     82  F   UNL A   1      41.193  32.617  33.540  1.00  0.00    -0.206 F 
ATOM     83  C   UNL A   1      38.865  32.355  33.425  1.00  0.00     0.040 A 
ATOM     84  C   UNL A   1      37.922  30.164  33.126  1.00  0.00     0.040 A 
ATOM     85  F   UNL A   1      39.321  28.292  32.898  1.00  0.00    -0.206 F 
ATOM     86  C   UNL A   1      37.750  31.544  33.237  1.00  0.00     0.006 A 
ENDBRANCH  58  79
BRANCH  70  87
ATOM     87  C   UNL A   1      44.582  24.594  33.687  1.00  0.00     0.057 A 
ATOM     88  C   UNL A   1      43.715  23.730  34.375  1.00  0.00     0.134 A 
ATOM     89  C   UNL A   1      45.937  24.196  33.674  1.00  0.00     0.134 A 
ATOM     90  F   UNL A   1      42.389  23.922  34.377  1.00  0.00    -0.206 F 
ATOM     91  C   UNL A   1      44.170  22.589  35.051  1.00  0.00     0.040 A 
ATOM     92  C   UNL A   1      46.394  23.033  34.302  1.00  0.00     0.040 A 
ATOM     93  F   UNL A   1      46.872  24.911  33.031  1.00  0.00    -0.206 F 
ATOM     94  C   UNL A   1      45.512  22.231  35.008  1.00  0.00     0.006 A 
ENDBRANCH  70  87
ENDBRANCH  44  45
ENDBRANCH  36  39
ENDBRANCH  34  35
ENDBRANCH  33  34
ENDBRANCH  32  33
ENDBRANCH   1  32
TORSDOF 17
ENDMDL
MODEL 2
REMARK VINA RESULT:     -12.4      1.675      4.310
REMARK SMILES Cc1cccc(-n2c(C)cc(/C=N\c3ccc(O)c(C(=O)NCCCCCCNC(=O)c4ccc(-c5c6nc(c(-c7c(F)cccc7F)c7ccc([nH]7)c(-c7c(F)cccc7F)c7nc(c(-c8c(F)cccc8F)c8ccc5[nH]8)C=C7)C=C6)cc4)c3)c2C)c1
REMARK SMILES IDX 25 1 24 2 23 3 22 4 20 5 21 6 19 8 14 9 15 10 86 11 16 12
REMARK SMILES IDX 17 13 13 14 12 15 11 16 7 17 8 18 87 19 9 20 10 21 88 22
REMARK SMILES IDX 6 23 1 24 2 25 3 26 89 27 4 28 5 29 18 30 26 32 27 33 28 34
REMARK SMILES IDX 29 35 30 36 31 38 32 39 33 40 85 41 34 42 84 43 35 44 36 45
REMARK SMILES IDX 37 46 78 47 38 48 83 49 77 50 79 51 39 52 82 53 76 54 75 55
REMARK SMILES IDX 40 57 66 58 49 59 65 60 50 61 53 62 64 63 80 64 51 65 52 66
REMARK SMILES IDX 63 68 81 69 54 70 41 71 42 72 47 73 43 74 44 75 46 76 48 77
REMARK SMILES IDX 45 78 67 79 68 80 73 81 69 82 70 83 72 84 74 85 71 86 55 87
REMARK SMILES IDX 56 88 61 89 57 90 58 91 60 92 62 93 59 94
REMARK H PARENT 22 7 18 31 29 37 79 56 53 67
REMARK Flexibility Score: inf
ROOT
ATOM      1  C   UNL A   1      31.985  29.731  25.360  1.00  0.00     0.002 C 
ENDROOT
BRANCH   1   2
ATOM      2  C   UNL A   1      33.228  29.224  24.622  1.00  0.00     0.021 C 
BRANCH   2   3
ATOM      3  C   UNL A   1      33.247  29.213  23.099  1.00  0.00     0.116 C 
BRANCH   3   4
ATOM      4  N   UNL A   1      31.999  29.495  22.426  1.00  0.00    -0.352 N 
ATOM      5  C   UNL A   1      30.862  28.729  22.273  1.00  0.00     0.255 C 
ATOM      6  O   UNL A   1      29.901  29.282  21.734  1.00  0.00    -0.269 OA
ATOM      7  H   UNL A   1      31.953  30.384  22.006  1.00  0.00     0.163 HD
BRANCH   5   8
ATOM      8  C   UNL A   1      30.723  27.292  22.690  1.00  0.00     0.083 A 
ATOM      9  C   UNL A   1      30.040  25.781  24.500  1.00  0.00     0.064 A 
ATOM     10  C   UNL A   1      30.361  24.677  23.717  1.00  0.00     0.032 A 
ATOM     11  C   UNL A   1      30.097  27.064  23.931  1.00  0.00     0.046 A 
ATOM     12  C   UNL A   1      30.982  24.870  22.490  1.00  0.00     0.049 A 
ATOM     13  C   UNL A   1      31.264  26.168  22.056  1.00  0.00     0.128 A 
BRANCH   9  14
ATOM     14  N   UNL A   1      29.695  25.649  25.846  1.00  0.00    -0.256 NA
ATOM     15  C   UNL A   1      30.398  24.962  26.702  1.00  0.00     0.121 C 
BRANCH  15  16
ATOM     16  C   UNL A   1      31.641  24.193  26.552  1.00  0.00     0.014 A 
ATOM     17  N   UNL A   1      33.706  23.405  26.047  1.00  0.00    -0.318 N 
ATOM     18  C   UNL A   1      33.039  22.391  26.716  1.00  0.00     0.021 A 
ATOM     19  C   UNL A   1      32.916  24.559  26.113  1.00  0.00     0.029 A 
ATOM     20  C   UNL A   1      33.676  21.100  27.104  1.00  0.00     0.065 C 
ATOM     21  C   UNL A   1      31.766  22.843  26.996  1.00  0.00     0.033 A 
ATOM     22  C   UNL A   1      33.437  25.885  25.686  1.00  0.00     0.065 C 
BRANCH  17  23
ATOM     23  C   UNL A   1      34.941  23.265  25.346  1.00  0.00     0.046 A 
ATOM     24  C   UNL A   1      38.621  22.704  26.187  1.00  0.00     0.044 C 
ATOM     25  C   UNL A   1      37.341  22.874  25.422  1.00  0.00    -0.049 A 
ATOM     26  C   UNL A   1      37.341  22.693  24.033  1.00  0.00     0.003 A 
ATOM     27  C   UNL A   1      36.134  23.164  26.078  1.00  0.00     0.030 A 
ATOM     28  C   UNL A   1      36.164  22.841  23.302  1.00  0.00     0.002 A 
ATOM     29  C   UNL A   1      34.968  23.139  23.955  1.00  0.00     0.026 A 
ENDBRANCH  17  23
ENDBRANCH  15  16
ENDBRANCH   9  14
BRANCH  13  30
ATOM     30  O   UNL A   1      32.269  26.226  21.130  1.00  0.00    -0.507 OA
ATOM     31  H   UNL A   1      32.068  26.388  20.229  1.00  0.00     0.293 HD
ENDBRANCH  13  30
ENDBRANCH   5   8
ENDBRANCH   3   4
ENDBRANCH   2   3
ENDBRANCH   1   2
BRANCH   1  32
ATOM     32  C   UNL A   1      32.057  30.091  26.850  1.00  0.00     0.002 C 
BRANCH  32  33
ATOM     33  C   UNL A   1      33.390  29.959  27.585  1.00  0.00     0.021 C 
BRANCH  33  34
ATOM     34  C   UNL A   1      34.348  31.137  27.485  1.00  0.00     0.116 C 
BRANCH  34  35
ATOM     35  N   UNL A   1      34.720  31.759  28.749  1.00  0.00    -0.352 N 
ATOM     36  C   UNL A   1      35.671  31.349  29.668  1.00  0.00     0.251 C 
ATOM     37  H   UNL A   1      34.228  32.580  28.980  1.00  0.00     0.163 HD
ATOM     38  O   UNL A   1      35.831  31.983  30.709  1.00  0.00    -0.269 OA
BRANCH  36  39
ATOM     39  C   UNL A   1      36.591  30.228  29.342  1.00  0.00     0.039 A 
ATOM     40  C   UNL A   1      36.774  29.226  30.305  1.00  0.00     0.014 A 
ATOM     41  C   UNL A   1      37.398  30.251  28.207  1.00  0.00     0.014 A 
ATOM     42  C   UNL A   1      37.919  28.434  30.261  1.00  0.00     0.010 A 
ATOM     43  C   UNL A   1      38.581  29.540  28.212  1.00  0.00     0.010 A 
ATOM     44  C   UNL A   1      38.875  28.690  29.282  1.00  0.00    -0.014 A 
BRANCH  44  45
ATOM     45  C   UNL A   1      40.258  28.241  29.378  1.00  0.00     0.031 A 
ATOM     46  C   UNL A   1      40.666  26.915  28.875  1.00  0.00     0.074 A 
ATOM     47  C   UNL A   1      41.189  29.113  29.831  1.00  0.00     0.049 A 
ATOM     48  N   UNL A   1      41.790  26.352  29.171  1.00  0.00    -0.248 NA
ATOM     49  C   UNL A   1      39.804  26.068  28.053  1.00  0.00     0.031 C 
ATOM     50  C   UNL A   1      42.640  29.021  29.693  1.00  0.00     0.029 A 
ATOM     51  N   UNL A   1      40.993  30.174  30.729  1.00  0.00    -0.354 N 
ATOM     52  C   UNL A   1      41.936  25.268  28.343  1.00  0.00     0.074 A 
ATOM     53  C   UNL A   1      40.624  25.043  27.792  1.00  0.00     0.031 C 
ATOM     54  C   UNL A   1      43.215  29.758  30.656  1.00  0.00     0.029 A 
ATOM     55  C   UNL A   1      42.153  30.210  31.536  1.00  0.00     0.049 A 
ATOM     56  H   UNL A   1      40.210  30.768  30.784  1.00  0.00     0.167 HD
ATOM     57  C   UNL A   1      43.189  24.793  28.102  1.00  0.00     0.037 A 
ATOM     58  C   UNL A   1      42.096  29.960  32.876  1.00  0.00     0.037 A 
ATOM     59  C   UNL A   1      44.146  25.319  29.075  1.00  0.00     0.049 A 
ATOM     60  C   UNL A   1      42.951  28.798  33.329  1.00  0.00     0.074 A 
ATOM     61  C   UNL A   1      45.179  26.237  29.003  1.00  0.00     0.029 A 
ATOM     62  N   UNL A   1      43.943  25.059  30.429  1.00  0.00    -0.354 N 
ATOM     63  N   UNL A   1      43.434  27.893  32.524  1.00  0.00    -0.248 NA
ATOM     64  C   UNL A   1      43.300  28.544  34.725  1.00  0.00     0.031 C 
ATOM     65  C   UNL A   1      45.517  26.613  30.333  1.00  0.00     0.029 A 
ATOM     66  C   UNL A   1      44.729  25.883  31.207  1.00  0.00     0.049 A 
ATOM     67  H   UNL A   1      43.324  24.381  30.782  1.00  0.00     0.167 HD
ATOM     68  C   UNL A   1      44.096  26.940  33.251  1.00  0.00     0.074 A 
ATOM     69  C   UNL A   1      44.009  27.407  34.622  1.00  0.00     0.031 C 
ATOM     70  C   UNL A   1      44.638  25.833  32.662  1.00  0.00     0.037 A 
BRANCH  57  71
ATOM     71  C   UNL A   1      43.602  24.014  26.869  1.00  0.00     0.057 A 
ATOM     72  C   UNL A   1      43.483  22.609  26.845  1.00  0.00     0.134 A 
ATOM     73  C   UNL A   1      44.254  24.551  25.739  1.00  0.00     0.134 A 
ATOM     74  F   UNL A   1      42.903  21.941  27.854  1.00  0.00    -0.206 F 
ATOM     75  C   UNL A   1      43.977  21.815  25.799  1.00  0.00     0.040 A 
ATOM     76  C   UNL A   1      44.703  23.774  24.662  1.00  0.00     0.040 A 
ATOM     77  F   UNL A   1      44.560  25.849  25.633  1.00  0.00    -0.206 F 
ATOM     78  C   UNL A   1      44.579  22.396  24.694  1.00  0.00     0.006 A 
ENDBRANCH  57  71
BRANCH  58  79
ATOM     79  C   UNL A   1      40.811  30.366  33.499  1.00  0.00     0.057 A 
ATOM     80  C   UNL A   1      40.613  31.724  33.805  1.00  0.00     0.134 A 
ATOM     81  C   UNL A   1      39.674  29.555  33.439  1.00  0.00     0.134 A 
ATOM     82  F   UNL A   1      41.665  32.557  33.878  1.00  0.00    -0.206 F 
ATOM     83  C   UNL A   1      39.336  32.275  33.932  1.00  0.00     0.040 A 
ATOM     84  C   UNL A   1      38.389  30.094  33.576  1.00  0.00     0.040 A 
ATOM     85  F   UNL A   1      39.779  28.256  33.128  1.00  0.00    -0.206 F 
ATOM     86  C   UNL A   1      38.216  31.462  33.783  1.00  0.00     0.006 A 
ENDBRANCH  58  79
BRANCH  70  87
ATOM     87  C   UNL A   1      45.183  24.631  33.391  1.00  0.00     0.057 A 
ATOM     88  C   UNL A   1      44.502  23.411  33.524  1.00  0.00     0.134 A 
ATOM     89  C   UNL A   1      46.514  24.628  33.865  1.00  0.00     0.134 A 
ATOM     90  F   UNL A   1      43.274  23.235  33.019  1.00  0.00    -0.206 F 
ATOM     91  C   UNL A   1      45.078  22.290  34.139  1.00  0.00     0.040 A 
ATOM     92  C   UNL A   1      47.116  23.501  34.433  1.00  0.00     0.040 A 
ATOM     93  F   UNL A   1      47.293  25.716  33.777  1.00  0.00    -0.206 F 
ATOM     94  C   UNL A   1      46.393  22.328  34.586  1.00  0.00     0.006 A 
ENDBRANCH  70  87
ENDBRANCH  44  45
ENDBRANCH  36  39
ENDBRANCH  34  35
ENDBRANCH  33  34
ENDBRANCH  32  33
ENDBRANCH   1  32
TORSDOF 17
ENDMDL
MODEL 3
REMARK VINA RESULT:     -12.4      2.432      5.119
REMARK SMILES Cc1cccc(-n2c(C)cc(/C=N\c3ccc(O)c(C(=O)NCCCCCCNC(=O)c4ccc(-c5c6nc(c(-c7c(F)cccc7F)c7ccc([nH]7)c(-c7c(F)cccc7F)c7nc(c(-c8c(F)cccc8F)c8ccc5[nH]8)C=C7)C=C6)cc4)c3)c2C)c1
REMARK SMILES IDX 25 1 24 2 23 3 22 4 20 5 21 6 19 8 14 9 15 10 86 11 16 12
REMARK SMILES IDX 17 13 13 14 12 15 11 16 7 17 8 18 87 19 9 20 10 21 88 22
REMARK SMILES IDX 6 23 1 24 2 25 3 26 89 27 4 28 5 29 18 30 26 32 27 33 28 34
REMARK SMILES IDX 29 35 30 36 31 38 32 39 33 40 85 41 34 42 84 43 35 44 36 45
REMARK SMILES IDX 37 46 78 47 38 48 83 49 77 50 79 51 39 52 82 53 76 54 75 55
REMARK SMILES IDX 40 57 66 58 49 59 65 60 50 61 53 62 64 63 80 64 51 65 52 66
REMARK SMILES IDX 63 68 81 69 54 70 41 71 42 72 47 73 43 74 44 75 46 76 48 77
REMARK SMILES IDX 45 78 67 79 68 80 73 81 69 82 70 83 72 84 74 85 71 86 55 87
REMARK SMILES IDX 56 88 61 89 57 90 58 91 60 92 62 93 59 94
REMARK H PARENT 22 7 18 31 29 37 79 56 53 67
REMARK Flexibility Score: inf
ROOT
ATOM      1  C   UNL A   1      32.163  29.831  25.288  1.00  0.00     0.002 C 
ENDROOT
BRANCH   1   2
ATOM      2  C   UNL A   1      33.254  29.173  24.439  1.00  0.00     0.021 C 
BRANCH   2   3
ATOM      3  C   UNL A   1      33.197  29.286  22.920  1.00  0.00     0.116 C 
BRANCH   3   4
ATOM      4  N   UNL A   1      31.901  29.531  22.330  1.00  0.00    -0.352 N 
ATOM      5  C   UNL A   1      30.784  28.728  22.238  1.00  0.00     0.255 C 
ATOM      6  O   UNL A   1      29.772  29.252  21.767  1.00  0.00    -0.269 OA
ATOM      7  H   UNL A   1      31.799  30.422  21.925  1.00  0.00     0.163 HD
BRANCH   5   8
ATOM      8  C   UNL A   1      30.720  27.283  22.646  1.00  0.00     0.083 A 
ATOM      9  C   UNL A   1      30.039  25.720  24.412  1.00  0.00     0.064 A 
ATOM     10  C   UNL A   1      30.481  24.644  23.648  1.00  0.00     0.032 A 
ATOM     11  C   UNL A   1      30.040  27.006  23.848  1.00  0.00     0.046 A 
ATOM     12  C   UNL A   1      31.158  24.885  22.460  1.00  0.00     0.049 A 
ATOM     13  C   UNL A   1      31.374  26.202  22.043  1.00  0.00     0.128 A 
BRANCH   9  14
ATOM     14  N   UNL A   1      29.626  25.558  25.735  1.00  0.00    -0.256 NA
ATOM     15  C   UNL A   1      30.322  24.912  26.629  1.00  0.00     0.121 C 
BRANCH  15  16
ATOM     16  C   UNL A   1      31.617  24.226  26.549  1.00  0.00     0.014 A 
ATOM     17  N   UNL A   1      33.753  23.572  26.159  1.00  0.00    -0.318 N 
ATOM     18  C   UNL A   1      33.119  22.519  26.800  1.00  0.00     0.021 A 
ATOM     19  C   UNL A   1      32.888  24.672  26.175  1.00  0.00     0.029 A 
ATOM     20  C   UNL A   1      33.817  21.273  27.229  1.00  0.00     0.065 C 
ATOM     21  C   UNL A   1      31.807  22.888  27.009  1.00  0.00     0.033 A 
ATOM     22  C   UNL A   1      33.343  26.027  25.766  1.00  0.00     0.065 C 
BRANCH  17  23
ATOM     23  C   UNL A   1      35.029  23.509  25.524  1.00  0.00     0.046 A 
ATOM     24  C   UNL A   1      38.696  23.905  26.505  1.00  0.00     0.044 C 
ATOM     25  C   UNL A   1      37.452  23.628  25.713  1.00  0.00    -0.049 A 
ATOM     26  C   UNL A   1      37.563  23.116  24.414  1.00  0.00     0.003 A 
ATOM     27  C   UNL A   1      36.177  23.827  26.267  1.00  0.00     0.030 A 
ATOM     28  C   UNL A   1      36.423  22.847  23.661  1.00  0.00     0.002 A 
ATOM     29  C   UNL A   1      35.158  23.054  24.210  1.00  0.00     0.026 A 
ENDBRANCH  17  23
ENDBRANCH  15  16
ENDBRANCH   9  14
BRANCH  13  30
ATOM     30  O   UNL A   1      32.424  26.333  21.178  1.00  0.00    -0.507 OA
ATOM     31  H   UNL A   1      32.657  27.178  20.847  1.00  0.00     0.293 HD
ENDBRANCH  13  30
ENDBRANCH   5   8
ENDBRANCH   3   4
ENDBRANCH   2   3
ENDBRANCH   1   2
BRANCH   1  32
ATOM     32  C   UNL A   1      32.462  30.286  26.723  1.00  0.00     0.002 C 
BRANCH  32  33
ATOM     33  C   UNL A   1      33.850  30.037  27.310  1.00  0.00     0.021 C 
BRANCH  33  34
ATOM     34  C   UNL A   1      34.658  31.264  27.703  1.00  0.00     0.116 C 
BRANCH  34  35
ATOM     35  N   UNL A   1      33.887  32.409  28.166  1.00  0.00    -0.352 N 
ATOM     36  C   UNL A   1      34.194  33.310  29.173  1.00  0.00     0.251 C 
ATOM     37  H   UNL A   1      33.032  32.562  27.703  1.00  0.00     0.163 HD
ATOM     38  O   UNL A   1      33.402  34.207  29.456  1.00  0.00    -0.269 OA
BRANCH  36  39
ATOM     39  C   UNL A   1      35.533  33.281  29.818  1.00  0.00     0.039 A 
ATOM     40  C   UNL A   1      36.601  33.888  29.143  1.00  0.00     0.014 A 
ATOM     41  C   UNL A   1      35.779  32.516  30.955  1.00  0.00     0.014 A 
ATOM     42  C   UNL A   1      37.907  33.511  29.447  1.00  0.00     0.010 A 
ATOM     43  C   UNL A   1      37.062  32.064  31.193  1.00  0.00     0.010 A 
ATOM     44  C   UNL A   1      38.114  32.503  30.385  1.00  0.00    -0.014 A 
BRANCH  44  45
ATOM     45  C   UNL A   1      39.353  31.742  30.481  1.00  0.00     0.031 A 
ATOM     46  C   UNL A   1      39.504  30.442  29.798  1.00  0.00     0.074 A 
ATOM     47  C   UNL A   1      40.408  32.306  31.113  1.00  0.00     0.049 A 
ATOM     48  N   UNL A   1      40.450  29.602  30.060  1.00  0.00    -0.248 NA
ATOM     49  C   UNL A   1      38.553  29.938  28.810  1.00  0.00     0.031 C 
ATOM     50  C   UNL A   1      41.811  31.906  31.037  1.00  0.00     0.029 A 
ATOM     51  N   UNL A   1      40.371  33.246  32.155  1.00  0.00    -0.354 N 
ATOM     52  C   UNL A   1      40.427  28.642  29.081  1.00  0.00     0.074 A 
ATOM     53  C   UNL A   1      39.150  28.801  28.435  1.00  0.00     0.031 C 
ATOM     54  C   UNL A   1      42.448  32.350  32.133  1.00  0.00     0.029 A 
ATOM     55  C   UNL A   1      41.437  32.903  33.017  1.00  0.00     0.049 A 
ATOM     56  H   UNL A   1      39.734  33.989  32.262  1.00  0.00     0.167 HD
ATOM     57  C   UNL A   1      41.563  27.933  28.834  1.00  0.00     0.037 A 
ATOM     58  C   UNL A   1      41.214  32.485  34.296  1.00  0.00     0.037 A 
ATOM     59  C   UNL A   1      42.524  28.085  29.926  1.00  0.00     0.049 A 
ATOM     60  C   UNL A   1      41.754  31.108  34.606  1.00  0.00     0.074 A 
ATOM     61  C   UNL A   1      43.735  28.744  30.053  1.00  0.00     0.029 A 
ATOM     62  N   UNL A   1      42.155  27.689  31.210  1.00  0.00    -0.354 N 
ATOM     63  N   UNL A   1      42.095  30.240  33.695  1.00  0.00    -0.248 NA
ATOM     64  C   UNL A   1      41.918  30.586  35.960  1.00  0.00     0.031 C 
ATOM     65  C   UNL A   1      44.031  28.842  31.440  1.00  0.00     0.029 A 
ATOM     66  C   UNL A   1      43.032  28.194  32.148  1.00  0.00     0.049 A 
ATOM     67  H   UNL A   1      41.375  27.126  31.420  1.00  0.00     0.167 HD
ATOM     68  C   UNL A   1      42.470  29.068  34.296  1.00  0.00     0.074 A 
ATOM     69  C   UNL A   1      42.370  29.344  35.717  1.00  0.00     0.031 C 
ATOM     70  C   UNL A   1      42.807  27.962  33.570  1.00  0.00     0.037 A 
BRANCH  57  71
ATOM     71  C   UNL A   1      41.901  27.262  27.518  1.00  0.00     0.057 A 
ATOM     72  C   UNL A   1      41.844  25.858  27.402  1.00  0.00     0.134 A 
ATOM     73  C   UNL A   1      42.426  27.908  26.378  1.00  0.00     0.134 A 
ATOM     74  F   UNL A   1      41.385  25.094  28.405  1.00  0.00    -0.206 F 
ATOM     75  C   UNL A   1      42.279  25.164  26.263  1.00  0.00     0.040 A 
ATOM     76  C   UNL A   1      42.814  27.230  25.214  1.00  0.00     0.040 A 
ATOM     77  F   UNL A   1      42.663  29.224  26.341  1.00  0.00    -0.206 F 
ATOM     78  C   UNL A   1      42.756  25.850  25.156  1.00  0.00     0.006 A 
ENDBRANCH  57  71
BRANCH  58  79
ATOM     79  C   UNL A   1      39.999  33.082  34.908  1.00  0.00     0.057 A 
ATOM     80  C   UNL A   1      38.804  32.342  34.885  1.00  0.00     0.134 A 
ATOM     81  C   UNL A   1      40.076  34.140  35.818  1.00  0.00     0.134 A 
ATOM     82  F   UNL A   1      38.665  31.313  34.032  1.00  0.00    -0.206 F 
ATOM     83  C   UNL A   1      37.777  32.569  35.804  1.00  0.00     0.040 A 
ATOM     84  C   UNL A   1      39.048  34.384  36.737  1.00  0.00     0.040 A 
ATOM     85  F   UNL A   1      41.192  34.875  35.917  1.00  0.00    -0.206 F 
ATOM     86  C   UNL A   1      37.913  33.573  36.757  1.00  0.00     0.006 A 
ENDBRANCH  58  79
BRANCH  70  87
ATOM     87  C   UNL A   1      43.014  26.576  34.128  1.00  0.00     0.057 A 
ATOM     88  C   UNL A   1      42.041  25.857  34.840  1.00  0.00     0.134 A 
ATOM     89  C   UNL A   1      44.189  25.853  33.825  1.00  0.00     0.134 A 
ATOM     90  F   UNL A   1      40.835  26.378  35.100  1.00  0.00    -0.206 F 
ATOM     91  C   UNL A   1      42.245  24.539  35.271  1.00  0.00     0.040 A 
ATOM     92  C   UNL A   1      44.382  24.521  34.205  1.00  0.00     0.040 A 
ATOM     93  F   UNL A   1      45.192  26.404  33.125  1.00  0.00    -0.206 F 
ATOM     94  C   UNL A   1      43.413  23.862  34.946  1.00  0.00     0.006 A 
ENDBRANCH  70  87
ENDBRANCH  44  45
ENDBRANCH  36  39
ENDBRANCH  34  35
ENDBRANCH  33  34
ENDBRANCH  32  33
ENDBRANCH   1  32
TORSDOF 17
ENDMDL
