MODEL 1
REMARK VINA RESULT:     -12.1      0.000      0.000
REMARK SMILES COc1cccc(Cn2c(=O)c(=O)n(CC(=O)NCCCCCCNC(=O)c3ccc(-c4c5nc(c(-c6c(F)cccc6F)c6ccc([nH]6)c(-c6c(F)cccc6F)c6nc(c(-c7c(F)cccc7F)c7ccc4[nH]7)C=C6)C=C5)cc3)c3ccccc32)c1
REMARK SMILES IDX 20 1 19 2 18 3 16 4 17 5 15 7 14 8 9 9 10 10 87 11 11 12
REMARK SMILES IDX 12 13 82 14 86 15 13 16 83 17 85 18 84 19 8 20 7 21 3 22
REMARK SMILES IDX 4 23 88 24 5 25 6 26 2 27 1 28 21 29 22 30 23 31 24 32 25 33
REMARK SMILES IDX 26 34 27 36 28 37 29 38 81 39 30 40 80 41 31 42 32 43 33 44
REMARK SMILES IDX 74 45 34 46 79 47 73 48 75 49 35 50 78 51 72 52 71 53 36 55
REMARK SMILES IDX 62 56 45 57 61 58 46 59 49 60 60 61 76 62 47 63 48 64 59 66
REMARK SMILES IDX 77 67 50 68 37 69 38 70 43 71 39 72 40 73 42 74 44 75 41 76
REMARK SMILES IDX 63 77 64 78 69 79 65 80 66 81 68 82 70 83 67 84 51 85 52 86
REMARK SMILES IDX 57 87 53 88 54 89 56 90 58 91 55 92
REMARK H PARENT 18 6 25 35 75 54 49 65
REMARK Flexibility Score: inf
ROOT
ATOM      1  C   UNL A   1      33.271  20.749  26.336  1.00  0.00     0.021 C 
ENDROOT
BRANCH   1   2
ATOM      2  C   UNL A   1      32.184  21.239  25.379  1.00  0.00     0.116 C 
BRANCH   2   3
ATOM      3  N   UNL A   1      31.144  21.933  26.108  1.00  0.00    -0.355 N 
ATOM      4  C   UNL A   1      31.112  23.177  26.646  1.00  0.00     0.240 C 
ATOM      5  O   UNL A   1      30.077  23.477  27.257  1.00  0.00    -0.273 OA
ATOM      6  H   UNL A   1      30.317  21.413  26.233  1.00  0.00     0.163 HD
BRANCH   4   7
ATOM      7  C   UNL A   1      32.140  24.277  26.349  1.00  0.00     0.226 C 
BRANCH   7   8
ATOM      8  N   UNL A   1      31.986  25.376  25.404  1.00  0.00    -0.293 N 
ATOM      9  N   UNL A   1      32.039  27.683  23.771  1.00  0.00    -0.298 N 
ATOM     10  C   UNL A   1      32.384  27.775  25.106  1.00  0.00     0.317 A 
ATOM     11  C   UNL A   1      32.242  26.410  23.169  1.00  0.00     0.068 A 
ATOM     12  O   UNL A   1      33.038  28.690  25.610  1.00  0.00    -0.263 OA
ATOM     13  C   UNL A   1      31.863  26.640  25.963  1.00  0.00     0.317 A 
ATOM     14  C   UNL A   1      32.270  25.251  24.001  1.00  0.00     0.069 A 
ATOM     15  C   UNL A   1      32.586  26.301  21.813  1.00  0.00     0.028 A 
ATOM     16  O   UNL A   1      31.452  26.879  27.100  1.00  0.00    -0.263 OA
ATOM     17  C   UNL A   1      32.602  24.015  23.432  1.00  0.00     0.028 A 
ATOM     18  C   UNL A   1      32.985  25.070  21.288  1.00  0.00     0.002 A 
ATOM     19  C   UNL A   1      32.984  23.932  22.090  1.00  0.00     0.002 A 
BRANCH   9  20
ATOM     20  C   UNL A   1      31.663  28.918  23.079  1.00  0.00     0.162 C 
BRANCH  20  21
ATOM     21  C   UNL A   1      30.162  28.861  22.765  1.00  0.00    -0.024 A 
ATOM     22  C   UNL A   1      28.167  30.178  22.331  1.00  0.00     0.119 A 
ATOM     23  C   UNL A   1      27.381  29.194  22.918  1.00  0.00     0.046 A 
ATOM     24  C   UNL A   1      29.533  29.973  22.165  1.00  0.00     0.052 A 
ATOM     25  C   UNL A   1      27.966  28.008  23.355  1.00  0.00     0.004 A 
ATOM     26  C   UNL A   1      29.356  27.854  23.314  1.00  0.00     0.006 A 
BRANCH  22  27
ATOM     27  O   UNL A   1      27.619  31.426  22.215  1.00  0.00    -0.497 OA
ATOM     28  C   UNL A   1      28.109  32.164  21.106  1.00  0.00     0.278 C 
ENDBRANCH  22  27
ENDBRANCH  20  21
ENDBRANCH   9  20
ENDBRANCH   7   8
ENDBRANCH   4   7
ENDBRANCH   2   3
ENDBRANCH   1   2
BRANCH   1  29
ATOM     29  C   UNL A   1      34.629  21.428  26.101  1.00  0.00     0.002 C 
BRANCH  29  30
ATOM     30  C   UNL A   1      34.894  21.820  24.641  1.00  0.00     0.002 C 
BRANCH  30  31
ATOM     31  C   UNL A   1      36.176  22.629  24.407  1.00  0.00     0.021 C 
BRANCH  31  32
ATOM     32  C   UNL A   1      36.885  23.094  25.679  1.00  0.00     0.116 C 
BRANCH  32  33
ATOM     33  N   UNL A   1      38.016  22.240  26.007  1.00  0.00    -0.352 N 
ATOM     34  C   UNL A   1      39.289  22.573  26.390  1.00  0.00     0.251 C 
ATOM     35  H   UNL A   1      37.840  21.274  25.943  1.00  0.00     0.163 HD
ATOM     36  O   UNL A   1      40.176  21.724  26.365  1.00  0.00    -0.269 OA
BRANCH  34  37
ATOM     37  C   UNL A   1      39.604  23.941  26.852  1.00  0.00     0.039 A 
ATOM     38  C   UNL A   1      40.065  24.877  25.920  1.00  0.00     0.014 A 
ATOM     39  C   UNL A   1      39.540  24.277  28.209  1.00  0.00     0.014 A 
ATOM     40  C   UNL A   1      40.443  26.152  26.343  1.00  0.00     0.010 A 
ATOM     41  C   UNL A   1      39.864  25.567  28.623  1.00  0.00     0.010 A 
ATOM     42  C   UNL A   1      40.341  26.506  27.697  1.00  0.00    -0.014 A 
BRANCH  42  43
ATOM     43  C   UNL A   1      40.774  27.844  28.164  1.00  0.00     0.031 A 
ATOM     44  C   UNL A   1      42.231  28.213  28.151  1.00  0.00     0.074 A 
ATOM     45  C   UNL A   1      39.863  28.706  28.651  1.00  0.00     0.049 A 
ATOM     46  N   UNL A   1      42.805  29.325  28.531  1.00  0.00    -0.248 NA
ATOM     47  C   UNL A   1      43.168  27.183  27.677  1.00  0.00     0.031 C 
ATOM     48  C   UNL A   1      38.431  28.435  28.784  1.00  0.00     0.029 A 
ATOM     49  N   UNL A   1      40.011  29.979  29.137  1.00  0.00    -0.354 N 
ATOM     50  C   UNL A   1      44.169  29.122  28.365  1.00  0.00     0.074 A 
ATOM     51  C   UNL A   1      44.340  27.766  27.889  1.00  0.00     0.031 C 
ATOM     52  C   UNL A   1      37.829  29.516  29.307  1.00  0.00     0.029 A 
ATOM     53  C   UNL A   1      38.834  30.547  29.553  1.00  0.00     0.049 A 
ATOM     54  H   UNL A   1      40.879  30.441  29.184  1.00  0.00     0.167 HD
ATOM     55  C   UNL A   1      45.186  29.993  28.570  1.00  0.00     0.037 A 
ATOM     56  C   UNL A   1      38.590  31.767  30.065  1.00  0.00     0.037 A 
ATOM     57  C   UNL A   1      45.009  31.354  28.999  1.00  0.00     0.049 A 
ATOM     58  C   UNL A   1      39.720  32.744  30.210  1.00  0.00     0.074 A 
ATOM     59  C   UNL A   1      45.965  32.345  29.145  1.00  0.00     0.029 A 
ATOM     60  N   UNL A   1      43.791  31.916  29.349  1.00  0.00    -0.354 N 
ATOM     61  N   UNL A   1      40.995  32.572  29.960  1.00  0.00    -0.248 NA
ATOM     62  C   UNL A   1      39.376  34.091  30.688  1.00  0.00     0.031 C 
ATOM     63  C   UNL A   1      45.325  33.502  29.608  1.00  0.00     0.029 A 
ATOM     64  C   UNL A   1      43.970  33.237  29.723  1.00  0.00     0.049 A 
ATOM     65  H   UNL A   1      42.927  31.446  29.333  1.00  0.00     0.167 HD
ATOM     66  C   UNL A   1      41.604  33.788  30.235  1.00  0.00     0.074 A 
ATOM     67  C   UNL A   1      40.556  34.695  30.657  1.00  0.00     0.031 C 
ATOM     68  C   UNL A   1      42.915  34.122  30.144  1.00  0.00     0.037 A 
BRANCH  55  69
ATOM     69  C   UNL A   1      46.577  29.491  28.325  1.00  0.00     0.057 A 
ATOM     70  C   UNL A   1      47.202  29.627  27.078  1.00  0.00     0.134 A 
ATOM     71  C   UNL A   1      47.304  28.869  29.348  1.00  0.00     0.134 A 
ATOM     72  F   UNL A   1      46.555  30.202  26.053  1.00  0.00    -0.206 F 
ATOM     73  C   UNL A   1      48.487  29.133  26.848  1.00  0.00     0.040 A 
ATOM     74  C   UNL A   1      48.599  28.391  29.137  1.00  0.00     0.040 A 
ATOM     75  F   UNL A   1      46.765  28.710  30.566  1.00  0.00    -0.206 F 
ATOM     76  C   UNL A   1      49.190  28.516  27.881  1.00  0.00     0.006 A 
ENDBRANCH  55  69
BRANCH  56  77
ATOM     77  C   UNL A   1      37.202  32.139  30.425  1.00  0.00     0.057 A 
ATOM     78  C   UNL A   1      36.727  31.964  31.730  1.00  0.00     0.134 A 
ATOM     79  C   UNL A   1      36.336  32.716  29.490  1.00  0.00     0.134 A 
ATOM     80  F   UNL A   1      37.510  31.405  32.663  1.00  0.00    -0.206 F 
ATOM     81  C   UNL A   1      35.436  32.348  32.092  1.00  0.00     0.040 A 
ATOM     82  C   UNL A   1      35.048  33.119  29.842  1.00  0.00     0.040 A 
ATOM     83  F   UNL A   1      36.741  32.917  28.228  1.00  0.00    -0.206 F 
ATOM     84  C   UNL A   1      34.593  32.933  31.148  1.00  0.00     0.006 A 
ENDBRANCH  56  77
BRANCH  68  85
ATOM     85  C   UNL A   1      43.284  35.530  30.500  1.00  0.00     0.057 A 
ATOM     86  C   UNL A   1      43.625  35.888  31.809  1.00  0.00     0.134 A 
ATOM     87  C   UNL A   1      43.338  36.525  29.516  1.00  0.00     0.134 A 
ATOM     88  F   UNL A   1      43.581  34.980  32.796  1.00  0.00    -0.206 F 
ATOM     89  C   UNL A   1      43.994  37.194  32.133  1.00  0.00     0.040 A 
ATOM     90  C   UNL A   1      43.723  37.830  29.824  1.00  0.00     0.040 A 
ATOM     91  F   UNL A   1      43.028  36.243  28.243  1.00  0.00    -0.206 F 
ATOM     92  C   UNL A   1      44.049  38.169  31.136  1.00  0.00     0.006 A 
ENDBRANCH  68  85
ENDBRANCH  42  43
ENDBRANCH  34  37
ENDBRANCH  32  33
ENDBRANCH  31  32
ENDBRANCH  30  31
ENDBRANCH  29  30
ENDBRANCH   1  29
TORSDOF 17
ENDMDL
MODEL 2
REMARK VINA RESULT:     -11.9      4.635      9.457
REMARK SMILES COc1cccc(Cn2c(=O)c(=O)n(CC(=O)NCCCCCCNC(=O)c3ccc(-c4c5nc(c(-c6c(F)cccc6F)c6ccc([nH]6)c(-c6c(F)cccc6F)c6nc(c(-c7c(F)cccc7F)c7ccc4[nH]7)C=C6)C=C5)cc3)c3ccccc32)c1
REMARK SMILES IDX 20 1 19 2 18 3 16 4 17 5 15 7 14 8 9 9 10 10 87 11 11 12
REMARK SMILES IDX 12 13 82 14 86 15 13 16 83 17 85 18 84 19 8 20 7 21 3 22
REMARK SMILES IDX 4 23 88 24 5 25 6 26 2 27 1 28 21 29 22 30 23 31 24 32 25 33
REMARK SMILES IDX 26 34 27 36 28 37 29 38 81 39 30 40 80 41 31 42 32 43 33 44
REMARK SMILES IDX 74 45 34 46 79 47 73 48 75 49 35 50 78 51 72 52 71 53 36 55
REMARK SMILES IDX 62 56 45 57 61 58 46 59 49 60 60 61 76 62 47 63 48 64 59 66
REMARK SMILES IDX 77 67 50 68 37 69 38 70 43 71 39 72 40 73 42 74 44 75 41 76
REMARK SMILES IDX 63 77 64 78 69 79 65 80 66 81 68 82 70 83 67 84 51 85 52 86
REMARK SMILES IDX 57 87 53 88 54 89 56 90 58 91 55 92
REMARK H PARENT 18 6 25 35 75 54 49 65
REMARK Flexibility Score: inf
ROOT
ATOM      1  C   UNL A   1      35.803  31.935  28.046  1.00  0.00     0.021 C 
ENDROOT
BRANCH   1   2
ATOM      2  C   UNL A   1      35.167  30.612  27.620  1.00  0.00     0.116 C 
BRANCH   2   3
ATOM      3  N   UNL A   1      33.724  30.703  27.674  1.00  0.00    -0.355 N 
ATOM      4  C   UNL A   1      32.776  30.376  26.761  1.00  0.00     0.240 C 
ATOM      5  O   UNL A   1      31.604  30.612  27.087  1.00  0.00    -0.273 OA
ATOM      6  H   UNL A   1      33.369  31.063  28.519  1.00  0.00     0.163 HD
BRANCH   4   7
ATOM      7  C   UNL A   1      33.038  29.542  25.499  1.00  0.00     0.226 C 
BRANCH   7   8
ATOM      8  N   UNL A   1      32.318  28.344  25.087  1.00  0.00    -0.293 N 
ATOM      9  N   UNL A   1      30.831  25.969  24.718  1.00  0.00    -0.298 N 
ATOM     10  C   UNL A   1      31.611  26.124  25.848  1.00  0.00     0.317 A 
ATOM     11  C   UNL A   1      30.362  27.173  24.122  1.00  0.00     0.068 A 
ATOM     12  O   UNL A   1      31.486  25.483  26.893  1.00  0.00    -0.263 OA
ATOM     13  C   UNL A   1      32.703  27.165  25.710  1.00  0.00     0.317 A 
ATOM     14  C   UNL A   1      31.083  28.382  24.355  1.00  0.00     0.069 A 
ATOM     15  C   UNL A   1      29.122  27.217  23.467  1.00  0.00     0.028 A 
ATOM     16  O   UNL A   1      33.809  26.953  26.213  1.00  0.00    -0.263 OA
ATOM     17  C   UNL A   1      30.553  29.590  23.884  1.00  0.00     0.028 A 
ATOM     18  C   UNL A   1      28.581  28.443  23.073  1.00  0.00     0.002 A 
ATOM     19  C   UNL A   1      29.296  29.621  23.271  1.00  0.00     0.002 A 
BRANCH   9  20
ATOM     20  C   UNL A   1      30.433  24.608  24.348  1.00  0.00     0.162 C 
BRANCH  20  21
ATOM     21  C   UNL A   1      31.657  23.884  23.771  1.00  0.00    -0.024 A 
ATOM     22  C   UNL A   1      33.527  22.419  24.277  1.00  0.00     0.119 A 
ATOM     23  C   UNL A   1      34.287  23.037  23.293  1.00  0.00     0.046 A 
ATOM     24  C   UNL A   1      32.191  22.768  24.449  1.00  0.00     0.052 A 
ATOM     25  C   UNL A   1      33.715  24.022  22.490  1.00  0.00     0.004 A 
ATOM     26  C   UNL A   1      32.416  24.471  22.749  1.00  0.00     0.006 A 
BRANCH  22  27
ATOM     27  O   UNL A   1      34.201  21.708  25.232  1.00  0.00    -0.497 OA
ATOM     28  C   UNL A   1      34.328  20.326  24.933  1.00  0.00     0.278 C 
ENDBRANCH  22  27
ENDBRANCH  20  21
ENDBRANCH   9  20
ENDBRANCH   7   8
ENDBRANCH   4   7
ENDBRANCH   2   3
ENDBRANCH   1   2
BRANCH   1  29
ATOM     29  C   UNL A   1      34.803  32.900  28.700  1.00  0.00     0.002 C 
BRANCH  29  30
ATOM     30  C   UNL A   1      35.213  34.377  28.630  1.00  0.00     0.002 C 
BRANCH  30  31
ATOM     31  C   UNL A   1      34.077  35.380  28.867  1.00  0.00     0.021 C 
BRANCH  31  32
ATOM     32  C   UNL A   1      32.865  34.816  29.610  1.00  0.00     0.116 C 
BRANCH  32  33
ATOM     33  N   UNL A   1      32.455  35.682  30.704  1.00  0.00    -0.352 N 
ATOM     34  C   UNL A   1      32.850  35.689  32.017  1.00  0.00     0.251 C 
ATOM     35  H   UNL A   1      31.790  36.367  30.466  1.00  0.00     0.163 HD
ATOM     36  O   UNL A   1      32.198  36.318  32.846  1.00  0.00    -0.269 OA
BRANCH  34  37
ATOM     37  C   UNL A   1      34.065  34.963  32.443  1.00  0.00     0.039 A 
ATOM     38  C   UNL A   1      35.311  35.575  32.269  1.00  0.00     0.014 A 
ATOM     39  C   UNL A   1      33.990  33.651  32.922  1.00  0.00     0.014 A 
ATOM     40  C   UNL A   1      36.478  34.881  32.591  1.00  0.00     0.010 A 
ATOM     41  C   UNL A   1      35.151  32.979  33.296  1.00  0.00     0.010 A 
ATOM     42  C   UNL A   1      36.404  33.579  33.111  1.00  0.00    -0.014 A 
BRANCH  42  43
ATOM     43  C   UNL A   1      37.638  32.818  33.421  1.00  0.00     0.031 A 
ATOM     44  C   UNL A   1      38.398  33.096  34.688  1.00  0.00     0.074 A 
ATOM     45  C   UNL A   1      38.103  31.917  32.538  1.00  0.00     0.049 A 
ATOM     46  N   UNL A   1      39.501  32.547  35.127  1.00  0.00    -0.248 NA
ATOM     47  C   UNL A   1      37.863  34.152  35.560  1.00  0.00     0.031 C 
ATOM     48  C   UNL A   1      37.495  31.613  31.242  1.00  0.00     0.029 A 
ATOM     49  N   UNL A   1      39.204  31.102  32.592  1.00  0.00    -0.354 N 
ATOM     50  C   UNL A   1      39.805  33.205  36.311  1.00  0.00     0.074 A 
ATOM     51  C   UNL A   1      38.793  34.222  36.502  1.00  0.00     0.031 C 
ATOM     52  C   UNL A   1      38.225  30.669  30.627  1.00  0.00     0.029 A 
ATOM     53  C   UNL A   1      39.354  30.311  31.482  1.00  0.00     0.049 A 
ATOM     54  H   UNL A   1      39.826  31.086  33.354  1.00  0.00     0.167 HD
ATOM     55  C   UNL A   1      40.822  32.969  37.174  1.00  0.00     0.037 A 
ATOM     56  C   UNL A   1      40.292  29.390  31.191  1.00  0.00     0.037 A 
ATOM     57  C   UNL A   1      41.799  31.927  37.005  1.00  0.00     0.049 A 
ATOM     58  C   UNL A   1      41.365  29.090  32.195  1.00  0.00     0.074 A 
ATOM     59  C   UNL A   1      42.812  31.544  37.867  1.00  0.00     0.029 A 
ATOM     60  N   UNL A   1      41.881  31.099  35.896  1.00  0.00    -0.354 N 
ATOM     61  N   UNL A   1      41.589  29.654  33.357  1.00  0.00    -0.248 NA
ATOM     62  C   UNL A   1      42.306  28.011  31.859  1.00  0.00     0.031 C 
ATOM     63  C   UNL A   1      43.524  30.499  37.266  1.00  0.00     0.029 A 
ATOM     64  C   UNL A   1      42.936  30.215  36.044  1.00  0.00     0.049 A 
ATOM     65  H   UNL A   1      41.279  31.135  35.119  1.00  0.00     0.167 HD
ATOM     66  C   UNL A   1      42.681  28.993  33.898  1.00  0.00     0.074 A 
ATOM     67  C   UNL A   1      43.069  27.974  32.943  1.00  0.00     0.031 C 
ATOM     68  C   UNL A   1      43.307  29.210  35.080  1.00  0.00     0.037 A 
BRANCH  55  69
ATOM     69  C   UNL A   1      40.918  33.857  38.378  1.00  0.00     0.057 A 
ATOM     70  C   UNL A   1      40.195  33.594  39.549  1.00  0.00     0.134 A 
ATOM     71  C   UNL A   1      41.748  34.985  38.370  1.00  0.00     0.134 A 
ATOM     72  F   UNL A   1      39.373  32.536  39.616  1.00  0.00    -0.206 F 
ATOM     73  C   UNL A   1      40.267  34.439  40.657  1.00  0.00     0.040 A 
ATOM     74  C   UNL A   1      41.847  35.826  39.481  1.00  0.00     0.040 A 
ATOM     75  F   UNL A   1      42.470  35.292  37.282  1.00  0.00    -0.206 F 
ATOM     76  C   UNL A   1      41.099  35.557  40.626  1.00  0.00     0.006 A 
ENDBRANCH  55  69
BRANCH  56  77
ATOM     77  C   UNL A   1      40.214  28.656  29.907  1.00  0.00     0.057 A 
ATOM     78  C   UNL A   1      39.443  27.494  29.789  1.00  0.00     0.134 A 
ATOM     79  C   UNL A   1      40.868  29.120  28.761  1.00  0.00     0.134 A 
ATOM     80  F   UNL A   1      38.804  26.997  30.858  1.00  0.00    -0.206 F 
ATOM     81  C   UNL A   1      39.328  26.817  28.575  1.00  0.00     0.040 A 
ATOM     82  C   UNL A   1      40.749  28.462  27.537  1.00  0.00     0.040 A 
ATOM     83  F   UNL A   1      41.612  30.234  28.811  1.00  0.00    -0.206 F 
ATOM     84  C   UNL A   1      39.977  27.303  27.442  1.00  0.00     0.006 A 
ENDBRANCH  56  77
BRANCH  68  85
ATOM     85  C   UNL A   1      44.469  28.323  35.409  1.00  0.00     0.057 A 
ATOM     86  C   UNL A   1      45.777  28.668  35.050  1.00  0.00     0.134 A 
ATOM     87  C   UNL A   1      44.281  27.135  36.125  1.00  0.00     0.134 A 
ATOM     88  F   UNL A   1      46.018  29.788  34.353  1.00  0.00    -0.206 F 
ATOM     89  C   UNL A   1      46.860  27.852  35.380  1.00  0.00     0.040 A 
ATOM     90  C   UNL A   1      45.358  26.321  36.477  1.00  0.00     0.040 A 
ATOM     91  F   UNL A   1      43.052  26.754  36.503  1.00  0.00    -0.206 F 
ATOM     92  C   UNL A   1      46.652  26.677  36.101  1.00  0.00     0.006 A 
ENDBRANCH  68  85
ENDBRANCH  42  43
ENDBRANCH  34  37
ENDBRANCH  32  33
ENDBRANCH  31  32
ENDBRANCH  30  31
ENDBRANCH  29  30
ENDBRANCH   1  29
TORSDOF 17
ENDMDL
MODEL 3
REMARK VINA RESULT:     -11.9      3.203      5.558
REMARK SMILES COc1cccc(Cn2c(=O)c(=O)n(CC(=O)NCCCCCCNC(=O)c3ccc(-c4c5nc(c(-c6c(F)cccc6F)c6ccc([nH]6)c(-c6c(F)cccc6F)c6nc(c(-c7c(F)cccc7F)c7ccc4[nH]7)C=C6)C=C5)cc3)c3ccccc32)c1
REMARK SMILES IDX 20 1 19 2 18 3 16 4 17 5 15 7 14 8 9 9 10 10 87 11 11 12
REMARK SMILES IDX 12 13 82 14 86 15 13 16 83 17 85 18 84 19 8 20 7 21 3 22
REMARK SMILES IDX 4 23 88 24 5 25 6 26 2 27 1 28 21 29 22 30 23 31 24 32 25 33
REMARK SMILES IDX 26 34 27 36 28 37 29 38 81 39 30 40 80 41 31 42 32 43 33 44
REMARK SMILES IDX 74 45 34 46 79 47 73 48 75 49 35 50 78 51 72 52 71 53 36 55
REMARK SMILES IDX 62 56 45 57 61 58 46 59 49 60 60 61 76 62 47 63 48 64 59 66
REMARK SMILES IDX 77 67 50 68 37 69 38 70 43 71 39 72 40 73 42 74 44 75 41 76
REMARK SMILES IDX 63 77 64 78 69 79 65 80 66 81 68 82 70 83 67 84 51 85 52 86
REMARK SMILES IDX 57 87 53 88 54 89 56 90 58 91 55 92
REMARK H PARENT 18 6 25 35 75 54 49 65
REMARK Flexibility Score: inf
ROOT
ATOM      1  C   UNL A   1      40.095  23.104  27.246  1.00  0.00     0.021 C 
ENDROOT
BRANCH   1   2
ATOM      2  C   UNL A   1      38.850  23.298  26.381  1.00  0.00     0.116 C 
BRANCH   2   3
ATOM      3  N   UNL A   1      38.685  22.182  25.474  1.00  0.00    -0.355 N 
ATOM      4  C   UNL A   1      37.663  21.304  25.319  1.00  0.00     0.240 C 
ATOM      5  O   UNL A   1      37.835  20.416  24.472  1.00  0.00    -0.273 OA
ATOM      6  H   UNL A   1      39.444  22.036  24.865  1.00  0.00     0.163 HD
BRANCH   4   7
ATOM      7  C   UNL A   1      36.266  21.481  25.931  1.00  0.00     0.226 C 
BRANCH   7   8
ATOM      8  N   UNL A   1      35.040  21.804  25.212  1.00  0.00    -0.293 N 
ATOM      9  N   UNL A   1      32.928  22.571  23.497  1.00  0.00    -0.298 N 
ATOM     10  C   UNL A   1      34.094  23.313  23.528  1.00  0.00     0.317 A 
ATOM     11  C   UNL A   1      33.060  21.200  23.854  1.00  0.00     0.068 A 
ATOM     12  O   UNL A   1      34.466  24.094  22.650  1.00  0.00    -0.263 OA
ATOM     13  C   UNL A   1      34.920  23.118  24.784  1.00  0.00     0.317 A 
ATOM     14  C   UNL A   1      34.158  20.805  24.676  1.00  0.00     0.069 A 
ATOM     15  C   UNL A   1      32.238  20.223  23.274  1.00  0.00     0.028 A 
ATOM     16  O   UNL A   1      35.489  24.088  25.290  1.00  0.00    -0.263 OA
ATOM     17  C   UNL A   1      34.367  19.442  24.919  1.00  0.00     0.028 A 
ATOM     18  C   UNL A   1      32.513  18.868  23.472  1.00  0.00     0.002 A 
ATOM     19  C   UNL A   1      33.566  18.480  24.297  1.00  0.00     0.002 A 
BRANCH   9  20
ATOM     20  C   UNL A   1      31.730  23.212  22.951  1.00  0.00     0.162 C 
BRANCH  20  21
ATOM     21  C   UNL A   1      31.250  24.275  23.949  1.00  0.00    -0.024 A 
ATOM     22  C   UNL A   1      30.172  24.651  26.093  1.00  0.00     0.119 A 
ATOM     23  C   UNL A   1      29.630  25.839  25.621  1.00  0.00     0.046 A 
ATOM     24  C   UNL A   1      31.055  23.924  25.301  1.00  0.00     0.052 A 
ATOM     25  C   UNL A   1      29.959  26.293  24.345  1.00  0.00     0.004 A 
ATOM     26  C   UNL A   1      30.737  25.498  23.496  1.00  0.00     0.006 A 
BRANCH  22  27
ATOM     27  O   UNL A   1      29.585  24.092  27.195  1.00  0.00    -0.497 OA
ATOM     28  C   UNL A   1      29.596  22.674  27.191  1.00  0.00     0.278 C 
ENDBRANCH  22  27
ENDBRANCH  20  21
ENDBRANCH   9  20
ENDBRANCH   7   8
ENDBRANCH   4   7
ENDBRANCH   2   3
ENDBRANCH   1   2
BRANCH   1  29
ATOM     29  C   UNL A   1      41.046  22.029  26.700  1.00  0.00     0.002 C 
BRANCH  29  30
ATOM     30  C   UNL A   1      41.465  20.974  27.733  1.00  0.00     0.002 C 
BRANCH  30  31
ATOM     31  C   UNL A   1      41.891  19.622  27.146  1.00  0.00     0.021 C 
BRANCH  31  32
ATOM     32  C   UNL A   1      41.901  19.557  25.619  1.00  0.00     0.116 C 
BRANCH  32  33
ATOM     33  N   UNL A   1      43.195  19.134  25.107  1.00  0.00    -0.352 N 
ATOM     34  C   UNL A   1      44.297  19.877  24.775  1.00  0.00     0.251 C 
ATOM     35  H   UNL A   1      43.294  18.163  24.978  1.00  0.00     0.163 HD
ATOM     36  O   UNL A   1      45.198  19.370  24.112  1.00  0.00    -0.269 OA
BRANCH  34  37
ATOM     37  C   UNL A   1      44.424  21.280  25.224  1.00  0.00     0.039 A 
ATOM     38  C   UNL A   1      44.200  22.305  24.298  1.00  0.00     0.014 A 
ATOM     39  C   UNL A   1      44.852  21.587  26.519  1.00  0.00     0.014 A 
ATOM     40  C   UNL A   1      44.388  23.635  24.675  1.00  0.00     0.010 A 
ATOM     41  C   UNL A   1      44.986  22.916  26.912  1.00  0.00     0.010 A 
ATOM     42  C   UNL A   1      44.778  23.949  25.986  1.00  0.00    -0.014 A 
BRANCH  42  43
ATOM     43  C   UNL A   1      45.018  25.356  26.388  1.00  0.00     0.031 A 
ATOM     44  C   UNL A   1      46.401  25.938  26.311  1.00  0.00     0.074 A 
ATOM     45  C   UNL A   1      44.001  26.091  26.873  1.00  0.00     0.049 A 
ATOM     46  N   UNL A   1      46.811  27.139  26.629  1.00  0.00    -0.248 NA
ATOM     47  C   UNL A   1      47.470  25.041  25.844  1.00  0.00     0.031 C 
ATOM     48  C   UNL A   1      42.631  25.615  27.065  1.00  0.00     0.029 A 
ATOM     49  N   UNL A   1      43.969  27.391  27.306  1.00  0.00    -0.354 N 
ATOM     50  C   UNL A   1      48.185  27.136  26.425  1.00  0.00     0.074 A 
ATOM     51  C   UNL A   1      48.545  25.801  25.994  1.00  0.00     0.031 C 
ATOM     52  C   UNL A   1      41.887  26.613  27.568  1.00  0.00     0.029 A 
ATOM     53  C   UNL A   1      42.731  27.793  27.741  1.00  0.00     0.049 A 
ATOM     54  H   UNL A   1      44.757  27.980  27.306  1.00  0.00     0.167 HD
ATOM     55  C   UNL A   1      49.063  28.157  26.562  1.00  0.00     0.037 A 
ATOM     56  C   UNL A   1      42.320  28.984  28.214  1.00  0.00     0.037 A 
ATOM     57  C   UNL A   1      48.695  29.493  26.945  1.00  0.00     0.049 A 
ATOM     58  C   UNL A   1      43.293  30.124  28.284  1.00  0.00     0.074 A 
ATOM     59  C   UNL A   1      49.494  30.621  27.021  1.00  0.00     0.029 A 
ATOM     60  N   UNL A   1      47.417  29.880  27.316  1.00  0.00    -0.354 N 
ATOM     61  N   UNL A   1      44.572  30.134  27.998  1.00  0.00    -0.248 NA
ATOM     62  C   UNL A   1      42.763  31.422  28.723  1.00  0.00     0.031 C 
ATOM     63  C   UNL A   1      48.700  31.688  27.463  1.00  0.00     0.029 A 
ATOM     64  C   UNL A   1      47.405  31.228  27.634  1.00  0.00     0.049 A 
ATOM     65  H   UNL A   1      46.634  29.286  27.347  1.00  0.00     0.167 HD
ATOM     66  C   UNL A   1      44.998  31.438  28.205  1.00  0.00     0.074 A 
ATOM     67  C   UNL A   1      43.837  32.195  28.630  1.00  0.00     0.031 C 
ATOM     68  C   UNL A   1      46.239  31.962  28.057  1.00  0.00     0.037 A 
BRANCH  55  69
ATOM     69  C   UNL A   1      50.507  27.859  26.288  1.00  0.00     0.057 A 
ATOM     70  C   UNL A   1      51.040  27.915  24.993  1.00  0.00     0.134 A 
ATOM     71  C   UNL A   1      51.377  27.518  27.331  1.00  0.00     0.134 A 
ATOM     72  F   UNL A   1      50.256  28.222  23.950  1.00  0.00    -0.206 F 
ATOM     73  C   UNL A   1      52.378  27.610  24.741  1.00  0.00     0.040 A 
ATOM     74  C   UNL A   1      52.724  27.233  27.095  1.00  0.00     0.040 A 
ATOM     75  F   UNL A   1      50.932  27.450  28.595  1.00  0.00    -0.206 F 
ATOM     76  C   UNL A   1      53.225  27.272  25.795  1.00  0.00     0.006 A 
ENDBRANCH  55  69
BRANCH  56  77
ATOM     77  C   UNL A   1      40.903  29.158  28.608  1.00  0.00     0.057 A 
ATOM     78  C   UNL A   1      39.900  29.296  27.641  1.00  0.00     0.134 A 
ATOM     79  C   UNL A   1      40.512  29.144  29.951  1.00  0.00     0.134 A 
ATOM     80  F   UNL A   1      40.219  29.328  26.339  1.00  0.00    -0.206 F 
ATOM     81  C   UNL A   1      38.557  29.419  27.997  1.00  0.00     0.040 A 
ATOM     82  C   UNL A   1      39.171  29.251  30.321  1.00  0.00     0.040 A 
ATOM     83  F   UNL A   1      41.428  29.004  30.920  1.00  0.00    -0.206 F 
ATOM     84  C   UNL A   1      38.188  29.391  29.341  1.00  0.00     0.006 A 
ENDBRANCH  56  77
BRANCH  68  85
ATOM     85  C   UNL A   1      46.402  33.422  28.348  1.00  0.00     0.057 A 
ATOM     86  C   UNL A   1      46.711  33.883  29.632  1.00  0.00     0.134 A 
ATOM     87  C   UNL A   1      46.288  34.371  27.325  1.00  0.00     0.134 A 
ATOM     88  F   UNL A   1      46.821  33.022  30.655  1.00  0.00    -0.206 F 
ATOM     89  C   UNL A   1      46.887  35.242  29.895  1.00  0.00     0.040 A 
ATOM     90  C   UNL A   1      46.479  35.731  27.571  1.00  0.00     0.040 A 
ATOM     91  F   UNL A   1      45.999  33.992  26.071  1.00  0.00    -0.206 F 
ATOM     92  C   UNL A   1      46.777  36.170  28.860  1.00  0.00     0.006 A 
ENDBRANCH  68  85
ENDBRANCH  42  43
ENDBRANCH  34  37
ENDBRANCH  32  33
ENDBRANCH  31  32
ENDBRANCH  30  31
ENDBRANCH  29  30
ENDBRANCH   1  29
TORSDOF 17
ENDMDL
