MODEL 1
REMARK VINA RESULT:     -12.0      0.000      0.000
REMARK SMILES COc1ccc(C[NH2+]Cc2cccn2-c2sc(C)c(C)c2C(=O)NCCCCCCNC(=O)c2ccc(-c3c4nc(c(-c5c(F)cccc5F)c5ccc([nH]5)c(-c5c(F)cccc5F)c5nc(c(-c6c(F)cccc6F)c6ccc3[nH]6)C=C5)C=C4)cc2)cc1
REMARK SMILES IDX 25 1 24 2 22 3 23 4 21 6 15 7 16 8 17 9 19 10 18 11 20 12
REMARK SMILES IDX 14 13 10 14 11 15 12 16 13 17 9 18 8 19 7 22 6 23 3 24 4 25
REMARK SMILES IDX 89 26 5 27 88 28 2 29 1 30 26 31 27 32 28 33 29 34 30 35
REMARK SMILES IDX 31 36 32 37 33 39 34 40 35 41 87 42 36 43 86 44 37 45 38 46
REMARK SMILES IDX 39 47 80 48 40 49 85 50 79 51 81 52 41 53 84 54 78 55 77 56
REMARK SMILES IDX 42 58 68 59 51 60 67 61 52 62 55 63 66 64 82 65 53 66 54 67
REMARK SMILES IDX 65 69 83 70 56 71 43 72 44 73 49 74 45 75 46 76 48 77 50 78
REMARK SMILES IDX 47 79 69 80 70 81 75 82 71 83 72 84 74 85 76 86 73 87 57 88
REMARK SMILES IDX 58 89 63 90 59 91 60 92 62 93 64 94 61 95
REMARK H PARENT 24 5 8 20 8 21 31 38 81 57 55 68
REMARK Flexibility Score: inf
ROOT
ATOM      1  C   UNL A   1      33.455  27.101  22.853  1.00  0.00     0.116 C 
ENDROOT
BRANCH   1   2
ATOM      2  N   UNL A   1      33.590  25.937  22.040  1.00  0.00    -0.352 N 
ATOM      3  C   UNL A   1      33.809  24.623  22.404  1.00  0.00     0.254 C 
ATOM      4  O   UNL A   1      33.680  23.826  21.471  1.00  0.00    -0.269 OA
ATOM      5  H   UNL A   1      33.515  26.093  21.071  1.00  0.00     0.163 HD
BRANCH   3   6
ATOM      6  C   UNL A   1      34.241  24.138  23.753  1.00  0.00     0.078 A 
ATOM      7  C   UNL A   1      33.704  24.304  25.026  1.00  0.00     0.113 A 
ATOM      8  S   UNL A   1      34.563  23.538  26.278  1.00  0.00    -0.122 S 
ATOM      9  C   UNL A   1      35.714  22.912  25.206  1.00  0.00     0.007 A 
ATOM     10  C   UNL A   1      35.473  23.309  23.898  1.00  0.00    -0.022 A 
ATOM     11  C   UNL A   1      36.807  22.038  25.736  1.00  0.00     0.057 C 
ATOM     12  C   UNL A   1      36.373  22.919  22.755  1.00  0.00     0.046 C 
BRANCH   7  13
ATOM     13  N   UNL A   1      32.481  24.817  25.465  1.00  0.00    -0.306 N 
ATOM     14  C   UNL A   1      31.184  24.429  25.086  1.00  0.00     0.078 A 
ATOM     15  C   UNL A   1      30.294  25.242  25.776  1.00  0.00     0.029 A 
ATOM     16  C   UNL A   1      31.033  26.119  26.596  1.00  0.00     0.020 A 
ATOM     17  C   UNL A   1      32.363  25.839  26.393  1.00  0.00     0.092 A 
BRANCH  14  18
ATOM     18  C   UNL A   1      30.873  23.325  24.107  1.00  0.00     0.316 C 
BRANCH  18  19
ATOM     19  N   UNL A   1      31.552  22.052  24.368  1.00  0.00    -0.338 N 
ATOM     20  H   UNL A   1      32.295  22.224  25.044  1.00  0.00     0.346 HD
ATOM     21  H   UNL A   1      30.834  21.412  24.707  1.00  0.00     0.346 HD
BRANCH  19  22
ATOM     22  C   UNL A   1      32.143  21.416  23.200  1.00  0.00     0.297 C 
BRANCH  22  23
ATOM     23  C   UNL A   1      32.547  19.975  23.462  1.00  0.00     0.006 A 
ATOM     24  C   UNL A   1      33.482  17.326  23.810  1.00  0.00     0.118 A 
ATOM     25  C   UNL A   1      33.774  18.312  24.752  1.00  0.00     0.047 A 
ATOM     26  C   UNL A   1      32.650  17.635  22.744  1.00  0.00     0.047 A 
ATOM     27  C   UNL A   1      33.313  19.627  24.580  1.00  0.00     0.013 A 
ATOM     28  C   UNL A   1      32.198  18.948  22.575  1.00  0.00     0.013 A 
BRANCH  24  29
ATOM     29  O   UNL A   1      34.019  16.087  24.027  1.00  0.00    -0.497 OA
ATOM     30  C   UNL A   1      34.986  16.039  25.077  1.00  0.00     0.278 C 
ENDBRANCH  24  29
ENDBRANCH  22  23
ENDBRANCH  19  22
ENDBRANCH  18  19
ENDBRANCH  14  18
ENDBRANCH   7  13
ENDBRANCH   3   6
ENDBRANCH   1   2
BRANCH   1  31
ATOM     31  C   UNL A   1      32.083  27.710  23.051  1.00  0.00     0.021 C 
BRANCH  31  32
ATOM     32  C   UNL A   1      31.880  28.730  24.163  1.00  0.00     0.002 C 
BRANCH  32  33
ATOM     33  C   UNL A   1      33.139  29.313  24.819  1.00  0.00     0.002 C 
BRANCH  33  34
ATOM     34  C   UNL A   1      33.302  29.164  26.341  1.00  0.00     0.021 C 
BRANCH  34  35
ATOM     35  C   UNL A   1      34.737  29.115  26.882  1.00  0.00     0.116 C 
BRANCH  35  36
ATOM     36  N   UNL A   1      35.236  30.422  27.263  1.00  0.00    -0.352 N 
ATOM     37  C   UNL A   1      36.316  30.801  28.025  1.00  0.00     0.251 C 
ATOM     38  H   UNL A   1      34.707  31.174  26.911  1.00  0.00     0.163 HD
ATOM     39  O   UNL A   1      36.343  31.952  28.448  1.00  0.00    -0.269 OA
BRANCH  37  40
ATOM     40  C   UNL A   1      37.452  29.898  28.356  1.00  0.00     0.039 A 
ATOM     41  C   UNL A   1      38.542  29.867  27.471  1.00  0.00     0.014 A 
ATOM     42  C   UNL A   1      37.430  29.000  29.422  1.00  0.00     0.014 A 
ATOM     43  C   UNL A   1      39.603  28.979  27.674  1.00  0.00     0.010 A 
ATOM     44  C   UNL A   1      38.496  28.119  29.641  1.00  0.00     0.010 A 
ATOM     45  C   UNL A   1      39.592  28.113  28.773  1.00  0.00    -0.014 A 
BRANCH  45  46
ATOM     46  C   UNL A   1      40.862  27.433  29.153  1.00  0.00     0.031 A 
ATOM     47  C   UNL A   1      41.118  26.229  28.210  1.00  0.00     0.074 A 
ATOM     48  C   UNL A   1      41.561  27.889  30.244  1.00  0.00     0.049 A 
ATOM     49  N   UNL A   1      41.704  25.096  28.442  1.00  0.00    -0.248 NA
ATOM     50  C   UNL A   1      40.555  26.250  26.827  1.00  0.00     0.031 C 
ATOM     51  C   UNL A   1      41.218  29.106  31.014  1.00  0.00     0.029 A 
ATOM     52  N   UNL A   1      42.686  27.452  30.934  1.00  0.00    -0.354 N 
ATOM     53  C   UNL A   1      41.765  24.379  27.222  1.00  0.00     0.074 A 
ATOM     54  C   UNL A   1      40.925  25.079  26.304  1.00  0.00     0.031 C 
ATOM     55  C   UNL A   1      42.041  29.263  32.077  1.00  0.00     0.029 A 
ATOM     56  C   UNL A   1      43.007  28.180  32.122  1.00  0.00     0.049 A 
ATOM     57  H   UNL A   1      43.226  26.690  30.625  1.00  0.00     0.167 HD
ATOM     58  C   UNL A   1      42.630  23.342  27.009  1.00  0.00     0.037 A 
ATOM     59  C   UNL A   1      43.944  27.911  33.095  1.00  0.00     0.037 A 
ATOM     60  C   UNL A   1      43.361  23.090  28.202  1.00  0.00     0.049 A 
ATOM     61  C   UNL A   1      44.705  26.767  32.586  1.00  0.00     0.074 A 
ATOM     62  C   UNL A   1      42.990  22.586  29.419  1.00  0.00     0.029 A 
ATOM     63  N   UNL A   1      44.560  23.749  28.321  1.00  0.00    -0.354 N 
ATOM     64  N   UNL A   1      45.619  26.839  31.667  1.00  0.00    -0.248 NA
ATOM     65  C   UNL A   1      44.378  25.426  33.088  1.00  0.00     0.031 C 
ATOM     66  C   UNL A   1      43.710  23.393  30.319  1.00  0.00     0.029 A 
ATOM     67  C   UNL A   1      44.672  24.140  29.626  1.00  0.00     0.049 A 
ATOM     68  H   UNL A   1      45.215  23.909  27.604  1.00  0.00     0.167 HD
ATOM     69  C   UNL A   1      45.694  25.534  31.250  1.00  0.00     0.074 A 
ATOM     70  C   UNL A   1      45.223  24.716  32.347  1.00  0.00     0.031 C 
ATOM     71  C   UNL A   1      45.530  25.257  29.932  1.00  0.00     0.037 A 
BRANCH  58  72
ATOM     72  C   UNL A   1      43.140  22.667  25.761  1.00  0.00     0.057 A 
ATOM     73  C   UNL A   1      43.257  21.254  25.772  1.00  0.00     0.134 A 
ATOM     74  C   UNL A   1      43.851  23.322  24.752  1.00  0.00     0.134 A 
ATOM     75  F   UNL A   1      42.572  20.508  26.656  1.00  0.00    -0.206 F 
ATOM     76  C   UNL A   1      44.149  20.562  24.951  1.00  0.00     0.040 A 
ATOM     77  C   UNL A   1      44.710  22.629  23.887  1.00  0.00     0.040 A 
ATOM     78  F   UNL A   1      43.821  24.654  24.623  1.00  0.00    -0.206 F 
ATOM     79  C   UNL A   1      44.901  21.257  24.017  1.00  0.00     0.006 A 
ENDBRANCH  58  72
BRANCH  59  80
ATOM     80  C   UNL A   1      44.367  28.385  34.479  1.00  0.00     0.057 A 
ATOM     81  C   UNL A   1      45.430  29.242  34.773  1.00  0.00     0.134 A 
ATOM     82  C   UNL A   1      43.648  27.969  35.643  1.00  0.00     0.134 A 
ATOM     83  F   UNL A   1      46.290  29.629  33.824  1.00  0.00    -0.206 F 
ATOM     84  C   UNL A   1      45.682  29.720  36.083  1.00  0.00     0.040 A 
ATOM     85  C   UNL A   1      43.859  28.463  36.935  1.00  0.00     0.040 A 
ATOM     86  F   UNL A   1      42.689  27.036  35.599  1.00  0.00    -0.206 F 
ATOM     87  C   UNL A   1      44.875  29.363  37.160  1.00  0.00     0.006 A 
ENDBRANCH  59  80
BRANCH  71  88
ATOM     88  C   UNL A   1      45.926  26.384  28.998  1.00  0.00     0.057 A 
ATOM     89  C   UNL A   1      47.260  26.813  28.950  1.00  0.00     0.134 A 
ATOM     90  C   UNL A   1      45.024  27.142  28.235  1.00  0.00     0.134 A 
ATOM     91  F   UNL A   1      48.205  26.146  29.632  1.00  0.00    -0.206 F 
ATOM     92  C   UNL A   1      47.665  27.934  28.213  1.00  0.00     0.040 A 
ATOM     93  C   UNL A   1      45.411  28.262  27.486  1.00  0.00     0.040 A 
ATOM     94  F   UNL A   1      43.730  26.829  28.198  1.00  0.00    -0.206 F 
ATOM     95  C   UNL A   1      46.738  28.668  27.481  1.00  0.00     0.006 A 
ENDBRANCH  71  88
ENDBRANCH  45  46
ENDBRANCH  37  40
ENDBRANCH  35  36
ENDBRANCH  34  35
ENDBRANCH  33  34
ENDBRANCH  32  33
ENDBRANCH  31  32
ENDBRANCH   1  31
TORSDOF 19
ENDMDL
MODEL 2
REMARK VINA RESULT:     -12.0      2.222      4.278
REMARK SMILES COc1ccc(C[NH2+]Cc2cccn2-c2sc(C)c(C)c2C(=O)NCCCCCCNC(=O)c2ccc(-c3c4nc(c(-c5c(F)cccc5F)c5ccc([nH]5)c(-c5c(F)cccc5F)c5nc(c(-c6c(F)cccc6F)c6ccc3[nH]6)C=C5)C=C4)cc2)cc1
REMARK SMILES IDX 25 1 24 2 22 3 23 4 21 6 15 7 16 8 17 9 19 10 18 11 20 12
REMARK SMILES IDX 14 13 10 14 11 15 12 16 13 17 9 18 8 19 7 22 6 23 3 24 4 25
REMARK SMILES IDX 89 26 5 27 88 28 2 29 1 30 26 31 27 32 28 33 29 34 30 35
REMARK SMILES IDX 31 36 32 37 33 39 34 40 35 41 87 42 36 43 86 44 37 45 38 46
REMARK SMILES IDX 39 47 80 48 40 49 85 50 79 51 81 52 41 53 84 54 78 55 77 56
REMARK SMILES IDX 42 58 68 59 51 60 67 61 52 62 55 63 66 64 82 65 53 66 54 67
REMARK SMILES IDX 65 69 83 70 56 71 43 72 44 73 49 74 45 75 46 76 48 77 50 78
REMARK SMILES IDX 47 79 69 80 70 81 75 82 71 83 72 84 74 85 76 86 73 87 57 88
REMARK SMILES IDX 58 89 63 90 59 91 60 92 62 93 64 94 61 95
REMARK H PARENT 24 5 8 20 8 21 31 38 81 57 55 68
REMARK Flexibility Score: inf
ROOT
ATOM      1  C   UNL A   1      34.878  24.467  24.140  1.00  0.00     0.116 C 
ENDROOT
BRANCH   1   2
ATOM      2  N   UNL A   1      35.830  24.076  25.128  1.00  0.00    -0.352 N 
ATOM      3  C   UNL A   1      36.101  22.828  25.651  1.00  0.00     0.254 C 
ATOM      4  O   UNL A   1      37.119  22.797  26.348  1.00  0.00    -0.269 OA
ATOM      5  H   UNL A   1      36.377  24.808  25.493  1.00  0.00     0.163 HD
BRANCH   3   6
ATOM      6  C   UNL A   1      35.254  21.601  25.502  1.00  0.00     0.078 A 
ATOM      7  C   UNL A   1      33.906  21.356  25.749  1.00  0.00     0.113 A 
ATOM      8  S   UNL A   1      33.387  19.773  25.411  1.00  0.00    -0.122 S 
ATOM      9  C   UNL A   1      34.927  19.298  24.895  1.00  0.00     0.007 A 
ATOM     10  C   UNL A   1      35.851  20.328  25.007  1.00  0.00    -0.022 A 
ATOM     11  C   UNL A   1      35.131  17.905  24.388  1.00  0.00     0.057 C 
ATOM     12  C   UNL A   1      37.303  20.154  24.650  1.00  0.00     0.046 C 
BRANCH   7  13
ATOM     13  N   UNL A   1      32.838  22.210  26.038  1.00  0.00    -0.306 N 
ATOM     14  C   UNL A   1      31.894  22.759  25.152  1.00  0.00     0.078 A 
ATOM     15  C   UNL A   1      31.044  23.559  25.904  1.00  0.00     0.029 A 
ATOM     16  C   UNL A   1      31.444  23.493  27.254  1.00  0.00     0.020 A 
ATOM     17  C   UNL A   1      32.537  22.663  27.312  1.00  0.00     0.092 A 
BRANCH  14  18
ATOM     18  C   UNL A   1      31.856  22.493  23.669  1.00  0.00     0.316 C 
BRANCH  18  19
ATOM     19  N   UNL A   1      31.524  23.654  22.836  1.00  0.00    -0.338 N 
ATOM     20  H   UNL A   1      32.254  24.353  22.964  1.00  0.00     0.346 HD
ATOM     21  H   UNL A   1      31.456  23.306  21.880  1.00  0.00     0.346 HD
BRANCH  19  22
ATOM     22  C   UNL A   1      30.244  24.280  23.132  1.00  0.00     0.297 C 
BRANCH  22  23
ATOM     23  C   UNL A   1      30.318  25.797  23.110  1.00  0.00     0.006 A 
ATOM     24  C   UNL A   1      30.337  28.618  22.870  1.00  0.00     0.118 A 
ATOM     25  C   UNL A   1      29.391  27.979  23.671  1.00  0.00     0.047 A 
ATOM     26  C   UNL A   1      31.328  27.862  22.262  1.00  0.00     0.047 A 
ATOM     27  C   UNL A   1      29.378  26.581  23.790  1.00  0.00     0.013 A 
ATOM     28  C   UNL A   1      31.307  26.467  22.379  1.00  0.00     0.013 A 
BRANCH  24  29
ATOM     29  O   UNL A   1      30.240  29.978  22.766  1.00  0.00    -0.497 OA
ATOM     30  C   UNL A   1      29.060  30.532  23.349  1.00  0.00     0.278 C 
ENDBRANCH  24  29
ENDBRANCH  22  23
ENDBRANCH  19  22
ENDBRANCH  18  19
ENDBRANCH  14  18
ENDBRANCH   7  13
ENDBRANCH   3   6
ENDBRANCH   1   2
BRANCH   1  31
ATOM     31  C   UNL A   1      34.085  25.740  24.341  1.00  0.00     0.021 C 
BRANCH  31  32
ATOM     32  C   UNL A   1      33.718  26.168  25.756  1.00  0.00     0.002 C 
BRANCH  32  33
ATOM     33  C   UNL A   1      32.771  27.366  25.902  1.00  0.00     0.002 C 
BRANCH  33  34
ATOM     34  C   UNL A   1      33.382  28.744  26.214  1.00  0.00     0.021 C 
BRANCH  34  35
ATOM     35  C   UNL A   1      34.765  28.753  26.877  1.00  0.00     0.116 C 
BRANCH  35  36
ATOM     36  N   UNL A   1      35.203  30.087  27.239  1.00  0.00    -0.352 N 
ATOM     37  C   UNL A   1      36.325  30.532  27.898  1.00  0.00     0.251 C 
ATOM     38  H   UNL A   1      34.587  30.803  26.962  1.00  0.00     0.163 HD
ATOM     39  O   UNL A   1      36.311  31.675  28.345  1.00  0.00    -0.269 OA
BRANCH  37  40
ATOM     40  C   UNL A   1      37.552  29.712  28.089  1.00  0.00     0.039 A 
ATOM     41  C   UNL A   1      38.504  29.708  27.057  1.00  0.00     0.014 A 
ATOM     42  C   UNL A   1      37.740  28.860  29.177  1.00  0.00     0.014 A 
ATOM     43  C   UNL A   1      39.638  28.893  27.133  1.00  0.00     0.010 A 
ATOM     44  C   UNL A   1      38.881  28.053  29.267  1.00  0.00     0.010 A 
ATOM     45  C   UNL A   1      39.839  28.075  28.250  1.00  0.00    -0.014 A 
BRANCH  45  46
ATOM     46  C   UNL A   1      41.192  27.487  28.463  1.00  0.00     0.031 A 
ATOM     47  C   UNL A   1      41.186  25.991  28.055  1.00  0.00     0.074 A 
ATOM     48  C   UNL A   1      42.180  28.270  29.007  1.00  0.00     0.049 A 
ATOM     49  N   UNL A   1      41.863  24.993  28.532  1.00  0.00    -0.248 NA
ATOM     50  C   UNL A   1      40.215  25.516  27.025  1.00  0.00     0.031 C 
ATOM     51  C   UNL A   1      42.047  29.717  29.287  1.00  0.00     0.029 A 
ATOM     52  N   UNL A   1      43.482  28.040  29.435  1.00  0.00    -0.354 N 
ATOM     53  C   UNL A   1      41.565  23.851  27.748  1.00  0.00     0.074 A 
ATOM     54  C   UNL A   1      40.449  24.206  26.931  1.00  0.00     0.031 C 
ATOM     55  C   UNL A   1      43.157  30.205  29.890  1.00  0.00     0.029 A 
ATOM     56  C   UNL A   1      44.132  29.144  30.069  1.00  0.00     0.049 A 
ATOM     57  H   UNL A   1      43.928  27.172  29.310  1.00  0.00     0.167 HD
ATOM     58  C   UNL A   1      42.360  22.739  27.717  1.00  0.00     0.037 A 
ATOM     59  C   UNL A   1      45.339  29.196  30.731  1.00  0.00     0.037 A 
ATOM     60  C   UNL A   1      43.441  22.912  28.625  1.00  0.00     0.049 A 
ATOM     61  C   UNL A   1      45.947  27.880  30.519  1.00  0.00     0.074 A 
ATOM     62  C   UNL A   1      43.495  22.965  29.991  1.00  0.00     0.029 A 
ATOM     63  N   UNL A   1      44.588  23.453  28.097  1.00  0.00    -0.354 N 
ATOM     64  N   UNL A   1      46.520  27.500  29.417  1.00  0.00    -0.248 NA
ATOM     65  C   UNL A   1      45.852  26.881  31.592  1.00  0.00     0.031 C 
ATOM     66  C   UNL A   1      44.428  23.992  30.224  1.00  0.00     0.029 A 
ATOM     67  C   UNL A   1      45.090  24.314  29.031  1.00  0.00     0.049 A 
ATOM     68  H   UNL A   1      44.974  23.257  27.213  1.00  0.00     0.167 HD
ATOM     69  C   UNL A   1      46.514  26.136  29.560  1.00  0.00     0.074 A 
ATOM     70  C   UNL A   1      46.448  25.863  30.980  1.00  0.00     0.031 C 
ATOM     71  C   UNL A   1      45.953  25.379  28.584  1.00  0.00     0.037 A 
BRANCH  58  72
ATOM     72  C   UNL A   1      42.478  21.584  26.756  1.00  0.00     0.057 A 
ATOM     73  C   UNL A   1      41.872  20.355  27.120  1.00  0.00     0.134 A 
ATOM     74  C   UNL A   1      43.431  21.507  25.738  1.00  0.00     0.134 A 
ATOM     75  F   UNL A   1      40.896  20.308  28.043  1.00  0.00    -0.206 F 
ATOM     76  C   UNL A   1      42.307  19.122  26.629  1.00  0.00     0.040 A 
ATOM     77  C   UNL A   1      43.839  20.277  25.200  1.00  0.00     0.040 A 
ATOM     78  F   UNL A   1      44.073  22.594  25.293  1.00  0.00    -0.206 F 
ATOM     79  C   UNL A   1      43.316  19.080  25.679  1.00  0.00     0.006 A 
ENDBRANCH  58  72
BRANCH  59  80
ATOM     80  C   UNL A   1      46.158  30.137  31.605  1.00  0.00     0.057 A 
ATOM     81  C   UNL A   1      45.975  30.372  32.969  1.00  0.00     0.134 A 
ATOM     82  C   UNL A   1      47.249  30.880  31.053  1.00  0.00     0.134 A 
ATOM     83  F   UNL A   1      44.924  29.862  33.624  1.00  0.00    -0.206 F 
ATOM     84  C   UNL A   1      46.857  31.181  33.727  1.00  0.00     0.040 A 
ATOM     85  C   UNL A   1      48.151  31.650  31.795  1.00  0.00     0.040 A 
ATOM     86  F   UNL A   1      47.502  30.913  29.739  1.00  0.00    -0.206 F 
ATOM     87  C   UNL A   1      47.968  31.790  33.152  1.00  0.00     0.006 A 
ENDBRANCH  59  80
BRANCH  71  88
ATOM     88  C   UNL A   1      45.986  26.005  27.203  1.00  0.00     0.057 A 
ATOM     89  C   UNL A   1      47.218  26.259  26.583  1.00  0.00     0.134 A 
ATOM     90  C   UNL A   1      44.858  26.477  26.515  1.00  0.00     0.134 A 
ATOM     91  F   UNL A   1      48.357  25.834  27.152  1.00  0.00    -0.206 F 
ATOM     92  C   UNL A   1      47.321  26.958  25.373  1.00  0.00     0.040 A 
ATOM     93  C   UNL A   1      44.940  27.172  25.299  1.00  0.00     0.040 A 
ATOM     94  F   UNL A   1      43.633  26.292  27.003  1.00  0.00    -0.206 F 
ATOM     95  C   UNL A   1      46.180  27.423  24.727  1.00  0.00     0.006 A 
ENDBRANCH  71  88
ENDBRANCH  45  46
ENDBRANCH  37  40
ENDBRANCH  35  36
ENDBRANCH  34  35
ENDBRANCH  33  34
ENDBRANCH  32  33
ENDBRANCH  31  32
ENDBRANCH   1  31
TORSDOF 19
ENDMDL
MODEL 3
REMARK VINA RESULT:     -11.7      3.953      6.842
REMARK SMILES COc1ccc(C[NH2+]Cc2cccn2-c2sc(C)c(C)c2C(=O)NCCCCCCNC(=O)c2ccc(-c3c4nc(c(-c5c(F)cccc5F)c5ccc([nH]5)c(-c5c(F)cccc5F)c5nc(c(-c6c(F)cccc6F)c6ccc3[nH]6)C=C5)C=C4)cc2)cc1
REMARK SMILES IDX 25 1 24 2 22 3 23 4 21 6 15 7 16 8 17 9 19 10 18 11 20 12
REMARK SMILES IDX 14 13 10 14 11 15 12 16 13 17 9 18 8 19 7 22 6 23 3 24 4 25
REMARK SMILES IDX 89 26 5 27 88 28 2 29 1 30 26 31 27 32 28 33 29 34 30 35
REMARK SMILES IDX 31 36 32 37 33 39 34 40 35 41 87 42 36 43 86 44 37 45 38 46
REMARK SMILES IDX 39 47 80 48 40 49 85 50 79 51 81 52 41 53 84 54 78 55 77 56
REMARK SMILES IDX 42 58 68 59 51 60 67 61 52 62 55 63 66 64 82 65 53 66 54 67
REMARK SMILES IDX 65 69 83 70 56 71 43 72 44 73 49 74 45 75 46 76 48 77 50 78
REMARK SMILES IDX 47 79 69 80 70 81 75 82 71 83 72 84 74 85 76 86 73 87 57 88
REMARK SMILES IDX 58 89 63 90 59 91 60 92 62 93 64 94 61 95
REMARK H PARENT 24 5 8 20 8 21 31 38 81 57 55 68
REMARK Flexibility Score: inf
ROOT
ATOM      1  C   UNL A   1      32.681  27.203  26.278  1.00  0.00     0.116 C 
ENDROOT
BRANCH   1   2
ATOM      2  N   UNL A   1      31.751  26.194  26.667  1.00  0.00    -0.352 N 
ATOM      3  C   UNL A   1      31.836  24.820  26.557  1.00  0.00     0.254 C 
ATOM      4  O   UNL A   1      30.946  24.222  27.169  1.00  0.00    -0.269 OA
ATOM      5  H   UNL A   1      30.920  26.528  27.077  1.00  0.00     0.163 HD
BRANCH   3   6
ATOM      6  C   UNL A   1      32.828  24.057  25.735  1.00  0.00     0.078 A 
ATOM      7  C   UNL A   1      33.147  24.089  24.381  1.00  0.00     0.113 A 
ATOM      8  S   UNL A   1      34.378  23.017  23.904  1.00  0.00    -0.122 S 
ATOM      9  C   UNL A   1      34.588  22.440  25.481  1.00  0.00     0.007 A 
ATOM     10  C   UNL A   1      33.703  23.030  26.371  1.00  0.00    -0.022 A 
ATOM     11  C   UNL A   1      35.649  21.418  25.749  1.00  0.00     0.057 C 
ATOM     12  C   UNL A   1      33.657  22.662  27.831  1.00  0.00     0.046 C 
BRANCH   7  13
ATOM     13  N   UNL A   1      32.789  24.969  23.357  1.00  0.00    -0.306 N 
ATOM     14  C   UNL A   1      31.501  25.314  22.910  1.00  0.00     0.078 A 
ATOM     15  C   UNL A   1      31.657  26.209  21.860  1.00  0.00     0.029 A 
ATOM     16  C   UNL A   1      33.035  26.436  21.666  1.00  0.00     0.020 A 
ATOM     17  C   UNL A   1      33.705  25.673  22.592  1.00  0.00     0.092 A 
BRANCH  14  18
ATOM     18  C   UNL A   1      30.220  24.781  23.501  1.00  0.00     0.316 C 
BRANCH  18  19
ATOM     19  N   UNL A   1      29.518  25.704  24.399  1.00  0.00    -0.338 N 
ATOM     20  H   UNL A   1      29.238  25.183  25.230  1.00  0.00     0.346 HD
ATOM     21  H   UNL A   1      30.172  26.461  24.595  1.00  0.00     0.346 HD
BRANCH  19  22
ATOM     22  C   UNL A   1      28.330  26.329  23.838  1.00  0.00     0.297 C 
BRANCH  22  23
ATOM     23  C   UNL A   1      28.536  27.802  23.530  1.00  0.00     0.006 A 
ATOM     24  C   UNL A   1      28.849  30.593  23.173  1.00  0.00     0.118 A 
ATOM     25  C   UNL A   1      29.943  29.790  23.495  1.00  0.00     0.047 A 
ATOM     26  C   UNL A   1      27.619  29.996  22.939  1.00  0.00     0.047 A 
ATOM     27  C   UNL A   1      29.789  28.407  23.674  1.00  0.00     0.013 A 
ATOM     28  C   UNL A   1      27.470  28.617  23.125  1.00  0.00     0.013 A 
BRANCH  24  29
ATOM     29  O   UNL A   1      29.078  31.938  23.073  1.00  0.00    -0.497 OA
ATOM     30  C   UNL A   1      28.403  32.571  21.985  1.00  0.00     0.278 C 
ENDBRANCH  24  29
ENDBRANCH  22  23
ENDBRANCH  19  22
ENDBRANCH  18  19
ENDBRANCH  14  18
ENDBRANCH   7  13
ENDBRANCH   3   6
ENDBRANCH   1   2
BRANCH   1  31
ATOM     31  C   UNL A   1      33.085  28.263  27.280  1.00  0.00     0.021 C 
BRANCH  31  32
ATOM     32  C   UNL A   1      34.363  29.056  27.044  1.00  0.00     0.002 C 
BRANCH  32  33
ATOM     33  C   UNL A   1      34.419  30.481  27.611  1.00  0.00     0.002 C 
BRANCH  33  34
ATOM     34  C   UNL A   1      33.106  31.279  27.706  1.00  0.00     0.021 C 
BRANCH  34  35
ATOM     35  C   UNL A   1      32.992  32.531  26.829  1.00  0.00     0.116 C 
BRANCH  35  36
ATOM     36  N   UNL A   1      32.620  33.712  27.584  1.00  0.00    -0.352 N 
ATOM     37  C   UNL A   1      33.106  34.234  28.760  1.00  0.00     0.251 C 
ATOM     38  H   UNL A   1      31.889  34.234  27.181  1.00  0.00     0.163 HD
ATOM     39  O   UNL A   1      32.420  35.068  29.342  1.00  0.00    -0.269 OA
BRANCH  37  40
ATOM     40  C   UNL A   1      34.415  33.853  29.356  1.00  0.00     0.039 A 
ATOM     41  C   UNL A   1      34.405  33.220  30.608  1.00  0.00     0.014 A 
ATOM     42  C   UNL A   1      35.642  34.205  28.794  1.00  0.00     0.014 A 
ATOM     43  C   UNL A   1      35.601  32.913  31.265  1.00  0.00     0.010 A 
ATOM     44  C   UNL A   1      36.843  33.887  29.437  1.00  0.00     0.010 A 
ATOM     45  C   UNL A   1      36.828  33.231  30.671  1.00  0.00    -0.014 A 
BRANCH  45  46
ATOM     46  C   UNL A   1      38.063  32.601  31.217  1.00  0.00     0.031 A 
ATOM     47  C   UNL A   1      38.336  31.260  30.488  1.00  0.00     0.074 A 
ATOM     48  C   UNL A   1      38.720  33.214  32.255  1.00  0.00     0.049 A 
ATOM     49  N   UNL A   1      38.886  30.170  30.924  1.00  0.00    -0.248 NA
ATOM     50  C   UNL A   1      37.841  31.070  29.092  1.00  0.00     0.031 C 
ATOM     51  C   UNL A   1      38.367  34.541  32.807  1.00  0.00     0.029 A 
ATOM     52  N   UNL A   1      39.801  32.875  33.061  1.00  0.00    -0.354 N 
ATOM     53  C   UNL A   1      38.988  29.268  29.836  1.00  0.00     0.074 A 
ATOM     54  C   UNL A   1      38.209  29.826  28.779  1.00  0.00     0.031 C 
ATOM     55  C   UNL A   1      39.143  34.853  33.872  1.00  0.00     0.029 A 
ATOM     56  C   UNL A   1      40.081  33.776  34.134  1.00  0.00     0.049 A 
ATOM     57  H   UNL A   1      40.338  32.066  32.903  1.00  0.00     0.167 HD
ATOM     58  C   UNL A   1      39.839  28.198  29.832  1.00  0.00     0.037 A 
ATOM     59  C   UNL A   1      40.966  33.651  35.183  1.00  0.00     0.037 A 
ATOM     60  C   UNL A   1      40.508  28.127  31.085  1.00  0.00     0.049 A 
ATOM     61  C   UNL A   1      41.724  32.430  34.899  1.00  0.00     0.074 A 
ATOM     62  C   UNL A   1      40.068  27.827  32.346  1.00  0.00     0.029 A 
ATOM     63  N   UNL A   1      41.714  28.779  31.159  1.00  0.00    -0.354 N 
ATOM     64  N   UNL A   1      42.683  32.342  34.027  1.00  0.00    -0.248 NA
ATOM     65  C   UNL A   1      41.344  31.190  35.588  1.00  0.00     0.031 C 
ATOM     66  C   UNL A   1      40.763  28.755  33.143  1.00  0.00     0.029 A 
ATOM     67  C   UNL A   1      41.773  29.370  32.391  1.00  0.00     0.049 A 
ATOM     68  H   UNL A   1      42.405  28.814  30.459  1.00  0.00     0.167 HD
ATOM     69  C   UNL A   1      42.748  30.987  33.825  1.00  0.00     0.074 A 
ATOM     70  C   UNL A   1      42.208  30.360  35.012  1.00  0.00     0.031 C 
ATOM     71  C   UNL A   1      42.640  30.509  32.560  1.00  0.00     0.037 A 
BRANCH  58  72
ATOM     72  C   UNL A   1      40.393  27.327  28.733  1.00  0.00     0.057 A 
ATOM     73  C   UNL A   1      41.238  27.932  27.769  1.00  0.00     0.134 A 
ATOM     74  C   UNL A   1      39.854  26.090  28.370  1.00  0.00     0.134 A 
ATOM     75  F   UNL A   1      41.863  29.094  28.025  1.00  0.00    -0.206 F 
ATOM     76  C   UNL A   1      41.394  27.428  26.476  1.00  0.00     0.040 A 
ATOM     77  C   UNL A   1      40.049  25.547  27.091  1.00  0.00     0.040 A 
ATOM     78  F   UNL A   1      39.047  25.406  29.190  1.00  0.00    -0.206 F 
ATOM     79  C   UNL A   1      40.776  26.238  26.126  1.00  0.00     0.006 A 
ENDBRANCH  58  72
BRANCH  59  80
ATOM     80  C   UNL A   1      41.334  34.332  36.495  1.00  0.00     0.057 A 
ATOM     81  C   UNL A   1      42.569  34.895  36.820  1.00  0.00     0.134 A 
ATOM     82  C   UNL A   1      40.370  34.461  37.545  1.00  0.00     0.134 A 
ATOM     83  F   UNL A   1      43.627  34.756  36.011  1.00  0.00    -0.206 F 
ATOM     84  C   UNL A   1      42.788  35.609  38.024  1.00  0.00     0.040 A 
ATOM     85  C   UNL A   1      40.558  35.195  38.720  1.00  0.00     0.040 A 
ATOM     86  F   UNL A   1      39.173  33.862  37.497  1.00  0.00    -0.206 F 
ATOM     87  C   UNL A   1      41.774  35.794  38.959  1.00  0.00     0.006 A 
ENDBRANCH  59  80
BRANCH  71  88
ATOM     88  C   UNL A   1      43.105  31.468  31.481  1.00  0.00     0.057 A 
ATOM     89  C   UNL A   1      44.446  31.874  31.441  1.00  0.00     0.134 A 
ATOM     90  C   UNL A   1      42.258  32.100  30.558  1.00  0.00     0.134 A 
ATOM     91  F   UNL A   1      45.342  31.318  32.272  1.00  0.00    -0.206 F 
ATOM     92  C   UNL A   1      44.908  32.860  30.558  1.00  0.00     0.040 A 
ATOM     93  C   UNL A   1      42.703  33.083  29.662  1.00  0.00     0.040 A 
ATOM     94  F   UNL A   1      40.962  31.795  30.498  1.00  0.00    -0.206 F 
ATOM     95  C   UNL A   1      44.035  33.473  29.667  1.00  0.00     0.006 A 
ENDBRANCH  71  88
ENDBRANCH  45  46
ENDBRANCH  37  40
ENDBRANCH  35  36
ENDBRANCH  34  35
ENDBRANCH  33  34
ENDBRANCH  32  33
ENDBRANCH  31  32
ENDBRANCH   1  31
TORSDOF 19
ENDMDL
