MODEL 1
REMARK VINA RESULT:     -11.8      0.000      0.000
REMARK SMILES O=C(NCCCCCCNC(=O)c1c(S(=O)(=O)N2CCCCC2)sc2c1CC[NH2+]C2)c1ccc(-c2c3nc(c(-c4c(F)cccc4F)c4ccc([nH]4)c(-c4c(F)cccc4F)c4nc(c(-c5c(F)cccc5F)c5ccc2[nH]5)C=C4)C=C3)cc1
REMARK SMILES IDX 6 1 5 2 4 3 3 4 1 5 2 6 31 8 32 9 84 10 33 11 83 12 34 13
REMARK SMILES IDX 35 14 36 15 77 16 37 17 82 18 76 19 78 20 38 21 81 22 75 23
REMARK SMILES IDX 74 24 39 26 65 27 48 28 64 29 49 30 52 31 63 32 79 33 50 34
REMARK SMILES IDX 51 35 62 37 80 38 53 39 40 40 41 41 46 42 42 43 43 44 45 45
REMARK SMILES IDX 47 46 44 47 66 48 67 49 72 50 68 51 69 52 71 53 73 54 70 55
REMARK SMILES IDX 54 56 55 57 60 58 56 59 57 60 59 61 61 62 58 63 7 64 8 65
REMARK SMILES IDX 9 66 10 67 11 68 12 70 13 71 14 72 26 73 24 74 25 75 27 76
REMARK SMILES IDX 30 77 28 78 29 79 15 82 16 83 17 84 18 85 19 86 23 87 20 88
REMARK SMILES IDX 22 89 21 90
REMARK H PARENT 3 7 78 25 52 36 10 69 29 80 29 81
REMARK Flexibility Score: inf
ROOT
ATOM      1  C   UNL A   1      31.816  28.559  27.380  1.00  0.00     0.002 C 
ENDROOT
BRANCH   1   2
ATOM      2  C   UNL A   1      32.109  30.007  26.965  1.00  0.00     0.021 C 
BRANCH   2   3
ATOM      3  C   UNL A   1      33.549  30.471  27.171  1.00  0.00     0.116 C 
BRANCH   3   4
ATOM      4  N   UNL A   1      33.708  31.475  28.203  1.00  0.00    -0.352 N 
ATOM      5  O   UNL A   1      34.484  32.838  29.754  1.00  0.00    -0.269 OA
ATOM      6  C   UNL A   1      34.728  31.878  29.018  1.00  0.00     0.251 C 
ATOM      7  H   UNL A   1      32.883  31.990  28.354  1.00  0.00     0.163 HD
BRANCH   6   8
ATOM      8  C   UNL A   1      36.076  31.244  29.104  1.00  0.00     0.039 A 
ATOM      9  C   UNL A   1      37.291  31.916  29.242  1.00  0.00     0.014 A 
ATOM     10  C   UNL A   1      36.097  29.836  29.071  1.00  0.00     0.014 A 
ATOM     11  C   UNL A   1      38.492  31.206  29.315  1.00  0.00     0.010 A 
ATOM     12  C   UNL A   1      37.292  29.122  29.159  1.00  0.00     0.010 A 
ATOM     13  C   UNL A   1      38.499  29.808  29.265  1.00  0.00    -0.014 A 
BRANCH  13  14
ATOM     14  C   UNL A   1      39.784  29.117  29.419  1.00  0.00     0.031 A 
ATOM     15  C   UNL A   1      40.293  28.916  30.812  1.00  0.00     0.074 A 
ATOM     16  C   UNL A   1      40.441  28.510  28.411  1.00  0.00     0.049 A 
ATOM     17  N   UNL A   1      41.446  29.237  31.314  1.00  0.00    -0.248 NA
ATOM     18  C   UNL A   1      39.388  28.260  31.770  1.00  0.00     0.031 C 
ATOM     19  C   UNL A   1      39.981  28.268  27.042  1.00  0.00     0.029 A 
ATOM     20  N   UNL A   1      41.656  27.886  28.450  1.00  0.00    -0.354 N 
ATOM     21  C   UNL A   1      41.471  28.710  32.606  1.00  0.00     0.074 A 
ATOM     22  C   UNL A   1      40.157  28.170  32.854  1.00  0.00     0.031 C 
ATOM     23  C   UNL A   1      40.812  27.384  26.447  1.00  0.00     0.029 A 
ATOM     24  C   UNL A   1      41.927  27.107  27.339  1.00  0.00     0.049 A 
ATOM     25  H   UNL A   1      42.283  27.981  29.203  1.00  0.00     0.167 HD
ATOM     26  C   UNL A   1      42.602  28.630  33.362  1.00  0.00     0.037 A 
ATOM     27  C   UNL A   1      42.962  26.252  27.178  1.00  0.00     0.037 A 
ATOM     28  C   UNL A   1      43.646  29.494  32.894  1.00  0.00     0.049 A 
ATOM     29  C   UNL A   1      44.016  26.592  28.161  1.00  0.00     0.074 A 
ATOM     30  C   UNL A   1      43.793  30.859  32.746  1.00  0.00     0.029 A 
ATOM     31  N   UNL A   1      44.712  28.941  32.233  1.00  0.00    -0.354 N 
ATOM     32  N   UNL A   1      44.767  27.654  28.110  1.00  0.00    -0.248 NA
ATOM     33  C   UNL A   1      44.036  25.875  29.427  1.00  0.00     0.031 C 
ATOM     34  C   UNL A   1      44.646  31.025  31.617  1.00  0.00     0.029 A 
ATOM     35  C   UNL A   1      44.957  29.747  31.151  1.00  0.00     0.049 A 
ATOM     36  H   UNL A   1      45.203  28.127  32.485  1.00  0.00     0.167 HD
ATOM     37  C   UNL A   1      45.036  27.965  29.433  1.00  0.00     0.074 A 
ATOM     38  C   UNL A   1      44.680  26.766  30.182  1.00  0.00     0.031 C 
ATOM     39  C   UNL A   1      45.258  29.251  29.828  1.00  0.00     0.037 A 
BRANCH  26  40
ATOM     40  C   UNL A   1      42.842  27.593  34.427  1.00  0.00     0.057 A 
ATOM     41  C   UNL A   1      43.245  26.291  34.081  1.00  0.00     0.134 A 
ATOM     42  C   UNL A   1      42.449  27.768  35.768  1.00  0.00     0.134 A 
ATOM     43  F   UNL A   1      43.597  25.991  32.822  1.00  0.00    -0.206 F 
ATOM     44  C   UNL A   1      43.242  25.235  35.002  1.00  0.00     0.040 A 
ATOM     45  C   UNL A   1      42.485  26.732  36.708  1.00  0.00     0.040 A 
ATOM     46  F   UNL A   1      41.933  28.924  36.204  1.00  0.00    -0.206 F 
ATOM     47  C   UNL A   1      42.865  25.454  36.322  1.00  0.00     0.006 A 
ENDBRANCH  26  40
BRANCH  27  48
ATOM     48  C   UNL A   1      43.013  25.013  26.375  1.00  0.00     0.057 A 
ATOM     49  C   UNL A   1      43.900  24.873  25.300  1.00  0.00     0.134 A 
ATOM     50  C   UNL A   1      42.363  23.842  26.800  1.00  0.00     0.134 A 
ATOM     51  F   UNL A   1      44.601  25.925  24.853  1.00  0.00    -0.206 F 
ATOM     52  C   UNL A   1      44.133  23.636  24.688  1.00  0.00     0.040 A 
ATOM     53  C   UNL A   1      42.579  22.602  26.192  1.00  0.00     0.040 A 
ATOM     54  F   UNL A   1      41.561  23.847  27.877  1.00  0.00    -0.206 F 
ATOM     55  C   UNL A   1      43.477  22.494  25.138  1.00  0.00     0.006 A 
ENDBRANCH  27  48
BRANCH  39  56
ATOM     56  C   UNL A   1      45.512  30.276  28.759  1.00  0.00     0.057 A 
ATOM     57  C   UNL A   1      46.787  30.571  28.258  1.00  0.00     0.134 A 
ATOM     58  C   UNL A   1      44.424  30.881  28.119  1.00  0.00     0.134 A 
ATOM     59  F   UNL A   1      47.877  29.953  28.734  1.00  0.00    -0.206 F 
ATOM     60  C   UNL A   1      46.977  31.472  27.206  1.00  0.00     0.040 A 
ATOM     61  C   UNL A   1      44.598  31.757  27.043  1.00  0.00     0.040 A 
ATOM     62  F   UNL A   1      43.168  30.596  28.500  1.00  0.00    -0.206 F 
ATOM     63  C   UNL A   1      45.878  32.065  26.592  1.00  0.00     0.006 A 
ENDBRANCH  39  56
ENDBRANCH  13  14
ENDBRANCH   6   8
ENDBRANCH   3   4
ENDBRANCH   2   3
ENDBRANCH   1   2
BRANCH   1  64
ATOM     64  C   UNL A   1      32.339  27.447  26.459  1.00  0.00     0.002 C 
BRANCH  64  65
ATOM     65  C   UNL A   1      31.802  26.031  26.693  1.00  0.00     0.021 C 
BRANCH  65  66
ATOM     66  C   UNL A   1      30.345  25.801  26.307  1.00  0.00     0.116 C 
BRANCH  66  67
ATOM     67  N   UNL A   1      30.164  24.996  25.118  1.00  0.00    -0.352 N 
ATOM     68  C   UNL A   1      30.262  25.329  23.791  1.00  0.00     0.253 C 
ATOM     69  H   UNL A   1      29.932  24.054  25.290  1.00  0.00     0.163 HD
ATOM     70  O   UNL A   1      30.050  24.450  22.959  1.00  0.00    -0.269 OA
BRANCH  68  71
ATOM     71  C   UNL A   1      30.487  26.713  23.372  1.00  0.00     0.074 A 
ATOM     72  C   UNL A   1      31.687  27.231  22.876  1.00  0.00     0.148 A 
ATOM     73  C   UNL A   1      29.419  27.691  23.257  1.00  0.00    -0.009 A 
ATOM     74  S   UNL A   1      31.509  28.876  22.422  1.00  0.00    -0.120 S 
ATOM     75  C   UNL A   1      29.864  28.898  22.760  1.00  0.00     0.064 A 
ATOM     76  C   UNL A   1      27.963  27.523  23.600  1.00  0.00     0.099 C 
ATOM     77  C   UNL A   1      29.004  30.093  22.473  1.00  0.00     0.308 C 
ATOM     78  C   UNL A   1      27.114  28.680  23.016  1.00  0.00     0.265 C 
ATOM     79  N   UNL A   1      27.728  30.011  23.206  1.00  0.00    -0.342 N 
ATOM     80  H   UNL A   1      27.901  30.163  24.200  1.00  0.00     0.346 HD
ATOM     81  H   UNL A   1      27.094  30.724  22.848  1.00  0.00     0.346 HD
BRANCH  72  82
ATOM     82  S   UNL A   1      33.305  26.496  22.568  1.00  0.00     0.253 S 
ATOM     83  O   UNL A   1      33.293  26.156  21.169  1.00  0.00    -0.206 OA
ATOM     84  O   UNL A   1      34.235  27.474  23.103  1.00  0.00    -0.206 OA
BRANCH  82  85
ATOM     85  N   UNL A   1      33.539  25.017  23.403  1.00  0.00    -0.197 NA
ATOM     86  C   UNL A   1      33.480  23.790  22.578  1.00  0.00     0.102 C 
ATOM     87  C   UNL A   1      34.517  25.083  24.523  1.00  0.00     0.102 C 
ATOM     88  C   UNL A   1      33.636  22.524  23.408  1.00  0.00     0.017 C 
ATOM     89  C   UNL A   1      34.679  23.768  25.266  1.00  0.00     0.017 C 
ATOM     90  C   UNL A   1      34.861  22.606  24.305  1.00  0.00     0.003 C 
ENDBRANCH  82  85
ENDBRANCH  72  82
ENDBRANCH  68  71
ENDBRANCH  66  67
ENDBRANCH  65  66
ENDBRANCH  64  65
ENDBRANCH   1  64
TORSDOF 15
ENDMDL
MODEL 2
REMARK VINA RESULT:     -11.8      2.912      8.167
REMARK SMILES O=C(NCCCCCCNC(=O)c1c(S(=O)(=O)N2CCCCC2)sc2c1CC[NH2+]C2)c1ccc(-c2c3nc(c(-c4c(F)cccc4F)c4ccc([nH]4)c(-c4c(F)cccc4F)c4nc(c(-c5c(F)cccc5F)c5ccc2[nH]5)C=C4)C=C3)cc1
REMARK SMILES IDX 6 1 5 2 4 3 3 4 1 5 2 6 31 8 32 9 84 10 33 11 83 12 34 13
REMARK SMILES IDX 35 14 36 15 77 16 37 17 82 18 76 19 78 20 38 21 81 22 75 23
REMARK SMILES IDX 74 24 39 26 65 27 48 28 64 29 49 30 52 31 63 32 79 33 50 34
REMARK SMILES IDX 51 35 62 37 80 38 53 39 40 40 41 41 46 42 42 43 43 44 45 45
REMARK SMILES IDX 47 46 44 47 66 48 67 49 72 50 68 51 69 52 71 53 73 54 70 55
REMARK SMILES IDX 54 56 55 57 60 58 56 59 57 60 59 61 61 62 58 63 7 64 8 65
REMARK SMILES IDX 9 66 10 67 11 68 12 70 13 71 14 72 26 73 24 74 25 75 27 76
REMARK SMILES IDX 30 77 28 78 29 79 15 82 16 83 17 84 18 85 19 86 23 87 20 88
REMARK SMILES IDX 22 89 21 90
REMARK H PARENT 3 7 78 25 52 36 10 69 29 80 29 81
REMARK Flexibility Score: inf
ROOT
ATOM      1  C   UNL A   1      38.560  23.042  26.478  1.00  0.00     0.002 C 
ENDROOT
BRANCH   1   2
ATOM      2  C   UNL A   1      39.139  21.683  26.061  1.00  0.00     0.021 C 
BRANCH   2   3
ATOM      3  C   UNL A   1      40.571  21.412  26.517  1.00  0.00     0.116 C 
BRANCH   3   4
ATOM      4  N   UNL A   1      41.587  21.908  25.613  1.00  0.00    -0.352 N 
ATOM      5  O   UNL A   1      43.142  23.095  24.592  1.00  0.00    -0.269 OA
ATOM      6  C   UNL A   1      42.295  23.071  25.489  1.00  0.00     0.251 C 
ATOM      7  H   UNL A   1      41.825  21.251  24.919  1.00  0.00     0.163 HD
BRANCH   6   8
ATOM      8  C   UNL A   1      42.108  24.295  26.321  1.00  0.00     0.039 A 
ATOM      9  C   UNL A   1      42.580  24.483  27.620  1.00  0.00     0.014 A 
ATOM     10  C   UNL A   1      41.417  25.358  25.707  1.00  0.00     0.014 A 
ATOM     11  C   UNL A   1      42.343  25.682  28.297  1.00  0.00     0.010 A 
ATOM     12  C   UNL A   1      41.191  26.562  26.373  1.00  0.00     0.010 A 
ATOM     13  C   UNL A   1      41.640  26.723  27.681  1.00  0.00    -0.014 A 
BRANCH  13  14
ATOM     14  C   UNL A   1      41.485  27.983  28.415  1.00  0.00     0.031 A 
ATOM     15  C   UNL A   1      42.547  29.022  28.228  1.00  0.00     0.074 A 
ATOM     16  C   UNL A   1      40.378  28.326  29.102  1.00  0.00     0.049 A 
ATOM     17  N   UNL A   1      43.247  29.645  29.126  1.00  0.00    -0.248 NA
ATOM     18  C   UNL A   1      42.862  29.419  26.846  1.00  0.00     0.031 C 
ATOM     19  C   UNL A   1      39.085  27.641  29.143  1.00  0.00     0.029 A 
ATOM     20  N   UNL A   1      40.162  29.450  29.849  1.00  0.00    -0.354 N 
ATOM     21  C   UNL A   1      43.993  30.607  28.444  1.00  0.00     0.074 A 
ATOM     22  C   UNL A   1      43.762  30.384  27.038  1.00  0.00     0.031 C 
ATOM     23  C   UNL A   1      38.169  28.459  29.707  1.00  0.00     0.029 A 
ATOM     24  C   UNL A   1      38.836  29.660  30.184  1.00  0.00     0.049 A 
ATOM     25  H   UNL A   1      40.886  30.058  30.124  1.00  0.00     0.167 HD
ATOM     26  C   UNL A   1      44.665  31.615  29.066  1.00  0.00     0.037 A 
ATOM     27  C   UNL A   1      38.308  30.761  30.765  1.00  0.00     0.037 A 
ATOM     28  C   UNL A   1      44.880  31.362  30.461  1.00  0.00     0.049 A 
ATOM     29  C   UNL A   1      39.399  31.530  31.405  1.00  0.00     0.074 A 
ATOM     30  C   UNL A   1      45.562  30.406  31.188  1.00  0.00     0.029 A 
ATOM     31  N   UNL A   1      44.124  32.044  31.378  1.00  0.00    -0.354 N 
ATOM     32  N   UNL A   1      40.041  31.161  32.477  1.00  0.00    -0.248 NA
ATOM     33  C   UNL A   1      40.015  32.612  30.653  1.00  0.00     0.031 C 
ATOM     34  C   UNL A   1      44.820  30.252  32.395  1.00  0.00     0.029 A 
ATOM     35  C   UNL A   1      43.733  31.125  32.318  1.00  0.00     0.049 A 
ATOM     36  H   UNL A   1      43.904  33.003  31.365  1.00  0.00     0.167 HD
ATOM     37  C   UNL A   1      41.318  31.674  32.322  1.00  0.00     0.074 A 
ATOM     38  C   UNL A   1      41.202  32.664  31.259  1.00  0.00     0.031 C 
ATOM     39  C   UNL A   1      42.402  31.055  32.874  1.00  0.00     0.037 A 
BRANCH  26  40
ATOM     40  C   UNL A   1      44.953  32.956  28.445  1.00  0.00     0.057 A 
ATOM     41  C   UNL A   1      43.931  33.909  28.292  1.00  0.00     0.134 A 
ATOM     42  C   UNL A   1      46.154  33.243  27.767  1.00  0.00     0.134 A 
ATOM     43  F   UNL A   1      42.727  33.723  28.853  1.00  0.00    -0.206 F 
ATOM     44  C   UNL A   1      44.089  35.059  27.508  1.00  0.00     0.040 A 
ATOM     45  C   UNL A   1      46.339  34.410  27.017  1.00  0.00     0.040 A 
ATOM     46  F   UNL A   1      47.166  32.367  27.730  1.00  0.00    -0.206 F 
ATOM     47  C   UNL A   1      45.297  35.315  26.870  1.00  0.00     0.006 A 
ENDBRANCH  26  40
BRANCH  27  48
ATOM     48  C   UNL A   1      36.946  31.313  30.616  1.00  0.00     0.057 A 
ATOM     49  C   UNL A   1      36.134  31.571  31.727  1.00  0.00     0.134 A 
ATOM     50  C   UNL A   1      36.502  31.835  29.388  1.00  0.00     0.134 A 
ATOM     51  F   UNL A   1      36.498  31.154  32.948  1.00  0.00    -0.206 F 
ATOM     52  C   UNL A   1      34.951  32.313  31.626  1.00  0.00     0.040 A 
ATOM     53  C   UNL A   1      35.319  32.569  29.270  1.00  0.00     0.040 A 
ATOM     54  F   UNL A   1      37.248  31.723  28.278  1.00  0.00    -0.206 F 
ATOM     55  C   UNL A   1      34.544  32.820  30.395  1.00  0.00     0.006 A 
ENDBRANCH  27  48
BRANCH  39  56
ATOM     56  C   UNL A   1      42.149  29.990  33.903  1.00  0.00     0.057 A 
ATOM     57  C   UNL A   1      41.885  28.651  33.581  1.00  0.00     0.134 A 
ATOM     58  C   UNL A   1      42.317  30.294  35.259  1.00  0.00     0.134 A 
ATOM     59  F   UNL A   1      41.821  28.246  32.305  1.00  0.00    -0.206 F 
ATOM     60  C   UNL A   1      41.736  27.671  34.566  1.00  0.00     0.040 A 
ATOM     61  C   UNL A   1      42.204  29.317  36.252  1.00  0.00     0.040 A 
ATOM     62  F   UNL A   1      42.637  31.542  35.640  1.00  0.00    -0.206 F 
ATOM     63  C   UNL A   1      41.901  28.002  35.907  1.00  0.00     0.006 A 
ENDBRANCH  39  56
ENDBRANCH  13  14
ENDBRANCH   6   8
ENDBRANCH   3   4
ENDBRANCH   2   3
ENDBRANCH   1   2
BRANCH   1  64
ATOM     64  C   UNL A   1      37.786  23.830  25.411  1.00  0.00     0.002 C 
BRANCH  64  65
ATOM     65  C   UNL A   1      36.273  23.978  25.607  1.00  0.00     0.021 C 
BRANCH  65  66
ATOM     66  C   UNL A   1      35.502  22.682  25.829  1.00  0.00     0.116 C 
BRANCH  66  67
ATOM     67  N   UNL A   1      34.273  22.840  26.577  1.00  0.00    -0.352 N 
ATOM     68  C   UNL A   1      32.993  22.446  26.282  1.00  0.00     0.253 C 
ATOM     69  H   UNL A   1      34.373  23.306  27.438  1.00  0.00     0.163 HD
ATOM     70  O   UNL A   1      32.108  22.710  27.093  1.00  0.00    -0.269 OA
BRANCH  68  71
ATOM     71  C   UNL A   1      32.663  21.844  24.990  1.00  0.00     0.074 A 
ATOM     72  C   UNL A   1      32.508  22.534  23.785  1.00  0.00     0.148 A 
ATOM     73  C   UNL A   1      32.629  20.408  24.768  1.00  0.00    -0.009 A 
ATOM     74  S   UNL A   1      32.205  21.451  22.487  1.00  0.00    -0.120 S 
ATOM     75  C   UNL A   1      32.381  20.086  23.450  1.00  0.00     0.064 A 
ATOM     76  C   UNL A   1      32.831  19.307  25.774  1.00  0.00     0.099 C 
ATOM     77  C   UNL A   1      32.334  18.698  22.887  1.00  0.00     0.308 C 
ATOM     78  C   UNL A   1      33.050  17.943  25.073  1.00  0.00     0.265 C 
ATOM     79  N   UNL A   1      32.116  17.704  23.952  1.00  0.00    -0.342 N 
ATOM     80  H   UNL A   1      31.158  17.780  24.291  1.00  0.00     0.346 HD
ATOM     81  H   UNL A   1      32.282  16.772  23.575  1.00  0.00     0.346 HD
BRANCH  72  82
ATOM     82  S   UNL A   1      32.634  24.278  23.345  1.00  0.00     0.253 S 
ATOM     83  O   UNL A   1      33.918  24.404  22.706  1.00  0.00    -0.206 OA
ATOM     84  O   UNL A   1      31.400  24.544  22.627  1.00  0.00    -0.206 OA
BRANCH  82  85
ATOM     85  N   UNL A   1      32.693  25.311  24.712  1.00  0.00    -0.197 NA
ATOM     86  C   UNL A   1      33.781  26.315  24.720  1.00  0.00     0.102 C 
ATOM     87  C   UNL A   1      31.364  25.688  25.266  1.00  0.00     0.102 C 
ATOM     88  C   UNL A   1      33.795  27.146  25.996  1.00  0.00     0.017 C 
ATOM     89  C   UNL A   1      31.448  26.575  26.496  1.00  0.00     0.017 C 
ATOM     90  C   UNL A   1      32.420  27.723  26.288  1.00  0.00     0.003 C 
ENDBRANCH  82  85
ENDBRANCH  72  82
ENDBRANCH  68  71
ENDBRANCH  66  67
ENDBRANCH  65  66
ENDBRANCH  64  65
ENDBRANCH   1  64
TORSDOF 15
ENDMDL
MODEL 3
REMARK VINA RESULT:     -11.7      1.360      2.192
REMARK SMILES O=C(NCCCCCCNC(=O)c1c(S(=O)(=O)N2CCCCC2)sc2c1CC[NH2+]C2)c1ccc(-c2c3nc(c(-c4c(F)cccc4F)c4ccc([nH]4)c(-c4c(F)cccc4F)c4nc(c(-c5c(F)cccc5F)c5ccc2[nH]5)C=C4)C=C3)cc1
REMARK SMILES IDX 6 1 5 2 4 3 3 4 1 5 2 6 31 8 32 9 84 10 33 11 83 12 34 13
REMARK SMILES IDX 35 14 36 15 77 16 37 17 82 18 76 19 78 20 38 21 81 22 75 23
REMARK SMILES IDX 74 24 39 26 65 27 48 28 64 29 49 30 52 31 63 32 79 33 50 34
REMARK SMILES IDX 51 35 62 37 80 38 53 39 40 40 41 41 46 42 42 43 43 44 45 45
REMARK SMILES IDX 47 46 44 47 66 48 67 49 72 50 68 51 69 52 71 53 73 54 70 55
REMARK SMILES IDX 54 56 55 57 60 58 56 59 57 60 59 61 61 62 58 63 7 64 8 65
REMARK SMILES IDX 9 66 10 67 11 68 12 70 13 71 14 72 26 73 24 74 25 75 27 76
REMARK SMILES IDX 30 77 28 78 29 79 15 82 16 83 17 84 18 85 19 86 23 87 20 88
REMARK SMILES IDX 22 89 21 90
REMARK H PARENT 3 7 78 25 52 36 10 69 29 80 29 81
REMARK Flexibility Score: inf
ROOT
ATOM      1  C   UNL A   1      34.678  29.932  27.175  1.00  0.00     0.002 C 
ENDROOT
BRANCH   1   2
ATOM      2  C   UNL A   1      33.786  31.139  27.500  1.00  0.00     0.021 C 
BRANCH   2   3
ATOM      3  C   UNL A   1      34.504  32.338  28.117  1.00  0.00     0.116 C 
BRANCH   3   4
ATOM      4  N   UNL A   1      34.418  32.403  29.561  1.00  0.00    -0.352 N 
ATOM      5  O   UNL A   1      34.808  32.298  31.730  1.00  0.00    -0.269 OA
ATOM      6  C   UNL A   1      35.211  32.005  30.601  1.00  0.00     0.251 C 
ATOM      7  H   UNL A   1      33.590  32.838  29.867  1.00  0.00     0.163 HD
BRANCH   6   8
ATOM      8  C   UNL A   1      36.485  31.239  30.479  1.00  0.00     0.039 A 
ATOM      9  C   UNL A   1      37.765  31.785  30.382  1.00  0.00     0.014 A 
ATOM     10  C   UNL A   1      36.364  29.835  30.497  1.00  0.00     0.014 A 
ATOM     11  C   UNL A   1      38.886  30.958  30.276  1.00  0.00     0.010 A 
ATOM     12  C   UNL A   1      37.481  29.006  30.407  1.00  0.00     0.010 A 
ATOM     13  C   UNL A   1      38.749  29.567  30.279  1.00  0.00    -0.014 A 
BRANCH  13  14
ATOM     14  C   UNL A   1      39.968  28.751  30.237  1.00  0.00     0.031 A 
ATOM     15  C   UNL A   1      40.704  28.550  31.525  1.00  0.00     0.074 A 
ATOM     16  C   UNL A   1      40.366  28.042  29.163  1.00  0.00     0.049 A 
ATOM     17  N   UNL A   1      41.955  28.768  31.793  1.00  0.00    -0.248 NA
ATOM     18  C   UNL A   1      39.932  28.030  32.665  1.00  0.00     0.031 C 
ATOM     19  C   UNL A   1      39.640  27.798  27.915  1.00  0.00     0.029 A 
ATOM     20  N   UNL A   1      41.502  27.296  29.018  1.00  0.00    -0.354 N 
ATOM     21  C   UNL A   1      42.168  28.290  33.087  1.00  0.00     0.074 A 
ATOM     22  C   UNL A   1      40.877  27.900  33.597  1.00  0.00     0.031 C 
ATOM     23  C   UNL A   1      40.258  26.810  27.230  1.00  0.00     0.029 A 
ATOM     24  C   UNL A   1      41.487  26.451  27.921  1.00  0.00     0.049 A 
ATOM     25  H   UNL A   1      42.264  27.353  29.639  1.00  0.00     0.167 HD
ATOM     26  C   UNL A   1      43.406  28.120  33.630  1.00  0.00     0.037 A 
ATOM     27  C   UNL A   1      42.388  25.487  27.625  1.00  0.00     0.037 A 
ATOM     28  C   UNL A   1      44.423  28.853  32.934  1.00  0.00     0.049 A 
ATOM     29  C   UNL A   1      43.633  25.752  28.381  1.00  0.00     0.074 A 
ATOM     30  C   UNL A   1      44.671  30.188  32.686  1.00  0.00     0.029 A 
ATOM     31  N   UNL A   1      45.291  28.167  32.124  1.00  0.00    -0.354 N 
ATOM     32  N   UNL A   1      44.460  26.728  28.137  1.00  0.00    -0.248 NA
ATOM     33  C   UNL A   1      43.818  25.085  29.661  1.00  0.00     0.031 C 
ATOM     34  C   UNL A   1      45.312  30.222  31.414  1.00  0.00     0.029 A 
ATOM     35  C   UNL A   1      45.408  28.901  30.972  1.00  0.00     0.049 A 
ATOM     36  H   UNL A   1      45.740  27.316  32.328  1.00  0.00     0.167 HD
ATOM     37  C   UNL A   1      44.997  27.058  29.371  1.00  0.00     0.074 A 
ATOM     38  C   UNL A   1      44.672  25.932  30.237  1.00  0.00     0.031 C 
ATOM     39  C   UNL A   1      45.411  28.328  29.646  1.00  0.00     0.037 A 
BRANCH  26  40
ATOM     40  C   UNL A   1      43.738  27.105  34.690  1.00  0.00     0.057 A 
ATOM     41  C   UNL A   1      43.864  25.743  34.363  1.00  0.00     0.134 A 
ATOM     42  C   UNL A   1      43.694  27.394  36.068  1.00  0.00     0.134 A 
ATOM     43  F   UNL A   1      43.870  25.340  33.085  1.00  0.00    -0.206 F 
ATOM     44  C   UNL A   1      43.926  24.740  35.340  1.00  0.00     0.040 A 
ATOM     45  C   UNL A   1      43.801  26.406  37.052  1.00  0.00     0.040 A 
ATOM     46  F   UNL A   1      43.459  28.634  36.518  1.00  0.00    -0.206 F 
ATOM     47  C   UNL A   1      43.899  25.070  36.690  1.00  0.00     0.006 A 
ENDBRANCH  26  40
BRANCH  27  48
ATOM     48  C   UNL A   1      42.170  24.221  26.896  1.00  0.00     0.057 A 
ATOM     49  C   UNL A   1      43.085  23.759  25.941  1.00  0.00     0.134 A 
ATOM     50  C   UNL A   1      41.180  23.309  27.301  1.00  0.00     0.134 A 
ATOM     51  F   UNL A   1      44.093  24.540  25.529  1.00  0.00    -0.206 F 
ATOM     52  C   UNL A   1      43.024  22.459  25.424  1.00  0.00     0.040 A 
ATOM     53  C   UNL A   1      41.101  22.013  26.785  1.00  0.00     0.040 A 
ATOM     54  F   UNL A   1      40.309  23.618  28.273  1.00  0.00    -0.206 F 
ATOM     55  C   UNL A   1      42.034  21.580  25.851  1.00  0.00     0.006 A 
ENDBRANCH  27  48
BRANCH  39  56
ATOM     56  C   UNL A   1      45.559  29.280  28.494  1.00  0.00     0.057 A 
ATOM     57  C   UNL A   1      44.501  30.042  27.979  1.00  0.00     0.134 A 
ATOM     58  C   UNL A   1      46.835  29.541  27.980  1.00  0.00     0.134 A 
ATOM     59  F   UNL A   1      43.265  29.941  28.488  1.00  0.00    -0.206 F 
ATOM     60  C   UNL A   1      44.693  30.978  26.960  1.00  0.00     0.040 A 
ATOM     61  C   UNL A   1      47.046  30.499  26.985  1.00  0.00     0.040 A 
ATOM     62  F   UNL A   1      47.908  28.898  28.471  1.00  0.00    -0.206 F 
ATOM     63  C   UNL A   1      45.971  31.212  26.462  1.00  0.00     0.006 A 
ENDBRANCH  39  56
ENDBRANCH  13  14
ENDBRANCH   6   8
ENDBRANCH   3   4
ENDBRANCH   2   3
ENDBRANCH   1   2
BRANCH   1  64
ATOM     64  C   UNL A   1      34.004  28.553  27.138  1.00  0.00     0.002 C 
BRANCH  64  65
ATOM     65  C   UNL A   1      32.755  28.405  26.261  1.00  0.00     0.021 C 
BRANCH  65  66
ATOM     66  C   UNL A   1      32.782  29.158  24.936  1.00  0.00     0.116 C 
BRANCH  66  67
ATOM     67  N   UNL A   1      33.171  28.350  23.799  1.00  0.00    -0.352 N 
ATOM     68  C   UNL A   1      32.415  27.586  22.948  1.00  0.00     0.253 C 
ATOM     69  H   UNL A   1      34.136  28.351  23.607  1.00  0.00     0.163 HD
ATOM     70  O   UNL A   1      32.996  26.979  22.050  1.00  0.00    -0.269 OA
BRANCH  68  71
ATOM     71  C   UNL A   1      30.982  27.392  23.172  1.00  0.00     0.074 A 
ATOM     72  C   UNL A   1      30.407  26.376  23.940  1.00  0.00     0.148 A 
ATOM     73  C   UNL A   1      29.976  28.356  22.758  1.00  0.00    -0.009 A 
ATOM     74  S   UNL A   1      28.701  26.551  24.019  1.00  0.00    -0.120 S 
ATOM     75  C   UNL A   1      28.707  27.994  23.158  1.00  0.00     0.064 A 
ATOM     76  C   UNL A   1      30.174  29.634  21.988  1.00  0.00     0.099 C 
ATOM     77  C   UNL A   1      27.461  28.797  22.933  1.00  0.00     0.308 C 
ATOM     78  C   UNL A   1      28.908  30.525  22.049  1.00  0.00     0.265 C 
ATOM     79  N   UNL A   1      27.652  29.773  21.846  1.00  0.00    -0.342 N 
ATOM     80  H   UNL A   1      27.696  29.279  20.955  1.00  0.00     0.346 HD
ATOM     81  H   UNL A   1      26.870  30.426  21.846  1.00  0.00     0.346 HD
BRANCH  72  82
ATOM     82  S   UNL A   1      31.106  25.009  24.886  1.00  0.00     0.253 S 
ATOM     83  O   UNL A   1      30.984  25.417  26.263  1.00  0.00    -0.206 OA
ATOM     84  O   UNL A   1      30.407  23.843  24.376  1.00  0.00    -0.206 OA
BRANCH  82  85
ATOM     85  N   UNL A   1      32.784  24.793  24.613  1.00  0.00    -0.197 NA
ATOM     86  C   UNL A   1      33.648  24.840  25.814  1.00  0.00     0.102 C 
ATOM     87  C   UNL A   1      33.119  23.837  23.523  1.00  0.00     0.102 C 
ATOM     88  C   UNL A   1      35.125  24.702  25.473  1.00  0.00     0.017 C 
ATOM     89  C   UNL A   1      34.612  23.692  23.281  1.00  0.00     0.017 C 
ATOM     90  C   UNL A   1      35.370  23.494  24.582  1.00  0.00     0.003 C 
ENDBRANCH  82  85
ENDBRANCH  72  82
ENDBRANCH  68  71
ENDBRANCH  66  67
ENDBRANCH  65  66
ENDBRANCH  64  65
ENDBRANCH   1  64
TORSDOF 15
ENDMDL
