MODEL 1
REMARK VINA RESULT:     -10.5      0.000      0.000
REMARK SMILES CC[C@@](O)(C(=O)NCCCCCCNC(=O)c1ccc(-c2c3nc(c(-c4c(F)cccc4F)c4ccc([nH]4)c(-c4c(F)cccc4F)c4nc(c(-c5c(F)cccc5F)c5ccc2[nH]5)C=C4)C=C3)cc1)[C@@H](C)c1ccc(OC)c(OC)c1
REMARK SMILES IDX 10 1 9 2 8 3 7 4 5 5 6 6 3 8 2 9 1 10 4 11 71 13 72 14 73 15
REMARK SMILES IDX 74 16 82 17 75 18 79 19 76 20 80 21 81 22 77 23 78 24 11 25
REMARK SMILES IDX 12 26 13 27 14 28 15 29 16 31 17 32 18 33 70 34 19 35 69 36
REMARK SMILES IDX 20 37 21 38 22 39 63 40 23 41 68 42 62 43 64 44 24 45 67 46
REMARK SMILES IDX 61 47 60 48 25 50 51 51 34 52 50 53 35 54 38 55 49 56 65 57
REMARK SMILES IDX 36 58 37 59 48 61 66 62 39 63 26 64 27 65 32 66 28 67 29 68
REMARK SMILES IDX 31 69 33 70 30 71 52 72 53 73 58 74 54 75 55 76 57 77 59 78
REMARK SMILES IDX 56 79 40 80 41 81 46 82 42 83 43 84 45 85 47 86 44 87
REMARK H PARENT 7 7 4 12 14 30 64 49 38 60
REMARK Flexibility Score: inf
ROOT
ATOM      1  C   UNL A   1      32.407  29.745  26.441  1.00  0.00     0.002 C 
ENDROOT
BRANCH   1   2
ATOM      2  C   UNL A   1      31.772  28.596  27.219  1.00  0.00     0.021 C 
BRANCH   2   3
ATOM      3  C   UNL A   1      32.120  27.207  26.686  1.00  0.00     0.116 C 
BRANCH   3   4
ATOM      4  N   UNL A   1      31.035  26.252  26.871  1.00  0.00    -0.354 N 
ATOM      5  C   UNL A   1      30.920  24.947  26.450  1.00  0.00     0.252 C 
ATOM      6  O   UNL A   1      29.933  24.315  26.829  1.00  0.00    -0.272 OA
ATOM      7  H   UNL A   1      30.262  26.592  27.378  1.00  0.00     0.163 HD
BRANCH   5   8
ATOM      8  C   UNL A   1      32.022  24.320  25.529  1.00  0.00     0.149 C 
BRANCH   8   9
ATOM      9  C   UNL A   1      33.378  24.935  25.980  1.00  0.00     0.043 C 
ATOM     10  C   UNL A   1      34.604  24.733  25.111  1.00  0.00     0.007 C 
ENDBRANCH   8   9
BRANCH   8  11
ATOM     11  O   UNL A   1      31.926  22.916  25.833  1.00  0.00    -0.379 OA
ATOM     12  H   UNL A   1      31.270  22.502  25.250  1.00  0.00     0.212 HD
ENDBRANCH   8  11
BRANCH   8  13
ATOM     13  C   UNL A   1      31.691  24.530  23.993  1.00  0.00     0.058 C 
ATOM     14  C   UNL A   1      30.651  23.495  23.509  1.00  0.00     0.016 C 
BRANCH  13  15
ATOM     15  C   UNL A   1      31.274  25.946  23.532  1.00  0.00    -0.038 A 
ATOM     16  C   UNL A   1      29.921  26.305  23.478  1.00  0.00     0.008 A 
ATOM     17  C   UNL A   1      32.189  26.928  23.119  1.00  0.00     0.054 A 
ATOM     18  C   UNL A   1      29.533  27.604  23.121  1.00  0.00     0.051 A 
ATOM     19  C   UNL A   1      31.827  28.244  22.800  1.00  0.00     0.160 A 
ATOM     20  C   UNL A   1      30.477  28.590  22.811  1.00  0.00     0.160 A 
BRANCH  19  21
ATOM     21  O   UNL A   1      32.770  29.161  22.411  1.00  0.00    -0.493 OA
ATOM     22  C   UNL A   1      34.089  28.953  22.915  1.00  0.00     0.278 C 
ENDBRANCH  19  21
BRANCH  20  23
ATOM     23  O   UNL A   1      29.927  29.814  22.533  1.00  0.00    -0.493 OA
ATOM     24  C   UNL A   1      28.675  30.110  23.141  1.00  0.00     0.278 C 
ENDBRANCH  20  23
ENDBRANCH  13  15
ENDBRANCH   8  13
ENDBRANCH   5   8
ENDBRANCH   3   4
ENDBRANCH   2   3
ENDBRANCH   1   2
BRANCH   1  25
ATOM     25  C   UNL A   1      31.409  30.670  25.743  1.00  0.00     0.002 C 
BRANCH  25  26
ATOM     26  C   UNL A   1      31.192  32.022  26.428  1.00  0.00     0.021 C 
BRANCH  26  27
ATOM     27  C   UNL A   1      32.387  32.521  27.233  1.00  0.00     0.116 C 
BRANCH  27  28
ATOM     28  N   UNL A   1      32.274  33.936  27.549  1.00  0.00    -0.352 N 
ATOM     29  C   UNL A   1      32.976  34.678  28.461  1.00  0.00     0.251 C 
ATOM     30  H   UNL A   1      31.597  34.431  27.033  1.00  0.00     0.163 HD
ATOM     31  O   UNL A   1      32.601  35.811  28.760  1.00  0.00    -0.269 OA
BRANCH  29  32
ATOM     32  C   UNL A   1      34.178  34.107  29.099  1.00  0.00     0.039 A 
ATOM     33  C   UNL A   1      34.026  33.284  30.216  1.00  0.00     0.014 A 
ATOM     34  C   UNL A   1      35.452  34.386  28.595  1.00  0.00     0.014 A 
ATOM     35  C   UNL A   1      35.152  32.697  30.797  1.00  0.00     0.010 A 
ATOM     36  C   UNL A   1      36.562  33.739  29.126  1.00  0.00     0.010 A 
ATOM     37  C   UNL A   1      36.425  32.892  30.236  1.00  0.00    -0.014 A 
BRANCH  37  38
ATOM     38  C   UNL A   1      37.623  32.222  30.799  1.00  0.00     0.031 A 
ATOM     39  C   UNL A   1      38.278  32.761  32.041  1.00  0.00     0.074 A 
ATOM     40  C   UNL A   1      38.156  31.164  30.158  1.00  0.00     0.049 A 
ATOM     41  N   UNL A   1      39.364  32.352  32.647  1.00  0.00    -0.248 NA
ATOM     42  C   UNL A   1      37.644  33.930  32.672  1.00  0.00     0.031 C 
ATOM     43  C   UNL A   1      37.639  30.575  28.921  1.00  0.00     0.029 A 
ATOM     44  N   UNL A   1      39.256  30.400  30.454  1.00  0.00    -0.354 N 
ATOM     45  C   UNL A   1      39.546  33.216  33.718  1.00  0.00     0.074 A 
ATOM     46  C   UNL A   1      38.495  34.207  33.647  1.00  0.00     0.031 C 
ATOM     47  C   UNL A   1      38.406  29.528  28.578  1.00  0.00     0.029 A 
ATOM     48  C   UNL A   1      39.492  29.397  29.544  1.00  0.00     0.049 A 
ATOM     49  H   UNL A   1      39.824  30.554  31.244  1.00  0.00     0.167 HD
ATOM     50  C   UNL A   1      40.491  33.174  34.688  1.00  0.00     0.037 A 
ATOM     51  C   UNL A   1      40.478  28.482  29.489  1.00  0.00     0.037 A 
ATOM     52  C   UNL A   1      41.525  32.176  34.765  1.00  0.00     0.049 A 
ATOM     53  C   UNL A   1      41.526  28.470  30.568  1.00  0.00     0.074 A 
ATOM     54  C   UNL A   1      42.497  32.014  35.737  1.00  0.00     0.029 A 
ATOM     55  N   UNL A   1      41.725  31.170  33.830  1.00  0.00    -0.354 N 
ATOM     56  N   UNL A   1      41.647  29.251  31.613  1.00  0.00    -0.248 NA
ATOM     57  C   UNL A   1      42.572  27.442  30.463  1.00  0.00     0.031 C 
ATOM     58  C   UNL A   1      43.317  30.945  35.363  1.00  0.00     0.029 A 
ATOM     59  C   UNL A   1      42.820  30.402  34.189  1.00  0.00     0.049 A 
ATOM     60  H   UNL A   1      41.171  31.025  33.029  1.00  0.00     0.167 HD
ATOM     61  C   UNL A   1      42.760  28.791  32.306  1.00  0.00     0.074 A 
ATOM     62  C   UNL A   1      43.270  27.652  31.569  1.00  0.00     0.031 C 
ATOM     63  C   UNL A   1      43.309  29.265  33.451  1.00  0.00     0.037 A 
BRANCH  50  64
ATOM     64  C   UNL A   1      40.451  34.240  35.746  1.00  0.00     0.057 A 
ATOM     65  C   UNL A   1      41.132  35.456  35.597  1.00  0.00     0.134 A 
ATOM     66  C   UNL A   1      39.691  34.065  36.909  1.00  0.00     0.134 A 
ATOM     67  F   UNL A   1      41.888  35.685  34.512  1.00  0.00    -0.206 F 
ATOM     68  C   UNL A   1      41.080  36.448  36.579  1.00  0.00     0.040 A 
ATOM     69  C   UNL A   1      39.607  35.061  37.884  1.00  0.00     0.040 A 
ATOM     70  F   UNL A   1      39.009  32.928  37.114  1.00  0.00    -0.206 F 
ATOM     71  C   UNL A   1      40.309  36.255  37.723  1.00  0.00     0.006 A 
ENDBRANCH  50  64
BRANCH  51  72
ATOM     72  C   UNL A   1      40.514  27.490  28.384  1.00  0.00     0.057 A 
ATOM     73  C   UNL A   1      41.249  27.733  27.218  1.00  0.00     0.134 A 
ATOM     74  C   UNL A   1      39.807  26.284  28.459  1.00  0.00     0.134 A 
ATOM     75  F   UNL A   1      41.933  28.878  27.079  1.00  0.00    -0.206 F 
ATOM     76  C   UNL A   1      41.259  26.828  26.156  1.00  0.00     0.040 A 
ATOM     77  C   UNL A   1      39.831  25.356  27.417  1.00  0.00     0.040 A 
ATOM     78  F   UNL A   1      39.091  25.985  29.554  1.00  0.00    -0.206 F 
ATOM     79  C   UNL A   1      40.551  25.632  26.256  1.00  0.00     0.006 A 
ENDBRANCH  51  72
BRANCH  63  80
ATOM     80  C   UNL A   1      44.497  28.531  34.002  1.00  0.00     0.057 A 
ATOM     81  C   UNL A   1      45.811  28.903  33.694  1.00  0.00     0.134 A 
ATOM     82  C   UNL A   1      44.320  27.459  34.888  1.00  0.00     0.134 A 
ATOM     83  F   UNL A   1      46.051  29.912  32.843  1.00  0.00    -0.206 F 
ATOM     84  C   UNL A   1      46.906  28.221  34.227  1.00  0.00     0.040 A 
ATOM     85  C   UNL A   1      45.407  26.790  35.452  1.00  0.00     0.040 A 
ATOM     86  F   UNL A   1      43.088  27.056  35.234  1.00  0.00    -0.206 F 
ATOM     87  C   UNL A   1      46.705  27.166  35.115  1.00  0.00     0.006 A 
ENDBRANCH  63  80
ENDBRANCH  37  38
ENDBRANCH  29  32
ENDBRANCH  27  28
ENDBRANCH  26  27
ENDBRANCH  25  26
ENDBRANCH   1  25
TORSDOF 19
ENDMDL
MODEL 2
REMARK VINA RESULT:     -10.5      1.146      6.758
REMARK SMILES CC[C@@](O)(C(=O)NCCCCCCNC(=O)c1ccc(-c2c3nc(c(-c4c(F)cccc4F)c4ccc([nH]4)c(-c4c(F)cccc4F)c4nc(c(-c5c(F)cccc5F)c5ccc2[nH]5)C=C4)C=C3)cc1)[C@@H](C)c1ccc(OC)c(OC)c1
REMARK SMILES IDX 10 1 9 2 8 3 7 4 5 5 6 6 3 8 2 9 1 10 4 11 71 13 72 14 73 15
REMARK SMILES IDX 74 16 82 17 75 18 79 19 76 20 80 21 81 22 77 23 78 24 11 25
REMARK SMILES IDX 12 26 13 27 14 28 15 29 16 31 17 32 18 33 70 34 19 35 69 36
REMARK SMILES IDX 20 37 21 38 22 39 63 40 23 41 68 42 62 43 64 44 24 45 67 46
REMARK SMILES IDX 61 47 60 48 25 50 51 51 34 52 50 53 35 54 38 55 49 56 65 57
REMARK SMILES IDX 36 58 37 59 48 61 66 62 39 63 26 64 27 65 32 66 28 67 29 68
REMARK SMILES IDX 31 69 33 70 30 71 52 72 53 73 58 74 54 75 55 76 57 77 59 78
REMARK SMILES IDX 56 79 40 80 41 81 46 82 42 83 43 84 45 85 47 86 44 87
REMARK H PARENT 7 7 4 12 14 30 64 49 38 60
REMARK Flexibility Score: inf
ROOT
ATOM      1  C   UNL A   1      32.235  29.607  26.773  1.00  0.00     0.002 C 
ENDROOT
BRANCH   1   2
ATOM      2  C   UNL A   1      33.182  28.795  25.896  1.00  0.00     0.021 C 
BRANCH   2   3
ATOM      3  C   UNL A   1      33.381  29.363  24.491  1.00  0.00     0.116 C 
BRANCH   3   4
ATOM      4  N   UNL A   1      33.795  28.345  23.533  1.00  0.00    -0.354 N 
ATOM      5  C   UNL A   1      33.044  27.581  22.670  1.00  0.00     0.252 C 
ATOM      6  O   UNL A   1      33.652  26.857  21.880  1.00  0.00    -0.272 OA
ATOM      7  H   UNL A   1      34.765  28.179  23.496  1.00  0.00     0.163 HD
BRANCH   5   8
ATOM      8  C   UNL A   1      31.479  27.657  22.714  1.00  0.00     0.149 C 
BRANCH   8   9
ATOM      9  C   UNL A   1      31.111  29.168  22.777  1.00  0.00     0.043 C 
ATOM     10  C   UNL A   1      29.995  29.691  21.894  1.00  0.00     0.007 C 
ENDBRANCH   8   9
BRANCH   8  11
ATOM     11  O   UNL A   1      31.099  27.049  21.465  1.00  0.00    -0.379 OA
ATOM     12  H   UNL A   1      31.886  26.689  21.027  1.00  0.00     0.212 HD
ENDBRANCH   8  11
BRANCH   8  13
ATOM     13  C   UNL A   1      30.884  26.792  23.901  1.00  0.00     0.058 C 
ATOM     14  C   UNL A   1      29.349  26.663  23.771  1.00  0.00     0.016 C 
BRANCH  13  15
ATOM     15  C   UNL A   1      31.505  25.400  24.161  1.00  0.00    -0.038 A 
ATOM     16  C   UNL A   1      31.018  24.269  23.494  1.00  0.00     0.008 A 
ATOM     17  C   UNL A   1      32.547  25.175  25.077  1.00  0.00     0.054 A 
ATOM     18  C   UNL A   1      31.614  23.012  23.675  1.00  0.00     0.051 A 
ATOM     19  C   UNL A   1      33.184  23.938  25.242  1.00  0.00     0.160 A 
ATOM     20  C   UNL A   1      32.716  22.840  24.521  1.00  0.00     0.160 A 
BRANCH  19  21
ATOM     21  O   UNL A   1      34.202  23.783  26.148  1.00  0.00    -0.493 OA
ATOM     22  C   UNL A   1      35.525  23.924  25.631  1.00  0.00     0.278 C 
ENDBRANCH  19  21
BRANCH  20  23
ATOM     23  O   UNL A   1      33.202  21.559  24.541  1.00  0.00    -0.493 OA
ATOM     24  C   UNL A   1      32.250  20.511  24.685  1.00  0.00     0.278 C 
ENDBRANCH  20  23
ENDBRANCH  13  15
ENDBRANCH   8  13
ENDBRANCH   5   8
ENDBRANCH   3   4
ENDBRANCH   2   3
ENDBRANCH   1   2
BRANCH   1  25
ATOM     25  C   UNL A   1      31.516  30.748  26.050  1.00  0.00     0.002 C 
BRANCH  25  26
ATOM     26  C   UNL A   1      31.334  32.024  26.875  1.00  0.00     0.021 C 
BRANCH  26  27
ATOM     27  C   UNL A   1      32.632  32.749  27.211  1.00  0.00     0.116 C 
BRANCH  27  28
ATOM     28  N   UNL A   1      32.397  34.136  27.583  1.00  0.00    -0.352 N 
ATOM     29  C   UNL A   1      33.001  34.884  28.558  1.00  0.00     0.251 C 
ATOM     30  H   UNL A   1      31.705  34.602  27.060  1.00  0.00     0.163 HD
ATOM     31  O   UNL A   1      32.527  35.970  28.889  1.00  0.00    -0.269 OA
BRANCH  29  32
ATOM     32  C   UNL A   1      34.217  34.377  29.222  1.00  0.00     0.039 A 
ATOM     33  C   UNL A   1      34.093  33.708  30.441  1.00  0.00     0.014 A 
ATOM     34  C   UNL A   1      35.476  34.564  28.643  1.00  0.00     0.014 A 
ATOM     35  C   UNL A   1      35.230  33.177  31.054  1.00  0.00     0.010 A 
ATOM     36  C   UNL A   1      36.594  33.969  29.216  1.00  0.00     0.010 A 
ATOM     37  C   UNL A   1      36.485  33.275  30.430  1.00  0.00    -0.014 A 
BRANCH  37  38
ATOM     38  C   UNL A   1      37.692  32.659  31.034  1.00  0.00     0.031 A 
ATOM     39  C   UNL A   1      38.311  31.438  30.412  1.00  0.00     0.074 A 
ATOM     40  C   UNL A   1      38.195  33.165  32.177  1.00  0.00     0.049 A 
ATOM     41  N   UNL A   1      39.326  30.723  30.827  1.00  0.00    -0.248 NA
ATOM     42  C   UNL A   1      37.691  30.937  29.174  1.00  0.00     0.031 C 
ATOM     43  C   UNL A   1      37.658  34.319  32.901  1.00  0.00     0.029 A 
ATOM     44  N   UNL A   1      39.267  32.768  32.935  1.00  0.00    -0.354 N 
ATOM     45  C   UNL A   1      39.458  29.688  29.910  1.00  0.00     0.074 A 
ATOM     46  C   UNL A   1      38.385  29.832  28.951  1.00  0.00     0.031 C 
ATOM     47  C   UNL A   1      38.417  34.551  33.984  1.00  0.00     0.029 A 
ATOM     48  C   UNL A   1      39.467  33.540  34.055  1.00  0.00     0.049 A 
ATOM     49  H   UNL A   1      39.840  32.002  32.700  1.00  0.00     0.167 HD
ATOM     50  C   UNL A   1      40.403  28.719  29.859  1.00  0.00     0.037 A 
ATOM     51  C   UNL A   1      40.386  33.438  35.033  1.00  0.00     0.037 A 
ATOM     52  C   UNL A   1      41.480  28.590  30.805  1.00  0.00     0.049 A 
ATOM     53  C   UNL A   1      41.411  32.340  34.963  1.00  0.00     0.074 A 
ATOM     54  C   UNL A   1      42.519  27.676  30.810  1.00  0.00     0.029 A 
ATOM     55  N   UNL A   1      41.653  29.398  31.920  1.00  0.00    -0.354 N 
ATOM     56  N   UNL A   1      41.566  31.409  34.053  1.00  0.00    -0.248 NA
ATOM     57  C   UNL A   1      42.396  32.283  36.053  1.00  0.00     0.031 C 
ATOM     58  C   UNL A   1      43.290  27.895  31.955  1.00  0.00     0.029 A 
ATOM     59  C   UNL A   1      42.767  28.985  32.633  1.00  0.00     0.049 A 
ATOM     60  H   UNL A   1      41.071  30.152  32.168  1.00  0.00     0.167 HD
ATOM     61  C   UNL A   1      42.681  30.678  34.442  1.00  0.00     0.074 A 
ATOM     62  C   UNL A   1      43.173  31.282  35.663  1.00  0.00     0.031 C 
ATOM     63  C   UNL A   1      43.250  29.604  33.841  1.00  0.00     0.037 A 
BRANCH  50  64
ATOM     64  C   UNL A   1      40.315  27.720  28.740  1.00  0.00     0.057 A 
ATOM     65  C   UNL A   1      40.992  27.905  27.527  1.00  0.00     0.134 A 
ATOM     66  C   UNL A   1      39.576  26.540  28.892  1.00  0.00     0.134 A 
ATOM     67  F   UNL A   1      41.709  29.018  27.311  1.00  0.00    -0.206 F 
ATOM     68  C   UNL A   1      40.916  26.966  26.497  1.00  0.00     0.040 A 
ATOM     69  C   UNL A   1      39.516  25.579  27.880  1.00  0.00     0.040 A 
ATOM     70  F   UNL A   1      38.907  26.295  30.029  1.00  0.00    -0.206 F 
ATOM     71  C   UNL A   1      40.183  25.795  26.675  1.00  0.00     0.006 A 
ENDBRANCH  50  64
BRANCH  51  72
ATOM     72  C   UNL A   1      40.391  34.409  36.157  1.00  0.00     0.057 A 
ATOM     73  C   UNL A   1      39.645  34.176  37.319  1.00  0.00     0.134 A 
ATOM     74  C   UNL A   1      41.126  35.599  36.093  1.00  0.00     0.134 A 
ATOM     75  F   UNL A   1      38.906  33.063  37.432  1.00  0.00    -0.206 F 
ATOM     76  C   UNL A   1      39.609  35.100  38.363  1.00  0.00     0.040 A 
ATOM     77  C   UNL A   1      41.123  36.518  37.142  1.00  0.00     0.040 A 
ATOM     78  F   UNL A   1      41.870  35.878  35.012  1.00  0.00    -0.206 F 
ATOM     79  C   UNL A   1      40.354  36.275  38.278  1.00  0.00     0.006 A 
ENDBRANCH  51  72
BRANCH  63  80
ATOM     80  C   UNL A   1      44.491  29.039  34.469  1.00  0.00     0.057 A 
ATOM     81  C   UNL A   1      45.771  29.498  34.132  1.00  0.00     0.134 A 
ATOM     82  C   UNL A   1      44.400  28.049  35.455  1.00  0.00     0.134 A 
ATOM     83  F   UNL A   1      45.930  30.436  33.186  1.00  0.00    -0.206 F 
ATOM     84  C   UNL A   1      46.916  28.975  34.736  1.00  0.00     0.040 A 
ATOM     85  C   UNL A   1      45.535  27.540  36.089  1.00  0.00     0.040 A 
ATOM     86  F   UNL A   1      43.205  27.570  35.833  1.00  0.00    -0.206 F 
ATOM     87  C   UNL A   1      46.798  27.999  35.723  1.00  0.00     0.006 A 
ENDBRANCH  63  80
ENDBRANCH  37  38
ENDBRANCH  29  32
ENDBRANCH  27  28
ENDBRANCH  26  27
ENDBRANCH  25  26
ENDBRANCH   1  25
TORSDOF 19
ENDMDL
MODEL 3
REMARK VINA RESULT:     -10.5      3.513      5.812
REMARK SMILES CC[C@@](O)(C(=O)NCCCCCCNC(=O)c1ccc(-c2c3nc(c(-c4c(F)cccc4F)c4ccc([nH]4)c(-c4c(F)cccc4F)c4nc(c(-c5c(F)cccc5F)c5ccc2[nH]5)C=C4)C=C3)cc1)[C@@H](C)c1ccc(OC)c(OC)c1
REMARK SMILES IDX 10 1 9 2 8 3 7 4 5 5 6 6 3 8 2 9 1 10 4 11 71 13 72 14 73 15
REMARK SMILES IDX 74 16 82 17 75 18 79 19 76 20 80 21 81 22 77 23 78 24 11 25
REMARK SMILES IDX 12 26 13 27 14 28 15 29 16 31 17 32 18 33 70 34 19 35 69 36
REMARK SMILES IDX 20 37 21 38 22 39 63 40 23 41 68 42 62 43 64 44 24 45 67 46
REMARK SMILES IDX 61 47 60 48 25 50 51 51 34 52 50 53 35 54 38 55 49 56 65 57
REMARK SMILES IDX 36 58 37 59 48 61 66 62 39 63 26 64 27 65 32 66 28 67 29 68
REMARK SMILES IDX 31 69 33 70 30 71 52 72 53 73 58 74 54 75 55 76 57 77 59 78
REMARK SMILES IDX 56 79 40 80 41 81 46 82 42 83 43 84 45 85 47 86 44 87
REMARK H PARENT 7 7 4 12 14 30 64 49 38 60
REMARK Flexibility Score: inf
ROOT
ATOM      1  C   UNL A   1      32.246  29.081  24.516  1.00  0.00     0.002 C 
ENDROOT
BRANCH   1   2
ATOM      2  C   UNL A   1      31.240  28.826  23.398  1.00  0.00     0.021 C 
BRANCH   2   3
ATOM      3  C   UNL A   1      31.103  27.358  22.997  1.00  0.00     0.116 C 
BRANCH   3   4
ATOM      4  N   UNL A   1      31.872  27.034  21.802  1.00  0.00    -0.354 N 
ATOM      5  C   UNL A   1      32.612  25.914  21.500  1.00  0.00     0.252 C 
ATOM      6  O   UNL A   1      33.089  25.840  20.366  1.00  0.00    -0.272 OA
ATOM      7  H   UNL A   1      31.859  27.724  21.099  1.00  0.00     0.163 HD
BRANCH   5   8
ATOM      8  C   UNL A   1      32.818  24.796  22.578  1.00  0.00     0.149 C 
BRANCH   8   9
ATOM      9  C   UNL A   1      31.550  24.812  23.480  1.00  0.00     0.043 C 
ATOM     10  C   UNL A   1      30.587  23.643  23.417  1.00  0.00     0.007 C 
ENDBRANCH   8   9
BRANCH   8  11
ATOM     11  O   UNL A   1      32.911  23.601  21.779  1.00  0.00    -0.379 OA
ATOM     12  H   UNL A   1      32.035  23.377  21.427  1.00  0.00     0.212 HD
ENDBRANCH   8  11
BRANCH   8  13
ATOM     13  C   UNL A   1      34.180  24.985  23.367  1.00  0.00     0.058 C 
ATOM     14  C   UNL A   1      34.006  25.985  24.532  1.00  0.00     0.016 C 
BRANCH  13  15
ATOM     15  C   UNL A   1      34.903  23.715  23.872  1.00  0.00    -0.038 A 
ATOM     16  C   UNL A   1      36.092  23.286  23.267  1.00  0.00     0.008 A 
ATOM     17  C   UNL A   1      34.419  22.911  24.917  1.00  0.00     0.054 A 
ATOM     18  C   UNL A   1      36.790  22.173  23.756  1.00  0.00     0.051 A 
ATOM     19  C   UNL A   1      35.120  21.820  25.449  1.00  0.00     0.160 A 
ATOM     20  C   UNL A   1      36.331  21.451  24.864  1.00  0.00     0.160 A 
BRANCH  19  21
ATOM     21  O   UNL A   1      34.597  21.077  26.477  1.00  0.00    -0.493 OA
ATOM     22  C   UNL A   1      33.917  21.811  27.494  1.00  0.00     0.278 C 
ENDBRANCH  19  21
BRANCH  20  23
ATOM     23  O   UNL A   1      37.159  20.425  25.236  1.00  0.00    -0.493 OA
ATOM     24  C   UNL A   1      38.530  20.746  25.443  1.00  0.00     0.278 C 
ENDBRANCH  20  23
ENDBRANCH  13  15
ENDBRANCH   8  13
ENDBRANCH   5   8
ENDBRANCH   3   4
ENDBRANCH   2   3
ENDBRANCH   1   2
BRANCH   1  25
ATOM     25  C   UNL A   1      31.665  28.998  25.929  1.00  0.00     0.002 C 
BRANCH  25  26
ATOM     26  C   UNL A   1      32.465  28.136  26.908  1.00  0.00     0.021 C 
BRANCH  26  27
ATOM     27  C   UNL A   1      33.852  28.676  27.239  1.00  0.00     0.116 C 
BRANCH  27  28
ATOM     28  N   UNL A   1      33.799  30.051  27.710  1.00  0.00    -0.352 N 
ATOM     29  C   UNL A   1      34.730  30.758  28.422  1.00  0.00     0.251 C 
ATOM     30  H   UNL A   1      32.976  30.543  27.484  1.00  0.00     0.163 HD
ATOM     31  O   UNL A   1      34.433  31.837  28.932  1.00  0.00    -0.269 OA
BRANCH  29  32
ATOM     32  C   UNL A   1      36.092  30.214  28.588  1.00  0.00     0.039 A 
ATOM     33  C   UNL A   1      36.986  30.289  27.519  1.00  0.00     0.014 A 
ATOM     34  C   UNL A   1      36.483  29.630  29.796  1.00  0.00     0.014 A 
ATOM     35  C   UNL A   1      38.293  29.825  27.680  1.00  0.00     0.010 A 
ATOM     36  C   UNL A   1      37.804  29.240  29.980  1.00  0.00     0.010 A 
ATOM     37  C   UNL A   1      38.722  29.328  28.922  1.00  0.00    -0.014 A 
BRANCH  37  38
ATOM     38  C   UNL A   1      40.125  28.893  29.131  1.00  0.00     0.031 A 
ATOM     39  C   UNL A   1      41.129  29.837  29.733  1.00  0.00     0.074 A 
ATOM     40  C   UNL A   1      40.510  27.668  28.722  1.00  0.00     0.049 A 
ATOM     41  N   UNL A   1      42.410  29.662  29.937  1.00  0.00    -0.248 NA
ATOM     42  C   UNL A   1      40.633  31.163  30.137  1.00  0.00     0.031 C 
ATOM     43  C   UNL A   1      39.641  26.678  28.082  1.00  0.00     0.029 A 
ATOM     44  N   UNL A   1      41.733  27.050  28.775  1.00  0.00    -0.354 N 
ATOM     45  C   UNL A   1      42.871  30.854  30.480  1.00  0.00     0.074 A 
ATOM     46  C   UNL A   1      41.748  31.764  30.521  1.00  0.00     0.031 C 
ATOM     47  C   UNL A   1      40.353  25.568  27.826  1.00  0.00     0.029 A 
ATOM     48  C   UNL A   1      41.735  25.783  28.242  1.00  0.00     0.049 A 
ATOM     49  H   UNL A   1      42.535  27.474  29.159  1.00  0.00     0.167 HD
ATOM     50  C   UNL A   1      44.114  31.155  30.927  1.00  0.00     0.037 A 
ATOM     51  C   UNL A   1      42.739  24.899  28.096  1.00  0.00     0.037 A 
ATOM     52  C   UNL A   1      45.225  30.240  30.901  1.00  0.00     0.049 A 
ATOM     53  C   UNL A   1      44.114  25.266  28.582  1.00  0.00     0.074 A 
ATOM     54  C   UNL A   1      46.510  30.430  31.379  1.00  0.00     0.029 A 
ATOM     55  N   UNL A   1      45.184  28.962  30.362  1.00  0.00    -0.354 N 
ATOM     56  N   UNL A   1      44.521  26.371  29.158  1.00  0.00    -0.248 NA
ATOM     57  C   UNL A   1      45.170  24.257  28.407  1.00  0.00     0.031 C 
ATOM     58  C   UNL A   1      47.261  29.288  31.082  1.00  0.00     0.029 A 
ATOM     59  C   UNL A   1      46.428  28.363  30.473  1.00  0.00     0.049 A 
ATOM     60  H   UNL A   1      44.389  28.543  29.960  1.00  0.00     0.167 HD
ATOM     61  C   UNL A   1      45.868  26.180  29.441  1.00  0.00     0.074 A 
ATOM     62  C   UNL A   1      46.205  24.846  28.987  1.00  0.00     0.031 C 
ATOM     63  C   UNL A   1      46.746  27.030  30.027  1.00  0.00     0.037 A 
BRANCH  50  64
ATOM     64  C   UNL A   1      44.339  32.532  31.484  1.00  0.00     0.057 A 
ATOM     65  C   UNL A   1      44.152  32.820  32.843  1.00  0.00     0.134 A 
ATOM     66  C   UNL A   1      44.786  33.573  30.660  1.00  0.00     0.134 A 
ATOM     67  F   UNL A   1      43.715  31.873  33.686  1.00  0.00    -0.206 F 
ATOM     68  C   UNL A   1      44.375  34.100  33.356  1.00  0.00     0.040 A 
ATOM     69  C   UNL A   1      45.041  34.848  31.167  1.00  0.00     0.040 A 
ATOM     70  F   UNL A   1      44.991  33.365  29.350  1.00  0.00    -0.206 F 
ATOM     71  C   UNL A   1      44.829  35.116  32.518  1.00  0.00     0.006 A 
ENDBRANCH  50  64
BRANCH  51  72
ATOM     72  C   UNL A   1      42.482  23.573  27.476  1.00  0.00     0.057 A 
ATOM     73  C   UNL A   1      42.227  22.444  28.263  1.00  0.00     0.134 A 
ATOM     74  C   UNL A   1      42.500  23.399  26.087  1.00  0.00     0.134 A 
ATOM     75  F   UNL A   1      42.215  22.543  29.600  1.00  0.00    -0.206 F 
ATOM     76  C   UNL A   1      42.025  21.186  27.694  1.00  0.00     0.040 A 
ATOM     77  C   UNL A   1      42.271  22.153  25.503  1.00  0.00     0.040 A 
ATOM     78  F   UNL A   1      42.729  24.443  25.276  1.00  0.00    -0.206 F 
ATOM     79  C   UNL A   1      42.042  21.039  26.309  1.00  0.00     0.006 A 
ENDBRANCH  51  72
BRANCH  63  80
ATOM     80  C   UNL A   1      48.144  26.532  30.251  1.00  0.00     0.057 A 
ATOM     81  C   UNL A   1      49.169  26.743  29.320  1.00  0.00     0.134 A 
ATOM     82  C   UNL A   1      48.477  25.864  31.436  1.00  0.00     0.134 A 
ATOM     83  F   UNL A   1      48.914  27.365  28.158  1.00  0.00    -0.206 F 
ATOM     84  C   UNL A   1      50.468  26.288  29.548  1.00  0.00     0.040 A 
ATOM     85  C   UNL A   1      49.780  25.431  31.691  1.00  0.00     0.040 A 
ATOM     86  F   UNL A   1      47.547  25.636  32.376  1.00  0.00    -0.206 F 
ATOM     87  C   UNL A   1      50.778  25.637  30.741  1.00  0.00     0.006 A 
ENDBRANCH  63  80
ENDBRANCH  37  38
ENDBRANCH  29  32
ENDBRANCH  27  28
ENDBRANCH  26  27
ENDBRANCH  25  26
ENDBRANCH   1  25
TORSDOF 19
ENDMDL
