MODEL 1
REMARK VINA RESULT:     -10.5      0.000      0.000
REMARK SMILES C[C@@](O)(CNC(=O)Cc1ccc(F)cc1F)C(=O)NCCCCCCNC(=O)c1ccc(-c2c3nc(c(-c4c(F)cccc4F)c4ccc([nH]4)c(-c4c(F)cccc4F)c4nc(c(-c5c(F)cccc5F)c5ccc2[nH]5)C=C4)C=C3)cc1
REMARK SMILES IDX 21 1 20 2 19 3 17 4 18 5 2 7 1 8 3 9 4 11 5 12 6 13 7 15
REMARK SMILES IDX 8 16 9 17 10 18 15 19 11 20 14 21 16 22 12 23 13 24 22 25
REMARK SMILES IDX 23 26 24 27 25 28 26 29 27 30 28 32 29 33 30 34 82 35 31 36
REMARK SMILES IDX 81 37 32 38 33 39 34 40 75 41 35 42 80 43 74 44 76 45 36 46
REMARK SMILES IDX 79 47 73 48 72 49 37 51 63 52 46 53 62 54 47 55 50 56 61 57
REMARK SMILES IDX 77 58 48 59 49 60 60 62 78 63 51 64 38 65 39 66 44 67 40 68
REMARK SMILES IDX 41 69 43 70 45 71 42 72 64 73 65 74 70 75 66 76 67 77 69 78
REMARK SMILES IDX 71 79 68 80 52 81 53 82 58 83 54 84 55 85 57 86 59 87 56 88
REMARK H PARENT 19 6 3 10 5 14 26 31 76 50 50 61
REMARK Flexibility Score: inf
ROOT
ATOM      1  C   UNL A   1      36.941  32.393  34.459  1.00  0.00     0.021 C 
ENDROOT
BRANCH   1   2
ATOM      2  C   UNL A   1      38.241  31.520  33.816  1.00  0.00     0.116 C 
BRANCH   2   3
ATOM      3  N   UNL A   1      37.978  30.107  33.998  1.00  0.00    -0.354 N 
ATOM      4  C   UNL A   1      38.759  29.093  33.496  1.00  0.00     0.253 C 
ATOM      5  O   UNL A   1      38.186  28.055  33.161  1.00  0.00    -0.272 OA
ATOM      6  H   UNL A   1      37.182  29.854  34.518  1.00  0.00     0.163 HD
BRANCH   4   7
ATOM      7  C   UNL A   1      40.316  29.250  33.464  1.00  0.00     0.157 C 
ATOM      8  C   UNL A   1      40.681  30.205  34.611  1.00  0.00     0.055 C 
BRANCH   7   9
ATOM      9  O   UNL A   1      40.684  29.945  32.251  1.00  0.00    -0.378 OA
ATOM     10  H   UNL A   1      41.639  30.121  32.256  1.00  0.00     0.212 HD
ENDBRANCH   7   9
BRANCH   7  11
ATOM     11  C   UNL A   1      41.191  27.953  33.522  1.00  0.00     0.160 C 
BRANCH  11  12
ATOM     12  N   UNL A   1      40.791  26.895  34.451  1.00  0.00    -0.352 N 
ATOM     13  C   UNL A   1      41.502  26.002  35.209  1.00  0.00     0.224 C 
ATOM     14  H   UNL A   1      39.815  26.807  34.552  1.00  0.00     0.163 HD
ATOM     15  O   UNL A   1      40.879  25.428  36.111  1.00  0.00    -0.275 OA
BRANCH  13  16
ATOM     16  C   UNL A   1      42.995  25.703  35.011  1.00  0.00     0.138 C 
BRANCH  16  17
ATOM     17  C   UNL A   1      43.475  24.406  35.654  1.00  0.00    -0.003 A 
ATOM     18  C   UNL A   1      44.418  24.525  37.208  1.00  0.00     0.010 A 
ATOM     19  C   UNL A   1      43.664  22.976  34.582  1.00  0.00     0.129 A 
ATOM     20  C   UNL A   1      45.688  23.283  37.548  1.00  0.00     0.040 A 
ATOM     21  C   UNL A   1      44.914  21.733  34.931  1.00  0.00     0.078 A 
ATOM     22  F   UNL A   1      43.035  22.938  33.400  1.00  0.00    -0.207 F 
ATOM     23  C   UNL A   1      45.898  21.867  36.420  1.00  0.00     0.126 A 
ATOM     24  F   UNL A   1      46.873  20.977  36.652  1.00  0.00    -0.207 F 
ENDBRANCH  16  17
ENDBRANCH  13  16
ENDBRANCH  11  12
ENDBRANCH   7  11
ENDBRANCH   4   7
ENDBRANCH   2   3
ENDBRANCH   1   2
BRANCH   1  25
ATOM     25  C   UNL A   1      35.203  33.478  33.712  1.00  0.00     0.002 C 
BRANCH  25  26
ATOM     26  C   UNL A   1      34.936  35.094  33.097  1.00  0.00     0.002 C 
BRANCH  26  27
ATOM     27  C   UNL A   1      33.553  35.507  32.581  1.00  0.00     0.021 C 
BRANCH  27  28
ATOM     28  C   UNL A   1      33.612  36.168  31.218  1.00  0.00     0.116 C 
BRANCH  28  29
ATOM     29  N   UNL A   1      32.757  35.444  30.295  1.00  0.00    -0.352 N 
ATOM     30  C   UNL A   1      33.156  34.609  29.281  1.00  0.00     0.251 C 
ATOM     31  H   UNL A   1      31.787  35.565  30.408  1.00  0.00     0.163 HD
ATOM     32  O   UNL A   1      32.442  34.443  28.298  1.00  0.00    -0.269 OA
BRANCH  30  33
ATOM     33  C   UNL A   1      34.453  33.903  29.390  1.00  0.00     0.039 A 
ATOM     34  C   UNL A   1      34.564  32.802  30.241  1.00  0.00     0.014 A 
ATOM     35  C   UNL A   1      35.578  34.372  28.703  1.00  0.00     0.014 A 
ATOM     36  C   UNL A   1      35.806  32.186  30.408  1.00  0.00     0.010 A 
ATOM     37  C   UNL A   1      36.778  33.680  28.771  1.00  0.00     0.010 A 
ATOM     38  C   UNL A   1      36.922  32.621  29.673  1.00  0.00    -0.014 A 
BRANCH  38  39
ATOM     39  C   UNL A   1      38.271  32.056  29.916  1.00  0.00     0.031 A 
ATOM     40  C   UNL A   1      39.251  32.817  30.775  1.00  0.00     0.074 A 
ATOM     41  C   UNL A   1      38.616  30.878  29.366  1.00  0.00     0.049 A 
ATOM     42  N   UNL A   1      40.482  32.510  31.094  1.00  0.00    -0.248 NA
ATOM     43  C   UNL A   1      38.801  34.109  31.327  1.00  0.00     0.031 C 
ATOM     44  C   UNL A   1      37.762  30.071  28.493  1.00  0.00     0.029 A 
ATOM     45  N   UNL A   1      39.771  30.146  29.469  1.00  0.00    -0.354 N 
ATOM     46  C   UNL A   1      40.945  33.566  31.872  1.00  0.00     0.074 A 
ATOM     47  C   UNL A   1      39.899  34.560  31.911  1.00  0.00     0.031 C 
ATOM     48  C   UNL A   1      38.403  28.934  28.182  1.00  0.00     0.029 A 
ATOM     49  C   UNL A   1      39.728  28.951  28.794  1.00  0.00     0.049 A 
ATOM     50  H   UNL A   1      40.557  30.450  29.980  1.00  0.00     0.167 HD
ATOM     51  C   UNL A   1      42.121  33.679  32.531  1.00  0.00     0.037 A 
ATOM     52  C   UNL A   1      40.654  27.979  28.686  1.00  0.00     0.037 A 
ATOM     53  C   UNL A   1      43.144  32.669  32.515  1.00  0.00     0.049 A 
ATOM     54  C   UNL A   1      41.964  28.140  29.408  1.00  0.00     0.074 A 
ATOM     55  C   UNL A   1      44.360  32.668  33.173  1.00  0.00     0.029 A 
ATOM     56  N   UNL A   1      43.064  31.478  31.811  1.00  0.00    -0.354 N 
ATOM     57  N   UNL A   1      42.370  29.124  30.176  1.00  0.00    -0.248 NA
ATOM     58  C   UNL A   1      42.941  27.055  29.258  1.00  0.00     0.031 C 
ATOM     59  C   UNL A   1      45.041  31.499  32.822  1.00  0.00     0.029 A 
ATOM     60  C   UNL A   1      44.220  30.741  32.004  1.00  0.00     0.049 A 
ATOM     61  H   UNL A   1      42.301  31.197  31.257  1.00  0.00     0.167 HD
ATOM     62  C   UNL A   1      43.630  28.759  30.629  1.00  0.00     0.074 A 
ATOM     63  C   UNL A   1      43.916  27.458  30.061  1.00  0.00     0.031 C 
ATOM     64  C   UNL A   1      44.476  29.438  31.444  1.00  0.00     0.037 A 
BRANCH  51  65
ATOM     65  C   UNL A   1      42.357  34.921  33.343  1.00  0.00     0.057 A 
ATOM     66  C   UNL A   1      41.861  35.030  34.648  1.00  0.00     0.134 A 
ATOM     67  C   UNL A   1      43.015  36.038  32.809  1.00  0.00     0.134 A 
ATOM     68  F   UNL A   1      41.219  34.001  35.221  1.00  0.00    -0.206 F 
ATOM     69  C   UNL A   1      41.995  36.208  35.385  1.00  0.00     0.040 A 
ATOM     70  C   UNL A   1      43.183  37.211  33.548  1.00  0.00     0.040 A 
ATOM     71  F   UNL A   1      43.528  35.998  31.570  1.00  0.00    -0.206 F 
ATOM     72  C   UNL A   1      42.660  37.302  34.836  1.00  0.00     0.006 A 
ENDBRANCH  51  65
BRANCH  52  73
ATOM     73  C   UNL A   1      40.355  26.753  27.902  1.00  0.00     0.057 A 
ATOM     74  C   UNL A   1      40.868  26.562  26.612  1.00  0.00     0.134 A 
ATOM     75  C   UNL A   1      39.540  25.740  28.423  1.00  0.00     0.134 A 
ATOM     76  F   UNL A   1      41.646  27.497  26.048  1.00  0.00    -0.206 F 
ATOM     77  C   UNL A   1      40.572  25.419  25.867  1.00  0.00     0.040 A 
ATOM     78  C   UNL A   1      39.261  24.578  27.701  1.00  0.00     0.040 A 
ATOM     79  F   UNL A   1      39.028  25.856  29.657  1.00  0.00    -0.206 F 
ATOM     80  C   UNL A   1      39.774  24.419  26.416  1.00  0.00     0.006 A 
ENDBRANCH  52  73
BRANCH  64  81
ATOM     81  C   UNL A   1      45.770  28.773  31.815  1.00  0.00     0.057 A 
ATOM     82  C   UNL A   1      45.877  28.048  33.010  1.00  0.00     0.134 A 
ATOM     83  C   UNL A   1      46.927  28.910  31.038  1.00  0.00     0.134 A 
ATOM     84  F   UNL A   1      44.811  27.891  33.810  1.00  0.00    -0.206 F 
ATOM     85  C   UNL A   1      47.089  27.496  33.424  1.00  0.00     0.040 A 
ATOM     86  C   UNL A   1      48.136  28.332  31.424  1.00  0.00     0.040 A 
ATOM     87  F   UNL A   1      46.891  29.586  29.879  1.00  0.00    -0.206 F 
ATOM     88  C   UNL A   1      48.222  27.632  32.626  1.00  0.00     0.006 A 
ENDBRANCH  64  81
ENDBRANCH  38  39
ENDBRANCH  30  33
ENDBRANCH  28  29
ENDBRANCH  27  28
ENDBRANCH  26  27
ENDBRANCH  25  26
ENDBRANCH   1  25
TORSDOF 18
ENDMDL
MODEL 2
REMARK VINA RESULT:     -10.2      4.231      7.306
REMARK SMILES C[C@@](O)(CNC(=O)Cc1ccc(F)cc1F)C(=O)NCCCCCCNC(=O)c1ccc(-c2c3nc(c(-c4c(F)cccc4F)c4ccc([nH]4)c(-c4c(F)cccc4F)c4nc(c(-c5c(F)cccc5F)c5ccc2[nH]5)C=C4)C=C3)cc1
REMARK SMILES IDX 21 1 20 2 19 3 17 4 18 5 2 7 1 8 3 9 4 11 5 12 6 13 7 15
REMARK SMILES IDX 8 16 9 17 10 18 15 19 11 20 14 21 16 22 12 23 13 24 22 25
REMARK SMILES IDX 23 26 24 27 25 28 26 29 27 30 28 32 29 33 30 34 82 35 31 36
REMARK SMILES IDX 81 37 32 38 33 39 34 40 75 41 35 42 80 43 74 44 76 45 36 46
REMARK SMILES IDX 79 47 73 48 72 49 37 51 63 52 46 53 62 54 47 55 50 56 61 57
REMARK SMILES IDX 77 58 48 59 49 60 60 62 78 63 51 64 38 65 39 66 44 67 40 68
REMARK SMILES IDX 41 69 43 70 45 71 42 72 64 73 65 74 70 75 66 76 67 77 69 78
REMARK SMILES IDX 71 79 68 80 52 81 53 82 58 83 54 84 55 85 57 86 59 87 56 88
REMARK H PARENT 19 6 3 10 5 14 26 31 76 50 50 61
REMARK Flexibility Score: inf
ROOT
ATOM      1  C   UNL A   1      34.683  30.873  27.758  1.00  0.00     0.021 C 
ENDROOT
BRANCH   1   2
ATOM      2  C   UNL A   1      33.702  29.901  26.779  1.00  0.00     0.116 C 
BRANCH   2   3
ATOM      3  N   UNL A   1      33.118  28.862  27.603  1.00  0.00    -0.354 N 
ATOM      4  C   UNL A   1      31.984  28.154  27.286  1.00  0.00     0.253 C 
ATOM      5  O   UNL A   1      31.262  27.801  28.220  1.00  0.00    -0.272 OA
ATOM      6  H   UNL A   1      33.567  28.649  28.453  1.00  0.00     0.163 HD
BRANCH   4   7
ATOM      7  C   UNL A   1      31.711  27.742  25.801  1.00  0.00     0.157 C 
ATOM      8  C   UNL A   1      33.070  27.350  25.201  1.00  0.00     0.055 C 
BRANCH   7   9
ATOM      9  O   UNL A   1      31.289  28.914  25.068  1.00  0.00    -0.378 OA
ATOM     10  H   UNL A   1      31.088  29.630  25.691  1.00  0.00     0.212 HD
ENDBRANCH   7   9
BRANCH   7  11
ATOM     11  C   UNL A   1      30.642  26.631  25.527  1.00  0.00     0.160 C 
BRANCH  11  12
ATOM     12  N   UNL A   1      30.621  25.464  26.412  1.00  0.00    -0.352 N 
ATOM     13  C   UNL A   1      31.292  24.270  26.397  1.00  0.00     0.224 C 
ATOM     14  H   UNL A   1      29.998  25.557  27.169  1.00  0.00     0.163 HD
ATOM     15  O   UNL A   1      31.266  23.612  27.444  1.00  0.00    -0.275 OA
BRANCH  13  16
ATOM     16  C   UNL A   1      32.068  23.735  25.186  1.00  0.00     0.138 C 
BRANCH  16  17
ATOM     17  C   UNL A   1      33.413  23.099  25.521  1.00  0.00    -0.003 A 
ATOM     18  C   UNL A   1      34.904  24.133  25.366  1.00  0.00     0.010 A 
ATOM     19  C   UNL A   1      33.530  21.310  25.406  1.00  0.00     0.129 A 
ATOM     20  C   UNL A   1      36.462  23.342  24.896  1.00  0.00     0.040 A 
ATOM     21  C   UNL A   1      35.083  20.524  24.957  1.00  0.00     0.078 A 
ATOM     22  F   UNL A   1      32.418  20.563  25.433  1.00  0.00    -0.207 F 
ATOM     23  C   UNL A   1      36.547  21.528  24.735  1.00  0.00     0.126 A 
ATOM     24  F   UNL A   1      37.691  20.954  24.339  1.00  0.00    -0.207 F 
ENDBRANCH  16  17
ENDBRANCH  13  16
ENDBRANCH  11  12
ENDBRANCH   7  11
ENDBRANCH   4   7
ENDBRANCH   2   3
ENDBRANCH   1   2
BRANCH   1  25
ATOM     25  C   UNL A   1      34.516  32.761  28.837  1.00  0.00     0.002 C 
BRANCH  25  26
ATOM     26  C   UNL A   1      34.166  34.411  28.375  1.00  0.00     0.002 C 
BRANCH  26  27
ATOM     27  C   UNL A   1      32.917  35.119  28.914  1.00  0.00     0.021 C 
BRANCH  27  28
ATOM     28  C   UNL A   1      33.240  36.424  29.612  1.00  0.00     0.116 C 
BRANCH  28  29
ATOM     29  N   UNL A   1      32.541  36.477  30.883  1.00  0.00    -0.352 N 
ATOM     30  C   UNL A   1      32.643  35.584  31.921  1.00  0.00     0.251 C 
ATOM     31  H   UNL A   1      31.928  37.236  31.015  1.00  0.00     0.163 HD
ATOM     32  O   UNL A   1      31.711  35.435  32.703  1.00  0.00    -0.269 OA
BRANCH  30  33
ATOM     33  C   UNL A   1      33.894  34.812  32.093  1.00  0.00     0.039 A 
ATOM     34  C   UNL A   1      33.825  33.451  32.395  1.00  0.00     0.014 A 
ATOM     35  C   UNL A   1      35.138  35.449  32.023  1.00  0.00     0.014 A 
ATOM     36  C   UNL A   1      35.001  32.740  32.639  1.00  0.00     0.010 A 
ATOM     37  C   UNL A   1      36.308  34.714  32.137  1.00  0.00     0.010 A 
ATOM     38  C   UNL A   1      36.252  33.367  32.512  1.00  0.00    -0.014 A 
BRANCH  38  39
ATOM     39  C   UNL A   1      37.506  32.664  32.873  1.00  0.00     0.031 A 
ATOM     40  C   UNL A   1      38.185  32.981  34.183  1.00  0.00     0.074 A 
ATOM     41  C   UNL A   1      38.034  31.756  32.032  1.00  0.00     0.049 A 
ATOM     42  N   UNL A   1      39.294  32.496  34.678  1.00  0.00    -0.248 NA
ATOM     43  C   UNL A   1      37.550  34.000  35.040  1.00  0.00     0.031 C 
ATOM     44  C   UNL A   1      37.483  31.393  30.726  1.00  0.00     0.029 A 
ATOM     45  N   UNL A   1      39.147  30.963  32.156  1.00  0.00    -0.354 N 
ATOM     46  C   UNL A   1      39.485  33.151  35.889  1.00  0.00     0.074 A 
ATOM     47  C   UNL A   1      38.430  34.126  36.020  1.00  0.00     0.031 C 
ATOM     48  C   UNL A   1      38.229  30.414  30.192  1.00  0.00     0.029 A 
ATOM     49  C   UNL A   1      39.336  30.113  31.094  1.00  0.00     0.049 A 
ATOM     50  H   UNL A   1      39.751  31.001  32.932  1.00  0.00     0.167 HD
ATOM     51  C   UNL A   1      40.433  32.931  36.829  1.00  0.00     0.037 A 
ATOM     52  C   UNL A   1      40.295  29.191  30.878  1.00  0.00     0.037 A 
ATOM     53  C   UNL A   1      41.461  31.934  36.707  1.00  0.00     0.049 A 
ATOM     54  C   UNL A   1      41.352  28.983  31.928  1.00  0.00     0.074 A 
ATOM     55  C   UNL A   1      42.452  31.606  37.614  1.00  0.00     0.029 A 
ATOM     56  N   UNL A   1      41.624  31.100  35.612  1.00  0.00    -0.354 N 
ATOM     57  N   UNL A   1      41.494  29.580  33.088  1.00  0.00    -0.248 NA
ATOM     58  C   UNL A   1      42.376  27.970  31.646  1.00  0.00     0.031 C 
ATOM     59  C   UNL A   1      43.249  30.610  37.043  1.00  0.00     0.029 A 
ATOM     60  C   UNL A   1      42.712  30.269  35.813  1.00  0.00     0.049 A 
ATOM     61  H   UNL A   1      41.051  31.099  34.811  1.00  0.00     0.167 HD
ATOM     62  C   UNL A   1      42.598  28.988  33.689  1.00  0.00     0.074 A 
ATOM     63  C   UNL A   1      43.080  27.977  32.769  1.00  0.00     0.031 C 
ATOM     64  C   UNL A   1      43.162  29.256  34.893  1.00  0.00     0.037 A 
BRANCH  51  65
ATOM     65  C   UNL A   1      40.389  33.761  38.081  1.00  0.00     0.057 A 
ATOM     66  C   UNL A   1      41.216  34.884  38.227  1.00  0.00     0.134 A 
ATOM     67  C   UNL A   1      39.582  33.412  39.172  1.00  0.00     0.134 A 
ATOM     68  F   UNL A   1      42.016  35.275  37.224  1.00  0.00    -0.206 F 
ATOM     69  C   UNL A   1      41.252  35.616  39.414  1.00  0.00     0.040 A 
ATOM     70  C   UNL A   1      39.586  34.155  40.354  1.00  0.00     0.040 A 
ATOM     71  F   UNL A   1      38.755  32.357  39.096  1.00  0.00    -0.206 F 
ATOM     72  C   UNL A   1      40.433  35.253  40.482  1.00  0.00     0.006 A 
ENDBRANCH  51  65
BRANCH  52  73
ATOM     73  C   UNL A   1      40.270  28.370  29.640  1.00  0.00     0.057 A 
ATOM     74  C   UNL A   1      41.003  28.732  28.503  1.00  0.00     0.134 A 
ATOM     75  C   UNL A   1      39.503  27.201  29.562  1.00  0.00     0.134 A 
ATOM     76  F   UNL A   1      41.750  29.845  28.505  1.00  0.00    -0.206 F 
ATOM     77  C   UNL A   1      40.966  27.970  27.333  1.00  0.00     0.040 A 
ATOM     78  C   UNL A   1      39.480  26.414  28.409  1.00  0.00     0.040 A 
ATOM     79  F   UNL A   1      38.788  26.792  30.621  1.00  0.00    -0.206 F 
ATOM     80  C   UNL A   1      40.208  26.802  27.288  1.00  0.00     0.006 A 
ENDBRANCH  52  73
BRANCH  64  81
ATOM     81  C   UNL A   1      44.333  28.415  35.315  1.00  0.00     0.057 A 
ATOM     82  C   UNL A   1      44.132  27.239  36.051  1.00  0.00     0.134 A 
ATOM     83  C   UNL A   1      45.655  28.802  35.066  1.00  0.00     0.134 A 
ATOM     84  F   UNL A   1      42.890  26.818  36.339  1.00  0.00    -0.206 F 
ATOM     85  C   UNL A   1      45.202  26.486  36.533  1.00  0.00     0.040 A 
ATOM     86  C   UNL A   1      46.734  28.039  35.513  1.00  0.00     0.040 A 
ATOM     87  F   UNL A   1      45.918  29.914  34.362  1.00  0.00    -0.206 F 
ATOM     88  C   UNL A   1      46.509  26.883  36.259  1.00  0.00     0.006 A 
ENDBRANCH  64  81
ENDBRANCH  38  39
ENDBRANCH  30  33
ENDBRANCH  28  29
ENDBRANCH  27  28
ENDBRANCH  26  27
ENDBRANCH  25  26
ENDBRANCH   1  25
TORSDOF 18
ENDMDL
MODEL 3
REMARK VINA RESULT:     -10.0      4.349      7.487
REMARK SMILES C[C@@](O)(CNC(=O)Cc1ccc(F)cc1F)C(=O)NCCCCCCNC(=O)c1ccc(-c2c3nc(c(-c4c(F)cccc4F)c4ccc([nH]4)c(-c4c(F)cccc4F)c4nc(c(-c5c(F)cccc5F)c5ccc2[nH]5)C=C4)C=C3)cc1
REMARK SMILES IDX 21 1 20 2 19 3 17 4 18 5 2 7 1 8 3 9 4 11 5 12 6 13 7 15
REMARK SMILES IDX 8 16 9 17 10 18 15 19 11 20 14 21 16 22 12 23 13 24 22 25
REMARK SMILES IDX 23 26 24 27 25 28 26 29 27 30 28 32 29 33 30 34 82 35 31 36
REMARK SMILES IDX 81 37 32 38 33 39 34 40 75 41 35 42 80 43 74 44 76 45 36 46
REMARK SMILES IDX 79 47 73 48 72 49 37 51 63 52 46 53 62 54 47 55 50 56 61 57
REMARK SMILES IDX 77 58 48 59 49 60 60 62 78 63 51 64 38 65 39 66 44 67 40 68
REMARK SMILES IDX 41 69 43 70 45 71 42 72 64 73 65 74 70 75 66 76 67 77 69 78
REMARK SMILES IDX 71 79 68 80 52 81 53 82 58 83 54 84 55 85 57 86 59 87 56 88
REMARK H PARENT 19 6 3 10 5 14 26 31 76 50 50 61
REMARK Flexibility Score: inf
ROOT
ATOM      1  C   UNL A   1      31.318  27.374  26.599  1.00  0.00     0.021 C 
ENDROOT
BRANCH   1   2
ATOM      2  C   UNL A   1      31.120  26.282  25.320  1.00  0.00     0.116 C 
BRANCH   2   3
ATOM      3  N   UNL A   1      30.543  26.993  24.196  1.00  0.00    -0.354 N 
ATOM      4  C   UNL A   1      31.214  27.906  23.418  1.00  0.00     0.253 C 
ATOM      5  O   UNL A   1      30.559  28.844  22.961  1.00  0.00    -0.272 OA
ATOM      6  H   UNL A   1      29.603  26.807  23.974  1.00  0.00     0.163 HD
BRANCH   4   7
ATOM      7  C   UNL A   1      32.721  27.672  23.065  1.00  0.00     0.157 C 
ATOM      8  C   UNL A   1      33.466  28.954  23.465  1.00  0.00     0.055 C 
BRANCH   7   9
ATOM      9  O   UNL A   1      32.849  27.584  21.628  1.00  0.00    -0.378 OA
ATOM     10  H   UNL A   1      33.015  26.662  21.373  1.00  0.00     0.212 HD
ENDBRANCH   7   9
BRANCH   7  11
ATOM     11  C   UNL A   1      33.431  26.409  23.658  1.00  0.00     0.160 C 
BRANCH  11  12
ATOM     12  N   UNL A   1      33.742  25.304  22.749  1.00  0.00    -0.352 N 
ATOM     13  C   UNL A   1      33.536  23.952  22.820  1.00  0.00     0.224 C 
ATOM     14  H   UNL A   1      34.189  25.591  21.920  1.00  0.00     0.163 HD
ATOM     15  O   UNL A   1      33.652  23.321  21.763  1.00  0.00    -0.275 OA
BRANCH  13  16
ATOM     16  C   UNL A   1      33.159  23.206  24.108  1.00  0.00     0.138 C 
BRANCH  16  17
ATOM     17  C   UNL A   1      34.345  22.754  24.953  1.00  0.00    -0.003 A 
ATOM     18  C   UNL A   1      35.506  24.030  25.539  1.00  0.00     0.010 A 
ATOM     19  C   UNL A   1      34.880  21.048  24.778  1.00  0.00     0.129 A 
ATOM     20  C   UNL A   1      37.248  23.586  25.745  1.00  0.00     0.040 A 
ATOM     21  C   UNL A   1      36.608  20.606  25.001  1.00  0.00     0.078 A 
ATOM     22  F   UNL A   1      34.047  20.135  24.263  1.00  0.00    -0.207 F 
ATOM     23  C   UNL A   1      37.779  21.858  25.512  1.00  0.00     0.126 A 
ATOM     24  F   UNL A   1      39.078  21.547  25.619  1.00  0.00    -0.207 F 
ENDBRANCH  16  17
ENDBRANCH  13  16
ENDBRANCH  11  12
ENDBRANCH   7  11
ENDBRANCH   4   7
ENDBRANCH   2   3
ENDBRANCH   1   2
BRANCH   1  25
ATOM     25  C   UNL A   1      31.866  29.470  26.856  1.00  0.00     0.002 C 
BRANCH  25  26
ATOM     26  C   UNL A   1      31.458  30.955  26.028  1.00  0.00     0.002 C 
BRANCH  26  27
ATOM     27  C   UNL A   1      31.330  32.268  26.810  1.00  0.00     0.021 C 
BRANCH  27  28
ATOM     28  C   UNL A   1      32.668  32.803  27.277  1.00  0.00     0.116 C 
BRANCH  28  29
ATOM     29  N   UNL A   1      32.537  34.210  27.605  1.00  0.00    -0.352 N 
ATOM     30  C   UNL A   1      33.058  34.857  28.698  1.00  0.00     0.251 C 
ATOM     31  H   UNL A   1      32.019  34.761  26.975  1.00  0.00     0.163 HD
ATOM     32  O   UNL A   1      32.520  35.870  29.133  1.00  0.00    -0.269 OA
BRANCH  30  33
ATOM     33  C   UNL A   1      34.283  34.327  29.339  1.00  0.00     0.039 A 
ATOM     34  C   UNL A   1      35.525  34.569  28.751  1.00  0.00     0.014 A 
ATOM     35  C   UNL A   1      34.196  33.531  30.486  1.00  0.00     0.014 A 
ATOM     36  C   UNL A   1      36.671  34.000  29.308  1.00  0.00     0.010 A 
ATOM     37  C   UNL A   1      35.347  33.076  31.111  1.00  0.00     0.010 A 
ATOM     38  C   UNL A   1      36.591  33.250  30.493  1.00  0.00    -0.014 A 
BRANCH  38  39
ATOM     39  C   UNL A   1      37.775  32.545  31.041  1.00  0.00     0.031 A 
ATOM     40  C   UNL A   1      38.398  33.030  32.327  1.00  0.00     0.074 A 
ATOM     41  C   UNL A   1      38.288  31.486  30.389  1.00  0.00     0.049 A 
ATOM     42  N   UNL A   1      39.444  32.569  32.963  1.00  0.00    -0.248 NA
ATOM     43  C   UNL A   1      37.784  34.207  32.970  1.00  0.00     0.031 C 
ATOM     44  C   UNL A   1      37.788  30.949  29.122  1.00  0.00     0.029 A 
ATOM     45  N   UNL A   1      39.338  30.663  30.707  1.00  0.00    -0.354 N 
ATOM     46  C   UNL A   1      39.610  33.398  34.067  1.00  0.00     0.074 A 
ATOM     47  C   UNL A   1      38.614  34.439  33.974  1.00  0.00     0.031 C 
ATOM     48  C   UNL A   1      38.498  29.858  28.798  1.00  0.00     0.029 A 
ATOM     49  C   UNL A   1      39.531  29.644  29.806  1.00  0.00     0.049 A 
ATOM     50  H   UNL A   1      39.900  30.791  31.506  1.00  0.00     0.167 HD
ATOM     51  C   UNL A   1      40.487  33.279  35.090  1.00  0.00     0.037 A 
ATOM     52  C   UNL A   1      40.438  28.648  29.801  1.00  0.00     0.037 A 
ATOM     53  C   UNL A   1      41.453  32.220  35.192  1.00  0.00     0.049 A 
ATOM     54  C   UNL A   1      41.419  28.553  30.938  1.00  0.00     0.074 A 
ATOM     55  C   UNL A   1      42.369  31.987  36.203  1.00  0.00     0.029 A 
ATOM     56  N   UNL A   1      41.622  31.214  34.254  1.00  0.00    -0.354 N 
ATOM     57  N   UNL A   1      41.535  29.319  31.997  1.00  0.00    -0.248 NA
ATOM     58  C   UNL A   1      42.389  27.452  30.885  1.00  0.00     0.031 C 
ATOM     59  C   UNL A   1      43.129  30.870  35.848  1.00  0.00     0.029 A 
ATOM     60  C   UNL A   1      42.641  30.367  34.654  1.00  0.00     0.049 A 
ATOM     61  H   UNL A   1      41.096  31.116  33.428  1.00  0.00     0.167 HD
ATOM     62  C   UNL A   1      42.562  28.770  32.753  1.00  0.00     0.074 A 
ATOM     63  C   UNL A   1      43.028  27.600  32.037  1.00  0.00     0.031 C 
ATOM     64  C   UNL A   1      43.075  29.195  33.935  1.00  0.00     0.037 A 
BRANCH  51  65
ATOM     65  C   UNL A   1      40.428  34.301  36.191  1.00  0.00     0.057 A 
ATOM     66  C   UNL A   1      39.554  34.139  37.274  1.00  0.00     0.134 A 
ATOM     67  C   UNL A   1      41.185  35.480  36.145  1.00  0.00     0.134 A 
ATOM     68  F   UNL A   1      38.798  33.035  37.380  1.00  0.00    -0.206 F 
ATOM     69  C   UNL A   1      39.423  35.117  38.260  1.00  0.00     0.040 A 
ATOM     70  C   UNL A   1      41.085  36.452  37.142  1.00  0.00     0.040 A 
ATOM     71  F   UNL A   1      42.052  35.693  35.144  1.00  0.00    -0.206 F 
ATOM     72  C   UNL A   1      40.192  36.278  38.197  1.00  0.00     0.006 A 
ENDBRANCH  51  65
BRANCH  52  73
ATOM     73  C   UNL A   1      40.428  27.642  28.708  1.00  0.00     0.057 A 
ATOM     74  C   UNL A   1      39.658  26.475  28.790  1.00  0.00     0.134 A 
ATOM     75  C   UNL A   1      41.200  27.820  27.553  1.00  0.00     0.134 A 
ATOM     76  F   UNL A   1      38.904  26.236  29.872  1.00  0.00    -0.206 F 
ATOM     77  C   UNL A   1      39.663  25.520  27.771  1.00  0.00     0.040 A 
ATOM     78  C   UNL A   1      41.192  26.888  26.514  1.00  0.00     0.040 A 
ATOM     79  F   UNL A   1      41.951  28.922  27.407  1.00  0.00    -0.206 F 
ATOM     80  C   UNL A   1      40.426  25.730  26.625  1.00  0.00     0.006 A 
ENDBRANCH  52  73
BRANCH  64  81
ATOM     81  C   UNL A   1      44.163  28.369  34.559  1.00  0.00     0.057 A 
ATOM     82  C   UNL A   1      45.508  28.633  34.267  1.00  0.00     0.134 A 
ATOM     83  C   UNL A   1      43.885  27.272  35.382  1.00  0.00     0.134 A 
ATOM     84  F   UNL A   1      45.845  29.661  33.472  1.00  0.00    -0.206 F 
ATOM     85  C   UNL A   1      46.535  27.828  34.760  1.00  0.00     0.040 A 
ATOM     86  C   UNL A   1      44.905  26.480  35.910  1.00  0.00     0.040 A 
ATOM     87  F   UNL A   1      42.618  26.968  35.706  1.00  0.00    -0.206 F 
ATOM     88  C   UNL A   1      46.234  26.751  35.589  1.00  0.00     0.006 A 
ENDBRANCH  64  81
ENDBRANCH  38  39
ENDBRANCH  30  33
ENDBRANCH  28  29
ENDBRANCH  27  28
ENDBRANCH  26  27
ENDBRANCH  25  26
ENDBRANCH   1  25
TORSDOF 18
ENDMDL
