MODEL 1
REMARK VINA RESULT:     -10.9      0.000      0.000
REMARK SMILES C[C@@H](CC(=O)NCCCCCCNC(=O)c1ccc(-c2c3nc(c(-c4c(F)cccc4F)c4ccc([nH]4)c(-c4c(F)cccc4F)c4nc(c(-c5c(F)cccc5F)c5ccc2[nH]5)C=C4)C=C3)cc1)c1ccc(Oc2ccccc2)cc1
REMARK SMILES IDX 8 1 7 2 6 3 4 4 5 5 3 7 2 8 1 9 70 10 71 11 82 12 72 13
REMARK SMILES IDX 81 14 73 15 74 16 75 17 76 18 80 19 77 20 79 21 78 22 9 23
REMARK SMILES IDX 10 24 11 25 12 26 13 27 14 28 15 30 16 31 17 32 69 33 18 34
REMARK SMILES IDX 68 35 19 36 20 37 21 38 62 39 22 40 67 41 61 42 63 43 23 44
REMARK SMILES IDX 66 45 60 46 59 47 24 49 50 50 33 51 49 52 34 53 37 54 48 55
REMARK SMILES IDX 64 56 35 57 36 58 47 60 65 61 38 62 25 63 26 64 31 65 27 66
REMARK SMILES IDX 28 67 30 68 32 69 29 70 51 71 52 72 57 73 53 74 54 75 56 76
REMARK SMILES IDX 58 77 55 78 39 79 40 80 45 81 41 82 42 83 44 84 46 85 43 86
REMARK H PARENT 6 6 13 29 63 48 37 59
REMARK Flexibility Score: inf
ROOT
ATOM      1  C   UNL A   1      32.568  24.654  22.922  1.00  0.00     0.021 C 
ENDROOT
BRANCH   1   2
ATOM      2  C   UNL A   1      32.447  25.751  21.865  1.00  0.00     0.116 C 
BRANCH   2   3
ATOM      3  N   UNL A   1      33.430  26.787  22.068  1.00  0.00    -0.356 N 
ATOM      4  C   UNL A   1      33.284  28.064  22.496  1.00  0.00     0.220 C 
ATOM      5  O   UNL A   1      34.317  28.713  22.687  1.00  0.00    -0.275 OA
ATOM      6  H   UNL A   1      34.357  26.523  21.863  1.00  0.00     0.163 HD
BRANCH   4   7
ATOM      7  C   UNL A   1      31.927  28.681  22.784  1.00  0.00     0.108 C 
BRANCH   7   8
ATOM      8  C   UNL A   1      31.290  28.675  24.197  1.00  0.00     0.025 C 
ATOM      9  C   UNL A   1      31.787  29.830  25.081  1.00  0.00     0.013 C 
BRANCH   8  10
ATOM     10  C   UNL A   1      31.179  27.391  25.012  1.00  0.00    -0.044 A 
ATOM     11  C   UNL A   1      32.262  27.023  25.837  1.00  0.00     0.008 A 
ATOM     12  C   UNL A   1      30.079  26.532  24.992  1.00  0.00     0.008 A 
ATOM     13  C   UNL A   1      32.254  25.832  26.572  1.00  0.00     0.047 A 
ATOM     14  C   UNL A   1      30.058  25.350  25.743  1.00  0.00     0.047 A 
ATOM     15  C   UNL A   1      31.154  24.980  26.520  1.00  0.00     0.127 A 
BRANCH  15  16
ATOM     16  O   UNL A   1      31.255  23.827  27.270  1.00  0.00    -0.457 OA
BRANCH  16  17
ATOM     17  C   UNL A   1      32.056  22.819  26.797  1.00  0.00     0.127 A 
ATOM     18  C   UNL A   1      33.182  22.467  27.540  1.00  0.00     0.047 A 
ATOM     19  C   UNL A   1      31.780  22.187  25.582  1.00  0.00     0.047 A 
ATOM     20  C   UNL A   1      34.006  21.433  27.096  1.00  0.00     0.004 A 
ATOM     21  C   UNL A   1      32.598  21.145  25.148  1.00  0.00     0.004 A 
ATOM     22  C   UNL A   1      33.707  20.765  25.906  1.00  0.00     0.000 A 
ENDBRANCH  16  17
ENDBRANCH  15  16
ENDBRANCH   8  10
ENDBRANCH   7   8
ENDBRANCH   4   7
ENDBRANCH   2   3
ENDBRANCH   1   2
BRANCH   1  23
ATOM     23  C   UNL A   1      33.947  23.990  23.005  1.00  0.00     0.002 C 
BRANCH  23  24
ATOM     24  C   UNL A   1      34.712  24.216  24.313  1.00  0.00     0.002 C 
BRANCH  24  25
ATOM     25  C   UNL A   1      35.963  23.354  24.500  1.00  0.00     0.021 C 
BRANCH  25  26
ATOM     26  C   UNL A   1      36.713  23.589  25.807  1.00  0.00     0.116 C 
BRANCH  26  27
ATOM     27  N   UNL A   1      37.763  22.607  26.019  1.00  0.00    -0.352 N 
ATOM     28  C   UNL A   1      39.067  22.796  26.393  1.00  0.00     0.251 C 
ATOM     29  H   UNL A   1      37.498  21.670  25.875  1.00  0.00     0.163 HD
ATOM     30  O   UNL A   1      39.868  21.862  26.331  1.00  0.00    -0.269 OA
BRANCH  28  31
ATOM     31  C   UNL A   1      39.524  24.120  26.865  1.00  0.00     0.039 A 
ATOM     32  C   UNL A   1      39.362  24.450  28.214  1.00  0.00     0.014 A 
ATOM     33  C   UNL A   1      40.073  25.050  25.977  1.00  0.00     0.014 A 
ATOM     34  C   UNL A   1      39.779  25.699  28.678  1.00  0.00     0.010 A 
ATOM     35  C   UNL A   1      40.555  26.266  26.453  1.00  0.00     0.010 A 
ATOM     36  C   UNL A   1      40.392  26.611  27.804  1.00  0.00    -0.014 A 
BRANCH  36  37
ATOM     37  C   UNL A   1      40.820  27.954  28.272  1.00  0.00     0.031 A 
ATOM     38  C   UNL A   1      42.282  28.310  28.289  1.00  0.00     0.074 A 
ATOM     39  C   UNL A   1      39.906  28.834  28.723  1.00  0.00     0.049 A 
ATOM     40  N   UNL A   1      42.865  29.403  28.711  1.00  0.00    -0.248 NA
ATOM     41  C   UNL A   1      43.216  27.287  27.789  1.00  0.00     0.031 C 
ATOM     42  C   UNL A   1      38.464  28.595  28.795  1.00  0.00     0.029 A 
ATOM     43  N   UNL A   1      40.058  30.106  29.211  1.00  0.00    -0.354 N 
ATOM     44  C   UNL A   1      44.228  29.191  28.547  1.00  0.00     0.074 A 
ATOM     45  C   UNL A   1      44.390  27.846  28.039  1.00  0.00     0.031 C 
ATOM     46  C   UNL A   1      37.861  29.695  29.276  1.00  0.00     0.029 A 
ATOM     47  C   UNL A   1      38.874  30.702  29.575  1.00  0.00     0.049 A 
ATOM     48  H   UNL A   1      40.932  30.551  29.295  1.00  0.00     0.167 HD
ATOM     49  C   UNL A   1      45.254  30.048  28.771  1.00  0.00     0.037 A 
ATOM     50  C   UNL A   1      38.636  31.923  30.088  1.00  0.00     0.037 A 
ATOM     51  C   UNL A   1      45.089  31.396  29.248  1.00  0.00     0.049 A 
ATOM     52  C   UNL A   1      39.789  32.862  30.316  1.00  0.00     0.074 A 
ATOM     53  C   UNL A   1      46.059  32.359  29.469  1.00  0.00     0.029 A 
ATOM     54  N   UNL A   1      43.870  31.973  29.572  1.00  0.00    -0.354 N 
ATOM     55  N   UNL A   1      41.068  32.668  30.107  1.00  0.00    -0.248 NA
ATOM     56  C   UNL A   1      39.461  34.196  30.839  1.00  0.00     0.031 C 
ATOM     57  C   UNL A   1      45.429  33.508  29.960  1.00  0.00     0.029 A 
ATOM     58  C   UNL A   1      44.063  33.277  29.998  1.00  0.00     0.049 A 
ATOM     59  H   UNL A   1      42.997  31.523  29.509  1.00  0.00     0.167 HD
ATOM     60  C   UNL A   1      41.693  33.866  30.433  1.00  0.00     0.074 A 
ATOM     61  C   UNL A   1      40.650  34.781  30.848  1.00  0.00     0.031 C 
ATOM     62  C   UNL A   1      43.011  34.180  30.389  1.00  0.00     0.037 A 
BRANCH  49  63
ATOM     63  C   UNL A   1      46.642  29.547  28.497  1.00  0.00     0.057 A 
ATOM     64  C   UNL A   1      47.245  29.689  27.239  1.00  0.00     0.134 A 
ATOM     65  C   UNL A   1      47.394  28.929  29.505  1.00  0.00     0.134 A 
ATOM     66  F   UNL A   1      46.575  30.259  26.226  1.00  0.00    -0.206 F 
ATOM     67  C   UNL A   1      48.529  29.204  26.984  1.00  0.00     0.040 A 
ATOM     68  C   UNL A   1      48.690  28.467  29.270  1.00  0.00     0.040 A 
ATOM     69  F   UNL A   1      46.882  28.766  30.734  1.00  0.00    -0.206 F 
ATOM     70  C   UNL A   1      49.257  28.597  28.004  1.00  0.00     0.006 A 
ENDBRANCH  49  63
BRANCH  50  71
ATOM     71  C   UNL A   1      37.245  32.348  30.381  1.00  0.00     0.057 A 
ATOM     72  C   UNL A   1      36.648  32.057  31.614  1.00  0.00     0.134 A 
ATOM     73  C   UNL A   1      36.476  33.045  29.442  1.00  0.00     0.134 A 
ATOM     74  F   UNL A   1      37.328  31.376  32.548  1.00  0.00    -0.206 F 
ATOM     75  C   UNL A   1      35.330  32.421  31.894  1.00  0.00     0.040 A 
ATOM     76  C   UNL A   1      35.166  33.437  29.717  1.00  0.00     0.040 A 
ATOM     77  F   UNL A   1      36.993  33.363  28.246  1.00  0.00    -0.206 F 
ATOM     78  C   UNL A   1      34.587  33.119  30.944  1.00  0.00     0.006 A 
ENDBRANCH  50  71
BRANCH  62  79
ATOM     79  C   UNL A   1      43.392  35.589  30.742  1.00  0.00     0.057 A 
ATOM     80  C   UNL A   1      43.703  35.970  32.052  1.00  0.00     0.134 A 
ATOM     81  C   UNL A   1      43.473  36.570  29.745  1.00  0.00     0.134 A 
ATOM     82  F   UNL A   1      43.632  35.081  33.055  1.00  0.00    -0.206 F 
ATOM     83  C   UNL A   1      44.053  37.286  32.364  1.00  0.00     0.040 A 
ATOM     84  C   UNL A   1      43.848  37.880  30.040  1.00  0.00     0.040 A 
ATOM     85  F   UNL A   1      43.197  36.268  28.466  1.00  0.00    -0.206 F 
ATOM     86  C   UNL A   1      44.131  38.243  31.354  1.00  0.00     0.006 A 
ENDBRANCH  62  79
ENDBRANCH  36  37
ENDBRANCH  28  31
ENDBRANCH  26  27
ENDBRANCH  25  26
ENDBRANCH  24  25
ENDBRANCH  23  24
ENDBRANCH   1  23
TORSDOF 17
ENDMDL
MODEL 2
REMARK VINA RESULT:     -10.6      2.958      8.051
REMARK SMILES C[C@@H](CC(=O)NCCCCCCNC(=O)c1ccc(-c2c3nc(c(-c4c(F)cccc4F)c4ccc([nH]4)c(-c4c(F)cccc4F)c4nc(c(-c5c(F)cccc5F)c5ccc2[nH]5)C=C4)C=C3)cc1)c1ccc(Oc2ccccc2)cc1
REMARK SMILES IDX 8 1 7 2 6 3 4 4 5 5 3 7 2 8 1 9 70 10 71 11 82 12 72 13
REMARK SMILES IDX 81 14 73 15 74 16 75 17 76 18 80 19 77 20 79 21 78 22 9 23
REMARK SMILES IDX 10 24 11 25 12 26 13 27 14 28 15 30 16 31 17 32 69 33 18 34
REMARK SMILES IDX 68 35 19 36 20 37 21 38 62 39 22 40 67 41 61 42 63 43 23 44
REMARK SMILES IDX 66 45 60 46 59 47 24 49 50 50 33 51 49 52 34 53 37 54 48 55
REMARK SMILES IDX 64 56 35 57 36 58 47 60 65 61 38 62 25 63 26 64 31 65 27 66
REMARK SMILES IDX 28 67 30 68 32 69 29 70 51 71 52 72 57 73 53 74 54 75 56 76
REMARK SMILES IDX 58 77 55 78 39 79 40 80 45 81 41 82 42 83 44 84 46 85 43 86
REMARK H PARENT 6 6 13 29 63 48 37 59
REMARK Flexibility Score: inf
ROOT
ATOM      1  C   UNL A   1      34.398  24.046  25.896  1.00  0.00     0.021 C 
ENDROOT
BRANCH   1   2
ATOM      2  C   UNL A   1      33.411  23.388  26.860  1.00  0.00     0.116 C 
BRANCH   2   3
ATOM      3  N   UNL A   1      32.948  22.120  26.352  1.00  0.00    -0.356 N 
ATOM      4  C   UNL A   1      31.916  21.831  25.523  1.00  0.00     0.220 C 
ATOM      5  O   UNL A   1      31.805  20.657  25.156  1.00  0.00    -0.275 OA
ATOM      6  H   UNL A   1      33.464  21.339  26.658  1.00  0.00     0.163 HD
BRANCH   4   7
ATOM      7  C   UNL A   1      30.955  22.889  25.010  1.00  0.00     0.108 C 
BRANCH   7   8
ATOM      8  C   UNL A   1      31.077  23.512  23.596  1.00  0.00     0.025 C 
ATOM      9  C   UNL A   1      32.246  22.930  22.786  1.00  0.00     0.013 C 
BRANCH   8  10
ATOM     10  C   UNL A   1      30.978  25.018  23.381  1.00  0.00    -0.044 A 
ATOM     11  C   UNL A   1      31.941  25.644  22.563  1.00  0.00     0.008 A 
ATOM     12  C   UNL A   1      30.003  25.839  23.951  1.00  0.00     0.008 A 
ATOM     13  C   UNL A   1      31.947  27.030  22.363  1.00  0.00     0.047 A 
ATOM     14  C   UNL A   1      29.992  27.222  23.735  1.00  0.00     0.047 A 
ATOM     15  C   UNL A   1      30.977  27.831  22.959  1.00  0.00     0.127 A 
BRANCH  15  16
ATOM     16  O   UNL A   1      31.081  29.182  22.709  1.00  0.00    -0.457 OA
BRANCH  16  17
ATOM     17  C   UNL A   1      29.928  29.926  22.692  1.00  0.00     0.127 A 
ATOM     18  C   UNL A   1      29.152  29.913  21.534  1.00  0.00     0.047 A 
ATOM     19  C   UNL A   1      29.559  30.710  23.788  1.00  0.00     0.047 A 
ATOM     20  C   UNL A   1      27.965  30.643  21.492  1.00  0.00     0.004 A 
ATOM     21  C   UNL A   1      28.364  31.428  23.746  1.00  0.00     0.004 A 
ATOM     22  C   UNL A   1      27.565  31.391  22.602  1.00  0.00     0.000 A 
ENDBRANCH  16  17
ENDBRANCH  15  16
ENDBRANCH   8  10
ENDBRANCH   7   8
ENDBRANCH   4   7
ENDBRANCH   2   3
ENDBRANCH   1   2
BRANCH   1  23
ATOM     23  C   UNL A   1      34.033  25.474  25.476  1.00  0.00     0.002 C 
BRANCH  23  24
ATOM     24  C   UNL A   1      32.841  26.095  26.210  1.00  0.00     0.002 C 
BRANCH  24  25
ATOM     25  C   UNL A   1      32.833  27.624  26.276  1.00  0.00     0.021 C 
BRANCH  25  26
ATOM     26  C   UNL A   1      34.106  28.248  26.837  1.00  0.00     0.116 C 
BRANCH  26  27
ATOM     27  N   UNL A   1      33.880  29.590  27.346  1.00  0.00    -0.352 N 
ATOM     28  C   UNL A   1      34.696  30.376  28.116  1.00  0.00     0.251 C 
ATOM     29  H   UNL A   1      33.017  29.993  27.101  1.00  0.00     0.163 HD
ATOM     30  O   UNL A   1      34.257  31.410  28.621  1.00  0.00    -0.269 OA
BRANCH  28  31
ATOM     31  C   UNL A   1      36.101  29.986  28.354  1.00  0.00     0.039 A 
ATOM     32  C   UNL A   1      37.036  30.168  27.330  1.00  0.00     0.014 A 
ATOM     33  C   UNL A   1      36.492  29.405  29.564  1.00  0.00     0.014 A 
ATOM     34  C   UNL A   1      38.367  29.798  27.531  1.00  0.00     0.010 A 
ATOM     35  C   UNL A   1      37.832  29.104  29.790  1.00  0.00     0.010 A 
ATOM     36  C   UNL A   1      38.778  29.276  28.768  1.00  0.00    -0.014 A 
BRANCH  36  37
ATOM     37  C   UNL A   1      40.184  28.854  28.994  1.00  0.00     0.031 A 
ATOM     38  C   UNL A   1      41.147  29.790  29.673  1.00  0.00     0.074 A 
ATOM     39  C   UNL A   1      40.607  27.654  28.551  1.00  0.00     0.049 A 
ATOM     40  N   UNL A   1      42.424  29.635  29.914  1.00  0.00    -0.248 NA
ATOM     41  C   UNL A   1      40.607  31.085  30.116  1.00  0.00     0.031 C 
ATOM     42  C   UNL A   1      39.782  26.674  27.844  1.00  0.00     0.029 A 
ATOM     43  N   UNL A   1      41.840  27.059  28.628  1.00  0.00    -0.354 N 
ATOM     44  C   UNL A   1      42.841  30.815  30.515  1.00  0.00     0.074 A 
ATOM     45  C   UNL A   1      41.696  31.699  30.553  1.00  0.00     0.031 C 
ATOM     46  C   UNL A   1      40.527  25.589  27.572  1.00  0.00     0.029 A 
ATOM     47  C   UNL A   1      41.886  25.810  28.058  1.00  0.00     0.049 A 
ATOM     48  H   UNL A   1      42.619  27.487  29.051  1.00  0.00     0.167 HD
ATOM     49  C   UNL A   1      44.060  31.129  31.017  1.00  0.00     0.037 A 
ATOM     50  C   UNL A   1      42.908  24.943  27.943  1.00  0.00     0.037 A 
ATOM     51  C   UNL A   1      45.190  30.237  31.005  1.00  0.00     0.049 A 
ATOM     52  C   UNL A   1      44.249  25.306  28.519  1.00  0.00     0.074 A 
ATOM     53  C   UNL A   1      46.457  30.442  31.525  1.00  0.00     0.029 A 
ATOM     54  N   UNL A   1      45.186  28.967  30.449  1.00  0.00    -0.354 N 
ATOM     55  N   UNL A   1      44.616  26.405  29.133  1.00  0.00    -0.248 NA
ATOM     56  C   UNL A   1      45.315  24.301  28.400  1.00  0.00     0.031 C 
ATOM     57  C   UNL A   1      47.229  29.308  31.251  1.00  0.00     0.029 A 
ATOM     58  C   UNL A   1      46.429  28.378  30.605  1.00  0.00     0.049 A 
ATOM     59  H   UNL A   1      44.413  28.546  30.007  1.00  0.00     0.167 HD
ATOM     60  C   UNL A   1      45.940  26.209  29.507  1.00  0.00     0.074 A 
ATOM     61  C   UNL A   1      46.307  24.882  29.058  1.00  0.00     0.031 C 
ATOM     62  C   UNL A   1      46.773  27.049  30.168  1.00  0.00     0.037 A 
BRANCH  49  63
ATOM     63  C   UNL A   1      44.226  32.492  31.623  1.00  0.00     0.057 A 
ATOM     64  C   UNL A   1      44.617  33.599  30.858  1.00  0.00     0.134 A 
ATOM     65  C   UNL A   1      43.978  32.706  32.986  1.00  0.00     0.134 A 
ATOM     66  F   UNL A   1      44.884  33.461  29.551  1.00  0.00    -0.206 F 
ATOM     67  C   UNL A   1      44.788  34.861  31.431  1.00  0.00     0.040 A 
ATOM     68  C   UNL A   1      44.117  33.969  33.564  1.00  0.00     0.040 A 
ATOM     69  F   UNL A   1      43.595  31.692  33.776  1.00  0.00    -0.206 F 
ATOM     70  C   UNL A   1      44.532  35.049  32.786  1.00  0.00     0.006 A 
ENDBRANCH  49  63
BRANCH  50  71
ATOM     71  C   UNL A   1      42.696  23.625  27.293  1.00  0.00     0.057 A 
ATOM     72  C   UNL A   1      42.229  22.527  28.026  1.00  0.00     0.134 A 
ATOM     73  C   UNL A   1      42.961  23.427  25.933  1.00  0.00     0.134 A 
ATOM     74  F   UNL A   1      41.974  22.651  29.337  1.00  0.00    -0.206 F 
ATOM     75  C   UNL A   1      42.054  21.274  27.437  1.00  0.00     0.040 A 
ATOM     76  C   UNL A   1      42.768  22.185  25.326  1.00  0.00     0.040 A 
ATOM     77  F   UNL A   1      43.402  24.441  25.175  1.00  0.00    -0.206 F 
ATOM     78  C   UNL A   1      42.320  21.103  26.079  1.00  0.00     0.006 A 
ENDBRANCH  50  71
BRANCH  62  79
ATOM     79  C   UNL A   1      48.145  26.536  30.497  1.00  0.00     0.057 A 
ATOM     80  C   UNL A   1      48.415  25.843  31.683  1.00  0.00     0.134 A 
ATOM     81  C   UNL A   1      49.202  26.716  29.596  1.00  0.00     0.134 A 
ATOM     82  F   UNL A   1      47.449  25.647  32.593  1.00  0.00    -0.206 F 
ATOM     83  C   UNL A   1      49.698  25.374  31.975  1.00  0.00     0.040 A 
ATOM     84  C   UNL A   1      50.481  26.227  29.865  1.00  0.00     0.040 A 
ATOM     85  F   UNL A   1      49.008  27.363  28.436  1.00  0.00    -0.206 F 
ATOM     86  C   UNL A   1      50.733  25.561  31.061  1.00  0.00     0.006 A 
ENDBRANCH  62  79
ENDBRANCH  36  37
ENDBRANCH  28  31
ENDBRANCH  26  27
ENDBRANCH  25  26
ENDBRANCH  24  25
ENDBRANCH  23  24
ENDBRANCH   1  23
TORSDOF 17
ENDMDL
MODEL 3
REMARK VINA RESULT:     -10.4      2.637      4.867
REMARK SMILES C[C@@H](CC(=O)NCCCCCCNC(=O)c1ccc(-c2c3nc(c(-c4c(F)cccc4F)c4ccc([nH]4)c(-c4c(F)cccc4F)c4nc(c(-c5c(F)cccc5F)c5ccc2[nH]5)C=C4)C=C3)cc1)c1ccc(Oc2ccccc2)cc1
REMARK SMILES IDX 8 1 7 2 6 3 4 4 5 5 3 7 2 8 1 9 70 10 71 11 82 12 72 13
REMARK SMILES IDX 81 14 73 15 74 16 75 17 76 18 80 19 77 20 79 21 78 22 9 23
REMARK SMILES IDX 10 24 11 25 12 26 13 27 14 28 15 30 16 31 17 32 69 33 18 34
REMARK SMILES IDX 68 35 19 36 20 37 21 38 62 39 22 40 67 41 61 42 63 43 23 44
REMARK SMILES IDX 66 45 60 46 59 47 24 49 50 50 33 51 49 52 34 53 37 54 48 55
REMARK SMILES IDX 64 56 35 57 36 58 47 60 65 61 38 62 25 63 26 64 31 65 27 66
REMARK SMILES IDX 28 67 30 68 32 69 29 70 51 71 52 72 57 73 53 74 54 75 56 76
REMARK SMILES IDX 58 77 55 78 39 79 40 80 45 81 41 82 42 83 44 84 46 85 43 86
REMARK H PARENT 6 6 13 29 63 48 37 59
REMARK Flexibility Score: inf
ROOT
ATOM      1  C   UNL A   1      36.631  22.058  24.808  1.00  0.00     0.021 C 
ENDROOT
BRANCH   1   2
ATOM      2  C   UNL A   1      35.637  21.265  25.657  1.00  0.00     0.116 C 
BRANCH   2   3
ATOM      3  N   UNL A   1      35.351  19.980  25.068  1.00  0.00    -0.356 N 
ATOM      4  C   UNL A   1      34.167  19.361  24.842  1.00  0.00     0.220 C 
ATOM      5  O   UNL A   1      34.201  18.297  24.216  1.00  0.00    -0.275 OA
ATOM      6  H   UNL A   1      36.145  19.469  24.785  1.00  0.00     0.163 HD
BRANCH   4   7
ATOM      7  C   UNL A   1      32.839  19.951  25.282  1.00  0.00     0.108 C 
BRANCH   7   8
ATOM      8  C   UNL A   1      32.107  21.054  24.476  1.00  0.00     0.025 C 
ATOM      9  C   UNL A   1      32.711  21.271  23.079  1.00  0.00     0.013 C 
BRANCH   8  10
ATOM     10  C   UNL A   1      31.739  22.389  25.111  1.00  0.00    -0.044 A 
ATOM     11  C   UNL A   1      30.956  23.295  24.365  1.00  0.00     0.008 A 
ATOM     12  C   UNL A   1      32.136  22.799  26.385  1.00  0.00     0.008 A 
ATOM     13  C   UNL A   1      30.624  24.561  24.860  1.00  0.00     0.047 A 
ATOM     14  C   UNL A   1      31.787  24.056  26.893  1.00  0.00     0.047 A 
ATOM     15  C   UNL A   1      31.049  24.955  26.126  1.00  0.00     0.127 A 
BRANCH  15  16
ATOM     16  O   UNL A   1      30.680  26.226  26.511  1.00  0.00    -0.457 OA
BRANCH  16  17
ATOM     17  C   UNL A   1      31.628  27.217  26.456  1.00  0.00     0.127 A 
ATOM     18  C   UNL A   1      32.549  27.192  25.409  1.00  0.00     0.047 A 
ATOM     19  C   UNL A   1      31.700  28.202  27.444  1.00  0.00     0.047 A 
ATOM     20  C   UNL A   1      33.512  28.196  25.315  1.00  0.00     0.004 A 
ATOM     21  C   UNL A   1      32.657  29.212  27.339  1.00  0.00     0.004 A 
ATOM     22  C   UNL A   1      33.558  29.211  26.273  1.00  0.00     0.000 A 
ENDBRANCH  16  17
ENDBRANCH  15  16
ENDBRANCH   8  10
ENDBRANCH   7   8
ENDBRANCH   4   7
ENDBRANCH   2   3
ENDBRANCH   1   2
BRANCH   1  23
ATOM     23  C   UNL A   1      37.668  22.854  25.607  1.00  0.00     0.002 C 
BRANCH  23  24
ATOM     24  C   UNL A   1      38.869  22.051  26.117  1.00  0.00     0.002 C 
BRANCH  24  25
ATOM     25  C   UNL A   1      39.164  20.755  25.358  1.00  0.00     0.021 C 
BRANCH  25  26
ATOM     26  C   UNL A   1      39.534  19.567  26.238  1.00  0.00     0.116 C 
BRANCH  26  27
ATOM     27  N   UNL A   1      40.817  18.992  25.871  1.00  0.00    -0.352 N 
ATOM     28  C   UNL A   1      42.053  19.582  25.827  1.00  0.00     0.251 C 
ATOM     29  H   UNL A   1      40.795  18.041  25.618  1.00  0.00     0.163 HD
ATOM     30  O   UNL A   1      42.998  18.993  25.301  1.00  0.00    -0.269 OA
BRANCH  28  31
ATOM     31  C   UNL A   1      42.259  20.927  26.403  1.00  0.00     0.039 A 
ATOM     32  C   UNL A   1      42.595  21.983  25.549  1.00  0.00     0.014 A 
ATOM     33  C   UNL A   1      42.162  21.143  27.780  1.00  0.00     0.014 A 
ATOM     34  C   UNL A   1      42.803  23.260  26.074  1.00  0.00     0.010 A 
ATOM     35  C   UNL A   1      42.298  22.430  28.294  1.00  0.00     0.010 A 
ATOM     36  C   UNL A   1      42.641  23.496  27.449  1.00  0.00    -0.014 A 
BRANCH  36  37
ATOM     37  C   UNL A   1      42.882  24.841  28.030  1.00  0.00     0.031 A 
ATOM     38  C   UNL A   1      44.270  25.235  28.459  1.00  0.00     0.074 A 
ATOM     39  C   UNL A   1      41.852  25.690  28.214  1.00  0.00     0.049 A 
ATOM     40  N   UNL A   1      44.678  26.336  29.037  1.00  0.00    -0.248 NA
ATOM     41  C   UNL A   1      45.335  24.246  28.233  1.00  0.00     0.031 C 
ATOM     42  C   UNL A   1      40.455  25.412  27.877  1.00  0.00     0.029 A 
ATOM     43  N   UNL A   1      41.824  26.958  28.736  1.00  0.00    -0.354 N 
ATOM     44  C   UNL A   1      46.038  26.163  29.260  1.00  0.00     0.074 A 
ATOM     45  C   UNL A   1      46.376  24.831  28.807  1.00  0.00     0.031 C 
ATOM     46  C   UNL A   1      39.710  26.488  28.179  1.00  0.00     0.029 A 
ATOM     47  C   UNL A   1      40.568  27.516  28.758  1.00  0.00     0.049 A 
ATOM     48  H   UNL A   1      42.626  27.424  29.065  1.00  0.00     0.167 HD
ATOM     49  C   UNL A   1      46.934  27.042  29.770  1.00  0.00     0.037 A 
ATOM     50  C   UNL A   1      40.161  28.723  29.193  1.00  0.00     0.037 A 
ATOM     51  C   UNL A   1      46.602  28.377  30.193  1.00  0.00     0.049 A 
ATOM     52  C   UNL A   1      41.174  29.687  29.744  1.00  0.00     0.074 A 
ATOM     53  C   UNL A   1      47.443  29.361  30.685  1.00  0.00     0.029 A 
ATOM     54  N   UNL A   1      45.325  28.917  30.166  1.00  0.00    -0.354 N 
ATOM     55  N   UNL A   1      42.466  29.530  29.900  1.00  0.00    -0.248 NA
ATOM     56  C   UNL A   1      40.674  31.004  30.165  1.00  0.00     0.031 C 
ATOM     57  C   UNL A   1      46.667  30.485  30.988  1.00  0.00     0.029 A 
ATOM     58  C   UNL A   1      45.352  30.218  30.640  1.00  0.00     0.049 A 
ATOM     59  H   UNL A   1      44.519  28.446  29.858  1.00  0.00     0.167 HD
ATOM     60  C   UNL A   1      42.940  30.739  30.399  1.00  0.00     0.074 A 
ATOM     61  C   UNL A   1      41.796  31.619  30.511  1.00  0.00     0.031 C 
ATOM     62  C   UNL A   1      44.207  31.087  30.728  1.00  0.00     0.037 A 
BRANCH  49  63
ATOM     63  C   UNL A   1      48.358  26.582  29.892  1.00  0.00     0.057 A 
ATOM     64  C   UNL A   1      48.811  25.865  31.008  1.00  0.00     0.134 A 
ATOM     65  C   UNL A   1      49.286  26.845  28.876  1.00  0.00     0.134 A 
ATOM     66  F   UNL A   1      47.977  25.593  32.024  1.00  0.00    -0.206 F 
ATOM     67  C   UNL A   1      50.141  25.457  31.126  1.00  0.00     0.040 A 
ATOM     68  C   UNL A   1      50.611  26.415  28.968  1.00  0.00     0.040 A 
ATOM     69  F   UNL A   1      48.920  27.520  27.776  1.00  0.00    -0.206 F 
ATOM     70  C   UNL A   1      51.043  25.726  30.100  1.00  0.00     0.006 A 
ENDBRANCH  49  63
BRANCH  50  71
ATOM     71  C   UNL A   1      38.731  29.106  29.088  1.00  0.00     0.057 A 
ATOM     72  C   UNL A   1      38.197  29.575  27.882  1.00  0.00     0.134 A 
ATOM     73  C   UNL A   1      37.866  29.024  30.186  1.00  0.00     0.134 A 
ATOM     74  F   UNL A   1      38.981  29.693  26.799  1.00  0.00    -0.206 F 
ATOM     75  C   UNL A   1      36.863  29.969  27.774  1.00  0.00     0.040 A 
ATOM     76  C   UNL A   1      36.523  29.392  30.087  1.00  0.00     0.040 A 
ATOM     77  F   UNL A   1      38.313  28.574  31.368  1.00  0.00    -0.206 F 
ATOM     78  C   UNL A   1      36.020  29.873  28.880  1.00  0.00     0.006 A 
ENDBRANCH  50  71
BRANCH  62  79
ATOM     79  C   UNL A   1      44.432  32.500  31.185  1.00  0.00     0.057 A 
ATOM     80  C   UNL A   1      44.387  32.861  32.536  1.00  0.00     0.134 A 
ATOM     81  C   UNL A   1      44.725  33.505  30.255  1.00  0.00     0.134 A 
ATOM     82  F   UNL A   1      44.099  31.947  33.477  1.00  0.00    -0.206 F 
ATOM     83  C   UNL A   1      44.596  34.180  32.945  1.00  0.00     0.040 A 
ATOM     84  C   UNL A   1      44.963  34.821  30.653  1.00  0.00     0.040 A 
ATOM     85  F   UNL A   1      44.793  33.224  28.944  1.00  0.00    -0.206 F 
ATOM     86  C   UNL A   1      44.891  35.162  32.001  1.00  0.00     0.006 A 
ENDBRANCH  62  79
ENDBRANCH  36  37
ENDBRANCH  28  31
ENDBRANCH  26  27
ENDBRANCH  25  26
ENDBRANCH  24  25
ENDBRANCH  23  24
ENDBRANCH   1  23
TORSDOF 17
ENDMDL
