MODEL 1
REMARK VINA RESULT:     -11.6      0.000      0.000
REMARK SMILES Cc1cccc(Nc2ccccc2C(=O)NCCCCCCNC(=O)c2ccc(-c3c4nc(c(-c5c(F)cccc5F)c5ccc([nH]5)c(-c5c(F)cccc5F)c5nc(c(-c6c(F)cccc6F)c6ccc3[nH]6)C=C5)C=C4)cc2)c1C
REMARK SMILES IDX 19 1 18 2 17 3 16 4 14 5 15 6 13 8 8 9 9 10 10 11 12 12
REMARK SMILES IDX 11 13 7 14 6 16 1 17 2 18 3 19 80 20 4 21 81 22 5 23 20 24
REMARK SMILES IDX 21 25 22 26 23 27 24 28 25 30 26 31 27 32 79 33 28 34 78 35
REMARK SMILES IDX 29 36 30 37 31 38 72 39 32 40 77 41 71 42 73 43 33 44 76 45
REMARK SMILES IDX 70 46 69 47 34 49 60 50 43 51 59 52 44 53 47 54 58 55 74 56
REMARK SMILES IDX 45 57 46 58 57 60 75 61 48 62 35 63 36 64 41 65 37 66 38 67
REMARK SMILES IDX 40 68 42 69 39 70 61 71 62 72 67 73 63 74 64 75 66 76 68 77
REMARK SMILES IDX 65 78 49 79 50 80 55 81 51 82 52 83 54 84 56 85 53 86
REMARK H PARENT 16 7 7 15 23 29 73 48 47 59
REMARK Flexibility Score: inf
ROOT
ATOM      1  C   UNL A   1      32.230  30.013  26.350  1.00  0.00     0.002 C 
ENDROOT
BRANCH   1   2
ATOM      2  C   UNL A   1      31.768  28.737  27.069  1.00  0.00     0.021 C 
BRANCH   2   3
ATOM      3  C   UNL A   1      32.343  27.419  26.558  1.00  0.00     0.116 C 
BRANCH   3   4
ATOM      4  N   UNL A   1      31.567  26.254  26.896  1.00  0.00    -0.352 N 
ATOM      5  C   UNL A   1      31.755  24.935  26.561  1.00  0.00     0.253 C 
ATOM      6  O   UNL A   1      30.994  24.114  27.081  1.00  0.00    -0.269 OA
ATOM      7  H   UNL A   1      30.777  26.431  27.457  1.00  0.00     0.163 HD
BRANCH   5   8
ATOM      8  C   UNL A   1      32.721  24.450  25.524  1.00  0.00     0.063 A 
ATOM      9  C   UNL A   1      32.614  24.514  24.120  1.00  0.00     0.051 A 
ATOM     10  C   UNL A   1      33.649  23.927  23.346  1.00  0.00     0.027 A 
ATOM     11  C   UNL A   1      34.787  23.363  23.922  1.00  0.00     0.002 A 
ATOM     12  C   UNL A   1      33.895  23.888  26.087  1.00  0.00     0.016 A 
ATOM     13  C   UNL A   1      34.921  23.363  25.299  1.00  0.00     0.001 A 
BRANCH   9  14
ATOM     14  N   UNL A   1      31.657  25.217  23.359  1.00  0.00    -0.355 N 
ATOM     15  H   UNL A   1      31.123  24.628  22.778  1.00  0.00     0.167 HD
BRANCH  14  16
ATOM     16  C   UNL A   1      31.293  26.574  23.244  1.00  0.00     0.042 A 
ATOM     17  C   UNL A   1      28.332  28.985  22.946  1.00  0.00     0.044 C 
ATOM     18  C   UNL A   1      29.729  28.423  22.953  1.00  0.00    -0.046 A 
ATOM     19  C   UNL A   1      30.785  29.257  22.561  1.00  0.00     0.004 A 
ATOM     20  C   UNL A   1      29.988  27.089  23.366  1.00  0.00    -0.025 A 
ATOM     21  C   UNL A   1      32.089  28.786  22.560  1.00  0.00     0.002 A 
ATOM     22  C   UNL A   1      28.865  26.291  23.982  1.00  0.00     0.047 C 
ATOM     23  C   UNL A   1      32.334  27.457  22.888  1.00  0.00     0.026 A 
ENDBRANCH  14  16
ENDBRANCH   9  14
ENDBRANCH   5   8
ENDBRANCH   3   4
ENDBRANCH   2   3
ENDBRANCH   1   2
BRANCH   1  24
ATOM     24  C   UNL A   1      31.149  30.958  25.810  1.00  0.00     0.002 C 
BRANCH  24  25
ATOM     25  C   UNL A   1      31.088  32.361  26.415  1.00  0.00     0.021 C 
BRANCH  25  26
ATOM     26  C   UNL A   1      32.348  32.850  27.119  1.00  0.00     0.116 C 
BRANCH  26  27
ATOM     27  N   UNL A   1      32.237  34.213  27.607  1.00  0.00    -0.352 N 
ATOM     28  C   UNL A   1      32.988  34.886  28.541  1.00  0.00     0.251 C 
ATOM     29  H   UNL A   1      31.508  34.739  27.205  1.00  0.00     0.163 HD
ATOM     30  O   UNL A   1      32.641  36.004  28.908  1.00  0.00    -0.269 OA
BRANCH  28  31
ATOM     31  C   UNL A   1      34.201  34.271  29.132  1.00  0.00     0.039 A 
ATOM     32  C   UNL A   1      35.439  34.508  28.524  1.00  0.00     0.014 A 
ATOM     33  C   UNL A   1      34.130  33.435  30.250  1.00  0.00     0.014 A 
ATOM     34  C   UNL A   1      36.606  33.961  29.068  1.00  0.00     0.010 A 
ATOM     35  C   UNL A   1      35.300  32.953  30.836  1.00  0.00     0.010 A 
ATOM     36  C   UNL A   1      36.550  33.204  30.247  1.00  0.00    -0.014 A 
BRANCH  36  37
ATOM     37  C   UNL A   1      37.774  32.640  30.873  1.00  0.00     0.031 A 
ATOM     38  C   UNL A   1      38.448  31.442  30.259  1.00  0.00     0.074 A 
ATOM     39  C   UNL A   1      38.231  33.142  32.037  1.00  0.00     0.049 A 
ATOM     40  N   UNL A   1      39.437  30.720  30.720  1.00  0.00    -0.248 NA
ATOM     41  C   UNL A   1      37.915  30.976  28.970  1.00  0.00     0.031 C 
ATOM     42  C   UNL A   1      37.646  34.275  32.757  1.00  0.00     0.029 A 
ATOM     43  N   UNL A   1      39.280  32.749  32.831  1.00  0.00    -0.354 N 
ATOM     44  C   UNL A   1      39.622  29.698  29.798  1.00  0.00     0.074 A 
ATOM     45  C   UNL A   1      38.616  29.870  28.771  1.00  0.00     0.031 C 
ATOM     46  C   UNL A   1      38.349  34.489  33.881  1.00  0.00     0.029 A 
ATOM     47  C   UNL A   1      39.407  33.489  33.981  1.00  0.00     0.049 A 
ATOM     48  H   UNL A   1      39.884  32.007  32.596  1.00  0.00     0.167 HD
ATOM     49  C   UNL A   1      40.553  28.715  29.796  1.00  0.00     0.037 A 
ATOM     50  C   UNL A   1      40.269  33.367  35.009  1.00  0.00     0.037 A 
ATOM     51  C   UNL A   1      41.581  28.573  30.793  1.00  0.00     0.049 A 
ATOM     52  C   UNL A   1      41.307  32.279  34.977  1.00  0.00     0.074 A 
ATOM     53  C   UNL A   1      42.620  27.660  30.835  1.00  0.00     0.029 A 
ATOM     54  N   UNL A   1      41.699  29.369  31.922  1.00  0.00    -0.354 N 
ATOM     55  N   UNL A   1      41.507  31.356  34.068  1.00  0.00    -0.248 NA
ATOM     56  C   UNL A   1      42.240  32.217  36.112  1.00  0.00     0.031 C 
ATOM     57  C   UNL A   1      43.346  27.879  32.011  1.00  0.00     0.029 A 
ATOM     58  C   UNL A   1      42.782  28.954  32.679  1.00  0.00     0.049 A 
ATOM     59  H   UNL A   1      41.102  30.116  32.152  1.00  0.00     0.167 HD
ATOM     60  C   UNL A   1      42.602  30.622  34.505  1.00  0.00     0.074 A 
ATOM     61  C   UNL A   1      43.028  31.211  35.758  1.00  0.00     0.031 C 
ATOM     62  C   UNL A   1      43.200  29.557  33.918  1.00  0.00     0.037 A 
BRANCH  49  63
ATOM     63  C   UNL A   1      40.501  27.714  28.679  1.00  0.00     0.057 A 
ATOM     64  C   UNL A   1      41.236  27.881  27.498  1.00  0.00     0.134 A 
ATOM     65  C   UNL A   1      39.721  26.555  28.795  1.00  0.00     0.134 A 
ATOM     66  F   UNL A   1      41.994  28.973  27.317  1.00  0.00    -0.206 F 
ATOM     67  C   UNL A   1      41.174  26.948  26.460  1.00  0.00     0.040 A 
ATOM     68  C   UNL A   1      39.673  25.602  27.776  1.00  0.00     0.040 A 
ATOM     69  F   UNL A   1      38.998  26.329  29.902  1.00  0.00    -0.206 F 
ATOM     70  C   UNL A   1      40.395  25.802  26.601  1.00  0.00     0.006 A 
ENDBRANCH  49  63
BRANCH  50  71
ATOM     71  C   UNL A   1      40.195  34.313  36.149  1.00  0.00     0.057 A 
ATOM     72  C   UNL A   1      40.860  35.543  36.108  1.00  0.00     0.134 A 
ATOM     73  C   UNL A   1      39.449  34.020  37.297  1.00  0.00     0.134 A 
ATOM     74  F   UNL A   1      41.606  35.872  35.043  1.00  0.00    -0.206 F 
ATOM     75  C   UNL A   1      40.795  36.445  37.172  1.00  0.00     0.040 A 
ATOM     76  C   UNL A   1      39.358  34.921  38.358  1.00  0.00     0.040 A 
ATOM     77  F   UNL A   1      38.782  32.860  37.393  1.00  0.00    -0.206 F 
ATOM     78  C   UNL A   1      40.036  36.136  38.299  1.00  0.00     0.006 A 
ENDBRANCH  50  71
BRANCH  62  79
ATOM     79  C   UNL A   1      44.402  28.976  34.603  1.00  0.00     0.057 A 
ATOM     80  C   UNL A   1      44.291  27.926  35.522  1.00  0.00     0.134 A 
ATOM     81  C   UNL A   1      45.689  29.431  34.288  1.00  0.00     0.134 A 
ATOM     82  F   UNL A   1      43.086  27.454  35.873  1.00  0.00    -0.206 F 
ATOM     83  C   UNL A   1      45.420  27.354  36.112  1.00  0.00     0.040 A 
ATOM     84  C   UNL A   1      46.825  28.853  34.855  1.00  0.00     0.040 A 
ATOM     85  F   UNL A   1      45.861  30.430  33.410  1.00  0.00    -0.206 F 
ATOM     86  C   UNL A   1      46.692  27.813  35.772  1.00  0.00     0.006 A 
ENDBRANCH  62  79
ENDBRANCH  36  37
ENDBRANCH  28  31
ENDBRANCH  26  27
ENDBRANCH  25  26
ENDBRANCH  24  25
ENDBRANCH   1  24
TORSDOF 15
ENDMDL
MODEL 2
REMARK VINA RESULT:     -11.3      3.727      7.981
REMARK SMILES Cc1cccc(Nc2ccccc2C(=O)NCCCCCCNC(=O)c2ccc(-c3c4nc(c(-c5c(F)cccc5F)c5ccc([nH]5)c(-c5c(F)cccc5F)c5nc(c(-c6c(F)cccc6F)c6ccc3[nH]6)C=C5)C=C4)cc2)c1C
REMARK SMILES IDX 19 1 18 2 17 3 16 4 14 5 15 6 13 8 8 9 9 10 10 11 12 12
REMARK SMILES IDX 11 13 7 14 6 16 1 17 2 18 3 19 80 20 4 21 81 22 5 23 20 24
REMARK SMILES IDX 21 25 22 26 23 27 24 28 25 30 26 31 27 32 79 33 28 34 78 35
REMARK SMILES IDX 29 36 30 37 31 38 72 39 32 40 77 41 71 42 73 43 33 44 76 45
REMARK SMILES IDX 70 46 69 47 34 49 60 50 43 51 59 52 44 53 47 54 58 55 74 56
REMARK SMILES IDX 45 57 46 58 57 60 75 61 48 62 35 63 36 64 41 65 37 66 38 67
REMARK SMILES IDX 40 68 42 69 39 70 61 71 62 72 67 73 63 74 64 75 66 76 68 77
REMARK SMILES IDX 65 78 49 79 50 80 55 81 51 82 52 83 54 84 56 85 53 86
REMARK H PARENT 16 7 7 15 23 29 73 48 47 59
REMARK Flexibility Score: inf
ROOT
ATOM      1  C   UNL A   1      33.796  27.599  23.357  1.00  0.00     0.002 C 
ENDROOT
BRANCH   1   2
ATOM      2  C   UNL A   1      32.641  27.033  22.517  1.00  0.00     0.021 C 
BRANCH   2   3
ATOM      3  C   UNL A   1      32.957  25.814  21.654  1.00  0.00     0.116 C 
BRANCH   3   4
ATOM      4  N   UNL A   1      32.353  24.587  22.106  1.00  0.00    -0.352 N 
ATOM      5  C   UNL A   1      32.755  23.708  23.082  1.00  0.00     0.253 C 
ATOM      6  O   UNL A   1      31.987  22.779  23.346  1.00  0.00    -0.269 OA
ATOM      7  H   UNL A   1      31.520  24.339  21.642  1.00  0.00     0.163 HD
BRANCH   5   8
ATOM      8  C   UNL A   1      34.099  23.727  23.743  1.00  0.00     0.063 A 
ATOM      9  C   UNL A   1      34.488  24.375  24.933  1.00  0.00     0.051 A 
ATOM     10  C   UNL A   1      35.849  24.285  25.325  1.00  0.00     0.027 A 
ATOM     11  C   UNL A   1      36.784  23.526  24.621  1.00  0.00     0.002 A 
ATOM     12  C   UNL A   1      35.062  22.946  23.054  1.00  0.00     0.016 A 
ATOM     13  C   UNL A   1      36.382  22.835  23.491  1.00  0.00     0.001 A 
BRANCH   9  14
ATOM     14  N   UNL A   1      33.659  25.008  25.881  1.00  0.00    -0.355 N 
ATOM     15  H   UNL A   1      34.145  25.652  26.445  1.00  0.00     0.167 HD
BRANCH  14  16
ATOM     16  C   UNL A   1      32.288  24.926  26.201  1.00  0.00     0.042 A 
ATOM     17  C   UNL A   1      29.473  22.541  27.229  1.00  0.00     0.044 C 
ATOM     18  C   UNL A   1      30.219  23.763  26.764  1.00  0.00    -0.046 A 
ATOM     19  C   UNL A   1      29.478  24.882  26.358  1.00  0.00     0.004 A 
ATOM     20  C   UNL A   1      31.638  23.805  26.754  1.00  0.00    -0.025 A 
ATOM     21  C   UNL A   1      30.121  26.034  25.931  1.00  0.00     0.002 A 
ATOM     22  C   UNL A   1      32.400  22.672  27.394  1.00  0.00     0.047 C 
ATOM     23  C   UNL A   1      31.509  26.047  25.845  1.00  0.00     0.026 A 
ENDBRANCH  14  16
ENDBRANCH   9  14
ENDBRANCH   5   8
ENDBRANCH   3   4
ENDBRANCH   2   3
ENDBRANCH   1   2
BRANCH   1  24
ATOM     24  C   UNL A   1      33.438  28.499  24.547  1.00  0.00     0.002 C 
BRANCH  24  25
ATOM     25  C   UNL A   1      34.426  28.530  25.714  1.00  0.00     0.021 C 
BRANCH  25  26
ATOM     26  C   UNL A   1      33.821  28.603  27.111  1.00  0.00     0.116 C 
BRANCH  26  27
ATOM     27  N   UNL A   1      33.751  29.956  27.633  1.00  0.00    -0.352 N 
ATOM     28  C   UNL A   1      34.684  30.690  28.326  1.00  0.00     0.251 C 
ATOM     29  H   UNL A   1      32.900  30.422  27.464  1.00  0.00     0.163 HD
ATOM     30  O   UNL A   1      34.372  31.780  28.795  1.00  0.00    -0.269 OA
BRANCH  28  31
ATOM     31  C   UNL A   1      36.059  30.174  28.536  1.00  0.00     0.039 A 
ATOM     32  C   UNL A   1      36.977  30.258  27.483  1.00  0.00     0.014 A 
ATOM     33  C   UNL A   1      36.441  29.575  29.739  1.00  0.00     0.014 A 
ATOM     34  C   UNL A   1      38.287  29.801  27.654  1.00  0.00     0.010 A 
ATOM     35  C   UNL A   1      37.767  29.189  29.935  1.00  0.00     0.010 A 
ATOM     36  C   UNL A   1      38.702  29.290  28.893  1.00  0.00    -0.014 A 
BRANCH  36  37
ATOM     37  C   UNL A   1      40.097  28.830  29.122  1.00  0.00     0.031 A 
ATOM     38  C   UNL A   1      41.114  29.776  29.701  1.00  0.00     0.074 A 
ATOM     39  C   UNL A   1      40.475  27.597  28.730  1.00  0.00     0.049 A 
ATOM     40  N   UNL A   1      42.405  29.617  29.850  1.00  0.00    -0.248 NA
ATOM     41  C   UNL A   1      40.617  31.089  30.139  1.00  0.00     0.031 C 
ATOM     42  C   UNL A   1      39.598  26.598  28.119  1.00  0.00     0.029 A 
ATOM     43  N   UNL A   1      41.703  26.984  28.768  1.00  0.00    -0.354 N 
ATOM     44  C   UNL A   1      42.877  30.817  30.367  1.00  0.00     0.074 A 
ATOM     45  C   UNL A   1      41.741  31.709  30.467  1.00  0.00     0.031 C 
ATOM     46  C   UNL A   1      40.313  25.494  27.847  1.00  0.00     0.029 A 
ATOM     47  C   UNL A   1      41.704  25.722  28.227  1.00  0.00     0.049 A 
ATOM     48  H   UNL A   1      42.506  27.410  29.147  1.00  0.00     0.167 HD
ATOM     49  C   UNL A   1      44.137  31.143  30.739  1.00  0.00     0.037 A 
ATOM     50  C   UNL A   1      42.714  24.850  28.043  1.00  0.00     0.037 A 
ATOM     51  C   UNL A   1      45.256  30.240  30.682  1.00  0.00     0.049 A 
ATOM     52  C   UNL A   1      44.103  25.225  28.481  1.00  0.00     0.074 A 
ATOM     53  C   UNL A   1      46.555  30.448  31.112  1.00  0.00     0.029 A 
ATOM     54  N   UNL A   1      45.206  28.955  30.164  1.00  0.00    -0.354 N 
ATOM     55  N   UNL A   1      44.523  26.343  29.022  1.00  0.00    -0.248 NA
ATOM     56  C   UNL A   1      45.157  24.219  28.284  1.00  0.00     0.031 C 
ATOM     57  C   UNL A   1      47.301  29.302  30.819  1.00  0.00     0.029 A 
ATOM     58  C   UNL A   1      46.457  28.365  30.244  1.00  0.00     0.049 A 
ATOM     59  H   UNL A   1      44.402  28.525  29.794  1.00  0.00     0.167 HD
ATOM     60  C   UNL A   1      45.881  26.165  29.256  1.00  0.00     0.074 A 
ATOM     61  C   UNL A   1      46.213  24.831  28.803  1.00  0.00     0.031 C 
ATOM     62  C   UNL A   1      46.770  27.032  29.799  1.00  0.00     0.037 A 
BRANCH  49  63
ATOM     63  C   UNL A   1      44.373  32.538  31.240  1.00  0.00     0.057 A 
ATOM     64  C   UNL A   1      44.266  32.866  32.598  1.00  0.00     0.134 A 
ATOM     65  C   UNL A   1      44.733  33.563  30.355  1.00  0.00     0.134 A 
ATOM     66  F   UNL A   1      43.913  31.934  33.497  1.00  0.00    -0.206 F 
ATOM     67  C   UNL A   1      44.478  34.169  33.054  1.00  0.00     0.040 A 
ATOM     68  C   UNL A   1      44.975  34.862  30.803  1.00  0.00     0.040 A 
ATOM     69  F   UNL A   1      44.861  33.316  29.043  1.00  0.00    -0.206 F 
ATOM     70  C   UNL A   1      44.839  35.170  32.155  1.00  0.00     0.006 A 
ENDBRANCH  49  63
BRANCH  50  71
ATOM     71  C   UNL A   1      42.443  23.527  27.428  1.00  0.00     0.057 A 
ATOM     72  C   UNL A   1      42.039  22.439  28.209  1.00  0.00     0.134 A 
ATOM     73  C   UNL A   1      42.566  23.322  26.048  1.00  0.00     0.134 A 
ATOM     74  F   UNL A   1      41.922  22.569  29.538  1.00  0.00    -0.206 F 
ATOM     75  C   UNL A   1      41.776  21.190  27.642  1.00  0.00     0.040 A 
ATOM     76  C   UNL A   1      42.286  22.086  25.466  1.00  0.00     0.040 A 
ATOM     77  F   UNL A   1      42.942  24.329  25.246  1.00  0.00    -0.206 F 
ATOM     78  C   UNL A   1      41.893  21.014  26.265  1.00  0.00     0.006 A 
ENDBRANCH  50  71
BRANCH  62  79
ATOM     79  C   UNL A   1      48.183  26.557  29.968  1.00  0.00     0.057 A 
ATOM     80  C   UNL A   1      49.163  26.799  28.998  1.00  0.00     0.134 A 
ATOM     81  C   UNL A   1      48.579  25.907  31.143  1.00  0.00     0.134 A 
ATOM     82  F   UNL A   1      48.843  27.406  27.846  1.00  0.00    -0.206 F 
ATOM     83  C   UNL A   1      50.488  26.402  29.188  1.00  0.00     0.040 A 
ATOM     84  C   UNL A   1      49.904  25.525  31.354  1.00  0.00     0.040 A 
ATOM     85  F   UNL A   1      47.688  25.653  32.114  1.00  0.00    -0.206 F 
ATOM     86  C   UNL A   1      50.862  25.771  30.373  1.00  0.00     0.006 A 
ENDBRANCH  62  79
ENDBRANCH  36  37
ENDBRANCH  28  31
ENDBRANCH  26  27
ENDBRANCH  25  26
ENDBRANCH  24  25
ENDBRANCH   1  24
TORSDOF 15
ENDMDL
MODEL 3
REMARK VINA RESULT:     -11.3      2.794      7.305
REMARK SMILES Cc1cccc(Nc2ccccc2C(=O)NCCCCCCNC(=O)c2ccc(-c3c4nc(c(-c5c(F)cccc5F)c5ccc([nH]5)c(-c5c(F)cccc5F)c5nc(c(-c6c(F)cccc6F)c6ccc3[nH]6)C=C5)C=C4)cc2)c1C
REMARK SMILES IDX 19 1 18 2 17 3 16 4 14 5 15 6 13 8 8 9 9 10 10 11 12 12
REMARK SMILES IDX 11 13 7 14 6 16 1 17 2 18 3 19 80 20 4 21 81 22 5 23 20 24
REMARK SMILES IDX 21 25 22 26 23 27 24 28 25 30 26 31 27 32 79 33 28 34 78 35
REMARK SMILES IDX 29 36 30 37 31 38 72 39 32 40 77 41 71 42 73 43 33 44 76 45
REMARK SMILES IDX 70 46 69 47 34 49 60 50 43 51 59 52 44 53 47 54 58 55 74 56
REMARK SMILES IDX 45 57 46 58 57 60 75 61 48 62 35 63 36 64 41 65 37 66 38 67
REMARK SMILES IDX 40 68 42 69 39 70 61 71 62 72 67 73 63 74 64 75 66 76 68 77
REMARK SMILES IDX 65 78 49 79 50 80 55 81 51 82 52 83 54 84 56 85 53 86
REMARK H PARENT 16 7 7 15 23 29 73 48 47 59
REMARK Flexibility Score: inf
ROOT
ATOM      1  C   UNL A   1      34.493  25.470  24.846  1.00  0.00     0.002 C 
ENDROOT
BRANCH   1   2
ATOM      2  C   UNL A   1      34.002  25.165  23.423  1.00  0.00     0.021 C 
BRANCH   2   3
ATOM      3  C   UNL A   1      33.926  26.346  22.459  1.00  0.00     0.116 C 
BRANCH   3   4
ATOM      4  N   UNL A   1      32.599  26.651  21.989  1.00  0.00    -0.352 N 
ATOM      5  C   UNL A   1      31.498  27.103  22.675  1.00  0.00     0.253 C 
ATOM      6  O   UNL A   1      30.503  27.392  22.003  1.00  0.00    -0.269 OA
ATOM      7  H   UNL A   1      32.459  26.514  21.024  1.00  0.00     0.163 HD
BRANCH   5   8
ATOM      8  C   UNL A   1      31.382  27.143  24.168  1.00  0.00     0.063 A 
ATOM      9  C   UNL A   1      30.772  26.209  25.031  1.00  0.00     0.051 A 
ATOM     10  C   UNL A   1      30.745  26.505  26.419  1.00  0.00     0.027 A 
ATOM     11  C   UNL A   1      31.357  27.637  26.956  1.00  0.00     0.002 A 
ATOM     12  C   UNL A   1      32.013  28.277  24.738  1.00  0.00     0.016 A 
ATOM     13  C   UNL A   1      32.014  28.516  26.113  1.00  0.00     0.001 A 
BRANCH   9  14
ATOM     14  N   UNL A   1      30.289  24.924  24.708  1.00  0.00    -0.355 N 
ATOM     15  H   UNL A   1      29.306  24.885  24.667  1.00  0.00     0.167 HD
BRANCH  14  16
ATOM     16  C   UNL A   1      30.899  23.683  24.433  1.00  0.00     0.042 A 
ATOM     17  C   UNL A   1      32.895  20.792  25.959  1.00  0.00     0.044 C 
ATOM     18  C   UNL A   1      32.232  21.712  24.968  1.00  0.00    -0.046 A 
ATOM     19  C   UNL A   1      32.435  21.476  23.600  1.00  0.00     0.004 A 
ATOM     20  C   UNL A   1      31.401  22.782  25.392  1.00  0.00    -0.025 A 
ATOM     21  C   UNL A   1      31.837  22.291  22.651  1.00  0.00     0.002 A 
ATOM     22  C   UNL A   1      31.033  22.878  26.852  1.00  0.00     0.047 C 
ATOM     23  C   UNL A   1      31.088  23.386  23.066  1.00  0.00     0.026 A 
ENDBRANCH  14  16
ENDBRANCH   9  14
ENDBRANCH   5   8
ENDBRANCH   3   4
ENDBRANCH   2   3
ENDBRANCH   1   2
BRANCH   1  24
ATOM     24  C   UNL A   1      34.570  24.302  25.839  1.00  0.00     0.002 C 
BRANCH  24  25
ATOM     25  C   UNL A   1      35.679  23.274  25.614  1.00  0.00     0.021 C 
BRANCH  25  26
ATOM     26  C   UNL A   1      37.039  23.823  25.204  1.00  0.00     0.116 C 
BRANCH  26  27
ATOM     27  N   UNL A   1      38.129  22.898  25.458  1.00  0.00    -0.352 N 
ATOM     28  C   UNL A   1      39.321  23.088  26.115  1.00  0.00     0.251 C 
ATOM     29  H   UNL A   1      37.993  21.990  25.102  1.00  0.00     0.163 HD
ATOM     30  O   UNL A   1      40.170  22.202  26.103  1.00  0.00    -0.269 OA
BRANCH  28  31
ATOM     31  C   UNL A   1      39.609  24.361  26.821  1.00  0.00     0.039 A 
ATOM     32  C   UNL A   1      39.125  24.531  28.123  1.00  0.00     0.014 A 
ATOM     33  C   UNL A   1      40.312  25.399  26.205  1.00  0.00     0.014 A 
ATOM     34  C   UNL A   1      39.397  25.710  28.825  1.00  0.00     0.010 A 
ATOM     35  C   UNL A   1      40.648  26.541  26.930  1.00  0.00     0.010 A 
ATOM     36  C   UNL A   1      40.187  26.713  28.245  1.00  0.00    -0.014 A 
BRANCH  36  37
ATOM     37  C   UNL A   1      40.527  27.961  28.976  1.00  0.00     0.031 A 
ATOM     38  C   UNL A   1      41.856  28.088  29.671  1.00  0.00     0.074 A 
ATOM     39  C   UNL A   1      39.614  28.946  29.093  1.00  0.00     0.049 A 
ATOM     40  N   UNL A   1      42.289  29.029  30.471  1.00  0.00    -0.248 NA
ATOM     41  C   UNL A   1      42.813  26.989  29.464  1.00  0.00     0.031 C 
ATOM     42  C   UNL A   1      38.275  28.933  28.503  1.00  0.00     0.029 A 
ATOM     43  N   UNL A   1      39.668  30.140  29.769  1.00  0.00    -0.354 N 
ATOM     44  C   UNL A   1      43.550  28.621  30.887  1.00  0.00     0.074 A 
ATOM     45  C   UNL A   1      43.796  27.329  30.284  1.00  0.00     0.031 C 
ATOM     46  C   UNL A   1      37.638  30.067  28.836  1.00  0.00     0.029 A 
ATOM     47  C   UNL A   1      38.506  30.868  29.693  1.00  0.00     0.049 A 
ATOM     48  H   UNL A   1      40.464  30.444  30.262  1.00  0.00     0.167 HD
ATOM     49  C   UNL A   1      44.430  29.271  31.685  1.00  0.00     0.037 A 
ATOM     50  C   UNL A   1      38.171  32.042  30.261  1.00  0.00     0.037 A 
ATOM     51  C   UNL A   1      44.203  30.576  32.246  1.00  0.00     0.049 A 
ATOM     52  C   UNL A   1      39.170  32.756  31.130  1.00  0.00     0.074 A 
ATOM     53  C   UNL A   1      45.065  31.353  33.000  1.00  0.00     0.029 A 
ATOM     54  N   UNL A   1      43.027  31.298  32.111  1.00  0.00    -0.354 N 
ATOM     55  N   UNL A   1      40.382  32.385  31.467  1.00  0.00    -0.248 NA
ATOM     56  C   UNL A   1      38.758  34.049  31.695  1.00  0.00     0.031 C 
ATOM     57  C   UNL A   1      44.397  32.530  33.354  1.00  0.00     0.029 A 
ATOM     58  C   UNL A   1      43.133  32.503  32.786  1.00  0.00     0.049 A 
ATOM     59  H   UNL A   1      42.234  30.999  31.611  1.00  0.00     0.167 HD
ATOM     60  C   UNL A   1      40.886  33.409  32.258  1.00  0.00     0.074 A 
ATOM     61  C   UNL A   1      39.852  34.419  32.346  1.00  0.00     0.031 C 
ATOM     62  C   UNL A   1      42.099  33.503  32.855  1.00  0.00     0.037 A 
BRANCH  49  63
ATOM     63  C   UNL A   1      45.722  28.576  32.001  1.00  0.00     0.057 A 
ATOM     64  C   UNL A   1      46.860  28.724  31.197  1.00  0.00     0.134 A 
ATOM     65  C   UNL A   1      45.837  27.764  33.137  1.00  0.00     0.134 A 
ATOM     66  F   UNL A   1      46.816  29.477  30.088  1.00  0.00    -0.206 F 
ATOM     67  C   UNL A   1      48.055  28.066  31.493  1.00  0.00     0.040 A 
ATOM     68  C   UNL A   1      47.034  27.123  33.460  1.00  0.00     0.040 A 
ATOM     69  F   UNL A   1      44.789  27.585  33.955  1.00  0.00    -0.206 F 
ATOM     70  C   UNL A   1      48.146  27.266  32.631  1.00  0.00     0.006 A 
ENDBRANCH  49  63
BRANCH  50  71
ATOM     71  C   UNL A   1      36.829  32.625  30.012  1.00  0.00     0.057 A 
ATOM     72  C   UNL A   1      35.739  32.299  30.827  1.00  0.00     0.134 A 
ATOM     73  C   UNL A   1      36.606  33.531  28.967  1.00  0.00     0.134 A 
ATOM     74  F   UNL A   1      35.887  31.423  31.831  1.00  0.00    -0.206 F 
ATOM     75  C   UNL A   1      34.473  32.845  30.607  1.00  0.00     0.040 A 
ATOM     76  C   UNL A   1      35.351  34.100  28.750  1.00  0.00     0.040 A 
ATOM     77  F   UNL A   1      37.613  33.889  28.157  1.00  0.00    -0.206 F 
ATOM     78  C   UNL A   1      34.279  33.754  29.569  1.00  0.00     0.006 A 
ENDBRANCH  50  71
BRANCH  62  79
ATOM     79  C   UNL A   1      42.392  34.752  33.632  1.00  0.00     0.057 A 
ATOM     80  C   UNL A   1      42.138  34.844  35.005  1.00  0.00     0.134 A 
ATOM     81  C   UNL A   1      42.994  35.852  33.008  1.00  0.00     0.134 A 
ATOM     82  F   UNL A   1      41.552  33.829  35.658  1.00  0.00    -0.206 F 
ATOM     83  C   UNL A   1      42.466  35.992  35.730  1.00  0.00     0.040 A 
ATOM     84  C   UNL A   1      43.346  36.995  33.725  1.00  0.00     0.040 A 
ATOM     85  F   UNL A   1      43.270  35.823  31.695  1.00  0.00    -0.206 F 
ATOM     86  C   UNL A   1      43.079  37.068  35.091  1.00  0.00     0.006 A 
ENDBRANCH  62  79
ENDBRANCH  36  37
ENDBRANCH  28  31
ENDBRANCH  26  27
ENDBRANCH  25  26
ENDBRANCH  24  25
ENDBRANCH   1  24
TORSDOF 15
ENDMDL
