MODEL 1
REMARK VINA RESULT:     -10.9      0.000      0.000
REMARK SMILES CC(C)[N@@H+](Cc1cccs1)[C@@H](C)c1ccc(C(=O)NCCCCCCNC(=O)c2ccc(-c3c4nc(c(-c5c(F)cccc5F)c5ccc([nH]5)c(-c5c(F)cccc5F)c5nc(c(-c6c(F)cccc6F)c6ccc3[nH]6)C=C5)C=C4)cc2)o1
REMARK SMILES IDX 21 1 20 2 19 3 17 4 18 5 16 7 13 8 14 9 83 10 15 11 11 12
REMARK SMILES IDX 12 13 4 14 2 16 1 17 3 18 5 19 6 20 7 21 10 22 8 23 9 24
REMARK SMILES IDX 22 25 23 26 24 27 25 28 26 29 27 30 28 32 29 33 30 34 82 35
REMARK SMILES IDX 31 36 81 37 32 38 33 39 34 40 75 41 35 42 80 43 74 44 76 45
REMARK SMILES IDX 36 46 79 47 73 48 72 49 37 51 63 52 46 53 62 54 47 55 50 56
REMARK SMILES IDX 61 57 77 58 48 59 49 60 60 62 78 63 51 64 38 65 39 66 44 67
REMARK SMILES IDX 40 68 41 69 43 70 45 71 42 72 64 73 65 74 70 75 66 76 67 77
REMARK SMILES IDX 69 78 71 79 68 80 52 81 53 82 58 83 54 84 55 85 57 86 59 87
REMARK SMILES IDX 56 88
REMARK H PARENT 19 6 4 15 26 31 76 50 50 61
REMARK Flexibility Score: inf
ROOT
ATOM      1  C   UNL A   1      30.803  28.792  23.023  1.00  0.00     0.021 C 
ENDROOT
BRANCH   1   2
ATOM      2  C   UNL A   1      30.580  27.380  22.490  1.00  0.00     0.116 C 
BRANCH   2   3
ATOM      3  N   UNL A   1      31.663  26.974  21.625  1.00  0.00    -0.349 N 
ATOM      4  C   UNL A   1      32.332  25.779  21.596  1.00  0.00     0.287 C 
ATOM      5  O   UNL A   1      33.112  25.610  20.646  1.00  0.00    -0.266 OA
ATOM      6  H   UNL A   1      31.961  27.646  20.970  1.00  0.00     0.163 HD
BRANCH   4   7
ATOM      7  C   UNL A   1      32.112  24.785  22.623  1.00  0.00     0.191 A 
ATOM      8  C   UNL A   1      32.817  23.525  24.316  1.00  0.00     0.162 A 
ATOM      9  C   UNL A   1      31.446  23.377  24.248  1.00  0.00     0.053 A 
ATOM     10  O   UNL A   1      33.199  24.412  23.351  1.00  0.00    -0.450 OA
ATOM     11  C   UNL A   1      31.010  24.103  23.109  1.00  0.00     0.057 A 
BRANCH   8  12
ATOM     12  C   UNL A   1      33.907  23.077  25.257  1.00  0.00     0.248 C 
ATOM     13  C   UNL A   1      34.701  24.285  25.778  1.00  0.00     0.084 C 
BRANCH  12  14
ATOM     14  N   UNL A   1      34.757  21.925  24.889  1.00  0.00    -0.320 N 
ATOM     15  H   UNL A   1      34.703  22.378  23.976  1.00  0.00     0.349 HD
BRANCH  14  16
ATOM     16  C   UNL A   1      36.086  21.926  24.258  1.00  0.00     0.178 C 
ATOM     17  C   UNL A   1      36.421  22.980  23.195  1.00  0.00     0.075 C 
ATOM     18  C   UNL A   1      37.275  21.896  25.226  1.00  0.00     0.075 C 
ENDBRANCH  14  16
BRANCH  14  19
ATOM     19  C   UNL A   1      34.287  20.633  25.433  1.00  0.00     0.310 C 
BRANCH  19  20
ATOM     20  C   UNL A   1      33.675  19.586  24.514  1.00  0.00     0.059 A 
ATOM     21  C   UNL A   1      32.591  19.780  23.669  1.00  0.00     0.021 A 
ATOM     22  S   UNL A   1      34.170  17.941  24.447  1.00  0.00    -0.143 S 
ATOM     23  C   UNL A   1      32.235  18.612  22.929  1.00  0.00     0.012 A 
ATOM     24  C   UNL A   1      33.045  17.547  23.235  1.00  0.00     0.065 A 
ENDBRANCH  19  20
ENDBRANCH  14  19
ENDBRANCH  12  14
ENDBRANCH   8  12
ENDBRANCH   4   7
ENDBRANCH   2   3
ENDBRANCH   1   2
BRANCH   1  25
ATOM     25  C   UNL A   1      32.041  28.928  23.916  1.00  0.00     0.002 C 
BRANCH  25  26
ATOM     26  C   UNL A   1      31.745  29.048  25.416  1.00  0.00     0.002 C 
BRANCH  26  27
ATOM     27  C   UNL A   1      32.705  28.275  26.325  1.00  0.00     0.021 C 
BRANCH  27  28
ATOM     28  C   UNL A   1      34.067  28.936  26.499  1.00  0.00     0.116 C 
BRANCH  28  29
ATOM     29  N   UNL A   1      33.938  30.325  26.906  1.00  0.00    -0.352 N 
ATOM     30  C   UNL A   1      34.662  31.029  27.831  1.00  0.00     0.251 C 
ATOM     31  H   UNL A   1      33.228  30.833  26.451  1.00  0.00     0.163 HD
ATOM     32  O   UNL A   1      34.260  32.118  28.231  1.00  0.00    -0.269 OA
BRANCH  30  33
ATOM     33  C   UNL A   1      35.929  30.473  28.350  1.00  0.00     0.039 A 
ATOM     34  C   UNL A   1      35.900  29.690  29.507  1.00  0.00     0.014 A 
ATOM     35  C   UNL A   1      37.143  30.753  27.717  1.00  0.00     0.014 A 
ATOM     36  C   UNL A   1      37.089  29.159  30.008  1.00  0.00     0.010 A 
ATOM     37  C   UNL A   1      38.314  30.156  28.170  1.00  0.00     0.010 A 
ATOM     38  C   UNL A   1      38.302  29.369  29.331  1.00  0.00    -0.014 A 
BRANCH  38  39
ATOM     39  C   UNL A   1      39.572  28.800  29.843  1.00  0.00     0.031 A 
ATOM     40  C   UNL A   1      40.231  29.399  31.056  1.00  0.00     0.074 A 
ATOM     41  C   UNL A   1      40.157  27.779  29.189  1.00  0.00     0.049 A 
ATOM     42  N   UNL A   1      41.363  29.076  31.627  1.00  0.00    -0.248 NA
ATOM     43  C   UNL A   1      39.539  30.531  31.694  1.00  0.00     0.031 C 
ATOM     44  C   UNL A   1      39.639  27.144  27.976  1.00  0.00     0.029 A 
ATOM     45  N   UNL A   1      41.320  27.100  29.451  1.00  0.00    -0.354 N 
ATOM     46  C   UNL A   1      41.525  29.970  32.678  1.00  0.00     0.074 A 
ATOM     47  C   UNL A   1      40.407  30.887  32.629  1.00  0.00     0.031 C 
ATOM     48  C   UNL A   1      40.466  26.150  27.614  1.00  0.00     0.029 A 
ATOM     49  C   UNL A   1      41.589  26.102  28.545  1.00  0.00     0.049 A 
ATOM     50  H   UNL A   1      41.905  27.307  30.214  1.00  0.00     0.167 HD
ATOM     51  C   UNL A   1      42.500  30.008  33.616  1.00  0.00     0.037 A 
ATOM     52  C   UNL A   1      42.627  25.248  28.473  1.00  0.00     0.037 A 
ATOM     53  C   UNL A   1      43.598  29.079  33.673  1.00  0.00     0.049 A 
ATOM     54  C   UNL A   1      43.702  25.313  29.524  1.00  0.00     0.074 A 
ATOM     55  C   UNL A   1      44.610  28.996  34.613  1.00  0.00     0.029 A 
ATOM     56  N   UNL A   1      43.829  28.071  32.748  1.00  0.00    -0.354 N 
ATOM     57  N   UNL A   1      43.807  26.120  30.551  1.00  0.00    -0.248 NA
ATOM     58  C   UNL A   1      44.796  24.341  29.409  1.00  0.00     0.031 C 
ATOM     59  C   UNL A   1      45.481  27.971  34.229  1.00  0.00     0.029 A 
ATOM     60  C   UNL A   1      44.979  27.376  33.082  1.00  0.00     0.049 A 
ATOM     61  H   UNL A   1      43.259  27.880  31.968  1.00  0.00     0.167 HD
ATOM     62  C   UNL A   1      44.958  25.732  31.225  1.00  0.00     0.074 A 
ATOM     63  C   UNL A   1      45.509  24.609  30.494  1.00  0.00     0.031 C 
ATOM     64  C   UNL A   1      45.509  26.255  32.348  1.00  0.00     0.037 A 
BRANCH  51  65
ATOM     65  C   UNL A   1      42.421  31.091  34.655  1.00  0.00     0.057 A 
ATOM     66  C   UNL A   1      41.774  30.895  35.883  1.00  0.00     0.134 A 
ATOM     67  C   UNL A   1      43.017  32.339  34.434  1.00  0.00     0.134 A 
ATOM     68  F   UNL A   1      41.171  29.727  36.156  1.00  0.00    -0.206 F 
ATOM     69  C   UNL A   1      41.695  31.909  36.839  1.00  0.00     0.040 A 
ATOM     70  C   UNL A   1      42.972  33.350  35.395  1.00  0.00     0.040 A 
ATOM     71  F   UNL A   1      43.659  32.594  33.284  1.00  0.00    -0.206 F 
ATOM     72  C   UNL A   1      42.302  33.140  36.598  1.00  0.00     0.006 A 
ENDBRANCH  51  65
BRANCH  52  73
ATOM     73  C   UNL A   1      42.687  24.242  27.384  1.00  0.00     0.057 A 
ATOM     74  C   UNL A   1      42.173  22.952  27.564  1.00  0.00     0.134 A 
ATOM     75  C   UNL A   1      43.260  24.539  26.143  1.00  0.00     0.134 A 
ATOM     76  F   UNL A   1      41.624  22.602  28.737  1.00  0.00    -0.206 F 
ATOM     77  C   UNL A   1      42.247  21.987  26.558  1.00  0.00     0.040 A 
ATOM     78  C   UNL A   1      43.317  23.592  25.118  1.00  0.00     0.040 A 
ATOM     79  F   UNL A   1      43.761  25.759  25.902  1.00  0.00    -0.206 F 
ATOM     80  C   UNL A   1      42.817  22.309  25.328  1.00  0.00     0.006 A 
ENDBRANCH  52  73
BRANCH  64  81
ATOM     81  C   UNL A   1      46.745  25.589  32.881  1.00  0.00     0.057 A 
ATOM     82  C   UNL A   1      48.029  25.948  32.450  1.00  0.00     0.134 A 
ATOM     83  C   UNL A   1      46.648  24.597  33.866  1.00  0.00     0.134 A 
ATOM     84  F   UNL A   1      48.192  26.883  31.502  1.00  0.00    -0.206 F 
ATOM     85  C   UNL A   1      49.169  25.324  32.958  1.00  0.00     0.040 A 
ATOM     86  C   UNL A   1      47.782  23.987  34.403  1.00  0.00     0.040 A 
ATOM     87  F   UNL A   1      45.450  24.213  34.330  1.00  0.00    -0.206 F 
ATOM     88  C   UNL A   1      49.047  24.345  33.943  1.00  0.00     0.006 A 
ENDBRANCH  64  81
ENDBRANCH  38  39
ENDBRANCH  30  33
ENDBRANCH  28  29
ENDBRANCH  27  28
ENDBRANCH  26  27
ENDBRANCH  25  26
ENDBRANCH   1  25
TORSDOF 18
ENDMDL
MODEL 2
REMARK VINA RESULT:     -10.8      5.211      8.859
REMARK SMILES CC(C)[N@@H+](Cc1cccs1)[C@@H](C)c1ccc(C(=O)NCCCCCCNC(=O)c2ccc(-c3c4nc(c(-c5c(F)cccc5F)c5ccc([nH]5)c(-c5c(F)cccc5F)c5nc(c(-c6c(F)cccc6F)c6ccc3[nH]6)C=C5)C=C4)cc2)o1
REMARK SMILES IDX 21 1 20 2 19 3 17 4 18 5 16 7 13 8 14 9 83 10 15 11 11 12
REMARK SMILES IDX 12 13 4 14 2 16 1 17 3 18 5 19 6 20 7 21 10 22 8 23 9 24
REMARK SMILES IDX 22 25 23 26 24 27 25 28 26 29 27 30 28 32 29 33 30 34 82 35
REMARK SMILES IDX 31 36 81 37 32 38 33 39 34 40 75 41 35 42 80 43 74 44 76 45
REMARK SMILES IDX 36 46 79 47 73 48 72 49 37 51 63 52 46 53 62 54 47 55 50 56
REMARK SMILES IDX 61 57 77 58 48 59 49 60 60 62 78 63 51 64 38 65 39 66 44 67
REMARK SMILES IDX 40 68 41 69 43 70 45 71 42 72 64 73 65 74 70 75 66 76 67 77
REMARK SMILES IDX 69 78 71 79 68 80 52 81 53 82 58 83 54 84 55 85 57 86 59 87
REMARK SMILES IDX 56 88
REMARK H PARENT 19 6 4 15 26 31 76 50 50 61
REMARK Flexibility Score: inf
ROOT
ATOM      1  C   UNL A   1      33.401  36.450  29.165  1.00  0.00     0.021 C 
ENDROOT
BRANCH   1   2
ATOM      2  C   UNL A   1      32.808  35.926  30.469  1.00  0.00     0.116 C 
BRANCH   2   3
ATOM      3  N   UNL A   1      33.051  36.845  31.556  1.00  0.00    -0.349 N 
ATOM      4  C   UNL A   1      33.900  36.703  32.621  1.00  0.00     0.287 C 
ATOM      5  O   UNL A   1      34.061  37.706  33.333  1.00  0.00    -0.266 OA
ATOM      6  H   UNL A   1      32.537  37.684  31.529  1.00  0.00     0.163 HD
BRANCH   4   7
ATOM      7  C   UNL A   1      34.569  35.445  32.870  1.00  0.00     0.191 A 
ATOM      8  C   UNL A   1      36.407  34.200  33.034  1.00  0.00     0.162 A 
ATOM      9  C   UNL A   1      35.357  33.431  33.496  1.00  0.00     0.053 A 
ATOM     10  O   UNL A   1      35.919  35.431  32.697  1.00  0.00    -0.450 OA
ATOM     11  C   UNL A   1      34.173  34.191  33.299  1.00  0.00     0.057 A 
BRANCH   8  12
ATOM     12  C   UNL A   1      37.905  34.053  32.966  1.00  0.00     0.248 C 
ATOM     13  C   UNL A   1      38.398  34.197  31.518  1.00  0.00     0.084 C 
BRANCH  12  14
ATOM     14  N   UNL A   1      38.564  32.957  33.708  1.00  0.00    -0.320 N 
ATOM     15  H   UNL A   1      37.744  32.449  33.372  1.00  0.00     0.349 HD
BRANCH  14  16
ATOM     16  C   UNL A   1      38.969  31.629  33.220  1.00  0.00     0.178 C 
ATOM     17  C   UNL A   1      40.289  31.015  33.703  1.00  0.00     0.075 C 
ATOM     18  C   UNL A   1      37.909  30.529  33.346  1.00  0.00     0.075 C 
ENDBRANCH  14  16
BRANCH  14  19
ATOM     19  C   UNL A   1      39.062  33.349  35.043  1.00  0.00     0.310 C 
BRANCH  19  20
ATOM     20  C   UNL A   1      39.986  34.547  35.201  1.00  0.00     0.059 A 
ATOM     21  C   UNL A   1      41.085  34.838  34.402  1.00  0.00     0.021 A 
ATOM     22  S   UNL A   1      39.880  35.699  36.473  1.00  0.00    -0.143 S 
ATOM     23  C   UNL A   1      41.768  36.028  34.793  1.00  0.00     0.012 A 
ATOM     24  C   UNL A   1      41.187  36.615  35.889  1.00  0.00     0.065 A 
ENDBRANCH  19  20
ENDBRANCH  14  19
ENDBRANCH  12  14
ENDBRANCH   8  12
ENDBRANCH   4   7
ENDBRANCH   2   3
ENDBRANCH   1   2
BRANCH   1  25
ATOM     25  C   UNL A   1      34.192  35.399  28.378  1.00  0.00     0.002 C 
BRANCH  25  26
ATOM     26  C   UNL A   1      35.422  34.840  29.103  1.00  0.00     0.002 C 
BRANCH  26  27
ATOM     27  C   UNL A   1      35.720  33.365  28.821  1.00  0.00     0.021 C 
BRANCH  27  28
ATOM     28  C   UNL A   1      34.989  32.394  29.740  1.00  0.00     0.116 C 
BRANCH  28  29
ATOM     29  N   UNL A   1      34.295  31.364  28.985  1.00  0.00    -0.352 N 
ATOM     30  C   UNL A   1      34.809  30.307  28.282  1.00  0.00     0.251 C 
ATOM     31  H   UNL A   1      33.313  31.437  28.979  1.00  0.00     0.163 HD
ATOM     32  O   UNL A   1      34.100  29.682  27.499  1.00  0.00    -0.269 OA
BRANCH  30  33
ATOM     33  C   UNL A   1      36.224  29.922  28.465  1.00  0.00     0.039 A 
ATOM     34  C   UNL A   1      36.622  29.366  29.683  1.00  0.00     0.014 A 
ATOM     35  C   UNL A   1      37.160  30.142  27.450  1.00  0.00     0.014 A 
ATOM     36  C   UNL A   1      37.954  28.997  29.869  1.00  0.00     0.010 A 
ATOM     37  C   UNL A   1      38.468  29.698  27.607  1.00  0.00     0.010 A 
ATOM     38  C   UNL A   1      38.883  29.140  28.824  1.00  0.00    -0.014 A 
BRANCH  38  39
ATOM     39  C   UNL A   1      40.301  28.741  29.001  1.00  0.00     0.031 A 
ATOM     40  C   UNL A   1      41.284  29.704  29.609  1.00  0.00     0.074 A 
ATOM     41  C   UNL A   1      40.712  27.534  28.570  1.00  0.00     0.049 A 
ATOM     42  N   UNL A   1      42.571  29.561  29.802  1.00  0.00    -0.248 NA
ATOM     43  C   UNL A   1      40.757  31.014  30.026  1.00  0.00     0.031 C 
ATOM     44  C   UNL A   1      39.863  26.531  27.924  1.00  0.00     0.029 A 
ATOM     45  N   UNL A   1      41.952  26.947  28.607  1.00  0.00    -0.354 N 
ATOM     46  C   UNL A   1      43.006  30.762  30.350  1.00  0.00     0.074 A 
ATOM     47  C   UNL A   1      41.861  31.644  30.399  1.00  0.00     0.031 C 
ATOM     48  C   UNL A   1      40.600  25.444  27.649  1.00  0.00     0.029 A 
ATOM     49  C   UNL A   1      41.978  25.685  28.065  1.00  0.00     0.049 A 
ATOM     50  H   UNL A   1      42.745  27.388  28.985  1.00  0.00     0.167 HD
ATOM     51  C   UNL A   1      44.241  31.091  30.795  1.00  0.00     0.037 A 
ATOM     52  C   UNL A   1      43.001  24.822  27.917  1.00  0.00     0.037 A 
ATOM     53  C   UNL A   1      45.373  30.201  30.763  1.00  0.00     0.049 A 
ATOM     54  C   UNL A   1      44.365  25.213  28.415  1.00  0.00     0.074 A 
ATOM     55  C   UNL A   1      46.654  30.417  31.239  1.00  0.00     0.029 A 
ATOM     56  N   UNL A   1      45.357  28.924  30.221  1.00  0.00    -0.354 N 
ATOM     57  N   UNL A   1      44.749  26.326  28.991  1.00  0.00    -0.248 NA
ATOM     58  C   UNL A   1      45.437  24.222  28.250  1.00  0.00     0.031 C 
ATOM     59  C   UNL A   1      47.427  29.290  30.939  1.00  0.00     0.029 A 
ATOM     60  C   UNL A   1      46.611  28.349  30.330  1.00  0.00     0.049 A 
ATOM     61  H   UNL A   1      44.570  28.492  29.818  1.00  0.00     0.167 HD
ATOM     62  C   UNL A   1      46.095  26.157  29.290  1.00  0.00     0.074 A 
ATOM     63  C   UNL A   1      46.458  24.829  28.839  1.00  0.00     0.031 C 
ATOM     64  C   UNL A   1      46.954  27.022  29.885  1.00  0.00     0.037 A 
BRANCH  51  65
ATOM     65  C   UNL A   1      44.430  32.473  31.355  1.00  0.00     0.057 A 
ATOM     66  C   UNL A   1      44.298  32.743  32.724  1.00  0.00     0.134 A 
ATOM     67  C   UNL A   1      44.769  33.543  30.517  1.00  0.00     0.134 A 
ATOM     68  F   UNL A   1      43.963  31.766  33.581  1.00  0.00    -0.206 F 
ATOM     69  C   UNL A   1      44.464  34.032  33.235  1.00  0.00     0.040 A 
ATOM     70  C   UNL A   1      44.969  34.830  31.021  1.00  0.00     0.040 A 
ATOM     71  F   UNL A   1      44.918  33.356  29.197  1.00  0.00    -0.206 F 
ATOM     72  C   UNL A   1      44.808  35.079  32.382  1.00  0.00     0.006 A 
ENDBRANCH  51  65
BRANCH  52  73
ATOM     73  C   UNL A   1      42.769  23.495  27.295  1.00  0.00     0.057 A 
ATOM     74  C   UNL A   1      42.349  22.402  28.062  1.00  0.00     0.134 A 
ATOM     75  C   UNL A   1      42.964  23.283  25.925  1.00  0.00     0.134 A 
ATOM     76  F   UNL A   1      42.160  22.537  29.383  1.00  0.00    -0.206 F 
ATOM     77  C   UNL A   1      42.154  21.141  27.496  1.00  0.00     0.040 A 
ATOM     78  C   UNL A   1      42.746  22.035  25.340  1.00  0.00     0.040 A 
ATOM     79  F   UNL A   1      43.355  24.291  25.133  1.00  0.00    -0.206 F 
ATOM     80  C   UNL A   1      42.348  20.957  26.128  1.00  0.00     0.006 A 
ENDBRANCH  52  73
BRANCH  64  81
ATOM     81  C   UNL A   1      48.356  26.541  30.125  1.00  0.00     0.057 A 
ATOM     82  C   UNL A   1      48.715  25.845  31.287  1.00  0.00     0.134 A 
ATOM     83  C   UNL A   1      49.352  26.752  29.163  1.00  0.00     0.134 A 
ATOM     84  F   UNL A   1      47.812  25.620  32.252  1.00  0.00    -0.206 F 
ATOM     85  C   UNL A   1      50.022  25.400  31.495  1.00  0.00     0.040 A 
ATOM     86  C   UNL A   1      50.655  26.286  29.346  1.00  0.00     0.040 A 
ATOM     87  F   UNL A   1      49.074  27.403  28.024  1.00  0.00    -0.206 F 
ATOM     88  C   UNL A   1      50.994  25.614  30.519  1.00  0.00     0.006 A 
ENDBRANCH  64  81
ENDBRANCH  38  39
ENDBRANCH  30  33
ENDBRANCH  28  29
ENDBRANCH  27  28
ENDBRANCH  26  27
ENDBRANCH  25  26
ENDBRANCH   1  25
TORSDOF 18
ENDMDL
MODEL 3
REMARK VINA RESULT:     -10.8      2.605      7.220
REMARK SMILES CC(C)[N@@H+](Cc1cccs1)[C@@H](C)c1ccc(C(=O)NCCCCCCNC(=O)c2ccc(-c3c4nc(c(-c5c(F)cccc5F)c5ccc([nH]5)c(-c5c(F)cccc5F)c5nc(c(-c6c(F)cccc6F)c6ccc3[nH]6)C=C5)C=C4)cc2)o1
REMARK SMILES IDX 21 1 20 2 19 3 17 4 18 5 16 7 13 8 14 9 83 10 15 11 11 12
REMARK SMILES IDX 12 13 4 14 2 16 1 17 3 18 5 19 6 20 7 21 10 22 8 23 9 24
REMARK SMILES IDX 22 25 23 26 24 27 25 28 26 29 27 30 28 32 29 33 30 34 82 35
REMARK SMILES IDX 31 36 81 37 32 38 33 39 34 40 75 41 35 42 80 43 74 44 76 45
REMARK SMILES IDX 36 46 79 47 73 48 72 49 37 51 63 52 46 53 62 54 47 55 50 56
REMARK SMILES IDX 61 57 77 58 48 59 49 60 60 62 78 63 51 64 38 65 39 66 44 67
REMARK SMILES IDX 40 68 41 69 43 70 45 71 42 72 64 73 65 74 70 75 66 76 67 77
REMARK SMILES IDX 69 78 71 79 68 80 52 81 53 82 58 83 54 84 55 85 57 86 59 87
REMARK SMILES IDX 56 88
REMARK H PARENT 19 6 4 15 26 31 76 50 50 61
REMARK Flexibility Score: inf
ROOT
ATOM      1  C   UNL A   1      33.106  29.389  25.082  1.00  0.00     0.021 C 
ENDROOT
BRANCH   1   2
ATOM      2  C   UNL A   1      33.270  29.126  23.588  1.00  0.00     0.116 C 
BRANCH   2   3
ATOM      3  N   UNL A   1      31.988  29.081  22.925  1.00  0.00    -0.349 N 
ATOM      4  C   UNL A   1      31.340  28.000  22.388  1.00  0.00     0.287 C 
ATOM      5  O   UNL A   1      30.169  28.187  22.023  1.00  0.00    -0.266 OA
ATOM      6  H   UNL A   1      31.517  29.942  22.848  1.00  0.00     0.163 HD
BRANCH   4   7
ATOM      7  C   UNL A   1      32.006  26.722  22.275  1.00  0.00     0.191 A 
ATOM      8  C   UNL A   1      32.815  24.847  23.162  1.00  0.00     0.162 A 
ATOM      9  C   UNL A   1      32.877  24.703  21.790  1.00  0.00     0.053 A 
ATOM     10  O   UNL A   1      32.247  26.058  23.439  1.00  0.00    -0.450 OA
ATOM     11  C   UNL A   1      32.453  25.936  21.227  1.00  0.00     0.057 A 
BRANCH   8  12
ATOM     12  C   UNL A   1      33.072  23.961  24.354  1.00  0.00     0.248 C 
ATOM     13  C   UNL A   1      33.481  24.801  25.574  1.00  0.00     0.084 C 
BRANCH  12  14
ATOM     14  N   UNL A   1      33.875  22.731  24.187  1.00  0.00    -0.320 N 
ATOM     15  H   UNL A   1      33.479  22.536  25.107  1.00  0.00     0.349 HD
BRANCH  14  16
ATOM     16  C   UNL A   1      33.435  21.329  24.249  1.00  0.00     0.178 C 
ATOM     17  C   UNL A   1      33.004  20.728  25.593  1.00  0.00     0.075 C 
ATOM     18  C   UNL A   1      32.358  20.931  23.233  1.00  0.00     0.075 C 
ENDBRANCH  14  16
BRANCH  14  19
ATOM     19  C   UNL A   1      35.243  22.971  23.679  1.00  0.00     0.310 C 
BRANCH  19  20
ATOM     20  C   UNL A   1      36.451  22.730  24.572  1.00  0.00     0.059 A 
ATOM     21  C   UNL A   1      37.053  23.671  25.397  1.00  0.00     0.021 A 
ATOM     22  S   UNL A   1      37.342  21.261  24.629  1.00  0.00    -0.143 S 
ATOM     23  C   UNL A   1      38.175  23.158  26.114  1.00  0.00     0.012 A 
ATOM     24  C   UNL A   1      38.416  21.841  25.812  1.00  0.00     0.065 A 
ENDBRANCH  19  20
ENDBRANCH  14  19
ENDBRANCH  12  14
ENDBRANCH   8  12
ENDBRANCH   4   7
ENDBRANCH   2   3
ENDBRANCH   1   2
BRANCH   1  25
ATOM     25  C   UNL A   1      31.724  29.927  25.469  1.00  0.00     0.002 C 
BRANCH  25  26
ATOM     26  C   UNL A   1      31.644  30.558  26.864  1.00  0.00     0.002 C 
BRANCH  26  27
ATOM     27  C   UNL A   1      31.476  32.079  26.873  1.00  0.00     0.021 C 
BRANCH  27  28
ATOM     28  C   UNL A   1      32.784  32.850  27.004  1.00  0.00     0.116 C 
BRANCH  28  29
ATOM     29  N   UNL A   1      32.573  34.166  27.582  1.00  0.00    -0.352 N 
ATOM     30  C   UNL A   1      33.108  34.711  28.720  1.00  0.00     0.251 C 
ATOM     31  H   UNL A   1      31.956  34.752  27.085  1.00  0.00     0.163 HD
ATOM     32  O   UNL A   1      32.632  35.737  29.197  1.00  0.00    -0.269 OA
BRANCH  30  33
ATOM     33  C   UNL A   1      34.260  34.058  29.375  1.00  0.00     0.039 A 
ATOM     34  C   UNL A   1      34.023  33.039  30.301  1.00  0.00     0.014 A 
ATOM     35  C   UNL A   1      35.567  34.473  29.102  1.00  0.00     0.014 A 
ATOM     36  C   UNL A   1      35.101  32.413  30.927  1.00  0.00     0.010 A 
ATOM     37  C   UNL A   1      36.641  33.794  29.664  1.00  0.00     0.010 A 
ATOM     38  C   UNL A   1      36.419  32.770  30.597  1.00  0.00    -0.014 A 
BRANCH  38  39
ATOM     39  C   UNL A   1      37.577  32.106  31.243  1.00  0.00     0.031 A 
ATOM     40  C   UNL A   1      38.332  31.030  30.511  1.00  0.00     0.074 A 
ATOM     41  C   UNL A   1      37.918  32.435  32.503  1.00  0.00     0.049 A 
ATOM     42  N   UNL A   1      39.338  30.300  30.921  1.00  0.00    -0.248 NA
ATOM     43  C   UNL A   1      37.876  30.711  29.148  1.00  0.00     0.031 C 
ATOM     44  C   UNL A   1      37.234  33.431  33.332  1.00  0.00     0.029 A 
ATOM     45  N   UNL A   1      38.922  31.964  33.309  1.00  0.00    -0.354 N 
ATOM     46  C   UNL A   1      39.625  29.430  29.876  1.00  0.00     0.074 A 
ATOM     47  C   UNL A   1      38.648  29.680  28.838  1.00  0.00     0.031 C 
ATOM     48  C   UNL A   1      37.855  33.514  34.518  1.00  0.00     0.029 A 
ATOM     49  C   UNL A   1      38.955  32.555  34.549  1.00  0.00     0.049 A 
ATOM     50  H   UNL A   1      39.559  31.269  33.026  1.00  0.00     0.167 HD
ATOM     51  C   UNL A   1      40.626  28.525  29.777  1.00  0.00     0.037 A 
ATOM     52  C   UNL A   1      39.778  32.343  35.593  1.00  0.00     0.037 A 
ATOM     53  C   UNL A   1      41.608  28.296  30.805  1.00  0.00     0.049 A 
ATOM     54  C   UNL A   1      40.880  31.328  35.462  1.00  0.00     0.074 A 
ATOM     55  C   UNL A   1      42.696  27.441  30.784  1.00  0.00     0.029 A 
ATOM     56  N   UNL A   1      41.618  28.925  32.041  1.00  0.00    -0.354 N 
ATOM     57  N   UNL A   1      41.181  30.560  34.443  1.00  0.00    -0.248 NA
ATOM     58  C   UNL A   1      41.762  31.157  36.624  1.00  0.00     0.031 C 
ATOM     59  C   UNL A   1      43.335  27.515  32.026  1.00  0.00     0.029 A 
ATOM     60  C   UNL A   1      42.680  28.461  32.799  1.00  0.00     0.049 A 
ATOM     61  H   UNL A   1      40.967  29.602  32.336  1.00  0.00     0.167 HD
ATOM     62  C   UNL A   1      42.306  29.841  34.826  1.00  0.00     0.074 A 
ATOM     63  C   UNL A   1      42.640  30.274  36.168  1.00  0.00     0.031 C 
ATOM     64  C   UNL A   1      43.003  28.909  34.130  1.00  0.00     0.037 A 
BRANCH  51  65
ATOM     65  C   UNL A   1      40.706  27.715  28.514  1.00  0.00     0.057 A 
ATOM     66  C   UNL A   1      40.023  26.501  28.366  1.00  0.00     0.134 A 
ATOM     67  C   UNL A   1      41.459  28.166  27.422  1.00  0.00     0.134 A 
ATOM     68  F   UNL A   1      39.293  26.004  29.378  1.00  0.00    -0.206 F 
ATOM     69  C   UNL A   1      40.111  25.749  27.194  1.00  0.00     0.040 A 
ATOM     70  C   UNL A   1      41.529  27.439  26.233  1.00  0.00     0.040 A 
ATOM     71  F   UNL A   1      42.134  29.324  27.491  1.00  0.00    -0.206 F 
ATOM     72  C   UNL A   1      40.861  26.222  26.119  1.00  0.00     0.006 A 
ENDBRANCH  51  65
BRANCH  52  73
ATOM     73  C   UNL A   1      39.609  33.126  36.842  1.00  0.00     0.057 A 
ATOM     74  C   UNL A   1      38.717  32.713  37.839  1.00  0.00     0.134 A 
ATOM     75  C   UNL A   1      40.329  34.304  37.071  1.00  0.00     0.134 A 
ATOM     76  F   UNL A   1      37.986  31.600  37.671  1.00  0.00    -0.206 F 
ATOM     77  C   UNL A   1      38.528  33.454  39.006  1.00  0.00     0.040 A 
ATOM     78  C   UNL A   1      40.172  35.041  38.247  1.00  0.00     0.040 A 
ATOM     79  F   UNL A   1      41.209  34.748  36.162  1.00  0.00    -0.206 F 
ATOM     80  C   UNL A   1      39.262  34.620  39.214  1.00  0.00     0.006 A 
ENDBRANCH  52  73
BRANCH  64  81
ATOM     81  C   UNL A   1      44.222  28.329  34.789  1.00  0.00     0.057 A 
ATOM     82  C   UNL A   1      45.483  28.929  34.680  1.00  0.00     0.134 A 
ATOM     83  C   UNL A   1      44.122  27.170  35.569  1.00  0.00     0.134 A 
ATOM     84  F   UNL A   1      45.650  30.035  33.939  1.00  0.00    -0.206 F 
ATOM     85  C   UNL A   1      46.607  28.381  35.302  1.00  0.00     0.040 A 
ATOM     86  C   UNL A   1      45.232  26.630  36.220  1.00  0.00     0.040 A 
ATOM     87  F   UNL A   1      42.943  26.551  35.723  1.00  0.00    -0.206 F 
ATOM     88  C   UNL A   1      46.481  27.232  36.080  1.00  0.00     0.006 A 
ENDBRANCH  64  81
ENDBRANCH  38  39
ENDBRANCH  30  33
ENDBRANCH  28  29
ENDBRANCH  27  28
ENDBRANCH  26  27
ENDBRANCH  25  26
ENDBRANCH   1  25
TORSDOF 18
ENDMDL
