MODEL 1
REMARK VINA RESULT:     -10.7      0.000      0.000
REMARK SMILES C[C@H]1CCCN1c1cccc(OCC(=O)NCCCCCCNC(=O)c2ccc(-c3c4nc(c(-c5c(F)cccc5F)c5ccc([nH]5)c(-c5c(F)cccc5F)c5nc(c(-c6c(F)cccc6F)c6ccc3[nH]6)C=C5)C=C4)cc2)c1
REMARK SMILES IDX 19 1 18 2 17 3 16 4 14 5 15 6 13 8 12 9 11 10 7 11 8 12
REMARK SMILES IDX 80 13 9 14 10 15 6 16 1 17 2 18 3 19 4 20 5 21 20 22 21 23
REMARK SMILES IDX 22 24 23 25 24 26 25 28 26 29 27 30 79 31 28 32 78 33 29 34
REMARK SMILES IDX 30 35 31 36 72 37 32 38 77 39 71 40 73 41 33 42 76 43 70 44
REMARK SMILES IDX 69 45 34 47 60 48 43 49 59 50 44 51 47 52 58 53 74 54 45 55
REMARK SMILES IDX 46 56 57 58 75 59 48 60 35 61 36 62 41 63 37 64 38 65 40 66
REMARK SMILES IDX 42 67 39 68 61 69 62 70 67 71 63 72 64 73 66 74 68 75 65 76
REMARK SMILES IDX 49 77 50 78 55 79 51 80 52 81 54 82 56 83 53 84
REMARK H PARENT 16 7 23 27 73 46 47 57
REMARK Flexibility Score: inf
ROOT
ATOM      1  C   UNL A   1      32.965  30.183  27.099  1.00  0.00     0.002 C 
ENDROOT
BRANCH   1   2
ATOM      2  C   UNL A   1      33.627  29.451  25.924  1.00  0.00     0.021 C 
BRANCH   2   3
ATOM      3  C   UNL A   1      32.844  29.511  24.611  1.00  0.00     0.116 C 
BRANCH   3   4
ATOM      4  N   UNL A   1      33.693  29.266  23.463  1.00  0.00    -0.353 N 
ATOM      5  C   UNL A   1      33.577  28.293  22.512  1.00  0.00     0.257 C 
ATOM      6  O   UNL A   1      34.413  28.243  21.608  1.00  0.00    -0.271 OA
ATOM      7  H   UNL A   1      34.454  29.881  23.354  1.00  0.00     0.163 HD
BRANCH   5   8
ATOM      8  C   UNL A   1      32.382  27.334  22.553  1.00  0.00     0.329 C 
BRANCH   8   9
ATOM      9  O   UNL A   1      32.670  25.955  22.385  1.00  0.00    -0.484 OA
BRANCH   9  10
ATOM     10  C   UNL A   1      33.289  25.295  23.411  1.00  0.00     0.122 A 
ATOM     11  C   UNL A   1      34.642  23.534  24.427  1.00  0.00     0.041 A 
ATOM     12  C   UNL A   1      34.403  24.115  25.677  1.00  0.00     0.026 A 
ATOM     13  C   UNL A   1      34.069  24.141  23.300  1.00  0.00     0.072 A 
ATOM     14  C   UNL A   1      33.643  25.280  25.801  1.00  0.00     0.006 A 
ATOM     15  C   UNL A   1      33.087  25.865  24.667  1.00  0.00     0.046 A 
BRANCH  11  16
ATOM     16  N   UNL A   1      35.397  22.384  24.336  1.00  0.00    -0.369 N 
ATOM     17  C   UNL A   1      34.042  20.382  24.779  1.00  0.00     0.031 C 
ATOM     18  C   UNL A   1      35.236  21.222  25.216  1.00  0.00     0.079 C 
ATOM     19  C   UNL A   1      36.555  20.455  25.049  1.00  0.00     0.026 C 
ATOM     20  C   UNL A   1      37.553  21.545  24.687  1.00  0.00     0.023 C 
ATOM     21  C   UNL A   1      36.743  22.464  23.778  1.00  0.00     0.117 C 
ENDBRANCH  11  16
ENDBRANCH   9  10
ENDBRANCH   8   9
ENDBRANCH   5   8
ENDBRANCH   3   4
ENDBRANCH   2   3
ENDBRANCH   1   2
BRANCH   1  22
ATOM     22  C   UNL A   1      31.517  30.628  26.872  1.00  0.00     0.002 C 
BRANCH  22  23
ATOM     23  C   UNL A   1      31.291  32.142  26.831  1.00  0.00     0.021 C 
BRANCH  23  24
ATOM     24  C   UNL A   1      32.561  32.983  26.761  1.00  0.00     0.116 C 
BRANCH  24  25
ATOM     25  N   UNL A   1      32.458  34.213  27.531  1.00  0.00    -0.352 N 
ATOM     26  C   UNL A   1      33.158  34.611  28.639  1.00  0.00     0.251 C 
ATOM     27  H   UNL A   1      31.785  34.854  27.207  1.00  0.00     0.163 HD
ATOM     28  O   UNL A   1      32.812  35.624  29.253  1.00  0.00    -0.269 OA
BRANCH  26  29
ATOM     29  C   UNL A   1      34.311  33.823  29.126  1.00  0.00     0.039 A 
ATOM     30  C   UNL A   1      35.603  34.271  28.834  1.00  0.00     0.014 A 
ATOM     31  C   UNL A   1      34.128  32.638  29.845  1.00  0.00     0.014 A 
ATOM     32  C   UNL A   1      36.709  33.565  29.313  1.00  0.00     0.010 A 
ATOM     33  C   UNL A   1      35.231  31.973  30.378  1.00  0.00     0.010 A 
ATOM     34  C   UNL A   1      36.531  32.427  30.117  1.00  0.00    -0.014 A 
BRANCH  34  35
ATOM     35  C   UNL A   1      37.697  31.705  30.690  1.00  0.00     0.031 A 
ATOM     36  C   UNL A   1      38.175  32.017  32.081  1.00  0.00     0.074 A 
ATOM     37  C   UNL A   1      38.359  30.806  29.936  1.00  0.00     0.049 A 
ATOM     38  N   UNL A   1      39.206  31.533  32.728  1.00  0.00    -0.248 NA
ATOM     39  C   UNL A   1      37.408  33.019  32.838  1.00  0.00     0.031 C 
ATOM     40  C   UNL A   1      38.026  30.448  28.556  1.00  0.00     0.029 A 
ATOM     41  N   UNL A   1      39.459  30.036  30.222  1.00  0.00    -0.354 N 
ATOM     42  C   UNL A   1      39.216  32.177  33.959  1.00  0.00     0.074 A 
ATOM     43  C   UNL A   1      38.120  33.122  33.950  1.00  0.00     0.031 C 
ATOM     44  C   UNL A   1      38.891  29.517  28.123  1.00  0.00     0.029 A 
ATOM     45  C   UNL A   1      39.857  29.234  29.179  1.00  0.00     0.049 A 
ATOM     46  H   UNL A   1      39.919  30.054  31.093  1.00  0.00     0.167 HD
ATOM     47  C   UNL A   1      40.047  31.982  35.011  1.00  0.00     0.037 A 
ATOM     48  C   UNL A   1      40.889  28.375  29.083  1.00  0.00     0.037 A 
ATOM     49  C   UNL A   1      41.122  31.025  35.030  1.00  0.00     0.049 A 
ATOM     50  C   UNL A   1      41.796  28.177  30.265  1.00  0.00     0.074 A 
ATOM     51  C   UNL A   1      41.989  30.722  36.066  1.00  0.00     0.029 A 
ATOM     52  N   UNL A   1      41.477  30.215  33.962  1.00  0.00    -0.354 N 
ATOM     53  N   UNL A   1      41.756  28.749  31.443  1.00  0.00    -0.248 NA
ATOM     54  C   UNL A   1      42.889  27.206  30.107  1.00  0.00     0.031 C 
ATOM     55  C   UNL A   1      42.891  29.754  35.614  1.00  0.00     0.029 A 
ATOM     56  C   UNL A   1      42.558  29.422  34.311  1.00  0.00     0.049 A 
ATOM     57  H   UNL A   1      41.027  30.205  33.086  1.00  0.00     0.167 HD
ATOM     58  C   UNL A   1      42.795  28.190  32.174  1.00  0.00     0.074 A 
ATOM     59  C   UNL A   1      43.440  27.222  31.312  1.00  0.00     0.031 C 
ATOM     60  C   UNL A   1      43.182  28.455  33.445  1.00  0.00     0.037 A 
BRANCH  47  61
ATOM     61  C   UNL A   1      39.816  32.812  36.239  1.00  0.00     0.057 A 
ATOM     62  C   UNL A   1      40.505  34.014  36.453  1.00  0.00     0.134 A 
ATOM     63  C   UNL A   1      38.863  32.435  37.193  1.00  0.00     0.134 A 
ATOM     64  F   UNL A   1      41.439  34.426  35.583  1.00  0.00    -0.206 F 
ATOM     65  C   UNL A   1      40.270  34.799  37.583  1.00  0.00     0.040 A 
ATOM     66  C   UNL A   1      38.601  33.225  38.314  1.00  0.00     0.040 A 
ATOM     67  F   UNL A   1      38.162  31.301  37.045  1.00  0.00    -0.206 F 
ATOM     68  C   UNL A   1      39.309  34.409  38.513  1.00  0.00     0.006 A 
ENDBRANCH  47  61
BRANCH  48  69
ATOM     69  C   UNL A   1      41.113  27.619  27.824  1.00  0.00     0.057 A 
ATOM     70  C   UNL A   1      40.576  26.339  27.645  1.00  0.00     0.134 A 
ATOM     71  C   UNL A   1      41.882  28.148  26.781  1.00  0.00     0.134 A 
ATOM     72  F   UNL A   1      39.846  25.772  28.617  1.00  0.00    -0.206 F 
ATOM     73  C   UNL A   1      40.814  25.602  26.484  1.00  0.00     0.040 A 
ATOM     74  C   UNL A   1      42.108  27.432  25.604  1.00  0.00     0.040 A 
ATOM     75  F   UNL A   1      42.419  29.372  26.888  1.00  0.00    -0.206 F 
ATOM     76  C   UNL A   1      41.580  26.151  25.457  1.00  0.00     0.006 A 
ENDBRANCH  48  69
BRANCH  60  77
ATOM     77  C   UNL A   1      44.331  27.662  33.993  1.00  0.00     0.057 A 
ATOM     78  C   UNL A   1      45.649  28.133  33.933  1.00  0.00     0.134 A 
ATOM     79  C   UNL A   1      44.111  26.430  34.621  1.00  0.00     0.134 A 
ATOM     80  F   UNL A   1      45.927  29.301  33.333  1.00  0.00    -0.206 F 
ATOM     81  C   UNL A   1      46.710  27.396  34.461  1.00  0.00     0.040 A 
ATOM     82  C   UNL A   1      45.161  25.696  35.175  1.00  0.00     0.040 A 
ATOM     83  F   UNL A   1      42.872  25.927  34.719  1.00  0.00    -0.206 F 
ATOM     84  C   UNL A   1      46.465  26.176  35.090  1.00  0.00     0.006 A 
ENDBRANCH  60  77
ENDBRANCH  34  35
ENDBRANCH  26  29
ENDBRANCH  24  25
ENDBRANCH  23  24
ENDBRANCH  22  23
ENDBRANCH   1  22
TORSDOF 16
ENDMDL
MODEL 2
REMARK VINA RESULT:     -10.7      4.628      8.591
REMARK SMILES C[C@H]1CCCN1c1cccc(OCC(=O)NCCCCCCNC(=O)c2ccc(-c3c4nc(c(-c5c(F)cccc5F)c5ccc([nH]5)c(-c5c(F)cccc5F)c5nc(c(-c6c(F)cccc6F)c6ccc3[nH]6)C=C5)C=C4)cc2)c1
REMARK SMILES IDX 19 1 18 2 17 3 16 4 14 5 15 6 13 8 12 9 11 10 7 11 8 12
REMARK SMILES IDX 80 13 9 14 10 15 6 16 1 17 2 18 3 19 4 20 5 21 20 22 21 23
REMARK SMILES IDX 22 24 23 25 24 26 25 28 26 29 27 30 79 31 28 32 78 33 29 34
REMARK SMILES IDX 30 35 31 36 72 37 32 38 77 39 71 40 73 41 33 42 76 43 70 44
REMARK SMILES IDX 69 45 34 47 60 48 43 49 59 50 44 51 47 52 58 53 74 54 45 55
REMARK SMILES IDX 46 56 57 58 75 59 48 60 35 61 36 62 41 63 37 64 38 65 40 66
REMARK SMILES IDX 42 67 39 68 61 69 62 70 67 71 63 72 64 73 66 74 68 75 65 76
REMARK SMILES IDX 49 77 50 78 55 79 51 80 52 81 54 82 56 83 53 84
REMARK H PARENT 16 7 23 27 73 46 47 57
REMARK Flexibility Score: inf
ROOT
ATOM      1  C   UNL A   1      36.037  22.265  24.707  1.00  0.00     0.002 C 
ENDROOT
BRANCH   1   2
ATOM      2  C   UNL A   1      35.963  23.750  25.090  1.00  0.00     0.021 C 
BRANCH   2   3
ATOM      3  C   UNL A   1      34.704  24.471  24.608  1.00  0.00     0.116 C 
BRANCH   3   4
ATOM      4  N   UNL A   1      34.471  24.266  23.192  1.00  0.00    -0.353 N 
ATOM      5  C   UNL A   1      33.281  24.145  22.535  1.00  0.00     0.257 C 
ATOM      6  O   UNL A   1      33.291  23.965  21.316  1.00  0.00    -0.271 OA
ATOM      7  H   UNL A   1      35.278  24.206  22.630  1.00  0.00     0.163 HD
BRANCH   5   8
ATOM      8  C   UNL A   1      31.969  24.300  23.311  1.00  0.00     0.329 C 
BRANCH   8   9
ATOM      9  O   UNL A   1      31.279  23.104  23.635  1.00  0.00    -0.484 OA
BRANCH   9  10
ATOM     10  C   UNL A   1      31.960  22.126  24.306  1.00  0.00     0.122 A 
ATOM     11  C   UNL A   1      33.121  19.991  24.549  1.00  0.00     0.041 A 
ATOM     12  C   UNL A   1      33.280  20.269  25.911  1.00  0.00     0.026 A 
ATOM     13  C   UNL A   1      32.450  20.937  23.759  1.00  0.00     0.072 A 
ATOM     14  C   UNL A   1      32.813  21.462  26.467  1.00  0.00     0.006 A 
ATOM     15  C   UNL A   1      32.153  22.387  25.661  1.00  0.00     0.046 A 
BRANCH  11  16
ATOM     16  N   UNL A   1      33.593  18.805  24.029  1.00  0.00    -0.369 N 
ATOM     17  C   UNL A   1      32.268  18.084  22.089  1.00  0.00     0.031 C 
ATOM     18  C   UNL A   1      32.735  17.741  23.498  1.00  0.00     0.079 C 
ATOM     19  C   UNL A   1      33.646  16.504  23.504  1.00  0.00     0.026 C 
ATOM     20  C   UNL A   1      34.625  16.793  24.632  1.00  0.00     0.023 C 
ATOM     21  C   UNL A   1      34.878  18.291  24.493  1.00  0.00     0.117 C 
ENDBRANCH  11  16
ENDBRANCH   9  10
ENDBRANCH   8   9
ENDBRANCH   5   8
ENDBRANCH   3   4
ENDBRANCH   2   3
ENDBRANCH   1   2
BRANCH   1  22
ATOM     22  C   UNL A   1      37.402  21.774  24.215  1.00  0.00     0.002 C 
BRANCH  22  23
ATOM     23  C   UNL A   1      37.802  20.369  24.672  1.00  0.00     0.021 C 
BRANCH  23  24
ATOM     24  C   UNL A   1      38.634  20.317  25.949  1.00  0.00     0.116 C 
BRANCH  24  25
ATOM     25  N   UNL A   1      39.737  19.373  25.856  1.00  0.00    -0.352 N 
ATOM     26  C   UNL A   1      41.079  19.577  26.040  1.00  0.00     0.251 C 
ATOM     27  H   UNL A   1      39.481  18.451  25.628  1.00  0.00     0.163 HD
ATOM     28  O   UNL A   1      41.882  18.685  25.755  1.00  0.00    -0.269 OA
BRANCH  26  29
ATOM     29  C   UNL A   1      41.582  20.871  26.553  1.00  0.00     0.039 A 
ATOM     30  C   UNL A   1      41.999  21.841  25.637  1.00  0.00     0.014 A 
ATOM     31  C   UNL A   1      41.665  21.123  27.926  1.00  0.00     0.014 A 
ATOM     32  C   UNL A   1      42.443  23.084  26.095  1.00  0.00     0.010 A 
ATOM     33  C   UNL A   1      42.045  22.386  28.378  1.00  0.00     0.010 A 
ATOM     34  C   UNL A   1      42.439  23.378  27.469  1.00  0.00    -0.014 A 
BRANCH  34  35
ATOM     35  C   UNL A   1      42.844  24.719  27.966  1.00  0.00     0.031 A 
ATOM     36  C   UNL A   1      41.807  25.770  28.247  1.00  0.00     0.074 A 
ATOM     37  C   UNL A   1      44.152  25.007  28.113  1.00  0.00     0.049 A 
ATOM     38  N   UNL A   1      41.972  27.011  28.631  1.00  0.00    -0.248 NA
ATOM     39  C   UNL A   1      40.401  25.385  28.051  1.00  0.00     0.031 C 
ATOM     40  C   UNL A   1      45.259  24.091  27.829  1.00  0.00     0.029 A 
ATOM     41  N   UNL A   1      44.773  26.158  28.529  1.00  0.00    -0.354 N 
ATOM     42  C   UNL A   1      40.696  27.555  28.712  1.00  0.00     0.074 A 
ATOM     43  C   UNL A   1      39.771  26.525  28.289  1.00  0.00     0.031 C 
ATOM     44  C   UNL A   1      46.420  24.709  28.096  1.00  0.00     0.029 A 
ATOM     45  C   UNL A   1      46.145  26.072  28.538  1.00  0.00     0.049 A 
ATOM     46  H   UNL A   1      44.283  26.969  28.797  1.00  0.00     0.167 HD
ATOM     47  C   UNL A   1      40.326  28.791  29.124  1.00  0.00     0.037 A 
ATOM     48  C   UNL A   1      47.075  26.991  28.860  1.00  0.00     0.037 A 
ATOM     49  C   UNL A   1      41.243  29.808  29.567  1.00  0.00     0.049 A 
ATOM     50  C   UNL A   1      46.637  28.355  29.314  1.00  0.00     0.074 A 
ATOM     51  C   UNL A   1      40.960  31.075  30.048  1.00  0.00     0.029 A 
ATOM     52  N   UNL A   1      42.623  29.673  29.586  1.00  0.00    -0.354 N 
ATOM     53  N   UNL A   1      45.425  28.834  29.443  1.00  0.00    -0.248 NA
ATOM     54  C   UNL A   1      47.699  29.306  29.677  1.00  0.00     0.031 C 
ATOM     55  C   UNL A   1      42.170  31.719  30.324  1.00  0.00     0.029 A 
ATOM     56  C   UNL A   1      43.204  30.839  30.056  1.00  0.00     0.049 A 
ATOM     57  H   UNL A   1      43.116  28.868  29.305  1.00  0.00     0.167 HD
ATOM     58  C   UNL A   1      45.575  30.126  29.927  1.00  0.00     0.074 A 
ATOM     59  C   UNL A   1      46.996  30.354  30.082  1.00  0.00     0.031 C 
ATOM     60  C   UNL A   1      44.621  31.044  30.216  1.00  0.00     0.037 A 
BRANCH  47  61
ATOM     61  C   UNL A   1      38.860  29.109  29.129  1.00  0.00     0.057 A 
ATOM     62  C   UNL A   1      38.089  29.004  30.295  1.00  0.00     0.134 A 
ATOM     63  C   UNL A   1      38.221  29.572  27.972  1.00  0.00     0.134 A 
ATOM     64  F   UNL A   1      38.637  28.557  31.434  1.00  0.00    -0.206 F 
ATOM     65  C   UNL A   1      36.731  29.327  30.304  1.00  0.00     0.040 A 
ATOM     66  C   UNL A   1      36.870  29.922  27.975  1.00  0.00     0.040 A 
ATOM     67  F   UNL A   1      38.902  29.704  26.824  1.00  0.00    -0.206 F 
ATOM     68  C   UNL A   1      36.120  29.795  29.142  1.00  0.00     0.006 A 
ENDBRANCH  47  61
BRANCH  48  69
ATOM     69  C   UNL A   1      48.518  26.648  28.782  1.00  0.00     0.057 A 
ATOM     70  C   UNL A   1      49.267  26.933  27.635  1.00  0.00     0.134 A 
ATOM     71  C   UNL A   1      49.177  26.015  29.842  1.00  0.00     0.134 A 
ATOM     72  F   UNL A   1      48.686  27.523  26.579  1.00  0.00    -0.206 F 
ATOM     73  C   UNL A   1      50.614  26.580  27.534  1.00  0.00     0.040 A 
ATOM     74  C   UNL A   1      50.529  25.677  29.765  1.00  0.00     0.040 A 
ATOM     75  F   UNL A   1      48.516  25.721  30.971  1.00  0.00    -0.206 F 
ATOM     76  C   UNL A   1      51.249  25.952  28.604  1.00  0.00     0.006 A 
ENDBRANCH  48  69
BRANCH  60  77
ATOM     77  C   UNL A   1      45.080  32.364  30.763  1.00  0.00     0.057 A 
ATOM     78  C   UNL A   1      45.256  32.572  32.136  1.00  0.00     0.134 A 
ATOM     79  C   UNL A   1      45.384  33.425  29.901  1.00  0.00     0.134 A 
ATOM     80  F   UNL A   1      44.969  31.598  33.014  1.00  0.00    -0.206 F 
ATOM     81  C   UNL A   1      45.700  33.798  32.636  1.00  0.00     0.040 A 
ATOM     82  C   UNL A   1      45.852  34.647  30.387  1.00  0.00     0.040 A 
ATOM     83  F   UNL A   1      45.245  33.288  28.575  1.00  0.00    -0.206 F 
ATOM     84  C   UNL A   1      46.005  34.837  31.758  1.00  0.00     0.006 A 
ENDBRANCH  60  77
ENDBRANCH  34  35
ENDBRANCH  26  29
ENDBRANCH  24  25
ENDBRANCH  23  24
ENDBRANCH  22  23
ENDBRANCH   1  22
TORSDOF 16
ENDMDL
MODEL 3
REMARK VINA RESULT:     -10.7      2.197      7.394
REMARK SMILES C[C@H]1CCCN1c1cccc(OCC(=O)NCCCCCCNC(=O)c2ccc(-c3c4nc(c(-c5c(F)cccc5F)c5ccc([nH]5)c(-c5c(F)cccc5F)c5nc(c(-c6c(F)cccc6F)c6ccc3[nH]6)C=C5)C=C4)cc2)c1
REMARK SMILES IDX 19 1 18 2 17 3 16 4 14 5 15 6 13 8 12 9 11 10 7 11 8 12
REMARK SMILES IDX 80 13 9 14 10 15 6 16 1 17 2 18 3 19 4 20 5 21 20 22 21 23
REMARK SMILES IDX 22 24 23 25 24 26 25 28 26 29 27 30 79 31 28 32 78 33 29 34
REMARK SMILES IDX 30 35 31 36 72 37 32 38 77 39 71 40 73 41 33 42 76 43 70 44
REMARK SMILES IDX 69 45 34 47 60 48 43 49 59 50 44 51 47 52 58 53 74 54 45 55
REMARK SMILES IDX 46 56 57 58 75 59 48 60 35 61 36 62 41 63 37 64 38 65 40 66
REMARK SMILES IDX 42 67 39 68 61 69 62 70 67 71 63 72 64 73 66 74 68 75 65 76
REMARK SMILES IDX 49 77 50 78 55 79 51 80 52 81 54 82 56 83 53 84
REMARK H PARENT 16 7 23 27 73 46 47 57
REMARK Flexibility Score: inf
ROOT
ATOM      1  C   UNL A   1      32.231  29.875  26.877  1.00  0.00     0.002 C 
ENDROOT
BRANCH   1   2
ATOM      2  C   UNL A   1      33.629  29.495  26.371  1.00  0.00     0.021 C 
BRANCH   2   3
ATOM      3  C   UNL A   1      33.666  28.268  25.458  1.00  0.00     0.116 C 
BRANCH   3   4
ATOM      4  N   UNL A   1      34.129  28.599  24.126  1.00  0.00    -0.353 N 
ATOM      5  C   UNL A   1      33.860  27.962  22.949  1.00  0.00     0.257 C 
ATOM      6  O   UNL A   1      34.360  28.396  21.910  1.00  0.00    -0.271 OA
ATOM      7  H   UNL A   1      34.715  29.388  24.059  1.00  0.00     0.163 HD
BRANCH   5   8
ATOM      8  C   UNL A   1      32.897  26.769  22.938  1.00  0.00     0.329 C 
BRANCH   8   9
ATOM      9  O   UNL A   1      31.810  26.841  22.030  1.00  0.00    -0.484 OA
BRANCH   9  10
ATOM     10  C   UNL A   1      30.635  27.384  22.472  1.00  0.00     0.122 A 
ATOM     11  C   UNL A   1      28.992  29.160  22.805  1.00  0.00     0.041 A 
ATOM     12  C   UNL A   1      28.202  28.253  23.519  1.00  0.00     0.026 A 
ATOM     13  C   UNL A   1      30.214  28.704  22.289  1.00  0.00     0.072 A 
ATOM     14  C   UNL A   1      28.600  26.926  23.691  1.00  0.00     0.006 A 
ATOM     15  C   UNL A   1      29.816  26.496  23.168  1.00  0.00     0.046 A 
BRANCH  11  16
ATOM     16  N   UNL A   1      28.573  30.465  22.650  1.00  0.00    -0.369 N 
ATOM     17  C   UNL A   1      27.891  30.922  20.334  1.00  0.00     0.031 C 
ATOM     18  C   UNL A   1      28.847  31.282  21.464  1.00  0.00     0.079 C 
ATOM     19  C   UNL A   1      28.622  32.720  21.955  1.00  0.00     0.026 C 
ATOM     20  C   UNL A   1      28.933  32.637  23.442  1.00  0.00     0.023 C 
ATOM     21  C   UNL A   1      28.355  31.283  23.839  1.00  0.00     0.117 C 
ENDBRANCH  11  16
ENDBRANCH   9  10
ENDBRANCH   8   9
ENDBRANCH   5   8
ENDBRANCH   3   4
ENDBRANCH   2   3
ENDBRANCH   1   2
BRANCH   1  22
ATOM     22  C   UNL A   1      31.485  30.921  26.042  1.00  0.00     0.002 C 
BRANCH  22  23
ATOM     23  C   UNL A   1      31.287  32.282  26.714  1.00  0.00     0.021 C 
BRANCH  23  24
ATOM     24  C   UNL A   1      32.569  32.961  27.186  1.00  0.00     0.116 C 
BRANCH  24  25
ATOM     25  N   UNL A   1      32.341  34.324  27.643  1.00  0.00    -0.352 N 
ATOM     26  C   UNL A   1      32.990  35.040  28.614  1.00  0.00     0.251 C 
ATOM     27  H   UNL A   1      31.611  34.802  27.186  1.00  0.00     0.163 HD
ATOM     28  O   UNL A   1      32.544  36.132  28.974  1.00  0.00    -0.269 OA
BRANCH  26  29
ATOM     29  C   UNL A   1      34.211  34.505  29.255  1.00  0.00     0.039 A 
ATOM     30  C   UNL A   1      34.105  33.920  30.520  1.00  0.00     0.014 A 
ATOM     31  C   UNL A   1      35.459  34.598  28.630  1.00  0.00     0.014 A 
ATOM     32  C   UNL A   1      35.237  33.375  31.131  1.00  0.00     0.010 A 
ATOM     33  C   UNL A   1      36.573  33.994  29.212  1.00  0.00     0.010 A 
ATOM     34  C   UNL A   1      36.475  33.378  30.468  1.00  0.00    -0.014 A 
BRANCH  34  35
ATOM     35  C   UNL A   1      37.671  32.742  31.076  1.00  0.00     0.031 A 
ATOM     36  C   UNL A   1      38.287  31.523  30.446  1.00  0.00     0.074 A 
ATOM     37  C   UNL A   1      38.172  33.231  32.228  1.00  0.00     0.049 A 
ATOM     38  N   UNL A   1      39.296  30.799  30.862  1.00  0.00    -0.248 NA
ATOM     39  C   UNL A   1      37.677  31.041  29.198  1.00  0.00     0.031 C 
ATOM     40  C   UNL A   1      37.639  34.378  32.964  1.00  0.00     0.029 A 
ATOM     41  N   UNL A   1      39.239  32.817  32.987  1.00  0.00    -0.354 N 
ATOM     42  C   UNL A   1      39.434  29.774  29.934  1.00  0.00     0.074 A 
ATOM     43  C   UNL A   1      38.375  29.941  28.961  1.00  0.00     0.031 C 
ATOM     44  C   UNL A   1      38.390  34.586  34.057  1.00  0.00     0.029 A 
ATOM     45  C   UNL A   1      39.436  33.571  34.118  1.00  0.00     0.049 A 
ATOM     46  H   UNL A   1      39.809  32.052  32.743  1.00  0.00     0.167 HD
ATOM     47  C   UNL A   1      40.372  28.798  29.882  1.00  0.00     0.037 A 
ATOM     48  C   UNL A   1      40.353  33.454  35.097  1.00  0.00     0.037 A 
ATOM     49  C   UNL A   1      41.439  28.646  30.835  1.00  0.00     0.049 A 
ATOM     50  C   UNL A   1      41.383  32.362  35.015  1.00  0.00     0.074 A 
ATOM     51  C   UNL A   1      42.465  27.716  30.841  1.00  0.00     0.029 A 
ATOM     52  N   UNL A   1      41.620  29.447  31.953  1.00  0.00    -0.354 N 
ATOM     53  N   UNL A   1      41.536  31.437  34.099  1.00  0.00    -0.248 NA
ATOM     54  C   UNL A   1      42.373  32.301  36.100  1.00  0.00     0.031 C 
ATOM     55  C   UNL A   1      43.246  27.932  31.981  1.00  0.00     0.029 A 
ATOM     56  C   UNL A   1      42.732  29.023  32.662  1.00  0.00     0.049 A 
ATOM     57  H   UNL A   1      41.043  30.204  32.206  1.00  0.00     0.167 HD
ATOM     58  C   UNL A   1      42.653  30.705  34.480  1.00  0.00     0.074 A 
ATOM     59  C   UNL A   1      43.147  31.301  35.703  1.00  0.00     0.031 C 
ATOM     60  C   UNL A   1      43.218  29.635  33.872  1.00  0.00     0.037 A 
BRANCH  47  61
ATOM     61  C   UNL A   1      40.293  27.822  28.745  1.00  0.00     0.057 A 
ATOM     62  C   UNL A   1      41.003  28.023  27.554  1.00  0.00     0.134 A 
ATOM     63  C   UNL A   1      39.541  26.647  28.858  1.00  0.00     0.134 A 
ATOM     64  F   UNL A   1      41.734  29.134  27.378  1.00  0.00    -0.206 F 
ATOM     65  C   UNL A   1      40.951  27.101  26.508  1.00  0.00     0.040 A 
ATOM     66  C   UNL A   1      39.501  25.704  27.829  1.00  0.00     0.040 A 
ATOM     67  F   UNL A   1      38.844  26.388  29.975  1.00  0.00    -0.206 F 
ATOM     68  C   UNL A   1      40.203  25.933  26.648  1.00  0.00     0.006 A 
ENDBRANCH  47  61
BRANCH  48  69
ATOM     69  C   UNL A   1      40.354  34.408  36.235  1.00  0.00     0.057 A 
ATOM     70  C   UNL A   1      41.062  35.613  36.167  1.00  0.00     0.134 A 
ATOM     71  C   UNL A   1      39.664  34.131  37.421  1.00  0.00     0.134 A 
ATOM     72  F   UNL A   1      41.757  35.925  35.063  1.00  0.00    -0.206 F 
ATOM     73  C   UNL A   1      41.104  36.499  37.245  1.00  0.00     0.040 A 
ATOM     74  C   UNL A   1      39.677  35.018  38.499  1.00  0.00     0.040 A 
ATOM     75  F   UNL A   1      38.962  32.996  37.547  1.00  0.00    -0.206 F 
ATOM     76  C   UNL A   1      40.406  36.203  38.414  1.00  0.00     0.006 A 
ENDBRANCH  48  69
BRANCH  60  77
ATOM     77  C   UNL A   1      44.454  29.061  34.499  1.00  0.00     0.057 A 
ATOM     78  C   UNL A   1      45.733  29.528  34.171  1.00  0.00     0.134 A 
ATOM     79  C   UNL A   1      44.360  28.056  35.469  1.00  0.00     0.134 A 
ATOM     80  F   UNL A   1      45.890  30.482  33.239  1.00  0.00    -0.206 F 
ATOM     81  C   UNL A   1      46.877  29.001  34.771  1.00  0.00     0.040 A 
ATOM     82  C   UNL A   1      45.495  27.538  36.095  1.00  0.00     0.040 A 
ATOM     83  F   UNL A   1      43.165  27.571  35.834  1.00  0.00    -0.206 F 
ATOM     84  C   UNL A   1      46.759  28.007  35.742  1.00  0.00     0.006 A 
ENDBRANCH  60  77
ENDBRANCH  34  35
ENDBRANCH  26  29
ENDBRANCH  24  25
ENDBRANCH  23  24
ENDBRANCH  22  23
ENDBRANCH   1  22
TORSDOF 16
ENDMDL
