MODEL 1
REMARK VINA RESULT:     -12.0      0.000      0.000
REMARK SMILES CS(=O)(=O)c1ccc(N2N=C(C(=O)NCCCCCCNC(=O)c3ccc(-c4c5nc(c(-c6c(F)cccc6F)c6ccc([nH]6)c(-c6c(F)cccc6F)c6nc(c(-c7c(F)cccc7F)c7ccc4[nH]7)C=C6)C=C5)cc3)C[C@H]2c2ccco2)cc1
REMARK SMILES IDX 17 1 16 2 15 3 14 4 12 5 13 6 11 8 9 9 10 10 79 11 78 12
REMARK SMILES IDX 8 13 5 14 6 15 86 16 7 17 85 18 2 19 1 20 3 21 4 22 80 23
REMARK SMILES IDX 81 24 84 25 82 26 83 27 18 28 19 29 20 30 21 31 22 32 23 34
REMARK SMILES IDX 24 35 25 36 77 37 26 38 76 39 27 40 28 41 29 42 70 43 30 44
REMARK SMILES IDX 75 45 69 46 71 47 31 48 74 49 68 50 67 51 32 53 58 54 41 55
REMARK SMILES IDX 57 56 42 57 45 58 56 59 72 60 43 61 44 62 55 64 73 65 46 66
REMARK SMILES IDX 33 67 34 68 39 69 35 70 36 71 38 72 40 73 37 74 59 75 60 76
REMARK SMILES IDX 65 77 61 78 62 79 64 80 66 81 63 82 47 83 48 84 53 85 49 86
REMARK SMILES IDX 50 87 52 88 54 89 51 90
REMARK H PARENT 14 7 21 33 71 52 45 63
REMARK Flexibility Score: inf
ROOT
ATOM      1  C   UNL A   1      37.081  22.079  24.772  1.00  0.00     0.002 C 
ENDROOT
BRANCH   1   2
ATOM      2  C   UNL A   1      36.632  22.723  23.459  1.00  0.00     0.021 C 
BRANCH   2   3
ATOM      3  C   UNL A   1      35.399  23.609  23.592  1.00  0.00     0.116 C 
BRANCH   3   4
ATOM      4  N   UNL A   1      34.220  22.938  23.086  1.00  0.00    -0.351 N 
ATOM      5  C   UNL A   1      32.872  23.174  23.175  1.00  0.00     0.267 C 
ATOM      6  O   UNL A   1      32.114  22.327  22.708  1.00  0.00    -0.268 OA
ATOM      7  H   UNL A   1      34.433  22.133  22.561  1.00  0.00     0.163 HD
BRANCH   5   8
ATOM      8  C   UNL A   1      32.271  24.440  23.768  1.00  0.00     0.128 C 
ATOM      9  N   UNL A   1      31.453  26.407  23.802  1.00  0.00    -0.254 N 
ATOM     10  N   UNL A   1      31.707  25.333  23.010  1.00  0.00    -0.171 NA
ATOM     11  C   UNL A   1      31.689  26.168  25.228  1.00  0.00     0.180 C 
ATOM     12  C   UNL A   1      32.304  24.768  25.221  1.00  0.00     0.099 C 
BRANCH   9  13
ATOM     13  C   UNL A   1      30.627  27.430  23.354  1.00  0.00     0.060 A 
ATOM     14  C   UNL A   1      29.008  29.568  22.526  1.00  0.00     0.067 A 
ATOM     15  C   UNL A   1      28.419  28.427  23.077  1.00  0.00     0.022 A 
ATOM     16  C   UNL A   1      30.391  29.641  22.358  1.00  0.00     0.022 A 
ATOM     17  C   UNL A   1      29.232  27.358  23.472  1.00  0.00     0.029 A 
ATOM     18  C   UNL A   1      31.186  28.573  22.767  1.00  0.00     0.029 A 
BRANCH  14  19
ATOM     19  S   UNL A   1      28.017  30.953  22.028  1.00  0.00     0.175 S 
ATOM     20  C   UNL A   1      29.030  32.382  22.283  1.00  0.00     0.163 C 
ATOM     21  O   UNL A   1      26.908  31.048  22.965  1.00  0.00    -0.224 OA
ATOM     22  O   UNL A   1      27.780  30.804  20.607  1.00  0.00    -0.224 OA
ENDBRANCH  14  19
ENDBRANCH   9  13
BRANCH  11  23
ATOM     23  C   UNL A   1      32.528  27.162  25.979  1.00  0.00     0.128 A 
ATOM     24  C   UNL A   1      32.366  27.788  27.201  1.00  0.00     0.048 A 
ATOM     25  O   UNL A   1      33.706  27.570  25.417  1.00  0.00    -0.467 OA
ATOM     26  C   UNL A   1      33.484  28.636  27.376  1.00  0.00     0.042 A 
ATOM     27  C   UNL A   1      34.280  28.453  26.271  1.00  0.00     0.195 A 
ENDBRANCH  11  23
ENDBRANCH   5   8
ENDBRANCH   3   4
ENDBRANCH   2   3
ENDBRANCH   1   2
BRANCH   1  28
ATOM     28  C   UNL A   1      36.715  20.598  24.922  1.00  0.00     0.002 C 
BRANCH  28  29
ATOM     29  C   UNL A   1      37.904  19.633  24.956  1.00  0.00     0.021 C 
BRANCH  29  30
ATOM     30  C   UNL A   1      39.116  20.147  25.725  1.00  0.00     0.116 C 
BRANCH  30  31
ATOM     31  N   UNL A   1      40.147  19.132  25.853  1.00  0.00    -0.352 N 
ATOM     32  C   UNL A   1      41.490  19.277  26.090  1.00  0.00     0.251 C 
ATOM     33  H   UNL A   1      39.837  18.203  25.755  1.00  0.00     0.163 HD
ATOM     34  O   UNL A   1      42.246  18.320  25.952  1.00  0.00    -0.269 OA
BRANCH  32  35
ATOM     35  C   UNL A   1      42.031  20.591  26.494  1.00  0.00     0.039 A 
ATOM     36  C   UNL A   1      42.507  21.455  25.504  1.00  0.00     0.014 A 
ATOM     37  C   UNL A   1      42.086  20.967  27.839  1.00  0.00     0.014 A 
ATOM     38  C   UNL A   1      42.986  22.715  25.859  1.00  0.00     0.010 A 
ATOM     39  C   UNL A   1      42.490  22.254  28.185  1.00  0.00     0.010 A 
ATOM     40  C   UNL A   1      42.950  23.139  27.199  1.00  0.00    -0.014 A 
BRANCH  40  41
ATOM     41  C   UNL A   1      43.376  24.512  27.574  1.00  0.00     0.031 A 
ATOM     42  C   UNL A   1      42.357  25.556  27.935  1.00  0.00     0.074 A 
ATOM     43  C   UNL A   1      44.685  24.830  27.535  1.00  0.00     0.049 A 
ATOM     44  N   UNL A   1      42.542  26.811  28.263  1.00  0.00    -0.248 NA
ATOM     45  C   UNL A   1      40.945  25.146  27.901  1.00  0.00     0.031 C 
ATOM     46  C   UNL A   1      45.764  23.921  27.144  1.00  0.00     0.029 A 
ATOM     47  N   UNL A   1      45.329  26.007  27.822  1.00  0.00    -0.354 N 
ATOM     48  C   UNL A   1      41.273  27.340  28.461  1.00  0.00     0.074 A 
ATOM     49  C   UNL A   1      40.325  26.288  28.162  1.00  0.00     0.031 C 
ATOM     50  C   UNL A   1      46.937  24.566  27.239  1.00  0.00     0.029 A 
ATOM     51  C   UNL A   1      46.691  25.942  27.658  1.00  0.00     0.049 A 
ATOM     52  H   UNL A   1      44.859  26.821  28.117  1.00  0.00     0.167 HD
ATOM     53  C   UNL A   1      40.929  28.584  28.874  1.00  0.00     0.037 A 
ATOM     54  C   UNL A   1      47.637  26.886  27.819  1.00  0.00     0.037 A 
ATOM     55  C   UNL A   1      41.878  29.623  29.184  1.00  0.00     0.049 A 
ATOM     56  C   UNL A   1      47.231  28.260  28.275  1.00  0.00     0.074 A 
ATOM     57  C   UNL A   1      41.634  30.893  29.679  1.00  0.00     0.029 A 
ATOM     58  N   UNL A   1      43.251  29.516  29.018  1.00  0.00    -0.354 N 
ATOM     59  N   UNL A   1      46.033  28.722  28.542  1.00  0.00    -0.248 NA
ATOM     60  C   UNL A   1      48.309  29.241  28.460  1.00  0.00     0.031 C 
ATOM     61  C   UNL A   1      42.854  31.575  29.752  1.00  0.00     0.029 A 
ATOM     62  C   UNL A   1      43.864  30.710  29.366  1.00  0.00     0.049 A 
ATOM     63  H   UNL A   1      43.721  28.711  28.699  1.00  0.00     0.167 HD
ATOM     64  C   UNL A   1      46.215  30.037  28.949  1.00  0.00     0.074 A 
ATOM     65  C   UNL A   1      47.640  30.292  28.913  1.00  0.00     0.031 C 
ATOM     66  C   UNL A   1      45.285  30.953  29.318  1.00  0.00     0.037 A 
BRANCH  53  67
ATOM     67  C   UNL A   1      39.464  28.893  29.005  1.00  0.00     0.057 A 
ATOM     68  C   UNL A   1      38.695  29.326  27.915  1.00  0.00     0.134 A 
ATOM     69  C   UNL A   1      38.806  28.724  30.229  1.00  0.00     0.134 A 
ATOM     70  F   UNL A   1      39.263  29.519  26.715  1.00  0.00    -0.206 F 
ATOM     71  C   UNL A   1      37.335  29.610  28.048  1.00  0.00     0.040 A 
ATOM     72  C   UNL A   1      37.440  28.975  30.366  1.00  0.00     0.040 A 
ATOM     73  F   UNL A   1      39.478  28.305  31.312  1.00  0.00    -0.206 F 
ATOM     74  C   UNL A   1      36.701  29.427  29.275  1.00  0.00     0.006 A 
ENDBRANCH  53  67
BRANCH  54  75
ATOM     75  C   UNL A   1      49.062  26.559  27.558  1.00  0.00     0.057 A 
ATOM     76  C   UNL A   1      49.869  25.986  28.547  1.00  0.00     0.134 A 
ATOM     77  C   UNL A   1      49.650  26.810  26.312  1.00  0.00     0.134 A 
ATOM     78  F   UNL A   1      49.368  25.737  29.766  1.00  0.00    -0.206 F 
ATOM     79  C   UNL A   1      51.214  25.694  28.316  1.00  0.00     0.040 A 
ATOM     80  C   UNL A   1      50.987  26.497  26.057  1.00  0.00     0.040 A 
ATOM     81  F   UNL A   1      48.928  27.349  25.318  1.00  0.00    -0.206 F 
ATOM     82  C   UNL A   1      51.775  25.943  27.064  1.00  0.00     0.006 A 
ENDBRANCH  54  75
BRANCH  66  83
ATOM     83  C   UNL A   1      45.784  32.308  29.735  1.00  0.00     0.057 A 
ATOM     84  C   UNL A   1      45.912  33.363  28.823  1.00  0.00     0.134 A 
ATOM     85  C   UNL A   1      46.115  32.566  31.071  1.00  0.00     0.134 A 
ATOM     86  F   UNL A   1      45.624  33.181  27.525  1.00  0.00    -0.206 F 
ATOM     87  C   UNL A   1      46.383  34.617  29.219  1.00  0.00     0.040 A 
ATOM     88  C   UNL A   1      46.556  33.823  31.485  1.00  0.00     0.040 A 
ATOM     89  F   UNL A   1      46.007  31.603  31.999  1.00  0.00    -0.206 F 
ATOM     90  C   UNL A   1      46.698  34.850  30.555  1.00  0.00     0.006 A 
ENDBRANCH  66  83
ENDBRANCH  40  41
ENDBRANCH  32  35
ENDBRANCH  30  31
ENDBRANCH  29  30
ENDBRANCH  28  29
ENDBRANCH   1  28
TORSDOF 16
ENDMDL
MODEL 2
REMARK VINA RESULT:     -11.8      1.889      6.674
REMARK SMILES CS(=O)(=O)c1ccc(N2N=C(C(=O)NCCCCCCNC(=O)c3ccc(-c4c5nc(c(-c6c(F)cccc6F)c6ccc([nH]6)c(-c6c(F)cccc6F)c6nc(c(-c7c(F)cccc7F)c7ccc4[nH]7)C=C6)C=C5)cc3)C[C@H]2c2ccco2)cc1
REMARK SMILES IDX 17 1 16 2 15 3 14 4 12 5 13 6 11 8 9 9 10 10 79 11 78 12
REMARK SMILES IDX 8 13 5 14 6 15 86 16 7 17 85 18 2 19 1 20 3 21 4 22 80 23
REMARK SMILES IDX 81 24 84 25 82 26 83 27 18 28 19 29 20 30 21 31 22 32 23 34
REMARK SMILES IDX 24 35 25 36 77 37 26 38 76 39 27 40 28 41 29 42 70 43 30 44
REMARK SMILES IDX 75 45 69 46 71 47 31 48 74 49 68 50 67 51 32 53 58 54 41 55
REMARK SMILES IDX 57 56 42 57 45 58 56 59 72 60 43 61 44 62 55 64 73 65 46 66
REMARK SMILES IDX 33 67 34 68 39 69 35 70 36 71 38 72 40 73 37 74 59 75 60 76
REMARK SMILES IDX 65 77 61 78 62 79 64 80 66 81 63 82 47 83 48 84 53 85 49 86
REMARK SMILES IDX 50 87 52 88 54 89 51 90
REMARK H PARENT 14 7 21 33 71 52 45 63
REMARK Flexibility Score: inf
ROOT
ATOM      1  C   UNL A   1      36.577  21.852  24.253  1.00  0.00     0.002 C 
ENDROOT
BRANCH   1   2
ATOM      2  C   UNL A   1      35.337  22.739  24.381  1.00  0.00     0.021 C 
BRANCH   2   3
ATOM      3  C   UNL A   1      35.044  23.195  25.806  1.00  0.00     0.116 C 
BRANCH   3   4
ATOM      4  N   UNL A   1      33.633  23.071  26.111  1.00  0.00    -0.351 N 
ATOM      5  C   UNL A   1      32.582  23.950  26.150  1.00  0.00     0.267 C 
ATOM      6  O   UNL A   1      31.505  23.530  26.565  1.00  0.00    -0.268 OA
ATOM      7  H   UNL A   1      33.372  22.151  26.343  1.00  0.00     0.163 HD
BRANCH   5   8
ATOM      8  C   UNL A   1      32.663  25.390  25.665  1.00  0.00     0.128 C 
ATOM      9  N   UNL A   1      32.682  27.517  25.793  1.00  0.00    -0.254 N 
ATOM     10  N   UNL A   1      32.849  26.368  26.501  1.00  0.00    -0.171 NA
ATOM     11  C   UNL A   1      32.556  27.315  24.347  1.00  0.00     0.180 C 
ATOM     12  C   UNL A   1      32.514  25.791  24.238  1.00  0.00     0.099 C 
BRANCH   9  13
ATOM     13  C   UNL A   1      33.061  28.737  26.336  1.00  0.00     0.060 A 
ATOM     14  C   UNL A   1      33.856  31.149  27.531  1.00  0.00     0.067 A 
ATOM     15  C   UNL A   1      32.527  30.977  27.137  1.00  0.00     0.022 A 
ATOM     16  C   UNL A   1      34.796  30.143  27.309  1.00  0.00     0.022 A 
ATOM     17  C   UNL A   1      32.142  29.778  26.526  1.00  0.00     0.029 A 
ATOM     18  C   UNL A   1      34.394  28.952  26.711  1.00  0.00     0.029 A 
BRANCH  14  19
ATOM     19  S   UNL A   1      34.383  32.646  28.325  1.00  0.00     0.175 S 
ATOM     20  C   UNL A   1      33.106  33.831  28.006  1.00  0.00     0.163 C 
ATOM     21  O   UNL A   1      35.572  33.109  27.627  1.00  0.00    -0.224 OA
ATOM     22  O   UNL A   1      34.413  32.373  29.747  1.00  0.00    -0.224 OA
ENDBRANCH  14  19
ENDBRANCH   9  13
BRANCH  11  23
ATOM     23  C   UNL A   1      31.408  27.976  23.642  1.00  0.00     0.128 A 
ATOM     24  C   UNL A   1      31.340  29.028  22.747  1.00  0.00     0.048 A 
ATOM     25  O   UNL A   1      30.147  27.493  23.865  1.00  0.00    -0.467 OA
ATOM     26  C   UNL A   1      29.973  29.209  22.432  1.00  0.00     0.042 A 
ATOM     27  C   UNL A   1      29.290  28.238  23.125  1.00  0.00     0.195 A 
ENDBRANCH  11  23
ENDBRANCH   5   8
ENDBRANCH   3   4
ENDBRANCH   2   3
ENDBRANCH   1   2
BRANCH   1  28
ATOM     28  C   UNL A   1      36.493  20.514  24.997  1.00  0.00     0.002 C 
BRANCH  28  29
ATOM     29  C   UNL A   1      37.750  19.643  24.915  1.00  0.00     0.021 C 
BRANCH  29  30
ATOM     30  C   UNL A   1      38.932  20.156  25.730  1.00  0.00     0.116 C 
BRANCH  30  31
ATOM     31  N   UNL A   1      39.980  19.158  25.854  1.00  0.00    -0.352 N 
ATOM     32  C   UNL A   1      41.326  19.326  26.055  1.00  0.00     0.251 C 
ATOM     33  H   UNL A   1      39.680  18.223  25.783  1.00  0.00     0.163 HD
ATOM     34  O   UNL A   1      42.091  18.376  25.919  1.00  0.00    -0.269 OA
BRANCH  32  35
ATOM     35  C   UNL A   1      41.859  20.655  26.419  1.00  0.00     0.039 A 
ATOM     36  C   UNL A   1      42.184  21.550  25.397  1.00  0.00     0.014 A 
ATOM     37  C   UNL A   1      42.052  21.015  27.756  1.00  0.00     0.014 A 
ATOM     38  C   UNL A   1      42.652  22.825  25.718  1.00  0.00     0.010 A 
ATOM     39  C   UNL A   1      42.443  22.312  28.076  1.00  0.00     0.010 A 
ATOM     40  C   UNL A   1      42.753  23.229  27.060  1.00  0.00    -0.014 A 
BRANCH  40  41
ATOM     41  C   UNL A   1      43.165  24.612  27.409  1.00  0.00     0.031 A 
ATOM     42  C   UNL A   1      44.597  25.044  27.261  1.00  0.00     0.074 A 
ATOM     43  C   UNL A   1      42.251  25.466  27.912  1.00  0.00     0.049 A 
ATOM     44  N   UNL A   1      45.144  26.200  27.541  1.00  0.00    -0.248 NA
ATOM     45  C   UNL A   1      45.545  24.037  26.758  1.00  0.00     0.031 C 
ATOM     46  C   UNL A   1      40.843  25.148  28.157  1.00  0.00     0.029 A 
ATOM     47  N   UNL A   1      42.372  26.772  28.313  1.00  0.00    -0.354 N 
ATOM     48  C   UNL A   1      46.497  26.056  27.259  1.00  0.00     0.074 A 
ATOM     49  C   UNL A   1      46.698  24.685  26.842  1.00  0.00     0.031 C 
ATOM     50  C   UNL A   1      40.226  26.236  28.642  1.00  0.00     0.029 A 
ATOM     51  C   UNL A   1      41.200  27.314  28.780  1.00  0.00     0.049 A 
ATOM     52  H   UNL A   1      43.219  27.274  28.270  1.00  0.00     0.167 HD
ATOM     53  C   UNL A   1      47.479  26.988  27.323  1.00  0.00     0.037 A 
ATOM     54  C   UNL A   1      40.938  28.539  29.273  1.00  0.00     0.037 A 
ATOM     55  C   UNL A   1      47.270  28.355  27.726  1.00  0.00     0.049 A 
ATOM     56  C   UNL A   1      42.044  29.555  29.337  1.00  0.00     0.074 A 
ATOM     57  C   UNL A   1      48.184  29.395  27.754  1.00  0.00     0.029 A 
ATOM     58  N   UNL A   1      46.065  28.871  28.181  1.00  0.00    -0.354 N 
ATOM     59  N   UNL A   1      43.302  29.431  28.986  1.00  0.00    -0.248 NA
ATOM     60  C   UNL A   1      41.694  30.883  29.858  1.00  0.00     0.031 C 
ATOM     61  C   UNL A   1      47.548  30.522  28.286  1.00  0.00     0.029 A 
ATOM     62  C   UNL A   1      46.222  30.204  28.527  1.00  0.00     0.049 A 
ATOM     63  H   UNL A   1      45.223  28.365  28.248  1.00  0.00     0.167 HD
ATOM     64  C   UNL A   1      43.886  30.669  29.220  1.00  0.00     0.074 A 
ATOM     65  C   UNL A   1      42.840  31.535  29.724  1.00  0.00     0.031 C 
ATOM     66  C   UNL A   1      45.173  31.054  29.035  1.00  0.00     0.037 A 
BRANCH  53  67
ATOM     67  C   UNL A   1      48.871  26.556  26.958  1.00  0.00     0.057 A 
ATOM     68  C   UNL A   1      49.400  26.755  25.675  1.00  0.00     0.134 A 
ATOM     69  C   UNL A   1      49.706  25.962  27.912  1.00  0.00     0.134 A 
ATOM     70  F   UNL A   1      48.652  27.310  24.709  1.00  0.00    -0.206 F 
ATOM     71  C   UNL A   1      50.695  26.350  25.347  1.00  0.00     0.040 A 
ATOM     72  C   UNL A   1      51.014  25.581  27.604  1.00  0.00     0.040 A 
ATOM     73  F   UNL A   1      49.270  25.747  29.162  1.00  0.00    -0.206 F 
ATOM     74  C   UNL A   1      51.509  25.768  26.315  1.00  0.00     0.006 A 
ENDBRANCH  53  67
BRANCH  54  75
ATOM     75  C   UNL A   1      39.567  28.875  29.734  1.00  0.00     0.057 A 
ATOM     76  C   UNL A   1      38.625  29.436  28.864  1.00  0.00     0.134 A 
ATOM     77  C   UNL A   1      39.165  28.641  31.055  1.00  0.00     0.134 A 
ATOM     78  F   UNL A   1      38.955  29.699  27.591  1.00  0.00    -0.206 F 
ATOM     79  C   UNL A   1      37.340  29.772  29.295  1.00  0.00     0.040 A 
ATOM     80  C   UNL A   1      37.874  28.946  31.492  1.00  0.00     0.040 A 
ATOM     81  F   UNL A   1      40.016  28.096  31.937  1.00  0.00    -0.206 F 
ATOM     82  C   UNL A   1      36.960  29.521  30.612  1.00  0.00     0.006 A 
ENDBRANCH  54  75
BRANCH  66  83
ATOM     83  C   UNL A   1      45.515  32.481  29.360  1.00  0.00     0.057 A 
ATOM     84  C   UNL A   1      45.332  33.516  28.434  1.00  0.00     0.134 A 
ATOM     85  C   UNL A   1      46.010  32.826  30.624  1.00  0.00     0.134 A 
ATOM     86  F   UNL A   1      44.874  33.254  27.201  1.00  0.00    -0.206 F 
ATOM     87  C   UNL A   1      45.660  34.838  28.744  1.00  0.00     0.040 A 
ATOM     88  C   UNL A   1      46.310  34.147  30.955  1.00  0.00     0.040 A 
ATOM     89  F   UNL A   1      46.200  31.885  31.562  1.00  0.00    -0.206 F 
ATOM     90  C   UNL A   1      46.143  35.156  30.010  1.00  0.00     0.006 A 
ENDBRANCH  66  83
ENDBRANCH  40  41
ENDBRANCH  32  35
ENDBRANCH  30  31
ENDBRANCH  29  30
ENDBRANCH  28  29
ENDBRANCH   1  28
TORSDOF 16
ENDMDL
MODEL 3
REMARK VINA RESULT:     -11.8      0.688      6.090
REMARK SMILES CS(=O)(=O)c1ccc(N2N=C(C(=O)NCCCCCCNC(=O)c3ccc(-c4c5nc(c(-c6c(F)cccc6F)c6ccc([nH]6)c(-c6c(F)cccc6F)c6nc(c(-c7c(F)cccc7F)c7ccc4[nH]7)C=C6)C=C5)cc3)C[C@H]2c2ccco2)cc1
REMARK SMILES IDX 17 1 16 2 15 3 14 4 12 5 13 6 11 8 9 9 10 10 79 11 78 12
REMARK SMILES IDX 8 13 5 14 6 15 86 16 7 17 85 18 2 19 1 20 3 21 4 22 80 23
REMARK SMILES IDX 81 24 84 25 82 26 83 27 18 28 19 29 20 30 21 31 22 32 23 34
REMARK SMILES IDX 24 35 25 36 77 37 26 38 76 39 27 40 28 41 29 42 70 43 30 44
REMARK SMILES IDX 75 45 69 46 71 47 31 48 74 49 68 50 67 51 32 53 58 54 41 55
REMARK SMILES IDX 57 56 42 57 45 58 56 59 72 60 43 61 44 62 55 64 73 65 46 66
REMARK SMILES IDX 33 67 34 68 39 69 35 70 36 71 38 72 40 73 37 74 59 75 60 76
REMARK SMILES IDX 65 77 61 78 62 79 64 80 66 81 63 82 47 83 48 84 53 85 49 86
REMARK SMILES IDX 50 87 52 88 54 89 51 90
REMARK H PARENT 14 7 21 33 71 52 45 63
REMARK Flexibility Score: inf
ROOT
ATOM      1  C   UNL A   1      36.911  21.889  24.503  1.00  0.00     0.002 C 
ENDROOT
BRANCH   1   2
ATOM      2  C   UNL A   1      35.726  22.828  24.739  1.00  0.00     0.021 C 
BRANCH   2   3
ATOM      3  C   UNL A   1      35.191  23.482  23.471  1.00  0.00     0.116 C 
BRANCH   3   4
ATOM      4  N   UNL A   1      33.959  22.854  23.042  1.00  0.00    -0.351 N 
ATOM      5  C   UNL A   1      32.629  23.156  23.188  1.00  0.00     0.267 C 
ATOM      6  O   UNL A   1      31.812  22.333  22.784  1.00  0.00    -0.268 OA
ATOM      7  H   UNL A   1      34.109  22.025  22.532  1.00  0.00     0.163 HD
BRANCH   5   8
ATOM      8  C   UNL A   1      32.117  24.465  23.770  1.00  0.00     0.128 C 
ATOM      9  N   UNL A   1      31.381  26.464  23.783  1.00  0.00    -0.254 N 
ATOM     10  N   UNL A   1      31.544  25.355  23.016  1.00  0.00    -0.171 NA
ATOM     11  C   UNL A   1      31.694  26.262  25.200  1.00  0.00     0.180 C 
ATOM     12  C   UNL A   1      32.250  24.838  25.206  1.00  0.00     0.099 C 
BRANCH   9  13
ATOM     13  C   UNL A   1      30.572  27.506  23.349  1.00  0.00     0.060 A 
ATOM     14  C   UNL A   1      28.989  29.681  22.547  1.00  0.00     0.067 A 
ATOM     15  C   UNL A   1      28.385  28.559  23.120  1.00  0.00     0.022 A 
ATOM     16  C   UNL A   1      30.369  29.716  22.345  1.00  0.00     0.022 A 
ATOM     17  C   UNL A   1      29.179  27.471  23.502  1.00  0.00     0.029 A 
ATOM     18  C   UNL A   1      31.145  28.631  22.741  1.00  0.00     0.029 A 
BRANCH  14  19
ATOM     19  S   UNL A   1      28.022  31.088  22.065  1.00  0.00     0.175 S 
ATOM     20  C   UNL A   1      29.050  32.499  22.362  1.00  0.00     0.163 C 
ATOM     21  O   UNL A   1      26.903  31.180  22.989  1.00  0.00    -0.224 OA
ATOM     22  O   UNL A   1      27.802  30.971  20.639  1.00  0.00    -0.224 OA
ENDBRANCH  14  19
ENDBRANCH   9  13
BRANCH  11  23
ATOM     23  C   UNL A   1      32.615  27.244  25.865  1.00  0.00     0.128 A 
ATOM     24  C   UNL A   1      33.799  27.835  25.464  1.00  0.00     0.048 A 
ATOM     25  O   UNL A   1      32.282  27.703  27.110  1.00  0.00    -0.467 OA
ATOM     26  C   UNL A   1      34.218  28.671  26.525  1.00  0.00     0.042 A 
ATOM     27  C   UNL A   1      33.251  28.569  27.496  1.00  0.00     0.195 A 
ENDBRANCH  11  23
ENDBRANCH   5   8
ENDBRANCH   3   4
ENDBRANCH   2   3
ENDBRANCH   1   2
BRANCH   1  28
ATOM     28  C   UNL A   1      36.706  20.454  24.999  1.00  0.00     0.002 C 
BRANCH  28  29
ATOM     29  C   UNL A   1      37.964  19.580  25.002  1.00  0.00     0.021 C 
BRANCH  29  30
ATOM     30  C   UNL A   1      39.146  20.172  25.761  1.00  0.00     0.116 C 
BRANCH  30  31
ATOM     31  N   UNL A   1      40.247  19.232  25.869  1.00  0.00    -0.352 N 
ATOM     32  C   UNL A   1      41.576  19.468  26.114  1.00  0.00     0.251 C 
ATOM     33  H   UNL A   1      40.005  18.285  25.749  1.00  0.00     0.163 HD
ATOM     34  O   UNL A   1      42.399  18.571  25.957  1.00  0.00    -0.269 OA
BRANCH  32  35
ATOM     35  C   UNL A   1      42.020  20.808  26.551  1.00  0.00     0.039 A 
ATOM     36  C   UNL A   1      42.365  21.750  25.579  1.00  0.00     0.014 A 
ATOM     37  C   UNL A   1      42.112  21.132  27.907  1.00  0.00     0.014 A 
ATOM     38  C   UNL A   1      42.750  23.033  25.967  1.00  0.00     0.010 A 
ATOM     39  C   UNL A   1      42.419  22.434  28.290  1.00  0.00     0.010 A 
ATOM     40  C   UNL A   1      42.747  23.397  27.324  1.00  0.00    -0.014 A 
BRANCH  40  41
ATOM     41  C   UNL A   1      43.070  24.786  27.740  1.00  0.00     0.031 A 
ATOM     42  C   UNL A   1      44.499  25.226  27.893  1.00  0.00     0.074 A 
ATOM     43  C   UNL A   1      42.066  25.637  28.032  1.00  0.00     0.049 A 
ATOM     44  N   UNL A   1      44.968  26.389  28.270  1.00  0.00    -0.248 NA
ATOM     45  C   UNL A   1      45.536  24.223  27.609  1.00  0.00     0.031 C 
ATOM     46  C   UNL A   1      40.640  25.311  27.978  1.00  0.00     0.029 A 
ATOM     47  N   UNL A   1      42.093  26.947  28.438  1.00  0.00    -0.354 N 
ATOM     48  C   UNL A   1      46.351  26.252  28.281  1.00  0.00     0.074 A 
ATOM     49  C   UNL A   1      46.643  24.880  27.927  1.00  0.00     0.031 C 
ATOM     50  C   UNL A   1      39.928  26.399  28.313  1.00  0.00     0.029 A 
ATOM     51  C   UNL A   1      40.846  27.484  28.643  1.00  0.00     0.049 A 
ATOM     52  H   UNL A   1      42.927  27.455  28.569  1.00  0.00     0.167 HD
ATOM     53  C   UNL A   1      47.292  27.191  28.541  1.00  0.00     0.037 A 
ATOM     54  C   UNL A   1      40.480  28.711  29.059  1.00  0.00     0.037 A 
ATOM     55  C   UNL A   1      46.996  28.560  28.879  1.00  0.00     0.049 A 
ATOM     56  C   UNL A   1      41.542  29.735  29.345  1.00  0.00     0.074 A 
ATOM     57  C   UNL A   1      47.879  29.606  29.089  1.00  0.00     0.029 A 
ATOM     58  N   UNL A   1      45.720  29.071  29.066  1.00  0.00    -0.354 N 
ATOM     59  N   UNL A   1      42.847  29.617  29.267  1.00  0.00    -0.248 NA
ATOM     60  C   UNL A   1      41.084  31.064  29.769  1.00  0.00     0.031 C 
ATOM     61  C   UNL A   1      47.139  30.733  29.466  1.00  0.00     0.029 A 
ATOM     62  C   UNL A   1      45.793  30.408  29.426  1.00  0.00     0.049 A 
ATOM     63  H   UNL A   1      44.885  28.559  28.960  1.00  0.00     0.167 HD
ATOM     64  C   UNL A   1      43.362  30.861  29.608  1.00  0.00     0.074 A 
ATOM     65  C   UNL A   1      42.229  31.723  29.874  1.00  0.00     0.031 C 
ATOM     66  C   UNL A   1      44.657  31.254  29.695  1.00  0.00     0.037 A 
BRANCH  53  67
ATOM     67  C   UNL A   1      48.733  26.766  28.481  1.00  0.00     0.057 A 
ATOM     68  C   UNL A   1      49.392  26.216  29.589  1.00  0.00     0.134 A 
ATOM     69  C   UNL A   1      49.461  26.879  27.290  1.00  0.00     0.134 A 
ATOM     70  F   UNL A   1      48.758  26.088  30.764  1.00  0.00    -0.206 F 
ATOM     71  C   UNL A   1      50.731  25.824  29.523  1.00  0.00     0.040 A 
ATOM     72  C   UNL A   1      50.790  26.462  27.203  1.00  0.00     0.040 A 
ATOM     73  F   UNL A   1      48.891  27.390  26.188  1.00  0.00    -0.206 F 
ATOM     74  C   UNL A   1      51.431  25.940  28.324  1.00  0.00     0.006 A 
ENDBRANCH  53  67
BRANCH  54  75
ATOM     75  C   UNL A   1      39.040  29.041  29.219  1.00  0.00     0.057 A 
ATOM     76  C   UNL A   1      38.279  29.512  28.143  1.00  0.00     0.134 A 
ATOM     77  C   UNL A   1      38.391  28.891  30.450  1.00  0.00     0.134 A 
ATOM     78  F   UNL A   1      38.849  29.692  26.942  1.00  0.00    -0.206 F 
ATOM     79  C   UNL A   1      36.931  29.842  28.289  1.00  0.00     0.040 A 
ATOM     80  C   UNL A   1      37.036  29.190  30.605  1.00  0.00     0.040 A 
ATOM     81  F   UNL A   1      39.061  28.434  31.519  1.00  0.00    -0.206 F 
ATOM     82  C   UNL A   1      36.304  29.675  29.522  1.00  0.00     0.006 A 
ENDBRANCH  54  75
BRANCH  66  83
ATOM     83  C   UNL A   1      44.916  32.685  30.071  1.00  0.00     0.057 A 
ATOM     84  C   UNL A   1      44.976  33.705  29.113  1.00  0.00     0.134 A 
ATOM     85  C   UNL A   1      45.080  33.051  31.414  1.00  0.00     0.134 A 
ATOM     86  F   UNL A   1      44.840  33.422  27.808  1.00  0.00    -0.206 F 
ATOM     87  C   UNL A   1      45.224  35.031  29.473  1.00  0.00     0.040 A 
ATOM     88  C   UNL A   1      45.296  34.378  31.788  1.00  0.00     0.040 A 
ATOM     89  F   UNL A   1      45.024  32.127  32.384  1.00  0.00    -0.206 F 
ATOM     90  C   UNL A   1      45.377  35.371  30.815  1.00  0.00     0.006 A 
ENDBRANCH  66  83
ENDBRANCH  40  41
ENDBRANCH  32  35
ENDBRANCH  30  31
ENDBRANCH  29  30
ENDBRANCH  28  29
ENDBRANCH   1  28
TORSDOF 16
ENDMDL
