MODEL 1
REMARK VINA RESULT:      -9.0      0.000      0.000
REMARK SMILES CCCCCCNC(=O)Oc1cccc(-c2ccc([C@@H](C)C(=O)NCCCCCCNC(=O)c3ccc(-c4c5nc(c(-c6c(F)cccc6F)c6ccc([nH]6)c(-c6c(F)cccc6F)c6nc(c(-c7c(F)cccc7F)c7ccc4[nH]7)C=C6)C=C5)cc3)cc2C(F)(F)F)c1
REMARK SMILES IDX 22 1 23 2 24 3 20 5 21 6 19 7 16 8 17 9 89 10 18 11 88 12
REMARK SMILES IDX 15 13 11 14 12 15 94 16 13 17 14 18 10 19 8 20 7 21 9 23
REMARK SMILES IDX 6 24 5 25 4 26 3 27 2 28 1 29 90 30 91 31 92 32 93 33 25 34
REMARK SMILES IDX 26 35 27 36 28 37 29 38 30 39 31 40 32 41 33 43 34 44 35 45
REMARK SMILES IDX 87 46 36 47 86 48 37 49 38 50 39 51 80 52 40 53 85 54 79 55
REMARK SMILES IDX 81 56 41 57 84 58 78 59 77 60 42 62 68 63 51 64 67 65 52 66
REMARK SMILES IDX 55 67 66 68 82 69 53 70 54 71 65 73 83 74 56 75 43 76 44 77
REMARK SMILES IDX 49 78 45 79 46 80 48 81 50 82 47 83 69 84 70 85 75 86 71 87
REMARK SMILES IDX 72 88 74 89 76 90 73 91 57 92 58 93 63 94 59 95 60 96 62 97
REMARK SMILES IDX 64 98 61 99
REMARK H PARENT 24 4 7 22 31 42 81 61 55 72
REMARK Flexibility Score: inf
ROOT
ATOM      1  C   UNL A   1      39.479  27.731  29.127  1.00  0.00     0.227 C 
ATOM      2  O   UNL A   1      38.904  26.701  29.498  1.00  0.00    -0.274 OA
ATOM      3  N   UNL A   1      39.093  28.886  29.732  1.00  0.00    -0.356 N 
ATOM      4  H   UNL A   1      38.452  28.758  30.469  1.00  0.00     0.163 HD
ENDROOT
BRANCH   1   5
ATOM      5  C   UNL A   1      40.577  27.647  28.054  1.00  0.00     0.105 C 
ATOM      6  C   UNL A   1      40.378  28.593  26.872  1.00  0.00     0.023 C 
BRANCH   5   7
ATOM      7  C   UNL A   1      40.986  26.225  27.696  1.00  0.00    -0.035 A 
ATOM      8  C   UNL A   1      41.668  23.485  27.218  1.00  0.00    -0.006 A 
ATOM      9  C   UNL A   1      40.761  24.187  26.400  1.00  0.00     0.009 A 
ATOM     10  C   UNL A   1      42.322  24.213  28.232  1.00  0.00     0.064 A 
ATOM     11  C   UNL A   1      40.465  25.537  26.605  1.00  0.00     0.005 A 
ATOM     12  C   UNL A   1      41.926  25.552  28.490  1.00  0.00     0.018 A 
BRANCH   8  13
ATOM     13  C   UNL A   1      41.852  22.040  26.966  1.00  0.00    -0.014 A 
ATOM     14  C   UNL A   1      42.953  20.204  25.817  1.00  0.00     0.133 A 
ATOM     15  C   UNL A   1      42.217  19.268  26.538  1.00  0.00     0.047 A 
ATOM     16  C   UNL A   1      42.792  21.575  26.031  1.00  0.00     0.056 A 
ATOM     17  C   UNL A   1      41.308  19.709  27.492  1.00  0.00     0.004 A 
ATOM     18  C   UNL A   1      41.119  21.080  27.692  1.00  0.00     0.009 A 
BRANCH  14  19
ATOM     19  O   UNL A   1      43.738  19.710  24.761  1.00  0.00    -0.410 OA
BRANCH  19  20
ATOM     20  C   UNL A   1      45.000  19.206  25.029  1.00  0.00     0.412 C 
ATOM     21  N   UNL A   1      45.998  20.100  24.754  1.00  0.00    -0.321 N 
ATOM     22  H   UNL A   1      46.922  19.788  24.890  1.00  0.00     0.167 HD
ATOM     23  O   UNL A   1      45.252  18.087  25.458  1.00  0.00    -0.224 OA
BRANCH  21  24
ATOM     24  C   UNL A   1      45.835  21.463  24.283  1.00  0.00     0.119 C 
BRANCH  24  25
ATOM     25  C   UNL A   1      46.052  22.487  25.397  1.00  0.00     0.021 C 
BRANCH  25  26
ATOM     26  C   UNL A   1      45.967  23.952  24.954  1.00  0.00     0.002 C 
BRANCH  26  27
ATOM     27  C   UNL A   1      44.678  24.685  25.339  1.00  0.00    -0.000 C 
BRANCH  27  28
ATOM     28  C   UNL A   1      44.762  26.213  25.331  1.00  0.00    -0.003 C 
ATOM     29  C   UNL A   1      44.653  26.829  26.718  1.00  0.00     0.004 C 
ENDBRANCH  27  28
ENDBRANCH  26  27
ENDBRANCH  25  26
ENDBRANCH  24  25
ENDBRANCH  21  24
ENDBRANCH  19  20
ENDBRANCH  14  19
ENDBRANCH   8  13
BRANCH  10  30
ATOM     30  C   UNL A   1      43.459  23.676  29.075  1.00  0.00     0.417 C 
ATOM     31  F   UNL A   1      44.487  23.215  28.300  1.00  0.00    -0.166 F 
ATOM     32  F   UNL A   1      44.009  24.632  29.875  1.00  0.00    -0.166 F 
ATOM     33  F   UNL A   1      43.152  22.632  29.891  1.00  0.00    -0.166 F 
ENDBRANCH  10  30
ENDBRANCH   5   7
ENDBRANCH   1   5
BRANCH   3  34
ATOM     34  C   UNL A   1      39.450  30.269  29.494  1.00  0.00     0.116 C 
BRANCH  34  35
ATOM     35  C   UNL A   1      38.222  31.116  29.149  1.00  0.00     0.021 C 
BRANCH  35  36
ATOM     36  C   UNL A   1      37.533  31.732  30.369  1.00  0.00     0.002 C 
BRANCH  36  37
ATOM     37  C   UNL A   1      38.086  33.095  30.807  1.00  0.00     0.002 C 
BRANCH  37  38
ATOM     38  C   UNL A   1      37.261  33.833  31.866  1.00  0.00     0.021 C 
BRANCH  38  39
ATOM     39  C   UNL A   1      36.226  32.970  32.586  1.00  0.00     0.116 C 
BRANCH  39  40
ATOM     40  N   UNL A   1      36.359  33.062  34.032  1.00  0.00    -0.352 N 
ATOM     41  C   UNL A   1      37.296  32.507  34.865  1.00  0.00     0.251 C 
ATOM     42  H   UNL A   1      35.673  33.607  34.480  1.00  0.00     0.163 HD
ATOM     43  O   UNL A   1      37.113  32.500  36.079  1.00  0.00    -0.269 OA
BRANCH  41  44
ATOM     44  C   UNL A   1      38.526  31.905  34.307  1.00  0.00     0.039 A 
ATOM     45  C   UNL A   1      38.446  30.651  33.693  1.00  0.00     0.014 A 
ATOM     46  C   UNL A   1      39.758  32.552  34.424  1.00  0.00     0.014 A 
ATOM     47  C   UNL A   1      39.594  30.072  33.147  1.00  0.00     0.010 A 
ATOM     48  C   UNL A   1      40.890  32.004  33.823  1.00  0.00     0.010 A 
ATOM     49  C   UNL A   1      40.819  30.756  33.185  1.00  0.00    -0.014 A 
BRANCH  49  50
ATOM     50  C   UNL A   1      42.037  30.185  32.557  1.00  0.00     0.031 A 
ATOM     51  C   UNL A   1      42.642  30.836  31.345  1.00  0.00     0.074 A 
ATOM     52  C   UNL A   1      42.553  29.037  33.034  1.00  0.00     0.049 A 
ATOM     53  N   UNL A   1      43.657  30.445  30.616  1.00  0.00    -0.248 NA
ATOM     54  C   UNL A   1      42.003  32.074  30.871  1.00  0.00     0.031 C 
ATOM     55  C   UNL A   1      42.022  28.278  34.168  1.00  0.00     0.029 A 
ATOM     56  N   UNL A   1      43.629  28.296  32.613  1.00  0.00    -0.354 N 
ATOM     57  C   UNL A   1      43.765  31.374  29.590  1.00  0.00     0.074 A 
ATOM     58  C   UNL A   1      42.686  32.322  29.762  1.00  0.00     0.031 C 
ATOM     59  C   UNL A   1      42.778  27.186  34.359  1.00  0.00     0.029 A 
ATOM     60  C   UNL A   1      43.828  27.150  33.343  1.00  0.00     0.049 A 
ATOM     61  H   UNL A   1      44.204  28.561  31.859  1.00  0.00     0.167 HD
ATOM     62  C   UNL A   1      44.692  31.441  28.603  1.00  0.00     0.037 A 
ATOM     63  C   UNL A   1      44.744  26.174  33.206  1.00  0.00     0.037 A 
ATOM     64  C   UNL A   1      45.782  30.513  28.453  1.00  0.00     0.049 A 
ATOM     65  C   UNL A   1      45.775  26.282  32.117  1.00  0.00     0.074 A 
ATOM     66  C   UNL A   1      46.820  30.545  27.538  1.00  0.00     0.029 A 
ATOM     67  N   UNL A   1      45.972  29.384  29.235  1.00  0.00    -0.354 N 
ATOM     68  N   UNL A   1      45.915  27.211  31.203  1.00  0.00    -0.248 NA
ATOM     69  C   UNL A   1      46.780  25.212  32.048  1.00  0.00     0.031 C 
ATOM     70  C   UNL A   1      47.614  29.410  27.739  1.00  0.00     0.029 A 
ATOM     71  C   UNL A   1      47.095  28.696  28.808  1.00  0.00     0.049 A 
ATOM     72  H   UNL A   1      45.393  29.112  29.984  1.00  0.00     0.167 HD
ATOM     73  C   UNL A   1      47.033  26.849  30.463  1.00  0.00     0.074 A 
ATOM     74  C   UNL A   1      47.543  25.625  31.045  1.00  0.00     0.031 C 
ATOM     75  C   UNL A   1      47.587  27.476  29.396  1.00  0.00     0.037 A 
BRANCH  62  76
ATOM     76  C   UNL A   1      44.561  32.557  27.607  1.00  0.00     0.057 A 
ATOM     77  C   UNL A   1      43.948  32.372  26.362  1.00  0.00     0.134 A 
ATOM     78  C   UNL A   1      45.034  33.840  27.910  1.00  0.00     0.134 A 
ATOM     79  F   UNL A   1      43.484  31.165  26.005  1.00  0.00    -0.206 F 
ATOM     80  C   UNL A   1      43.836  33.414  25.440  1.00  0.00     0.040 A 
ATOM     81  C   UNL A   1      44.903  34.898  27.007  1.00  0.00     0.040 A 
ATOM     82  F   UNL A   1      45.625  34.090  29.087  1.00  0.00    -0.206 F 
ATOM     83  C   UNL A   1      44.309  34.684  25.765  1.00  0.00     0.006 A 
ENDBRANCH  62  76
BRANCH  63  84
ATOM     84  C   UNL A   1      44.736  25.021  34.137  1.00  0.00     0.057 A 
ATOM     85  C   UNL A   1      44.155  23.801  33.772  1.00  0.00     0.134 A 
ATOM     86  C   UNL A   1      45.319  25.104  35.407  1.00  0.00     0.134 A 
ATOM     87  F   UNL A   1      43.566  23.665  32.575  1.00  0.00    -0.206 F 
ATOM     88  C   UNL A   1      44.143  22.708  34.641  1.00  0.00     0.040 A 
ATOM     89  C   UNL A   1      45.335  24.013  36.277  1.00  0.00     0.040 A 
ATOM     90  F   UNL A   1      45.899  26.243  35.812  1.00  0.00    -0.206 F 
ATOM     91  C   UNL A   1      44.740  22.812  35.896  1.00  0.00     0.006 A 
ENDBRANCH  63  84
BRANCH  75  92
ATOM     92  C   UNL A   1      48.819  26.859  28.803  1.00  0.00     0.057 A 
ATOM     93  C   UNL A   1      50.104  27.264  29.184  1.00  0.00     0.134 A 
ATOM     94  C   UNL A   1      48.718  25.819  27.870  1.00  0.00     0.134 A 
ATOM     95  F   UNL A   1      50.269  28.264  30.063  1.00  0.00    -0.206 F 
ATOM     96  C   UNL A   1      51.246  26.671  28.642  1.00  0.00     0.040 A 
ATOM     97  C   UNL A   1      49.852  25.202  27.340  1.00  0.00     0.040 A 
ATOM     98  F   UNL A   1      47.516  25.377  27.469  1.00  0.00    -0.206 F 
ATOM     99  C   UNL A   1      51.120  25.632  27.723  1.00  0.00     0.006 A 
ENDBRANCH  75  92
ENDBRANCH  49  50
ENDBRANCH  41  44
ENDBRANCH  39  40
ENDBRANCH  38  39
ENDBRANCH  37  38
ENDBRANCH  36  37
ENDBRANCH  35  36
ENDBRANCH  34  35
ENDBRANCH   3  34
TORSDOF 23
ENDMDL
MODEL 2
REMARK VINA RESULT:      -8.7      4.099      9.878
REMARK SMILES CCCCCCNC(=O)Oc1cccc(-c2ccc([C@@H](C)C(=O)NCCCCCCNC(=O)c3ccc(-c4c5nc(c(-c6c(F)cccc6F)c6ccc([nH]6)c(-c6c(F)cccc6F)c6nc(c(-c7c(F)cccc7F)c7ccc4[nH]7)C=C6)C=C5)cc3)cc2C(F)(F)F)c1
REMARK SMILES IDX 22 1 23 2 24 3 20 5 21 6 19 7 16 8 17 9 89 10 18 11 88 12
REMARK SMILES IDX 15 13 11 14 12 15 94 16 13 17 14 18 10 19 8 20 7 21 9 23
REMARK SMILES IDX 6 24 5 25 4 26 3 27 2 28 1 29 90 30 91 31 92 32 93 33 25 34
REMARK SMILES IDX 26 35 27 36 28 37 29 38 30 39 31 40 32 41 33 43 34 44 35 45
REMARK SMILES IDX 87 46 36 47 86 48 37 49 38 50 39 51 80 52 40 53 85 54 79 55
REMARK SMILES IDX 81 56 41 57 84 58 78 59 77 60 42 62 68 63 51 64 67 65 52 66
REMARK SMILES IDX 55 67 66 68 82 69 53 70 54 71 65 73 83 74 56 75 43 76 44 77
REMARK SMILES IDX 49 78 45 79 46 80 48 81 50 82 47 83 69 84 70 85 75 86 71 87
REMARK SMILES IDX 72 88 74 89 76 90 73 91 57 92 58 93 63 94 59 95 60 96 62 97
REMARK SMILES IDX 64 98 61 99
REMARK H PARENT 24 4 7 22 31 42 81 61 55 72
REMARK Flexibility Score: inf
ROOT
ATOM      1  C   UNL A   1      40.170  31.763  33.948  1.00  0.00     0.227 C 
ATOM      2  O   UNL A   1      40.271  30.535  33.834  1.00  0.00    -0.274 OA
ATOM      3  N   UNL A   1      41.250  32.493  33.560  1.00  0.00    -0.356 N 
ATOM      4  H   UNL A   1      41.967  31.961  33.146  1.00  0.00     0.163 HD
ENDROOT
BRANCH   1   5
ATOM      5  C   UNL A   1      38.864  32.374  34.481  1.00  0.00     0.105 C 
ATOM      6  C   UNL A   1      38.253  31.623  35.663  1.00  0.00     0.023 C 
BRANCH   5   7
ATOM      7  C   UNL A   1      37.886  32.792  33.393  1.00  0.00    -0.035 A 
ATOM      8  C   UNL A   1      36.087  33.384  31.245  1.00  0.00    -0.006 A 
ATOM      9  C   UNL A   1      35.649  33.259  32.578  1.00  0.00     0.009 A 
ATOM     10  C   UNL A   1      37.475  33.313  31.010  1.00  0.00     0.064 A 
ATOM     11  C   UNL A   1      36.534  33.018  33.632  1.00  0.00     0.005 A 
ATOM     12  C   UNL A   1      38.342  32.961  32.077  1.00  0.00     0.018 A 
BRANCH   8  13
ATOM     13  C   UNL A   1      35.063  33.561  30.193  1.00  0.00    -0.014 A 
ATOM     14  C   UNL A   1      33.721  32.694  28.363  1.00  0.00     0.133 A 
ATOM     15  C   UNL A   1      33.066  33.914  28.222  1.00  0.00     0.047 A 
ATOM     16  C   UNL A   1      34.697  32.503  29.343  1.00  0.00     0.056 A 
ATOM     17  C   UNL A   1      33.389  34.960  29.077  1.00  0.00     0.004 A 
ATOM     18  C   UNL A   1      34.386  34.788  30.042  1.00  0.00     0.009 A 
BRANCH  14  19
ATOM     19  O   UNL A   1      33.468  31.725  27.376  1.00  0.00    -0.410 OA
BRANCH  19  20
ATOM     20  C   UNL A   1      34.221  30.562  27.356  1.00  0.00     0.412 C 
ATOM     21  N   UNL A   1      33.451  29.434  27.273  1.00  0.00    -0.321 N 
ATOM     22  H   UNL A   1      33.927  28.572  27.291  1.00  0.00     0.167 HD
ATOM     23  O   UNL A   1      35.442  30.494  27.412  1.00  0.00    -0.224 OA
BRANCH  21  24
ATOM     24  C   UNL A   1      32.005  29.377  27.161  1.00  0.00     0.119 C 
BRANCH  24  25
ATOM     25  C   UNL A   1      31.447  28.025  27.606  1.00  0.00     0.021 C 
BRANCH  25  26
ATOM     26  C   UNL A   1      31.178  27.031  26.469  1.00  0.00     0.002 C 
BRANCH  26  27
ATOM     27  C   UNL A   1      31.736  27.429  25.098  1.00  0.00    -0.000 C 
BRANCH  27  28
ATOM     28  C   UNL A   1      30.706  27.521  23.970  1.00  0.00    -0.003 C 
ATOM     29  C   UNL A   1      30.238  28.943  23.698  1.00  0.00     0.004 C 
ENDBRANCH  27  28
ENDBRANCH  26  27
ENDBRANCH  25  26
ENDBRANCH  24  25
ENDBRANCH  21  24
ENDBRANCH  19  20
ENDBRANCH  14  19
ENDBRANCH   8  13
BRANCH  10  30
ATOM     30  C   UNL A   1      38.135  33.615  29.681  1.00  0.00     0.417 C 
ATOM     31  F   UNL A   1      37.610  34.736  29.100  1.00  0.00    -0.166 F 
ATOM     32  F   UNL A   1      39.469  33.864  29.808  1.00  0.00    -0.166 F 
ATOM     33  F   UNL A   1      38.021  32.651  28.728  1.00  0.00    -0.166 F 
ENDBRANCH  10  30
ENDBRANCH   5   7
ENDBRANCH   1   5
BRANCH   3  34
ATOM     34  C   UNL A   1      41.539  33.909  33.644  1.00  0.00     0.116 C 
BRANCH  34  35
ATOM     35  C   UNL A   1      41.455  34.583  32.271  1.00  0.00     0.021 C 
BRANCH  35  36
ATOM     36  C   UNL A   1      42.807  35.057  31.731  1.00  0.00     0.002 C 
BRANCH  36  37
ATOM     37  C   UNL A   1      43.769  35.616  32.789  1.00  0.00     0.002 C 
BRANCH  37  38
ATOM     38  C   UNL A   1      44.507  36.900  32.398  1.00  0.00     0.021 C 
BRANCH  38  39
ATOM     39  C   UNL A   1      44.376  37.290  30.926  1.00  0.00     0.116 C 
BRANCH  39  40
ATOM     40  N   UNL A   1      45.672  37.370  30.272  1.00  0.00    -0.352 N 
ATOM     41  C   UNL A   1      46.453  36.374  29.743  1.00  0.00     0.251 C 
ATOM     42  H   UNL A   1      46.046  38.277  30.196  1.00  0.00     0.163 HD
ATOM     43  O   UNL A   1      47.621  36.602  29.442  1.00  0.00    -0.269 OA
BRANCH  41  44
ATOM     44  C   UNL A   1      45.896  35.020  29.541  1.00  0.00     0.039 A 
ATOM     45  C   UNL A   1      45.069  34.786  28.438  1.00  0.00     0.014 A 
ATOM     46  C   UNL A   1      46.152  33.994  30.455  1.00  0.00     0.014 A 
ATOM     47  C   UNL A   1      44.544  33.510  28.222  1.00  0.00     0.010 A 
ATOM     48  C   UNL A   1      45.682  32.707  30.204  1.00  0.00     0.010 A 
ATOM     49  C   UNL A   1      44.869  32.455  29.089  1.00  0.00    -0.014 A 
BRANCH  49  50
ATOM     50  C   UNL A   1      44.371  31.078  28.843  1.00  0.00     0.031 A 
ATOM     51  C   UNL A   1      45.178  30.116  28.016  1.00  0.00     0.074 A 
ATOM     52  C   UNL A   1      43.157  30.720  29.300  1.00  0.00     0.049 A 
ATOM     53  N   UNL A   1      44.876  28.901  27.632  1.00  0.00    -0.248 NA
ATOM     54  C   UNL A   1      46.483  30.593  27.533  1.00  0.00     0.031 C 
ATOM     55  C   UNL A   1      42.253  31.582  30.064  1.00  0.00     0.029 A 
ATOM     56  N   UNL A   1      42.464  29.542  29.173  1.00  0.00    -0.354 N 
ATOM     57  C   UNL A   1      45.941  28.478  26.847  1.00  0.00     0.074 A 
ATOM     58  C   UNL A   1      46.875  29.581  26.772  1.00  0.00     0.031 C 
ATOM     59  C   UNL A   1      41.131  30.903  30.345  1.00  0.00     0.029 A 
ATOM     60  C   UNL A   1      41.221  29.569  29.757  1.00  0.00     0.049 A 
ATOM     61  H   UNL A   1      42.824  28.753  28.707  1.00  0.00     0.167 HD
ATOM     62  C   UNL A   1      46.132  27.272  26.258  1.00  0.00     0.037 A 
ATOM     63  C   UNL A   1      40.258  28.630  29.805  1.00  0.00     0.037 A 
ATOM     64  C   UNL A   1      45.215  26.167  26.362  1.00  0.00     0.049 A 
ATOM     65  C   UNL A   1      40.501  27.294  29.163  1.00  0.00     0.074 A 
ATOM     66  C   UNL A   1      45.358  24.881  25.873  1.00  0.00     0.029 A 
ATOM     67  N   UNL A   1      43.982  26.221  26.993  1.00  0.00    -0.354 N 
ATOM     68  N   UNL A   1      41.550  26.878  28.493  1.00  0.00    -0.248 NA
ATOM     69  C   UNL A   1      39.433  26.292  29.292  1.00  0.00     0.031 C 
ATOM     70  C   UNL A   1      44.191  24.168  26.171  1.00  0.00     0.029 A 
ATOM     71  C   UNL A   1      43.341  24.998  26.885  1.00  0.00     0.049 A 
ATOM     72  H   UNL A   1      43.616  27.012  27.452  1.00  0.00     0.167 HD
ATOM     73  C   UNL A   1      41.277  25.564  28.139  1.00  0.00     0.074 A 
ATOM     74  C   UNL A   1      39.972  25.245  28.680  1.00  0.00     0.031 C 
ATOM     75  C   UNL A   1      42.040  24.699  27.427  1.00  0.00     0.037 A 
BRANCH  62  76
ATOM     76  C   UNL A   1      47.382  27.090  25.447  1.00  0.00     0.057 A 
ATOM     77  C   UNL A   1      47.457  27.478  24.103  1.00  0.00     0.134 A 
ATOM     78  C   UNL A   1      48.533  26.541  26.026  1.00  0.00     0.134 A 
ATOM     79  F   UNL A   1      46.387  28.000  23.485  1.00  0.00    -0.206 F 
ATOM     80  C   UNL A   1      48.622  27.299  23.355  1.00  0.00     0.040 A 
ATOM     81  C   UNL A   1      49.713  26.383  25.296  1.00  0.00     0.040 A 
ATOM     82  F   UNL A   1      48.533  26.155  27.310  1.00  0.00    -0.206 F 
ATOM     83  C   UNL A   1      49.757  26.756  23.954  1.00  0.00     0.006 A 
ENDBRANCH  62  76
BRANCH  63  84
ATOM     84  C   UNL A   1      38.983  28.920  30.504  1.00  0.00     0.057 A 
ATOM     85  C   UNL A   1      38.799  28.570  31.846  1.00  0.00     0.134 A 
ATOM     86  C   UNL A   1      37.925  29.567  29.854  1.00  0.00     0.134 A 
ATOM     87  F   UNL A   1      39.770  27.934  32.518  1.00  0.00    -0.206 F 
ATOM     88  C   UNL A   1      37.603  28.840  32.514  1.00  0.00     0.040 A 
ATOM     89  C   UNL A   1      36.732  29.863  30.515  1.00  0.00     0.040 A 
ATOM     90  F   UNL A   1      38.043  29.936  28.570  1.00  0.00    -0.206 F 
ATOM     91  C   UNL A   1      36.568  29.494  31.850  1.00  0.00     0.006 A 
ENDBRANCH  63  84
BRANCH  75  92
ATOM     92  C   UNL A   1      41.491  23.320  27.211  1.00  0.00     0.057 A 
ATOM     93  C   UNL A   1      42.010  22.206  27.882  1.00  0.00     0.134 A 
ATOM     94  C   UNL A   1      40.404  23.110  26.352  1.00  0.00     0.134 A 
ATOM     95  F   UNL A   1      43.059  22.337  28.708  1.00  0.00    -0.206 F 
ATOM     96  C   UNL A   1      41.481  20.928  27.691  1.00  0.00     0.040 A 
ATOM     97  C   UNL A   1      39.851  21.842  26.172  1.00  0.00     0.040 A 
ATOM     98  F   UNL A   1      39.855  24.137  25.685  1.00  0.00    -0.206 F 
ATOM     99  C   UNL A   1      40.394  20.746  26.839  1.00  0.00     0.006 A 
ENDBRANCH  75  92
ENDBRANCH  49  50
ENDBRANCH  41  44
ENDBRANCH  39  40
ENDBRANCH  38  39
ENDBRANCH  37  38
ENDBRANCH  36  37
ENDBRANCH  35  36
ENDBRANCH  34  35
ENDBRANCH   3  34
TORSDOF 23
ENDMDL
MODEL 3
REMARK VINA RESULT:      -8.5      3.133     10.481
REMARK SMILES CCCCCCNC(=O)Oc1cccc(-c2ccc([C@@H](C)C(=O)NCCCCCCNC(=O)c3ccc(-c4c5nc(c(-c6c(F)cccc6F)c6ccc([nH]6)c(-c6c(F)cccc6F)c6nc(c(-c7c(F)cccc7F)c7ccc4[nH]7)C=C6)C=C5)cc3)cc2C(F)(F)F)c1
REMARK SMILES IDX 22 1 23 2 24 3 20 5 21 6 19 7 16 8 17 9 89 10 18 11 88 12
REMARK SMILES IDX 15 13 11 14 12 15 94 16 13 17 14 18 10 19 8 20 7 21 9 23
REMARK SMILES IDX 6 24 5 25 4 26 3 27 2 28 1 29 90 30 91 31 92 32 93 33 25 34
REMARK SMILES IDX 26 35 27 36 28 37 29 38 30 39 31 40 32 41 33 43 34 44 35 45
REMARK SMILES IDX 87 46 36 47 86 48 37 49 38 50 39 51 80 52 40 53 85 54 79 55
REMARK SMILES IDX 81 56 41 57 84 58 78 59 77 60 42 62 68 63 51 64 67 65 52 66
REMARK SMILES IDX 55 67 66 68 82 69 53 70 54 71 65 73 83 74 56 75 43 76 44 77
REMARK SMILES IDX 49 78 45 79 46 80 48 81 50 82 47 83 69 84 70 85 75 86 71 87
REMARK SMILES IDX 72 88 74 89 76 90 73 91 57 92 58 93 63 94 59 95 60 96 62 97
REMARK SMILES IDX 64 98 61 99
REMARK H PARENT 24 4 7 22 31 42 81 61 55 72
REMARK Flexibility Score: inf
ROOT
ATOM      1  C   UNL A   1      45.374  20.560  25.177  1.00  0.00     0.227 C 
ATOM      2  O   UNL A   1      46.608  20.645  25.209  1.00  0.00    -0.274 OA
ATOM      3  N   UNL A   1      44.850  19.329  25.423  1.00  0.00    -0.356 N 
ATOM      4  H   UNL A   1      45.517  18.654  25.687  1.00  0.00     0.163 HD
ENDROOT
BRANCH   1   5
ATOM      5  C   UNL A   1      44.531  21.814  24.894  1.00  0.00     0.105 C 
ATOM      6  C   UNL A   1      44.501  22.235  23.427  1.00  0.00     0.023 C 
BRANCH   5   7
ATOM      7  C   UNL A   1      44.739  22.939  25.897  1.00  0.00    -0.035 A 
ATOM      8  C   UNL A   1      45.225  24.908  27.919  1.00  0.00    -0.006 A 
ATOM      9  C   UNL A   1      45.825  24.975  26.647  1.00  0.00     0.009 A 
ATOM     10  C   UNL A   1      44.280  23.885  28.136  1.00  0.00     0.064 A 
ATOM     11  C   UNL A   1      45.550  24.041  25.644  1.00  0.00     0.005 A 
ATOM     12  C   UNL A   1      44.098  22.887  27.143  1.00  0.00     0.018 A 
BRANCH   8  13
ATOM     13  C   UNL A   1      45.642  25.898  28.934  1.00  0.00    -0.014 A 
ATOM     14  C   UNL A   1      45.911  28.194  29.682  1.00  0.00     0.133 A 
ATOM     15  C   UNL A   1      46.403  27.770  30.913  1.00  0.00     0.047 A 
ATOM     16  C   UNL A   1      45.517  27.279  28.704  1.00  0.00     0.056 A 
ATOM     17  C   UNL A   1      46.501  26.409  31.172  1.00  0.00     0.004 A 
ATOM     18  C   UNL A   1      46.137  25.485  30.188  1.00  0.00     0.009 A 
BRANCH  14  19
ATOM     19  O   UNL A   1      45.982  29.573  29.416  1.00  0.00    -0.410 OA
BRANCH  19  20
ATOM     20  C   UNL A   1      44.859  30.362  29.609  1.00  0.00     0.412 C 
ATOM     21  N   UNL A   1      44.344  30.846  28.438  1.00  0.00    -0.321 N 
ATOM     22  H   UNL A   1      43.565  31.444  28.511  1.00  0.00     0.167 HD
ATOM     23  O   UNL A   1      44.348  30.634  30.688  1.00  0.00    -0.224 OA
BRANCH  21  24
ATOM     24  C   UNL A   1      44.827  30.569  27.098  1.00  0.00     0.119 C 
BRANCH  24  25
ATOM     25  C   UNL A   1      45.628  31.738  26.522  1.00  0.00     0.021 C 
BRANCH  25  26
ATOM     26  C   UNL A   1      45.625  33.008  27.383  1.00  0.00     0.002 C 
BRANCH  26  27
ATOM     27  C   UNL A   1      45.148  34.282  26.678  1.00  0.00    -0.000 C 
BRANCH  27  28
ATOM     28  C   UNL A   1      43.778  34.187  26.002  1.00  0.00    -0.003 C 
ATOM     29  C   UNL A   1      42.956  35.460  26.127  1.00  0.00     0.004 C 
ENDBRANCH  27  28
ENDBRANCH  26  27
ENDBRANCH  25  26
ENDBRANCH  24  25
ENDBRANCH  21  24
ENDBRANCH  19  20
ENDBRANCH  14  19
ENDBRANCH   8  13
BRANCH  10  30
ATOM     30  C   UNL A   1      43.402  23.776  29.365  1.00  0.00     0.417 C 
ATOM     31  F   UNL A   1      42.946  25.000  29.769  1.00  0.00    -0.166 F 
ATOM     32  F   UNL A   1      42.284  23.029  29.141  1.00  0.00    -0.166 F 
ATOM     33  F   UNL A   1      43.992  23.249  30.472  1.00  0.00    -0.166 F 
ENDBRANCH  10  30
ENDBRANCH   5   7
ENDBRANCH   1   5
BRANCH   3  34
ATOM     34  C   UNL A   1      43.493  18.827  25.367  1.00  0.00     0.116 C 
BRANCH  34  35
ATOM     35  C   UNL A   1      42.667  19.304  26.564  1.00  0.00     0.021 C 
BRANCH  35  36
ATOM     36  C   UNL A   1      41.286  19.846  26.186  1.00  0.00     0.002 C 
BRANCH  36  37
ATOM     37  C   UNL A   1      40.717  20.900  27.147  1.00  0.00     0.002 C 
BRANCH  37  38
ATOM     38  C   UNL A   1      39.717  21.883  26.531  1.00  0.00     0.021 C 
BRANCH  38  39
ATOM     39  C   UNL A   1      40.020  23.356  26.799  1.00  0.00     0.116 C 
BRANCH  39  40
ATOM     40  N   UNL A   1      41.080  23.854  25.937  1.00  0.00    -0.352 N 
ATOM     41  C   UNL A   1      41.660  25.096  25.884  1.00  0.00     0.251 C 
ATOM     42  H   UNL A   1      41.436  23.200  25.293  1.00  0.00     0.163 HD
ATOM     43  O   UNL A   1      42.376  25.402  24.935  1.00  0.00    -0.269 OA
BRANCH  41  44
ATOM     44  C   UNL A   1      41.420  26.076  26.965  1.00  0.00     0.039 A 
ATOM     45  C   UNL A   1      40.390  25.835  27.879  1.00  0.00     0.014 A 
ATOM     46  C   UNL A   1      42.177  27.247  27.054  1.00  0.00     0.014 A 
ATOM     47  C   UNL A   1      40.156  26.741  28.916  1.00  0.00     0.010 A 
ATOM     48  C   UNL A   1      41.986  28.118  28.124  1.00  0.00     0.010 A 
ATOM     49  C   UNL A   1      40.970  27.876  29.061  1.00  0.00    -0.014 A 
BRANCH  49  50
ATOM     50  C   UNL A   1      40.776  28.820  30.190  1.00  0.00     0.031 A 
ATOM     51  C   UNL A   1      41.609  28.694  31.436  1.00  0.00     0.074 A 
ATOM     52  C   UNL A   1      39.798  29.743  30.124  1.00  0.00     0.049 A 
ATOM     53  N   UNL A   1      41.536  29.375  32.551  1.00  0.00    -0.248 NA
ATOM     54  C   UNL A   1      42.639  27.644  31.438  1.00  0.00     0.031 C 
ATOM     55  C   UNL A   1      38.885  29.927  28.995  1.00  0.00     0.029 A 
ATOM     56  N   UNL A   1      39.396  30.687  31.034  1.00  0.00    -0.354 N 
ATOM     57  C   UNL A   1      42.493  28.824  33.393  1.00  0.00     0.074 A 
ATOM     58  C   UNL A   1      43.102  27.724  32.677  1.00  0.00     0.031 C 
ATOM     59  C   UNL A   1      38.037  30.928  29.275  1.00  0.00     0.029 A 
ATOM     60  C   UNL A   1      38.324  31.436  30.614  1.00  0.00     0.049 A 
ATOM     61  H   UNL A   1      39.834  30.816  31.907  1.00  0.00     0.167 HD
ATOM     62  C   UNL A   1      42.846  29.211  34.643  1.00  0.00     0.037 A 
ATOM     63  C   UNL A   1      37.642  32.414  31.238  1.00  0.00     0.037 A 
ATOM     64  C   UNL A   1      42.258  30.326  35.340  1.00  0.00     0.049 A 
ATOM     65  C   UNL A   1      38.065  32.841  32.615  1.00  0.00     0.074 A 
ATOM     66  C   UNL A   1      42.604  30.850  36.573  1.00  0.00     0.029 A 
ATOM     67  N   UNL A   1      41.199  31.084  34.865  1.00  0.00    -0.354 N 
ATOM     68  N   UNL A   1      39.028  32.366  33.368  1.00  0.00    -0.248 NA
ATOM     69  C   UNL A   1      37.315  33.948  33.226  1.00  0.00     0.031 C 
ATOM     70  C   UNL A   1      41.724  31.899  36.864  1.00  0.00     0.029 A 
ATOM     71  C   UNL A   1      40.860  32.056  35.792  1.00  0.00     0.049 A 
ATOM     72  H   UNL A   1      40.753  30.952  33.997  1.00  0.00     0.167 HD
ATOM     73  C   UNL A   1      39.012  33.125  34.529  1.00  0.00     0.074 A 
ATOM     74  C   UNL A   1      37.955  34.104  34.376  1.00  0.00     0.031 C 
ATOM     75  C   UNL A   1      39.803  33.021  35.626  1.00  0.00     0.037 A 
BRANCH  62  76
ATOM     76  C   UNL A   1      43.916  28.420  35.336  1.00  0.00     0.057 A 
ATOM     77  C   UNL A   1      43.612  27.370  36.213  1.00  0.00     0.134 A 
ATOM     78  C   UNL A   1      45.270  28.695  35.104  1.00  0.00     0.134 A 
ATOM     79  F   UNL A   1      42.336  27.062  36.488  1.00  0.00    -0.206 F 
ATOM     80  C   UNL A   1      44.615  26.644  36.858  1.00  0.00     0.040 A 
ATOM     81  C   UNL A   1      46.282  27.957  35.721  1.00  0.00     0.040 A 
ATOM     82  F   UNL A   1      45.632  29.682  34.270  1.00  0.00    -0.206 F 
ATOM     83  C   UNL A   1      45.954  26.932  36.607  1.00  0.00     0.006 A 
ENDBRANCH  62  76
BRANCH  63  84
ATOM     84  C   UNL A   1      36.500  33.066  30.554  1.00  0.00     0.057 A 
ATOM     85  C   UNL A   1      35.181  32.806  30.943  1.00  0.00     0.134 A 
ATOM     86  C   UNL A   1      36.698  33.974  29.507  1.00  0.00     0.134 A 
ATOM     87  F   UNL A   1      34.927  31.933  31.928  1.00  0.00    -0.206 F 
ATOM     88  C   UNL A   1      34.098  33.416  30.306  1.00  0.00     0.040 A 
ATOM     89  C   UNL A   1      35.626  34.608  28.877  1.00  0.00     0.040 A 
ATOM     90  F   UNL A   1      37.938  34.272  29.095  1.00  0.00    -0.206 F 
ATOM     91  C   UNL A   1      34.320  34.325  29.274  1.00  0.00     0.006 A 
ENDBRANCH  63  84
BRANCH  75  92
ATOM     92  C   UNL A   1      39.567  34.002  36.736  1.00  0.00     0.057 A 
ATOM     93  C   UNL A   1      38.781  33.681  37.849  1.00  0.00     0.134 A 
ATOM     94  C   UNL A   1      40.167  35.268  36.709  1.00  0.00     0.134 A 
ATOM     95  F   UNL A   1      38.168  32.490  37.928  1.00  0.00    -0.206 F 
ATOM     96  C   UNL A   1      38.581  34.593  38.887  1.00  0.00     0.040 A 
ATOM     97  C   UNL A   1      39.995  36.178  37.752  1.00  0.00     0.040 A 
ATOM     98  F   UNL A   1      40.939  35.634  35.675  1.00  0.00    -0.206 F 
ATOM     99  C   UNL A   1      39.196  35.842  38.843  1.00  0.00     0.006 A 
ENDBRANCH  75  92
ENDBRANCH  49  50
ENDBRANCH  41  44
ENDBRANCH  39  40
ENDBRANCH  38  39
ENDBRANCH  37  38
ENDBRANCH  36  37
ENDBRANCH  35  36
ENDBRANCH  34  35
ENDBRANCH   3  34
TORSDOF 23
ENDMDL
