MODEL 1
REMARK VINA RESULT:     -11.7      0.000      0.000
REMARK SMILES COc1ccccc1C(=O)N/C(=C/c1ccc2c(c1)OCO2)C(=O)Nc1ccc(C(=O)NCCCCCCNC(=O)c2ccc(-c3c4nc(c(-c5c(F)cccc5F)c5ccc([nH]5)c(-c5c(F)cccc5F)c5nc(c(-c6c(F)cccc6F)c6ccc3[nH]6)C=C5)C=C4)cc2)cc1
REMARK SMILES IDX 34 1 33 2 32 3 30 4 31 5 29 7 26 8 27 9 97 10 28 11 96 12
REMARK SMILES IDX 25 13 23 14 24 15 12 17 13 18 11 19 9 20 10 21 8 23 3 24
REMARK SMILES IDX 4 25 5 26 7 27 6 28 2 29 1 30 14 31 15 32 19 33 16 34 18 35
REMARK SMILES IDX 17 36 20 37 22 38 21 39 35 40 36 41 37 42 38 43 39 44 40 45
REMARK SMILES IDX 41 47 42 48 43 49 95 50 44 51 94 52 45 53 46 54 47 55 88 56
REMARK SMILES IDX 48 57 93 58 87 59 89 60 49 61 92 62 86 63 85 64 50 66 76 67
REMARK SMILES IDX 59 68 75 69 60 70 63 71 74 72 90 73 61 74 62 75 73 77 91 78
REMARK SMILES IDX 64 79 51 80 52 81 57 82 53 83 54 84 56 85 58 86 55 87 77 88
REMARK SMILES IDX 78 89 83 90 79 91 80 92 82 93 84 94 81 95 65 96 66 97 71 98
REMARK SMILES IDX 67 99 68 100 70 101 72 102 69 103
REMARK H PARENT 32 6 25 16 11 22 39 46 89 65 63 76
REMARK Flexibility Score: inf
ROOT
ATOM      1  C   UNL A   1      38.009  29.200  30.500  1.00  0.00     0.021 C 
ENDROOT
BRANCH   1   2
ATOM      2  C   UNL A   1      36.657  29.390  29.821  1.00  0.00     0.116 C 
BRANCH   2   3
ATOM      3  N   UNL A   1      36.632  30.658  29.130  1.00  0.00    -0.352 N 
ATOM      4  C   UNL A   1      35.858  31.057  28.081  1.00  0.00     0.251 C 
ATOM      5  O   UNL A   1      35.965  32.190  27.625  1.00  0.00    -0.269 OA
ATOM      6  H   UNL A   1      37.264  31.333  29.466  1.00  0.00     0.163 HD
BRANCH   4   7
ATOM      7  C   UNL A   1      34.820  30.171  27.551  1.00  0.00     0.039 A 
ATOM      8  C   UNL A   1      32.057  27.948  26.408  1.00  0.00     0.041 A 
ATOM      9  C   UNL A   1      31.662  29.589  26.929  1.00  0.00     0.027 A 
ATOM     10  C   UNL A   1      33.750  27.464  26.372  1.00  0.00     0.027 A 
ATOM     11  C   UNL A   1      33.137  30.794  27.613  1.00  0.00     0.016 A 
ATOM     12  C   UNL A   1      35.079  28.536  26.915  1.00  0.00     0.016 A 
BRANCH   8  13
ATOM     13  N   UNL A   1      31.044  27.038  26.772  1.00  0.00    -0.321 N 
ATOM     14  C   UNL A   1      31.180  25.672  26.506  1.00  0.00     0.272 C 
ATOM     15  O   UNL A   1      31.192  24.874  27.446  1.00  0.00    -0.267 OA
ATOM     16  H   UNL A   1      30.231  27.367  27.218  1.00  0.00     0.170 HD
BRANCH  14  17
ATOM     17  C   UNL A   1      31.145  25.129  25.048  1.00  0.00     0.108 C 
ATOM     18  C   UNL A   1      31.701  23.966  24.593  1.00  0.00     0.040 C 
BRANCH  17  19
ATOM     19  N   UNL A   1      30.346  25.799  24.118  1.00  0.00    -0.317 N 
ATOM     20  C   UNL A   1      30.533  26.838  23.224  1.00  0.00     0.259 C 
ATOM     21  O   UNL A   1      29.538  27.300  22.658  1.00  0.00    -0.269 OA
ATOM     22  H   UNL A   1      29.427  25.446  24.092  1.00  0.00     0.170 HD
BRANCH  20  23
ATOM     23  C   UNL A   1      31.844  27.439  22.910  1.00  0.00     0.082 A 
ATOM     24  C   UNL A   1      32.811  26.769  22.145  1.00  0.00     0.131 A 
ATOM     25  C   UNL A   1      34.090  27.326  22.061  1.00  0.00     0.047 A 
ATOM     26  C   UNL A   1      34.356  28.586  22.611  1.00  0.00     0.004 A 
ATOM     27  C   UNL A   1      32.085  28.738  23.385  1.00  0.00     0.018 A 
ATOM     28  C   UNL A   1      33.343  29.314  23.229  1.00  0.00     0.001 A 
BRANCH  24  29
ATOM     29  O   UNL A   1      32.418  25.583  21.596  1.00  0.00    -0.496 OA
ATOM     30  C   UNL A   1      32.589  25.320  20.215  1.00  0.00     0.278 C 
ENDBRANCH  24  29
ENDBRANCH  20  23
ENDBRANCH  17  19
BRANCH  18  31
ATOM     31  C   UNL A   1      32.579  23.044  25.354  1.00  0.00    -0.019 A 
ATOM     32  C   UNL A   1      32.409  21.372  24.724  1.00  0.00     0.012 A 
ATOM     33  C   UNL A   1      34.188  23.580  25.886  1.00  0.00     0.058 A 
ATOM     34  C   UNL A   1      34.083  20.248  24.509  1.00  0.00     0.051 A 
ATOM     35  C   UNL A   1      35.623  22.546  25.729  1.00  0.00     0.166 A 
ATOM     36  C   UNL A   1      35.621  20.953  25.071  1.00  0.00     0.165 A 
ATOM     37  O   UNL A   1      36.914  23.000  25.598  1.00  0.00    -0.454 OA
ATOM     38  O   UNL A   1      36.878  20.659  24.652  1.00  0.00    -0.454 OA
ATOM     39  C   UNL A   1      37.485  21.993  24.690  1.00  0.00     0.468 C 
ENDBRANCH  18  31
ENDBRANCH  14  17
ENDBRANCH   8  13
ENDBRANCH   4   7
ENDBRANCH   2   3
ENDBRANCH   1   2
BRANCH   1  40
ATOM     40  C   UNL A   1      38.564  27.777  30.356  1.00  0.00     0.002 C 
BRANCH  40  41
ATOM     41  C   UNL A   1      39.199  27.478  28.995  1.00  0.00     0.002 C 
BRANCH  41  42
ATOM     42  C   UNL A   1      39.381  25.988  28.698  1.00  0.00     0.021 C 
BRANCH  42  43
ATOM     43  C   UNL A   1      39.750  25.691  27.251  1.00  0.00     0.116 C 
BRANCH  43  44
ATOM     44  N   UNL A   1      40.283  24.348  27.108  1.00  0.00    -0.352 N 
ATOM     45  C   UNL A   1      41.527  23.965  26.683  1.00  0.00     0.251 C 
ATOM     46  H   UNL A   1      39.670  23.616  27.349  1.00  0.00     0.163 HD
ATOM     47  O   UNL A   1      41.744  22.805  26.348  1.00  0.00    -0.269 OA
BRANCH  45  48
ATOM     48  C   UNL A   1      42.607  24.968  26.636  1.00  0.00     0.039 A 
ATOM     49  C   UNL A   1      43.275  25.302  27.814  1.00  0.00     0.014 A 
ATOM     50  C   UNL A   1      42.940  25.588  25.426  1.00  0.00     0.014 A 
ATOM     51  C   UNL A   1      44.296  26.251  27.776  1.00  0.00     0.010 A 
ATOM     52  C   UNL A   1      44.010  26.471  25.376  1.00  0.00     0.010 A 
ATOM     53  C   UNL A   1      44.678  26.832  26.555  1.00  0.00    -0.014 A 
BRANCH  53  54
ATOM     54  C   UNL A   1      45.742  27.861  26.503  1.00  0.00     0.031 A 
ATOM     55  C   UNL A   1      45.382  29.314  26.652  1.00  0.00     0.074 A 
ATOM     56  C   UNL A   1      47.017  27.491  26.286  1.00  0.00     0.049 A 
ATOM     57  N   UNL A   1      46.159  30.366  26.611  1.00  0.00    -0.248 NA
ATOM     58  C   UNL A   1      43.956  29.630  26.842  1.00  0.00     0.031 C 
ATOM     59  C   UNL A   1      47.474  26.116  26.076  1.00  0.00     0.029 A 
ATOM     60  N   UNL A   1      48.161  28.240  26.205  1.00  0.00    -0.354 N 
ATOM     61  C   UNL A   1      45.317  31.462  26.758  1.00  0.00     0.074 A 
ATOM     62  C   UNL A   1      43.965  30.954  26.822  1.00  0.00     0.031 C 
ATOM     63  C   UNL A   1      48.808  26.117  25.921  1.00  0.00     0.029 A 
ATOM     64  C   UNL A   1      49.293  27.493  25.989  1.00  0.00     0.049 A 
ATOM     65  H   UNL A   1      48.172  29.220  26.294  1.00  0.00     0.167 HD
ATOM     66  C   UNL A   1      45.644  32.772  26.861  1.00  0.00     0.037 A 
ATOM     67  C   UNL A   1      50.577  27.877  25.864  1.00  0.00     0.037 A 
ATOM     68  C   UNL A   1      46.995  33.266  26.824  1.00  0.00     0.049 A 
ATOM     69  C   UNL A   1      50.915  29.337  25.989  1.00  0.00     0.074 A 
ATOM     70  C   UNL A   1      47.441  34.566  26.974  1.00  0.00     0.029 A 
ATOM     71  N   UNL A   1      48.118  32.476  26.624  1.00  0.00    -0.354 N 
ATOM     72  N   UNL A   1      50.117  30.356  26.197  1.00  0.00    -0.248 NA
ATOM     73  C   UNL A   1      52.334  29.697  25.873  1.00  0.00     0.031 C 
ATOM     74  C   UNL A   1      48.832  34.570  26.819  1.00  0.00     0.029 A 
ATOM     75  C   UNL A   1      49.256  33.265  26.627  1.00  0.00     0.049 A 
ATOM     76  H   UNL A   1      48.106  31.500  26.497  1.00  0.00     0.167 HD
ATOM     77  C   UNL A   1      50.939  31.475  26.270  1.00  0.00     0.074 A 
ATOM     78  C   UNL A   1      52.297  31.004  26.098  1.00  0.00     0.031 C 
ATOM     79  C   UNL A   1      50.601  32.773  26.461  1.00  0.00     0.037 A 
BRANCH  66  80
ATOM     80  C   UNL A   1      44.521  33.755  27.028  1.00  0.00     0.057 A 
ATOM     81  C   UNL A   1      44.036  34.117  28.292  1.00  0.00     0.134 A 
ATOM     82  C   UNL A   1      43.930  34.363  25.913  1.00  0.00     0.134 A 
ATOM     83  F   UNL A   1      44.547  33.561  29.401  1.00  0.00    -0.206 F 
ATOM     84  C   UNL A   1      42.987  35.026  28.441  1.00  0.00     0.040 A 
ATOM     85  C   UNL A   1      42.900  35.296  26.050  1.00  0.00     0.040 A 
ATOM     86  F   UNL A   1      44.347  34.066  24.673  1.00  0.00    -0.206 F 
ATOM     87  C   UNL A   1      42.421  35.623  27.317  1.00  0.00     0.006 A 
ENDBRANCH  66  80
BRANCH  67  88
ATOM     88  C   UNL A   1      51.638  26.864  25.642  1.00  0.00     0.057 A 
ATOM     89  C   UNL A   1      52.105  26.577  24.354  1.00  0.00     0.134 A 
ATOM     90  C   UNL A   1      52.210  26.157  26.707  1.00  0.00     0.134 A 
ATOM     91  F   UNL A   1      51.586  27.211  23.292  1.00  0.00    -0.206 F 
ATOM     92  C   UNL A   1      53.082  25.606  24.129  1.00  0.00     0.040 A 
ATOM     93  C   UNL A   1      53.207  25.203  26.499  1.00  0.00     0.040 A 
ATOM     94  F   UNL A   1      51.816  26.394  27.967  1.00  0.00    -0.206 F 
ATOM     95  C   UNL A   1      53.639  24.919  25.205  1.00  0.00     0.006 A 
ENDBRANCH  67  88
BRANCH  79  96
ATOM     96  C   UNL A   1      51.722  33.767  26.537  1.00  0.00     0.057 A 
ATOM     97  C   UNL A   1      52.196  34.438  25.403  1.00  0.00     0.134 A 
ATOM     98  C   UNL A   1      52.313  34.079  27.768  1.00  0.00     0.134 A 
ATOM     99  F   UNL A   1      51.680  34.177  24.192  1.00  0.00    -0.206 F 
ATOM    100  C   UNL A   1      53.240  35.362  25.486  1.00  0.00     0.040 A 
ATOM    101  C   UNL A   1      53.337  35.022  27.868  1.00  0.00     0.040 A 
ATOM    102  F   UNL A   1      51.899  33.480  28.895  1.00  0.00    -0.206 F 
ATOM    103  C   UNL A   1      53.807  35.661  26.723  1.00  0.00     0.006 A 
ENDBRANCH  79  96
ENDBRANCH  53  54
ENDBRANCH  45  48
ENDBRANCH  43  44
ENDBRANCH  42  43
ENDBRANCH  41  42
ENDBRANCH  40  41
ENDBRANCH   1  40
TORSDOF 19
ENDMDL
MODEL 2
REMARK VINA RESULT:     -11.7      1.382      2.258
REMARK SMILES COc1ccccc1C(=O)N/C(=C/c1ccc2c(c1)OCO2)C(=O)Nc1ccc(C(=O)NCCCCCCNC(=O)c2ccc(-c3c4nc(c(-c5c(F)cccc5F)c5ccc([nH]5)c(-c5c(F)cccc5F)c5nc(c(-c6c(F)cccc6F)c6ccc3[nH]6)C=C5)C=C4)cc2)cc1
REMARK SMILES IDX 34 1 33 2 32 3 30 4 31 5 29 7 26 8 27 9 97 10 28 11 96 12
REMARK SMILES IDX 25 13 23 14 24 15 12 17 13 18 11 19 9 20 10 21 8 23 3 24
REMARK SMILES IDX 4 25 5 26 7 27 6 28 2 29 1 30 14 31 15 32 19 33 16 34 18 35
REMARK SMILES IDX 17 36 20 37 22 38 21 39 35 40 36 41 37 42 38 43 39 44 40 45
REMARK SMILES IDX 41 47 42 48 43 49 95 50 44 51 94 52 45 53 46 54 47 55 88 56
REMARK SMILES IDX 48 57 93 58 87 59 89 60 49 61 92 62 86 63 85 64 50 66 76 67
REMARK SMILES IDX 59 68 75 69 60 70 63 71 74 72 90 73 61 74 62 75 73 77 91 78
REMARK SMILES IDX 64 79 51 80 52 81 57 82 53 83 54 84 56 85 58 86 55 87 77 88
REMARK SMILES IDX 78 89 83 90 79 91 80 92 82 93 84 94 81 95 65 96 66 97 71 98
REMARK SMILES IDX 67 99 68 100 70 101 72 102 69 103
REMARK H PARENT 32 6 25 16 11 22 39 46 89 65 63 76
REMARK Flexibility Score: inf
ROOT
ATOM      1  C   UNL A   1      38.920  27.761  30.531  1.00  0.00     0.021 C 
ENDROOT
BRANCH   1   2
ATOM      2  C   UNL A   1      37.725  28.697  30.683  1.00  0.00     0.116 C 
BRANCH   2   3
ATOM      3  N   UNL A   1      38.162  30.068  30.557  1.00  0.00    -0.352 N 
ATOM      4  C   UNL A   1      37.703  31.049  29.728  1.00  0.00     0.251 C 
ATOM      5  O   UNL A   1      38.191  32.174  29.767  1.00  0.00    -0.269 OA
ATOM      6  H   UNL A   1      38.896  30.333  31.156  1.00  0.00     0.163 HD
BRANCH   4   7
ATOM      7  C   UNL A   1      36.557  30.799  28.852  1.00  0.00     0.039 A 
ATOM      8  C   UNL A   1      33.496  30.198  26.815  1.00  0.00     0.041 A 
ATOM      9  C   UNL A   1      33.622  31.705  27.728  1.00  0.00     0.027 A 
ATOM     10  C   UNL A   1      34.861  29.085  26.841  1.00  0.00     0.027 A 
ATOM     11  C   UNL A   1      35.247  32.027  28.891  1.00  0.00     0.016 A 
ATOM     12  C   UNL A   1      36.336  29.378  27.816  1.00  0.00     0.016 A 
BRANCH   8  13
ATOM     13  N   UNL A   1      32.168  29.727  26.787  1.00  0.00    -0.321 N 
ATOM     14  C   UNL A   1      31.893  28.379  26.533  1.00  0.00     0.272 C 
ATOM     15  O   UNL A   1      31.317  27.710  27.395  1.00  0.00    -0.267 OA
ATOM     16  H   UNL A   1      31.425  30.352  26.947  1.00  0.00     0.170 HD
BRANCH  14  17
ATOM     17  C   UNL A   1      32.144  27.757  25.129  1.00  0.00     0.108 C 
ATOM     18  C   UNL A   1      32.321  26.434  24.839  1.00  0.00     0.040 C 
BRANCH  17  19
ATOM     19  N   UNL A   1      32.036  28.592  24.013  1.00  0.00    -0.317 N 
ATOM     20  C   UNL A   1      31.043  28.891  23.098  1.00  0.00     0.259 C 
ATOM     21  O   UNL A   1      31.350  29.567  22.112  1.00  0.00    -0.269 OA
ATOM     22  H   UNL A   1      32.868  29.086  23.835  1.00  0.00     0.170 HD
BRANCH  20  23
ATOM     23  C   UNL A   1      29.640  28.446  23.218  1.00  0.00     0.082 A 
ATOM     24  C   UNL A   1      28.559  29.293  22.932  1.00  0.00     0.131 A 
ATOM     25  C   UNL A   1      27.272  28.854  23.257  1.00  0.00     0.047 A 
ATOM     26  C   UNL A   1      27.060  27.553  23.727  1.00  0.00     0.004 A 
ATOM     27  C   UNL A   1      29.421  27.114  23.605  1.00  0.00     0.018 A 
ATOM     28  C   UNL A   1      28.126  26.667  23.854  1.00  0.00     0.001 A 
BRANCH  24  29
ATOM     29  O   UNL A   1      28.880  30.511  22.407  1.00  0.00    -0.496 OA
ATOM     30  C   UNL A   1      28.252  30.996  21.235  1.00  0.00     0.278 C 
ENDBRANCH  24  29
ENDBRANCH  20  23
ENDBRANCH  17  19
BRANCH  18  31
ATOM     31  C   UNL A   1      32.456  25.322  25.811  1.00  0.00    -0.019 A 
ATOM     32  C   UNL A   1      30.983  24.296  25.782  1.00  0.00     0.012 A 
ATOM     33  C   UNL A   1      34.028  24.525  26.043  1.00  0.00     0.058 A 
ATOM     34  C   UNL A   1      31.209  22.283  25.857  1.00  0.00     0.051 A 
ATOM     35  C   UNL A   1      34.180  22.759  26.156  1.00  0.00     0.166 A 
ATOM     36  C   UNL A   1      32.864  21.651  26.065  1.00  0.00     0.165 A 
ATOM     37  O   UNL A   1      35.297  22.038  25.809  1.00  0.00    -0.454 OA
ATOM     38  O   UNL A   1      33.348  20.438  25.696  1.00  0.00    -0.454 OA
ATOM     39  C   UNL A   1      34.694  20.816  25.255  1.00  0.00     0.468 C 
ENDBRANCH  18  31
ENDBRANCH  14  17
ENDBRANCH   8  13
ENDBRANCH   4   7
ENDBRANCH   2   3
ENDBRANCH   1   2
BRANCH   1  40
ATOM     40  C   UNL A   1      39.920  28.225  29.464  1.00  0.00     0.002 C 
BRANCH  40  41
ATOM     41  C   UNL A   1      39.700  27.613  28.077  1.00  0.00     0.002 C 
BRANCH  41  42
ATOM     42  C   UNL A   1      39.523  26.094  28.079  1.00  0.00     0.021 C 
BRANCH  42  43
ATOM     43  C   UNL A   1      39.773  25.445  26.725  1.00  0.00     0.116 C 
BRANCH  43  44
ATOM     44  N   UNL A   1      40.371  24.130  26.873  1.00  0.00    -0.352 N 
ATOM     45  C   UNL A   1      41.678  23.762  26.694  1.00  0.00     0.251 C 
ATOM     46  H   UNL A   1      39.756  23.407  27.137  1.00  0.00     0.163 HD
ATOM     47  O   UNL A   1      41.985  22.581  26.581  1.00  0.00    -0.269 OA
BRANCH  45  48
ATOM     48  C   UNL A   1      42.715  24.810  26.643  1.00  0.00     0.039 A 
ATOM     49  C   UNL A   1      43.095  25.329  25.405  1.00  0.00     0.014 A 
ATOM     50  C   UNL A   1      43.320  25.260  27.821  1.00  0.00     0.014 A 
ATOM     51  C   UNL A   1      44.075  26.319  25.350  1.00  0.00     0.010 A 
ATOM     52  C   UNL A   1      44.236  26.303  27.771  1.00  0.00     0.010 A 
ATOM     53  C   UNL A   1      44.643  26.821  26.534  1.00  0.00    -0.014 A 
BRANCH  53  54
ATOM     54  C   UNL A   1      45.704  27.852  26.490  1.00  0.00     0.031 A 
ATOM     55  C   UNL A   1      45.341  29.304  26.638  1.00  0.00     0.074 A 
ATOM     56  C   UNL A   1      46.981  27.485  26.279  1.00  0.00     0.049 A 
ATOM     57  N   UNL A   1      46.116  30.358  26.602  1.00  0.00    -0.248 NA
ATOM     58  C   UNL A   1      43.913  29.616  26.819  1.00  0.00     0.031 C 
ATOM     59  C   UNL A   1      47.443  26.111  26.071  1.00  0.00     0.029 A 
ATOM     60  N   UNL A   1      48.125  28.236  26.206  1.00  0.00    -0.354 N 
ATOM     61  C   UNL A   1      45.271  31.451  26.745  1.00  0.00     0.074 A 
ATOM     62  C   UNL A   1      43.920  30.941  26.801  1.00  0.00     0.031 C 
ATOM     63  C   UNL A   1      48.778  26.115  25.924  1.00  0.00     0.029 A 
ATOM     64  C   UNL A   1      49.259  27.492  25.996  1.00  0.00     0.049 A 
ATOM     65  H   UNL A   1      48.133  29.216  26.296  1.00  0.00     0.167 HD
ATOM     66  C   UNL A   1      45.594  32.762  26.851  1.00  0.00     0.037 A 
ATOM     67  C   UNL A   1      50.543  27.879  25.879  1.00  0.00     0.037 A 
ATOM     68  C   UNL A   1      46.944  33.259  26.822  1.00  0.00     0.049 A 
ATOM     69  C   UNL A   1      50.877  29.340  26.007  1.00  0.00     0.074 A 
ATOM     70  C   UNL A   1      47.387  34.560  26.976  1.00  0.00     0.029 A 
ATOM     71  N   UNL A   1      48.070  32.472  26.628  1.00  0.00    -0.354 N 
ATOM     72  N   UNL A   1      50.076  30.357  26.211  1.00  0.00    -0.248 NA
ATOM     73  C   UNL A   1      52.297  29.703  25.900  1.00  0.00     0.031 C 
ATOM     74  C   UNL A   1      48.779  34.567  26.829  1.00  0.00     0.029 A 
ATOM     75  C   UNL A   1      49.206  33.263  26.639  1.00  0.00     0.049 A 
ATOM     76  H   UNL A   1      48.061  31.496  26.501  1.00  0.00     0.167 HD
ATOM     77  C   UNL A   1      50.895  31.477  26.289  1.00  0.00     0.074 A 
ATOM     78  C   UNL A   1      52.255  31.009  26.125  1.00  0.00     0.031 C 
ATOM     79  C   UNL A   1      50.553  32.774  26.480  1.00  0.00     0.037 A 
BRANCH  66  80
ATOM     80  C   UNL A   1      44.468  33.742  27.012  1.00  0.00     0.057 A 
ATOM     81  C   UNL A   1      43.975  34.103  28.274  1.00  0.00     0.134 A 
ATOM     82  C   UNL A   1      43.882  34.351  25.894  1.00  0.00     0.134 A 
ATOM     83  F   UNL A   1      44.480  33.547  29.385  1.00  0.00    -0.206 F 
ATOM     84  C   UNL A   1      42.923  35.009  28.417  1.00  0.00     0.040 A 
ATOM     85  C   UNL A   1      42.850  35.281  26.026  1.00  0.00     0.040 A 
ATOM     86  F   UNL A   1      44.307  34.056  24.657  1.00  0.00    -0.206 F 
ATOM     87  C   UNL A   1      42.362  35.606  27.290  1.00  0.00     0.006 A 
ENDBRANCH  66  80
BRANCH  67  88
ATOM     88  C   UNL A   1      51.608  26.868  25.663  1.00  0.00     0.057 A 
ATOM     89  C   UNL A   1      52.090  26.590  24.378  1.00  0.00     0.134 A 
ATOM     90  C   UNL A   1      52.168  26.154  26.729  1.00  0.00     0.134 A 
ATOM     91  F   UNL A   1      51.584  27.232  23.315  1.00  0.00    -0.206 F 
ATOM     92  C   UNL A   1      53.070  25.622  24.158  1.00  0.00     0.040 A 
ATOM     93  C   UNL A   1      53.168  25.202  26.526  1.00  0.00     0.040 A 
ATOM     94  F   UNL A   1      51.758  26.381  27.985  1.00  0.00    -0.206 F 
ATOM     95  C   UNL A   1      53.616  24.928  25.236  1.00  0.00     0.006 A 
ENDBRANCH  67  88
BRANCH  79  96
ATOM     96  C   UNL A   1      51.672  33.771  26.563  1.00  0.00     0.057 A 
ATOM     97  C   UNL A   1      52.151  34.444  25.433  1.00  0.00     0.134 A 
ATOM     98  C   UNL A   1      52.256  34.082  27.798  1.00  0.00     0.134 A 
ATOM     99  F   UNL A   1      51.641  34.184  24.219  1.00  0.00    -0.206 F 
ATOM    100  C   UNL A   1      53.191  35.370  25.523  1.00  0.00     0.040 A 
ATOM    101  C   UNL A   1      53.276  35.027  27.905  1.00  0.00     0.040 A 
ATOM    102  F   UNL A   1      51.836  33.481  28.921  1.00  0.00    -0.206 F 
ATOM    103  C   UNL A   1      53.752  35.669  26.763  1.00  0.00     0.006 A 
ENDBRANCH  79  96
ENDBRANCH  53  54
ENDBRANCH  45  48
ENDBRANCH  43  44
ENDBRANCH  42  43
ENDBRANCH  41  42
ENDBRANCH  40  41
ENDBRANCH   1  40
TORSDOF 19
ENDMDL
MODEL 3
REMARK VINA RESULT:     -11.4      0.439      5.736
REMARK SMILES COc1ccccc1C(=O)N/C(=C/c1ccc2c(c1)OCO2)C(=O)Nc1ccc(C(=O)NCCCCCCNC(=O)c2ccc(-c3c4nc(c(-c5c(F)cccc5F)c5ccc([nH]5)c(-c5c(F)cccc5F)c5nc(c(-c6c(F)cccc6F)c6ccc3[nH]6)C=C5)C=C4)cc2)cc1
REMARK SMILES IDX 34 1 33 2 32 3 30 4 31 5 29 7 26 8 27 9 97 10 28 11 96 12
REMARK SMILES IDX 25 13 23 14 24 15 12 17 13 18 11 19 9 20 10 21 8 23 3 24
REMARK SMILES IDX 4 25 5 26 7 27 6 28 2 29 1 30 14 31 15 32 19 33 16 34 18 35
REMARK SMILES IDX 17 36 20 37 22 38 21 39 35 40 36 41 37 42 38 43 39 44 40 45
REMARK SMILES IDX 41 47 42 48 43 49 95 50 44 51 94 52 45 53 46 54 47 55 88 56
REMARK SMILES IDX 48 57 93 58 87 59 89 60 49 61 92 62 86 63 85 64 50 66 76 67
REMARK SMILES IDX 59 68 75 69 60 70 63 71 74 72 90 73 61 74 62 75 73 77 91 78
REMARK SMILES IDX 64 79 51 80 52 81 57 82 53 83 54 84 56 85 58 86 55 87 77 88
REMARK SMILES IDX 78 89 83 90 79 91 80 92 82 93 84 94 81 95 65 96 66 97 71 98
REMARK SMILES IDX 67 99 68 100 70 101 72 102 69 103
REMARK H PARENT 32 6 25 16 11 22 39 46 89 65 63 76
REMARK Flexibility Score: inf
ROOT
ATOM      1  C   UNL A   1      38.468  29.027  29.807  1.00  0.00     0.021 C 
ENDROOT
BRANCH   1   2
ATOM      2  C   UNL A   1      37.007  29.235  29.418  1.00  0.00     0.116 C 
BRANCH   2   3
ATOM      3  N   UNL A   1      36.827  30.570  28.897  1.00  0.00    -0.352 N 
ATOM      4  C   UNL A   1      35.908  31.033  28.002  1.00  0.00     0.251 C 
ATOM      5  O   UNL A   1      35.895  32.216  27.681  1.00  0.00    -0.269 OA
ATOM      6  H   UNL A   1      37.459  31.243  29.237  1.00  0.00     0.163 HD
BRANCH   4   7
ATOM      7  C   UNL A   1      34.862  30.144  27.493  1.00  0.00     0.039 A 
ATOM      8  C   UNL A   1      32.081  27.917  26.403  1.00  0.00     0.041 A 
ATOM      9  C   UNL A   1      31.695  29.560  26.923  1.00  0.00     0.027 A 
ATOM     10  C   UNL A   1      33.774  27.432  26.342  1.00  0.00     0.027 A 
ATOM     11  C   UNL A   1      33.180  30.768  27.578  1.00  0.00     0.016 A 
ATOM     12  C   UNL A   1      35.111  28.507  26.860  1.00  0.00     0.016 A 
BRANCH   8  13
ATOM     13  N   UNL A   1      31.074  27.008  26.787  1.00  0.00    -0.321 N 
ATOM     14  C   UNL A   1      31.204  25.642  26.519  1.00  0.00     0.272 C 
ATOM     15  O   UNL A   1      31.233  24.844  27.460  1.00  0.00    -0.267 OA
ATOM     16  H   UNL A   1      30.270  27.339  27.248  1.00  0.00     0.170 HD
BRANCH  14  17
ATOM     17  C   UNL A   1      31.141  25.097  25.063  1.00  0.00     0.108 C 
ATOM     18  C   UNL A   1      31.682  23.931  24.600  1.00  0.00     0.040 C 
BRANCH  17  19
ATOM     19  N   UNL A   1      30.330  25.771  24.146  1.00  0.00    -0.317 N 
ATOM     20  C   UNL A   1      30.507  26.812  23.253  1.00  0.00     0.259 C 
ATOM     21  O   UNL A   1      29.505  27.278  22.701  1.00  0.00    -0.269 OA
ATOM     22  H   UNL A   1      29.410  25.421  24.132  1.00  0.00     0.170 HD
BRANCH  20  23
ATOM     23  C   UNL A   1      31.815  27.412  22.922  1.00  0.00     0.082 A 
ATOM     24  C   UNL A   1      32.767  26.745  22.136  1.00  0.00     0.131 A 
ATOM     25  C   UNL A   1      34.046  27.299  22.036  1.00  0.00     0.047 A 
ATOM     26  C   UNL A   1      34.326  28.554  22.592  1.00  0.00     0.004 A 
ATOM     27  C   UNL A   1      32.067  28.706  23.404  1.00  0.00     0.018 A 
ATOM     28  C   UNL A   1      33.324  29.279  23.232  1.00  0.00     0.001 A 
BRANCH  24  29
ATOM     29  O   UNL A   1      32.361  25.565  21.583  1.00  0.00    -0.496 OA
ATOM     30  C   UNL A   1      32.561  25.290  20.209  1.00  0.00     0.278 C 
ENDBRANCH  24  29
ENDBRANCH  20  23
ENDBRANCH  17  19
BRANCH  18  31
ATOM     31  C   UNL A   1      32.567  23.004  25.347  1.00  0.00    -0.019 A 
ATOM     32  C   UNL A   1      32.417  21.342  24.684  1.00  0.00     0.012 A 
ATOM     33  C   UNL A   1      34.168  23.547  25.896  1.00  0.00     0.058 A 
ATOM     34  C   UNL A   1      34.104  20.241  24.455  1.00  0.00     0.051 A 
ATOM     35  C   UNL A   1      35.615  22.532  25.726  1.00  0.00     0.166 A 
ATOM     36  C   UNL A   1      35.632  20.952  25.038  1.00  0.00     0.165 A 
ATOM     37  O   UNL A   1      36.901  23.002  25.609  1.00  0.00    -0.454 OA
ATOM     38  O   UNL A   1      36.894  20.680  24.618  1.00  0.00    -0.454 OA
ATOM     39  C   UNL A   1      37.486  22.019  24.684  1.00  0.00     0.468 C 
ENDBRANCH  18  31
ENDBRANCH  14  17
ENDBRANCH   8  13
ENDBRANCH   4   7
ENDBRANCH   2   3
ENDBRANCH   1   2
BRANCH   1  40
ATOM     40  C   UNL A   1      38.937  27.576  29.642  1.00  0.00     0.002 C 
BRANCH  40  41
ATOM     41  C   UNL A   1      39.115  27.127  28.189  1.00  0.00     0.002 C 
BRANCH  41  42
ATOM     42  C   UNL A   1      39.346  25.625  28.017  1.00  0.00     0.021 C 
BRANCH  42  43
ATOM     43  C   UNL A   1      39.991  25.251  26.690  1.00  0.00     0.116 C 
BRANCH  43  44
ATOM     44  N   UNL A   1      40.671  23.970  26.776  1.00  0.00    -0.352 N 
ATOM     45  C   UNL A   1      41.996  23.692  26.573  1.00  0.00     0.251 C 
ATOM     46  H   UNL A   1      40.104  23.200  27.010  1.00  0.00     0.163 HD
ATOM     47  O   UNL A   1      42.375  22.539  26.406  1.00  0.00    -0.269 OA
BRANCH  45  48
ATOM     48  C   UNL A   1      42.966  24.804  26.563  1.00  0.00     0.039 A 
ATOM     49  C   UNL A   1      43.340  25.367  25.342  1.00  0.00     0.014 A 
ATOM     50  C   UNL A   1      43.516  25.270  27.762  1.00  0.00     0.014 A 
ATOM     51  C   UNL A   1      44.258  26.417  25.327  1.00  0.00     0.010 A 
ATOM     52  C   UNL A   1      44.365  26.368  27.750  1.00  0.00     0.010 A 
ATOM     53  C   UNL A   1      44.766  26.932  26.531  1.00  0.00    -0.014 A 
BRANCH  53  54
ATOM     54  C   UNL A   1      45.762  28.028  26.528  1.00  0.00     0.031 A 
ATOM     55  C   UNL A   1      47.227  27.706  26.426  1.00  0.00     0.074 A 
ATOM     56  C   UNL A   1      45.349  29.302  26.654  1.00  0.00     0.049 A 
ATOM     57  N   UNL A   1      48.255  28.515  26.432  1.00  0.00    -0.248 NA
ATOM     58  C   UNL A   1      47.589  26.280  26.337  1.00  0.00     0.031 C 
ATOM     59  C   UNL A   1      43.958  29.730  26.812  1.00  0.00     0.029 A 
ATOM     60  N   UNL A   1      46.062  30.473  26.671  1.00  0.00    -0.354 N 
ATOM     61  C   UNL A   1      49.377  27.701  26.359  1.00  0.00     0.074 A 
ATOM     62  C   UNL A   1      48.912  26.332  26.377  1.00  0.00     0.031 C 
ATOM     63  C   UNL A   1      43.916  31.070  26.878  1.00  0.00     0.029 A 
ATOM     64  C   UNL A   1      45.277  31.592  26.800  1.00  0.00     0.049 A 
ATOM     65  H   UNL A   1      47.043  30.508  26.597  1.00  0.00     0.167 HD
ATOM     66  C   UNL A   1      50.678  28.061  26.255  1.00  0.00     0.037 A 
ATOM     67  C   UNL A   1      45.620  32.893  26.845  1.00  0.00     0.037 A 
ATOM     68  C   UNL A   1      51.131  29.426  26.210  1.00  0.00     0.049 A 
ATOM     69  C   UNL A   1      47.072  33.267  26.721  1.00  0.00     0.074 A 
ATOM     70  C   UNL A   1      52.420  29.902  26.051  1.00  0.00     0.029 A 
ATOM     71  N   UNL A   1      50.304  30.534  26.323  1.00  0.00    -0.354 N 
ATOM     72  N   UNL A   1      48.118  32.490  26.582  1.00  0.00    -0.248 NA
ATOM     73  C   UNL A   1      47.387  34.702  26.748  1.00  0.00     0.031 C 
ATOM     74  C   UNL A   1      52.378  31.299  26.114  1.00  0.00     0.029 A 
ATOM     75  C   UNL A   1      51.058  31.693  26.256  1.00  0.00     0.049 A 
ATOM     76  H   UNL A   1      49.327  30.501  26.434  1.00  0.00     0.167 HD
ATOM     77  C   UNL A   1      49.212  33.340  26.473  1.00  0.00     0.074 A 
ATOM     78  C   UNL A   1      48.697  34.691  26.547  1.00  0.00     0.031 C 
ATOM     79  C   UNL A   1      50.523  33.030  26.325  1.00  0.00     0.037 A 
BRANCH  66  80
ATOM     80  C   UNL A   1      51.698  26.961  26.179  1.00  0.00     0.057 A 
ATOM     81  C   UNL A   1      52.372  26.495  27.316  1.00  0.00     0.134 A 
ATOM     82  C   UNL A   1      51.995  26.343  24.957  1.00  0.00     0.134 A 
ATOM     83  F   UNL A   1      52.146  27.052  28.516  1.00  0.00    -0.206 F 
ATOM     84  C   UNL A   1      53.324  25.477  27.238  1.00  0.00     0.040 A 
ATOM     85  C   UNL A   1      52.923  25.304  24.870  1.00  0.00     0.040 A 
ATOM     86  F   UNL A   1      51.385  26.735  23.828  1.00  0.00    -0.206 F 
ATOM     87  C   UNL A   1      53.597  24.874  26.012  1.00  0.00     0.006 A 
ENDBRANCH  66  80
BRANCH  67  88
ATOM     88  C   UNL A   1      44.572  33.935  26.979  1.00  0.00     0.057 A 
ATOM     89  C   UNL A   1      44.224  34.451  28.234  1.00  0.00     0.134 A 
ATOM     90  C   UNL A   1      43.891  34.437  25.864  1.00  0.00     0.134 A 
ATOM     91  F   UNL A   1      44.831  34.000  29.341  1.00  0.00    -0.206 F 
ATOM     92  C   UNL A   1      43.220  35.410  28.377  1.00  0.00     0.040 A 
ATOM     93  C   UNL A   1      42.904  35.416  25.990  1.00  0.00     0.040 A 
ATOM     94  F   UNL A   1      44.186  33.993  24.634  1.00  0.00    -0.206 F 
ATOM     95  C   UNL A   1      42.560  35.898  27.251  1.00  0.00     0.006 A 
ENDBRANCH  67  88
BRANCH  79  96
ATOM     96  C   UNL A   1      51.485  34.175  26.190  1.00  0.00     0.057 A 
ATOM     97  C   UNL A   1      52.007  34.840  27.307  1.00  0.00     0.134 A 
ATOM     98  C   UNL A   1      51.916  34.595  24.926  1.00  0.00     0.134 A 
ATOM     99  F   UNL A   1      51.625  34.493  28.545  1.00  0.00    -0.206 F 
ATOM    100  C   UNL A   1      52.901  35.903  27.169  1.00  0.00     0.040 A 
ATOM    101  C   UNL A   1      52.832  35.637  24.776  1.00  0.00     0.040 A 
ATOM    102  F   UNL A   1      51.463  33.994  23.816  1.00  0.00    -0.206 F 
ATOM    103  C   UNL A   1      53.322  36.299  25.901  1.00  0.00     0.006 A 
ENDBRANCH  79  96
ENDBRANCH  53  54
ENDBRANCH  45  48
ENDBRANCH  43  44
ENDBRANCH  42  43
ENDBRANCH  41  42
ENDBRANCH  40  41
ENDBRANCH   1  40
TORSDOF 19
ENDMDL
