MODEL 1
REMARK VINA RESULT:     -12.5      0.000      0.000
REMARK SMILES COc1cccc(-c2c(C(=O)NCCCCCCNC(=O)c3ccc(-c4c5nc(c(-c6c(F)cccc6F)c6ccc([nH]6)c(-c6c(F)cccc6F)c6nc(c(-c7c(F)cccc7F)c7ccc4[nH]7)C=C6)C=C5)cc3)nnn2-c2ccc(OC(F)(F)F)cc2)c1
REMARK SMILES IDX 15 1 14 2 13 3 12 4 10 5 11 6 9 8 8 9 78 10 76 11 77 12 7 13
REMARK SMILES IDX 3 14 4 15 90 16 5 17 6 18 2 19 1 20 79 21 80 22 89 23 81 24
REMARK SMILES IDX 88 25 82 26 83 27 84 28 85 29 86 30 87 31 16 32 17 33 18 34
REMARK SMILES IDX 19 35 20 36 21 38 22 39 23 40 75 41 24 42 74 43 25 44 26 45
REMARK SMILES IDX 27 46 68 47 28 48 73 49 67 50 69 51 29 52 72 53 66 54 65 55
REMARK SMILES IDX 30 57 56 58 39 59 55 60 40 61 43 62 54 63 70 64 41 65 42 66
REMARK SMILES IDX 53 68 71 69 44 70 31 71 32 72 37 73 33 74 34 75 36 76 38 77
REMARK SMILES IDX 35 78 57 79 58 80 63 81 59 82 60 83 62 84 64 85 61 86 45 87
REMARK SMILES IDX 46 88 51 89 47 90 48 91 50 92 52 93 49 94
REMARK H PARENT 12 7 19 37 69 56 43 67
REMARK Flexibility Score: inf
ROOT
ATOM      1  C   UNL A   1      31.700  28.292  27.629  1.00  0.00     0.002 C 
ENDROOT
BRANCH   1   2
ATOM      2  C   UNL A   1      31.802  27.169  26.605  1.00  0.00     0.021 C 
BRANCH   2   3
ATOM      3  C   UNL A   1      31.220  27.419  25.227  1.00  0.00     0.116 C 
BRANCH   3   4
ATOM      4  N   UNL A   1      32.129  27.532  24.126  1.00  0.00    -0.351 N 
ATOM      5  C   UNL A   1      32.603  26.551  23.277  1.00  0.00     0.274 C 
ATOM      6  O   UNL A   1      33.347  26.954  22.378  1.00  0.00    -0.267 OA
ATOM      7  H   UNL A   1      32.464  28.440  23.948  1.00  0.00     0.163 HD
BRANCH   5   8
ATOM      8  C   UNL A   1      32.317  25.108  23.414  1.00  0.00     0.178 A 
ATOM      9  C   UNL A   1      33.054  23.964  23.740  1.00  0.00     0.108 A 
ATOM     10  N   UNL A   1      32.104  22.938  23.715  1.00  0.00    -0.212 N 
ATOM     11  N   UNL A   1      31.018  24.704  23.142  1.00  0.00    -0.124 NA
ATOM     12  N   UNL A   1      30.941  23.388  23.214  1.00  0.00    -0.061 NA
BRANCH   9  13
ATOM     13  C   UNL A   1      34.481  23.666  23.898  1.00  0.00     0.006 A 
ATOM     14  C   UNL A   1      36.418  23.540  25.382  1.00  0.00     0.119 A 
ATOM     15  C   UNL A   1      37.168  23.036  24.320  1.00  0.00     0.046 A 
ATOM     16  C   UNL A   1      35.081  23.864  25.166  1.00  0.00     0.056 A 
ATOM     17  C   UNL A   1      36.593  22.854  23.058  1.00  0.00     0.005 A 
ATOM     18  C   UNL A   1      35.251  23.171  22.842  1.00  0.00     0.011 A 
BRANCH  14  19
ATOM     19  O   UNL A   1      37.105  23.677  26.556  1.00  0.00    -0.497 OA
ATOM     20  C   UNL A   1      38.458  24.118  26.488  1.00  0.00     0.278 C 
ENDBRANCH  14  19
ENDBRANCH   9  13
BRANCH  10  21
ATOM     21  C   UNL A   1      32.279  21.572  24.052  1.00  0.00     0.067 A 
ATOM     22  C   UNL A   1      32.227  20.597  23.055  1.00  0.00     0.032 A 
ATOM     23  C   UNL A   1      32.557  21.205  25.374  1.00  0.00     0.032 A 
ATOM     24  C   UNL A   1      32.548  19.274  23.377  1.00  0.00     0.049 A 
ATOM     25  C   UNL A   1      32.849  19.879  25.690  1.00  0.00     0.049 A 
ATOM     26  C   UNL A   1      32.871  18.908  24.690  1.00  0.00     0.129 A 
BRANCH  26  27
ATOM     27  O   UNL A   1      33.187  17.590  24.859  1.00  0.00    -0.406 OA
BRANCH  27  28
ATOM     28  C   UNL A   1      34.450  17.155  24.377  1.00  0.00     0.573 C 
ATOM     29  F   UNL A   1      34.358  16.689  23.113  1.00  0.00    -0.132 F 
ATOM     30  F   UNL A   1      35.358  18.154  24.424  1.00  0.00    -0.132 F 
ATOM     31  F   UNL A   1      34.891  16.148  25.163  1.00  0.00    -0.132 F 
ENDBRANCH  27  28
ENDBRANCH  26  27
ENDBRANCH  10  21
ENDBRANCH   5   8
ENDBRANCH   3   4
ENDBRANCH   2   3
ENDBRANCH   1   2
BRANCH   1  32
ATOM     32  C   UNL A   1      31.991  29.729  27.168  1.00  0.00     0.002 C 
BRANCH  32  33
ATOM     33  C   UNL A   1      33.334  30.038  26.494  1.00  0.00     0.021 C 
BRANCH  33  34
ATOM     34  C   UNL A   1      34.512  30.234  27.432  1.00  0.00     0.116 C 
BRANCH  34  35
ATOM     35  N   UNL A   1      34.407  31.422  28.280  1.00  0.00    -0.352 N 
ATOM     36  C   UNL A   1      35.086  31.698  29.458  1.00  0.00     0.251 C 
ATOM     37  H   UNL A   1      33.775  32.113  27.976  1.00  0.00     0.163 HD
ATOM     38  O   UNL A   1      34.676  32.537  30.245  1.00  0.00    -0.269 OA
BRANCH  36  39
ATOM     39  C   UNL A   1      36.324  30.949  29.745  1.00  0.00     0.039 A 
ATOM     40  C   UNL A   1      36.315  29.602  30.116  1.00  0.00     0.014 A 
ATOM     41  C   UNL A   1      37.522  31.629  29.584  1.00  0.00     0.014 A 
ATOM     42  C   UNL A   1      37.535  28.934  30.238  1.00  0.00     0.010 A 
ATOM     43  C   UNL A   1      38.686  30.922  29.469  1.00  0.00     0.010 A 
ATOM     44  C   UNL A   1      38.720  29.601  29.891  1.00  0.00    -0.014 A 
BRANCH  44  45
ATOM     45  C   UNL A   1      40.016  28.933  29.915  1.00  0.00     0.031 A 
ATOM     46  C   UNL A   1      40.648  28.815  31.258  1.00  0.00     0.074 A 
ATOM     47  C   UNL A   1      40.506  28.273  28.840  1.00  0.00     0.049 A 
ATOM     48  N   UNL A   1      41.750  29.352  31.665  1.00  0.00    -0.248 NA
ATOM     49  C   UNL A   1      39.906  28.105  32.313  1.00  0.00     0.031 C 
ATOM     50  C   UNL A   1      39.868  28.017  27.539  1.00  0.00     0.029 A 
ATOM     51  N   UNL A   1      41.674  27.588  28.727  1.00  0.00    -0.354 N 
ATOM     52  C   UNL A   1      41.943  28.900  32.969  1.00  0.00     0.074 A 
ATOM     53  C   UNL A   1      40.710  28.273  33.366  1.00  0.00     0.031 C 
ATOM     54  C   UNL A   1      40.536  27.042  26.884  1.00  0.00     0.029 A 
ATOM     55  C   UNL A   1      41.750  26.754  27.618  1.00  0.00     0.049 A 
ATOM     56  H   UNL A   1      42.407  27.675  29.378  1.00  0.00     0.167 HD
ATOM     57  C   UNL A   1      43.182  28.889  33.537  1.00  0.00     0.037 A 
ATOM     58  C   UNL A   1      42.741  25.876  27.335  1.00  0.00     0.037 A 
ATOM     59  C   UNL A   1      44.100  29.721  32.801  1.00  0.00     0.049 A 
ATOM     60  C   UNL A   1      43.923  26.282  28.133  1.00  0.00     0.074 A 
ATOM     61  C   UNL A   1      44.158  31.064  32.489  1.00  0.00     0.029 A 
ATOM     62  N   UNL A   1      44.969  29.100  31.938  1.00  0.00    -0.354 N 
ATOM     63  N   UNL A   1      44.586  27.388  27.935  1.00  0.00    -0.248 NA
ATOM     64  C   UNL A   1      44.078  25.688  29.452  1.00  0.00     0.031 C 
ATOM     65  C   UNL A   1      44.653  31.106  31.153  1.00  0.00     0.029 A 
ATOM     66  C   UNL A   1      44.932  29.797  30.758  1.00  0.00     0.049 A 
ATOM     67  H   UNL A   1      45.518  28.306  32.131  1.00  0.00     0.167 HD
ATOM     68  C   UNL A   1      44.893  27.851  29.206  1.00  0.00     0.074 A 
ATOM     69  C   UNL A   1      44.624  26.722  30.096  1.00  0.00     0.031 C 
ATOM     70  C   UNL A   1      45.059  29.184  29.455  1.00  0.00     0.037 A 
BRANCH  57  71
ATOM     71  C   UNL A   1      43.664  27.862  34.534  1.00  0.00     0.057 A 
ATOM     72  C   UNL A   1      43.701  26.505  34.159  1.00  0.00     0.134 A 
ATOM     73  C   UNL A   1      43.803  28.105  35.914  1.00  0.00     0.134 A 
ATOM     74  F   UNL A   1      43.571  26.141  32.875  1.00  0.00    -0.206 F 
ATOM     75  C   UNL A   1      43.784  25.469  35.098  1.00  0.00     0.040 A 
ATOM     76  C   UNL A   1      43.939  27.079  36.854  1.00  0.00     0.040 A 
ATOM     77  F   UNL A   1      43.711  29.331  36.441  1.00  0.00    -0.206 F 
ATOM     78  C   UNL A   1      43.895  25.755  36.452  1.00  0.00     0.006 A 
ENDBRANCH  57  71
BRANCH  58  79
ATOM     79  C   UNL A   1      42.632  24.553  26.682  1.00  0.00     0.057 A 
ATOM     80  C   UNL A   1      43.240  24.304  25.446  1.00  0.00     0.134 A 
ATOM     81  C   UNL A   1      42.168  23.426  27.384  1.00  0.00     0.134 A 
ATOM     82  F   UNL A   1      43.748  25.313  24.723  1.00  0.00    -0.206 F 
ATOM     83  C   UNL A   1      43.404  23.006  24.945  1.00  0.00     0.040 A 
ATOM     84  C   UNL A   1      42.320  22.124  26.894  1.00  0.00     0.040 A 
ATOM     85  F   UNL A   1      41.638  23.542  28.611  1.00  0.00    -0.206 F 
ATOM     86  C   UNL A   1      42.953  21.909  25.675  1.00  0.00     0.006 A 
ENDBRANCH  58  79
BRANCH  70  87
ATOM     87  C   UNL A   1      45.130  30.122  28.281  1.00  0.00     0.057 A 
ATOM     88  C   UNL A   1      44.019  30.774  27.727  1.00  0.00     0.134 A 
ATOM     89  C   UNL A   1      46.390  30.518  27.818  1.00  0.00     0.134 A 
ATOM     90  F   UNL A   1      42.780  30.531  28.168  1.00  0.00    -0.206 F 
ATOM     91  C   UNL A   1      44.154  31.756  26.739  1.00  0.00     0.040 A 
ATOM     92  C   UNL A   1      46.540  31.518  26.854  1.00  0.00     0.040 A 
ATOM     93  F   UNL A   1      47.501  29.978  28.340  1.00  0.00    -0.206 F 
ATOM     94  C   UNL A   1      45.419  32.137  26.306  1.00  0.00     0.006 A 
ENDBRANCH  70  87
ENDBRANCH  44  45
ENDBRANCH  36  39
ENDBRANCH  34  35
ENDBRANCH  33  34
ENDBRANCH  32  33
ENDBRANCH   1  32
TORSDOF 18
ENDMDL
MODEL 2
REMARK VINA RESULT:     -12.3      3.760      8.531
REMARK SMILES COc1cccc(-c2c(C(=O)NCCCCCCNC(=O)c3ccc(-c4c5nc(c(-c6c(F)cccc6F)c6ccc([nH]6)c(-c6c(F)cccc6F)c6nc(c(-c7c(F)cccc7F)c7ccc4[nH]7)C=C6)C=C5)cc3)nnn2-c2ccc(OC(F)(F)F)cc2)c1
REMARK SMILES IDX 15 1 14 2 13 3 12 4 10 5 11 6 9 8 8 9 78 10 76 11 77 12 7 13
REMARK SMILES IDX 3 14 4 15 90 16 5 17 6 18 2 19 1 20 79 21 80 22 89 23 81 24
REMARK SMILES IDX 88 25 82 26 83 27 84 28 85 29 86 30 87 31 16 32 17 33 18 34
REMARK SMILES IDX 19 35 20 36 21 38 22 39 23 40 75 41 24 42 74 43 25 44 26 45
REMARK SMILES IDX 27 46 68 47 28 48 73 49 67 50 69 51 29 52 72 53 66 54 65 55
REMARK SMILES IDX 30 57 56 58 39 59 55 60 40 61 43 62 54 63 70 64 41 65 42 66
REMARK SMILES IDX 53 68 71 69 44 70 31 71 32 72 37 73 33 74 34 75 36 76 38 77
REMARK SMILES IDX 35 78 57 79 58 80 63 81 59 82 60 83 62 84 64 85 61 86 45 87
REMARK SMILES IDX 46 88 51 89 47 90 48 91 50 92 52 93 49 94
REMARK H PARENT 12 7 19 37 69 56 43 67
REMARK Flexibility Score: inf
ROOT
ATOM      1  C   UNL A   1      36.856  21.981  24.432  1.00  0.00     0.002 C 
ENDROOT
BRANCH   1   2
ATOM      2  C   UNL A   1      35.958  22.871  23.582  1.00  0.00     0.021 C 
BRANCH   2   3
ATOM      3  C   UNL A   1      34.460  22.653  23.676  1.00  0.00     0.116 C 
BRANCH   3   4
ATOM      4  N   UNL A   1      33.878  22.549  24.981  1.00  0.00    -0.351 N 
ATOM      5  C   UNL A   1      32.730  23.135  25.476  1.00  0.00     0.274 C 
ATOM      6  O   UNL A   1      32.445  22.824  26.636  1.00  0.00    -0.267 OA
ATOM      7  H   UNL A   1      34.366  21.977  25.615  1.00  0.00     0.163 HD
BRANCH   5   8
ATOM      8  C   UNL A   1      31.893  24.105  24.740  1.00  0.00     0.178 A 
ATOM      9  C   UNL A   1      31.667  25.485  24.800  1.00  0.00     0.108 A 
ATOM     10  N   UNL A   1      30.769  25.720  23.754  1.00  0.00    -0.212 N 
ATOM     11  N   UNL A   1      31.082  23.592  23.739  1.00  0.00    -0.124 NA
ATOM     12  N   UNL A   1      30.331  24.557  23.241  1.00  0.00    -0.061 NA
BRANCH   9  13
ATOM     13  C   UNL A   1      32.011  26.547  25.750  1.00  0.00     0.006 A 
ATOM     14  C   UNL A   1      33.686  28.124  26.575  1.00  0.00     0.119 A 
ATOM     15  C   UNL A   1      32.734  28.637  27.455  1.00  0.00     0.046 A 
ATOM     16  C   UNL A   1      33.326  27.075  25.734  1.00  0.00     0.056 A 
ATOM     17  C   UNL A   1      31.438  28.113  27.496  1.00  0.00     0.005 A 
ATOM     18  C   UNL A   1      31.074  27.065  26.647  1.00  0.00     0.011 A 
BRANCH  14  19
ATOM     19  O   UNL A   1      34.914  28.721  26.646  1.00  0.00    -0.497 OA
ATOM     20  C   UNL A   1      35.056  29.849  27.504  1.00  0.00     0.278 C 
ENDBRANCH  14  19
ENDBRANCH   9  13
BRANCH  10  21
ATOM     21  C   UNL A   1      30.260  26.961  23.297  1.00  0.00     0.067 A 
ATOM     22  C   UNL A   1      28.913  27.273  23.485  1.00  0.00     0.032 A 
ATOM     23  C   UNL A   1      31.116  27.898  22.707  1.00  0.00     0.032 A 
ATOM     24  C   UNL A   1      28.457  28.557  23.165  1.00  0.00     0.049 A 
ATOM     25  C   UNL A   1      30.647  29.166  22.366  1.00  0.00     0.049 A 
ATOM     26  C   UNL A   1      29.321  29.513  22.616  1.00  0.00     0.129 A 
BRANCH  26  27
ATOM     27  O   UNL A   1      28.751  30.731  22.375  1.00  0.00    -0.406 OA
BRANCH  27  28
ATOM     28  C   UNL A   1      28.506  31.569  23.494  1.00  0.00     0.573 C 
ATOM     29  F   UNL A   1      28.413  32.865  23.124  1.00  0.00    -0.132 F 
ATOM     30  F   UNL A   1      27.376  31.203  24.136  1.00  0.00    -0.132 F 
ATOM     31  F   UNL A   1      29.538  31.454  24.358  1.00  0.00    -0.132 F 
ENDBRANCH  27  28
ENDBRANCH  26  27
ENDBRANCH  10  21
ENDBRANCH   5   8
ENDBRANCH   3   4
ENDBRANCH   2   3
ENDBRANCH   1   2
BRANCH   1  32
ATOM     32  C   UNL A   1      37.741  22.644  25.500  1.00  0.00     0.002 C 
BRANCH  32  33
ATOM     33  C   UNL A   1      38.930  21.861  26.073  1.00  0.00     0.021 C 
BRANCH  33  34
ATOM     34  C   UNL A   1      40.039  22.700  26.682  1.00  0.00     0.116 C 
BRANCH  34  35
ATOM     35  N   UNL A   1      41.347  22.504  26.057  1.00  0.00    -0.352 N 
ATOM     36  C   UNL A   1      42.258  23.470  25.653  1.00  0.00     0.251 C 
ATOM     37  H   UNL A   1      41.615  21.569  25.903  1.00  0.00     0.163 HD
ATOM     38  O   UNL A   1      43.139  23.213  24.847  1.00  0.00    -0.269 OA
BRANCH  36  39
ATOM     39  C   UNL A   1      42.138  24.826  26.220  1.00  0.00     0.039 A 
ATOM     40  C   UNL A   1      41.156  25.729  25.802  1.00  0.00     0.014 A 
ATOM     41  C   UNL A   1      43.022  25.165  27.234  1.00  0.00     0.014 A 
ATOM     42  C   UNL A   1      41.029  26.940  26.483  1.00  0.00     0.010 A 
ATOM     43  C   UNL A   1      42.741  26.230  28.041  1.00  0.00     0.010 A 
ATOM     44  C   UNL A   1      41.817  27.175  27.620  1.00  0.00    -0.014 A 
BRANCH  44  45
ATOM     45  C   UNL A   1      41.671  28.383  28.424  1.00  0.00     0.031 A 
ATOM     46  C   UNL A   1      42.751  29.394  28.258  1.00  0.00     0.074 A 
ATOM     47  C   UNL A   1      40.533  28.665  29.099  1.00  0.00     0.049 A 
ATOM     48  N   UNL A   1      43.599  29.801  29.142  1.00  0.00    -0.248 NA
ATOM     49  C   UNL A   1      42.991  29.937  26.910  1.00  0.00     0.031 C 
ATOM     50  C   UNL A   1      39.256  27.934  29.111  1.00  0.00     0.029 A 
ATOM     51  N   UNL A   1      40.248  29.755  29.859  1.00  0.00    -0.354 N 
ATOM     52  C   UNL A   1      44.363  30.788  28.524  1.00  0.00     0.074 A 
ATOM     53  C   UNL A   1      44.054  30.716  27.120  1.00  0.00     0.031 C 
ATOM     54  C   UNL A   1      38.282  28.720  29.622  1.00  0.00     0.029 A 
ATOM     55  C   UNL A   1      38.900  29.916  30.155  1.00  0.00     0.049 A 
ATOM     56  H   UNL A   1      40.940  30.381  30.173  1.00  0.00     0.167 HD
ATOM     57  C   UNL A   1      45.027  31.730  29.252  1.00  0.00     0.037 A 
ATOM     58  C   UNL A   1      38.332  30.972  30.785  1.00  0.00     0.037 A 
ATOM     59  C   UNL A   1      45.140  31.335  30.633  1.00  0.00     0.049 A 
ATOM     60  C   UNL A   1      39.416  31.684  31.504  1.00  0.00     0.074 A 
ATOM     61  C   UNL A   1      45.731  30.277  31.296  1.00  0.00     0.029 A 
ATOM     62  N   UNL A   1      44.261  31.891  31.529  1.00  0.00    -0.354 N 
ATOM     63  N   UNL A   1      40.063  31.181  32.520  1.00  0.00    -0.248 NA
ATOM     64  C   UNL A   1      40.097  32.757  30.798  1.00  0.00     0.031 C 
ATOM     65  C   UNL A   1      44.821  29.952  32.345  1.00  0.00     0.029 A 
ATOM     66  C   UNL A   1      43.770  30.869  32.301  1.00  0.00     0.049 A 
ATOM     67  H   UNL A   1      44.027  32.844  31.604  1.00  0.00     0.167 HD
ATOM     68  C   UNL A   1      41.381  31.567  32.327  1.00  0.00     0.074 A 
ATOM     69  C   UNL A   1      41.326  32.601  31.294  1.00  0.00     0.031 C 
ATOM     70  C   UNL A   1      42.418  30.818  32.807  1.00  0.00     0.037 A 
BRANCH  57  71
ATOM     71  C   UNL A   1      45.257  33.155  28.812  1.00  0.00     0.057 A 
ATOM     72  C   UNL A   1      46.560  33.687  28.859  1.00  0.00     0.134 A 
ATOM     73  C   UNL A   1      44.231  34.103  28.637  1.00  0.00     0.134 A 
ATOM     74  F   UNL A   1      47.625  32.889  29.030  1.00  0.00    -0.206 F 
ATOM     75  C   UNL A   1      46.812  35.064  28.818  1.00  0.00     0.040 A 
ATOM     76  C   UNL A   1      44.477  35.477  28.542  1.00  0.00     0.040 A 
ATOM     77  F   UNL A   1      42.935  33.772  28.650  1.00  0.00    -0.206 F 
ATOM     78  C   UNL A   1      45.766  35.965  28.668  1.00  0.00     0.006 A 
ENDBRANCH  57  71
BRANCH  58  79
ATOM     79  C   UNL A   1      37.002  31.572  30.545  1.00  0.00     0.057 A 
ATOM     80  C   UNL A   1      36.001  31.530  31.524  1.00  0.00     0.134 A 
ATOM     81  C   UNL A   1      36.775  32.443  29.463  1.00  0.00     0.134 A 
ATOM     82  F   UNL A   1      36.147  30.759  32.612  1.00  0.00    -0.206 F 
ATOM     83  C   UNL A   1      34.851  32.327  31.448  1.00  0.00     0.040 A 
ATOM     84  C   UNL A   1      35.629  33.240  29.372  1.00  0.00     0.040 A 
ATOM     85  F   UNL A   1      37.700  32.618  28.508  1.00  0.00    -0.206 F 
ATOM     86  C   UNL A   1      34.668  33.195  30.375  1.00  0.00     0.006 A 
ENDBRANCH  58  79
BRANCH  70  87
ATOM     87  C   UNL A   1      42.100  29.688  33.749  1.00  0.00     0.057 A 
ATOM     88  C   UNL A   1      41.864  28.367  33.340  1.00  0.00     0.134 A 
ATOM     89  C   UNL A   1      42.221  29.910  35.125  1.00  0.00     0.134 A 
ATOM     90  F   UNL A   1      41.824  28.038  32.044  1.00  0.00    -0.206 F 
ATOM     91  C   UNL A   1      41.729  27.321  34.260  1.00  0.00     0.040 A 
ATOM     92  C   UNL A   1      42.118  28.871  36.052  1.00  0.00     0.040 A 
ATOM     93  F   UNL A   1      42.501  31.138  35.588  1.00  0.00    -0.206 F 
ATOM     94  C   UNL A   1      41.865  27.571  35.621  1.00  0.00     0.006 A 
ENDBRANCH  70  87
ENDBRANCH  44  45
ENDBRANCH  36  39
ENDBRANCH  34  35
ENDBRANCH  33  34
ENDBRANCH  32  33
ENDBRANCH   1  32
TORSDOF 18
ENDMDL
MODEL 3
REMARK VINA RESULT:     -12.1      2.570      6.543
REMARK SMILES COc1cccc(-c2c(C(=O)NCCCCCCNC(=O)c3ccc(-c4c5nc(c(-c6c(F)cccc6F)c6ccc([nH]6)c(-c6c(F)cccc6F)c6nc(c(-c7c(F)cccc7F)c7ccc4[nH]7)C=C6)C=C5)cc3)nnn2-c2ccc(OC(F)(F)F)cc2)c1
REMARK SMILES IDX 15 1 14 2 13 3 12 4 10 5 11 6 9 8 8 9 78 10 76 11 77 12 7 13
REMARK SMILES IDX 3 14 4 15 90 16 5 17 6 18 2 19 1 20 79 21 80 22 89 23 81 24
REMARK SMILES IDX 88 25 82 26 83 27 84 28 85 29 86 30 87 31 16 32 17 33 18 34
REMARK SMILES IDX 19 35 20 36 21 38 22 39 23 40 75 41 24 42 74 43 25 44 26 45
REMARK SMILES IDX 27 46 68 47 28 48 73 49 67 50 69 51 29 52 72 53 66 54 65 55
REMARK SMILES IDX 30 57 56 58 39 59 55 60 40 61 43 62 54 63 70 64 41 65 42 66
REMARK SMILES IDX 53 68 71 69 44 70 31 71 32 72 37 73 33 74 34 75 36 76 38 77
REMARK SMILES IDX 35 78 57 79 58 80 63 81 59 82 60 83 62 84 64 85 61 86 45 87
REMARK SMILES IDX 46 88 51 89 47 90 48 91 50 92 52 93 49 94
REMARK H PARENT 12 7 19 37 69 56 43 67
REMARK Flexibility Score: inf
ROOT
ATOM      1  C   UNL A   1      32.000  28.135  26.291  1.00  0.00     0.002 C 
ENDROOT
BRANCH   1   2
ATOM      2  C   UNL A   1      31.313  26.891  26.841  1.00  0.00     0.021 C 
BRANCH   2   3
ATOM      3  C   UNL A   1      30.614  25.979  25.851  1.00  0.00     0.116 C 
BRANCH   3   4
ATOM      4  N   UNL A   1      29.880  24.863  26.370  1.00  0.00    -0.351 N 
ATOM      5  C   UNL A   1      30.348  23.659  26.858  1.00  0.00     0.274 C 
ATOM      6  O   UNL A   1      29.476  22.897  27.288  1.00  0.00    -0.267 OA
ATOM      7  H   UNL A   1      28.902  24.971  26.381  1.00  0.00     0.163 HD
BRANCH   5   8
ATOM      8  C   UNL A   1      31.763  23.238  26.849  1.00  0.00     0.178 A 
ATOM      9  C   UNL A   1      32.757  23.075  25.876  1.00  0.00     0.108 A 
ATOM     10  N   UNL A   1      33.881  22.685  26.611  1.00  0.00    -0.212 N 
ATOM     11  N   UNL A   1      32.310  22.871  28.069  1.00  0.00    -0.124 NA
ATOM     12  N   UNL A   1      33.542  22.432  27.887  1.00  0.00    -0.061 NA
BRANCH   9  13
ATOM     13  C   UNL A   1      32.773  23.063  24.410  1.00  0.00     0.006 A 
ATOM     14  C   UNL A   1      33.226  24.270  22.334  1.00  0.00     0.119 A 
ATOM     15  C   UNL A   1      32.927  23.109  21.622  1.00  0.00     0.046 A 
ATOM     16  C   UNL A   1      33.138  24.247  23.723  1.00  0.00     0.056 A 
ATOM     17  C   UNL A   1      32.546  21.938  22.286  1.00  0.00     0.005 A 
ATOM     18  C   UNL A   1      32.464  21.912  23.680  1.00  0.00     0.011 A 
BRANCH  14  19
ATOM     19  O   UNL A   1      33.575  25.343  21.561  1.00  0.00    -0.497 OA
ATOM     20  C   UNL A   1      32.610  25.839  20.639  1.00  0.00     0.278 C 
ENDBRANCH  14  19
ENDBRANCH   9  13
BRANCH  10  21
ATOM     21  C   UNL A   1      35.200  22.464  26.144  1.00  0.00     0.067 A 
ATOM     22  C   UNL A   1      36.117  23.516  26.122  1.00  0.00     0.032 A 
ATOM     23  C   UNL A   1      35.603  21.181  25.756  1.00  0.00     0.032 A 
ATOM     24  C   UNL A   1      37.453  23.252  25.801  1.00  0.00     0.049 A 
ATOM     25  C   UNL A   1      36.931  20.933  25.412  1.00  0.00     0.049 A 
ATOM     26  C   UNL A   1      37.871  21.961  25.456  1.00  0.00     0.129 A 
BRANCH  26  27
ATOM     27  O   UNL A   1      39.205  21.841  25.191  1.00  0.00    -0.406 OA
BRANCH  27  28
ATOM     28  C   UNL A   1      40.053  21.462  26.264  1.00  0.00     0.573 C 
ATOM     29  F   UNL A   1      41.342  21.771  26.004  1.00  0.00    -0.132 F 
ATOM     30  F   UNL A   1      39.672  22.056  27.416  1.00  0.00    -0.132 F 
ATOM     31  F   UNL A   1      39.970  20.124  26.433  1.00  0.00    -0.132 F 
ENDBRANCH  27  28
ENDBRANCH  26  27
ENDBRANCH  10  21
ENDBRANCH   5   8
ENDBRANCH   3   4
ENDBRANCH   2   3
ENDBRANCH   1   2
BRANCH   1  32
ATOM     32  C   UNL A   1      33.089  28.804  27.144  1.00  0.00     0.002 C 
BRANCH  32  33
ATOM     33  C   UNL A   1      34.564  28.540  26.811  1.00  0.00     0.021 C 
BRANCH  33  34
ATOM     34  C   UNL A   1      35.545  29.598  27.284  1.00  0.00     0.116 C 
BRANCH  34  35
ATOM     35  N   UNL A   1      35.487  29.865  28.721  1.00  0.00    -0.352 N 
ATOM     36  C   UNL A   1      36.383  29.470  29.704  1.00  0.00     0.251 C 
ATOM     37  H   UNL A   1      34.714  30.390  29.031  1.00  0.00     0.163 HD
ATOM     38  O   UNL A   1      36.064  29.448  30.883  1.00  0.00    -0.269 OA
BRANCH  36  39
ATOM     39  C   UNL A   1      37.742  29.071  29.293  1.00  0.00     0.039 A 
ATOM     40  C   UNL A   1      38.437  29.724  28.271  1.00  0.00     0.014 A 
ATOM     41  C   UNL A   1      38.337  28.037  30.001  1.00  0.00     0.014 A 
ATOM     42  C   UNL A   1      39.767  29.372  28.037  1.00  0.00     0.010 A 
ATOM     43  C   UNL A   1      39.690  27.866  29.932  1.00  0.00     0.010 A 
ATOM     44  C   UNL A   1      40.394  28.451  28.890  1.00  0.00    -0.014 A 
BRANCH  44  45
ATOM     45  C   UNL A   1      41.805  28.107  28.751  1.00  0.00     0.031 A 
ATOM     46  C   UNL A   1      42.083  26.860  27.986  1.00  0.00     0.074 A 
ATOM     47  C   UNL A   1      42.792  28.964  29.093  1.00  0.00     0.049 A 
ATOM     48  N   UNL A   1      42.625  25.770  28.417  1.00  0.00    -0.248 NA
ATOM     49  C   UNL A   1      41.597  26.775  26.598  1.00  0.00     0.031 C 
ATOM     50  C   UNL A   1      42.692  30.356  29.560  1.00  0.00     0.029 A 
ATOM     51  N   UNL A   1      44.137  28.791  28.993  1.00  0.00    -0.354 N 
ATOM     52  C   UNL A   1      42.722  24.922  27.316  1.00  0.00     0.074 A 
ATOM     53  C   UNL A   1      41.936  25.525  26.271  1.00  0.00     0.031 C 
ATOM     54  C   UNL A   1      43.895  30.963  29.458  1.00  0.00     0.029 A 
ATOM     55  C   UNL A   1      44.881  29.958  29.118  1.00  0.00     0.049 A 
ATOM     56  H   UNL A   1      44.550  27.911  28.844  1.00  0.00     0.167 HD
ATOM     57  C   UNL A   1      43.623  23.899  27.287  1.00  0.00     0.037 A 
ATOM     58  C   UNL A   1      46.217  30.087  28.938  1.00  0.00     0.037 A 
ATOM     59  C   UNL A   1      44.119  23.606  28.608  1.00  0.00     0.049 A 
ATOM     60  C   UNL A   1      46.804  28.730  29.049  1.00  0.00     0.074 A 
ATOM     61  C   UNL A   1      43.545  23.187  29.791  1.00  0.00     0.029 A 
ATOM     62  N   UNL A   1      45.353  24.103  28.949  1.00  0.00    -0.354 N 
ATOM     63  N   UNL A   1      46.826  28.038  30.155  1.00  0.00    -0.248 NA
ATOM     64  C   UNL A   1      46.939  27.956  27.825  1.00  0.00     0.031 C 
ATOM     65  C   UNL A   1      44.236  23.909  30.808  1.00  0.00     0.029 A 
ATOM     66  C   UNL A   1      45.230  24.671  30.191  1.00  0.00     0.049 A 
ATOM     67  H   UNL A   1      46.172  24.060  28.405  1.00  0.00     0.167 HD
ATOM     68  C   UNL A   1      46.553  26.735  29.765  1.00  0.00     0.074 A 
ATOM     69  C   UNL A   1      46.711  26.734  28.311  1.00  0.00     0.031 C 
ATOM     70  C   UNL A   1      45.946  25.853  30.613  1.00  0.00     0.037 A 
BRANCH  57  71
ATOM     71  C   UNL A   1      44.325  23.403  26.046  1.00  0.00     0.057 A 
ATOM     72  C   UNL A   1      44.413  22.017  25.814  1.00  0.00     0.134 A 
ATOM     73  C   UNL A   1      45.165  24.198  25.243  1.00  0.00     0.134 A 
ATOM     74  F   UNL A   1      43.670  21.151  26.520  1.00  0.00    -0.206 F 
ATOM     75  C   UNL A   1      45.328  21.463  24.910  1.00  0.00     0.040 A 
ATOM     76  C   UNL A   1      46.045  23.657  24.300  1.00  0.00     0.040 A 
ATOM     77  F   UNL A   1      45.260  25.524  25.393  1.00  0.00    -0.206 F 
ATOM     78  C   UNL A   1      46.155  22.284  24.155  1.00  0.00     0.006 A 
ENDBRANCH  57  71
BRANCH  58  79
ATOM     79  C   UNL A   1      46.956  31.235  28.370  1.00  0.00     0.057 A 
ATOM     80  C   UNL A   1      46.737  31.657  27.052  1.00  0.00     0.134 A 
ATOM     81  C   UNL A   1      47.685  32.115  29.190  1.00  0.00     0.134 A 
ATOM     82  F   UNL A   1      46.019  30.902  26.208  1.00  0.00    -0.206 F 
ATOM     83  C   UNL A   1      47.193  32.895  26.581  1.00  0.00     0.040 A 
ATOM     84  C   UNL A   1      48.151  33.352  28.731  1.00  0.00     0.040 A 
ATOM     85  F   UNL A   1      47.888  31.846  30.488  1.00  0.00    -0.206 F 
ATOM     86  C   UNL A   1      47.893  33.753  27.426  1.00  0.00     0.006 A 
ENDBRANCH  58  79
BRANCH  70  87
ATOM     87  C   UNL A   1      45.788  26.250  32.056  1.00  0.00     0.057 A 
ATOM     88  C   UNL A   1      44.632  26.842  32.586  1.00  0.00     0.134 A 
ATOM     89  C   UNL A   1      46.767  25.848  32.971  1.00  0.00     0.134 A 
ATOM     90  F   UNL A   1      43.601  27.176  31.802  1.00  0.00    -0.206 F 
ATOM     91  C   UNL A   1      44.470  27.049  33.961  1.00  0.00     0.040 A 
ATOM     92  C   UNL A   1      46.605  26.022  34.348  1.00  0.00     0.040 A 
ATOM     93  F   UNL A   1      47.875  25.225  32.543  1.00  0.00    -0.206 F 
ATOM     94  C   UNL A   1      45.456  26.629  34.847  1.00  0.00     0.006 A 
ENDBRANCH  70  87
ENDBRANCH  44  45
ENDBRANCH  36  39
ENDBRANCH  34  35
ENDBRANCH  33  34
ENDBRANCH  32  33
ENDBRANCH   1  32
TORSDOF 18
ENDMDL
