MODEL 1
REMARK VINA RESULT:     -11.2      0.000      0.000
REMARK SMILES C[NH+](C)Cc1noc(C[C@@](C)(C(=O)NCCCCCCNC(=O)c2ccc(-c3c4nc(c(-c5c(F)cccc5F)c5ccc([nH]5)c(-c5c(F)cccc5F)c5nc(c(-c6c(F)cccc6F)c6ccc3[nH]6)C=C5)C=C4)cc2)c2ccccc2)n1
REMARK SMILES IDX 16 1 15 2 14 3 12 4 13 5 10 7 11 8 9 9 8 10 5 11 6 12 84 13
REMARK SMILES IDX 7 14 4 15 2 16 1 17 3 18 78 20 79 21 83 22 80 23 82 24 81 25
REMARK SMILES IDX 17 26 18 27 19 28 20 29 21 30 22 31 23 33 24 34 25 35 77 36
REMARK SMILES IDX 26 37 76 38 27 39 28 40 29 41 70 42 30 43 75 44 69 45 71 46
REMARK SMILES IDX 31 47 74 48 68 49 67 50 32 52 58 53 41 54 57 55 42 56 45 57
REMARK SMILES IDX 56 58 72 59 43 60 44 61 55 63 73 64 46 65 33 66 34 67 39 68
REMARK SMILES IDX 35 69 36 70 38 71 40 72 37 73 59 74 60 75 65 76 61 77 62 78
REMARK SMILES IDX 64 79 66 80 63 81 47 82 48 83 53 84 49 85 50 86 52 87 54 88
REMARK SMILES IDX 51 89
REMARK H PARENT 14 6 2 19 21 32 71 51 45 62
REMARK Flexibility Score: inf
ROOT
ATOM      1  C   UNL A   1      33.285  20.856  26.039  1.00  0.00     0.021 C 
ENDROOT
BRANCH   1   2
ATOM      2  C   UNL A   1      32.009  21.345  25.353  1.00  0.00     0.116 C 
BRANCH   2   3
ATOM      3  N   UNL A   1      31.183  22.128  26.259  1.00  0.00    -0.355 N 
ATOM      4  C   UNL A   1      30.864  23.451  26.366  1.00  0.00     0.230 C 
ATOM      5  O   UNL A   1      30.033  23.675  27.252  1.00  0.00    -0.274 OA
ATOM      6  H   UNL A   1      30.757  21.576  26.953  1.00  0.00     0.163 HD
BRANCH   4   7
ATOM      7  C   UNL A   1      31.439  24.548  25.409  1.00  0.00     0.080 C 
ATOM      8  C   UNL A   1      31.391  25.844  26.263  1.00  0.00     0.027 C 
BRANCH   7   9
ATOM      9  C   UNL A   1      30.578  24.543  24.112  1.00  0.00     0.122 C 
BRANCH   9  10
ATOM     10  C   UNL A   1      30.112  25.871  23.642  1.00  0.00     0.228 A 
ATOM     11  C   UNL A   1      29.124  27.660  23.162  1.00  0.00     0.226 A 
ATOM     12  N   UNL A   1      30.343  27.818  22.623  1.00  0.00    -0.056 NA
ATOM     13  N   UNL A   1      28.956  26.464  23.826  1.00  0.00    -0.190 NA
ATOM     14  O   UNL A   1      31.001  26.633  22.942  1.00  0.00    -0.339 OA
BRANCH  11  15
ATOM     15  C   UNL A   1      28.037  28.699  23.166  1.00  0.00     0.344 C 
BRANCH  15  16
ATOM     16  N   UNL A   1      28.379  30.065  22.724  1.00  0.00    -0.333 N 
ATOM     17  C   UNL A   1      28.093  30.314  21.316  1.00  0.00     0.332 C 
ATOM     18  C   UNL A   1      27.832  31.106  23.585  1.00  0.00     0.332 C 
ATOM     19  H   UNL A   1      29.393  30.116  22.819  1.00  0.00     0.348 HD
ENDBRANCH  15  16
ENDBRANCH  11  15
ENDBRANCH   9  10
ENDBRANCH   7   9
BRANCH   7  20
ATOM     20  C   UNL A   1      32.924  24.336  24.947  1.00  0.00    -0.032 A 
ATOM     21  C   UNL A   1      33.983  24.594  25.851  1.00  0.00     0.005 A 
ATOM     22  C   UNL A   1      33.297  23.997  23.637  1.00  0.00     0.005 A 
ATOM     23  C   UNL A   1      35.325  24.514  25.469  1.00  0.00     0.000 A 
ATOM     24  C   UNL A   1      34.643  23.883  23.261  1.00  0.00     0.000 A 
ATOM     25  C   UNL A   1      35.656  24.148  24.174  1.00  0.00     0.000 A 
ENDBRANCH   7  20
ENDBRANCH   4   7
ENDBRANCH   2   3
ENDBRANCH   1   2
BRANCH   1  26
ATOM     26  C   UNL A   1      34.476  20.635  25.099  1.00  0.00     0.002 C 
BRANCH  26  27
ATOM     27  C   UNL A   1      35.844  21.046  25.654  1.00  0.00     0.002 C 
BRANCH  27  28
ATOM     28  C   UNL A   1      37.050  20.531  24.867  1.00  0.00     0.021 C 
BRANCH  28  29
ATOM     29  C   UNL A   1      38.404  20.907  25.455  1.00  0.00     0.116 C 
BRANCH  29  30
ATOM     30  N   UNL A   1      39.324  19.783  25.502  1.00  0.00    -0.352 N 
ATOM     31  C   UNL A   1      40.637  19.774  25.910  1.00  0.00     0.251 C 
ATOM     32  H   UNL A   1      38.961  18.918  25.204  1.00  0.00     0.163 HD
ATOM     33  O   UNL A   1      41.339  18.781  25.753  1.00  0.00    -0.269 OA
BRANCH  31  34
ATOM     34  C   UNL A   1      41.203  20.994  26.521  1.00  0.00     0.039 A 
ATOM     35  C   UNL A   1      41.785  21.962  25.699  1.00  0.00     0.014 A 
ATOM     36  C   UNL A   1      41.122  21.189  27.902  1.00  0.00     0.014 A 
ATOM     37  C   UNL A   1      42.233  23.161  26.258  1.00  0.00     0.010 A 
ATOM     38  C   UNL A   1      41.509  22.408  28.446  1.00  0.00     0.010 A 
ATOM     39  C   UNL A   1      42.070  23.405  27.630  1.00  0.00    -0.014 A 
BRANCH  39  40
ATOM     40  C   UNL A   1      42.500  24.677  28.260  1.00  0.00     0.031 A 
ATOM     41  C   UNL A   1      41.487  25.763  28.491  1.00  0.00     0.074 A 
ATOM     42  C   UNL A   1      43.802  24.897  28.526  1.00  0.00     0.049 A 
ATOM     43  N   UNL A   1      41.672  27.008  28.848  1.00  0.00    -0.248 NA
ATOM     44  C   UNL A   1      40.079  25.406  28.253  1.00  0.00     0.031 C 
ATOM     45  C   UNL A   1      44.885  23.933  28.324  1.00  0.00     0.029 A 
ATOM     46  N   UNL A   1      44.437  26.018  29.001  1.00  0.00    -0.354 N 
ATOM     47  C   UNL A   1      40.411  27.589  28.845  1.00  0.00     0.074 A 
ATOM     48  C   UNL A   1      39.475  26.573  28.415  1.00  0.00     0.031 C 
ATOM     49  C   UNL A   1      46.049  24.503  28.678  1.00  0.00     0.029 A 
ATOM     50  C   UNL A   1      45.801  25.881  29.087  1.00  0.00     0.049 A 
ATOM     51  H   UNL A   1      43.960  26.840  29.255  1.00  0.00     0.167 HD
ATOM     52  C   UNL A   1      40.062  28.852  29.185  1.00  0.00     0.037 A 
ATOM     53  C   UNL A   1      46.745  26.775  29.439  1.00  0.00     0.037 A 
ATOM     54  C   UNL A   1      40.990  29.849  29.648  1.00  0.00     0.049 A 
ATOM     55  C   UNL A   1      46.333  28.172  29.816  1.00  0.00     0.074 A 
ATOM     56  C   UNL A   1      40.730  31.142  30.064  1.00  0.00     0.029 A 
ATOM     57  N   UNL A   1      42.358  29.656  29.766  1.00  0.00    -0.354 N 
ATOM     58  N   UNL A   1      45.134  28.701  29.841  1.00  0.00    -0.248 NA
ATOM     59  C   UNL A   1      47.405  29.096  30.215  1.00  0.00     0.031 C 
ATOM     60  C   UNL A   1      41.947  31.743  30.405  1.00  0.00     0.029 A 
ATOM     61  C   UNL A   1      42.957  30.809  30.240  1.00  0.00     0.049 A 
ATOM     62  H   UNL A   1      42.833  28.822  29.545  1.00  0.00     0.167 HD
ATOM     63  C   UNL A   1      45.302  30.004  30.293  1.00  0.00     0.074 A 
ATOM     64  C   UNL A   1      46.719  30.185  30.530  1.00  0.00     0.031 C 
ATOM     65  C   UNL A   1      44.367  30.961  30.496  1.00  0.00     0.037 A 
BRANCH  52  66
ATOM     66  C   UNL A   1      38.613  29.224  29.064  1.00  0.00     0.057 A 
ATOM     67  C   UNL A   1      37.744  29.177  30.162  1.00  0.00     0.134 A 
ATOM     68  C   UNL A   1      38.086  29.655  27.840  1.00  0.00     0.134 A 
ATOM     69  F   UNL A   1      38.184  28.759  31.359  1.00  0.00    -0.206 F 
ATOM     70  C   UNL A   1      36.396  29.517  30.041  1.00  0.00     0.040 A 
ATOM     71  C   UNL A   1      36.746  30.023  27.714  1.00  0.00     0.040 A 
ATOM     72  F   UNL A   1      38.864  29.728  26.750  1.00  0.00    -0.206 F 
ATOM     73  C   UNL A   1      35.895  29.948  28.814  1.00  0.00     0.006 A 
ENDBRANCH  52  66
BRANCH  53  74
ATOM     74  C   UNL A   1      48.174  26.375  29.468  1.00  0.00     0.057 A 
ATOM     75  C   UNL A   1      48.737  25.802  30.614  1.00  0.00     0.134 A 
ATOM     76  C   UNL A   1      49.012  26.559  28.362  1.00  0.00     0.134 A 
ATOM     77  F   UNL A   1      47.988  25.618  31.713  1.00  0.00    -0.206 F 
ATOM     78  C   UNL A   1      50.084  25.443  30.669  1.00  0.00     0.040 A 
ATOM     79  C   UNL A   1      50.356  26.184  28.393  1.00  0.00     0.040 A 
ATOM     80  F   UNL A   1      48.532  27.096  27.230  1.00  0.00    -0.206 F 
ATOM     81  C   UNL A   1      50.897  25.630  29.552  1.00  0.00     0.006 A 
ENDBRANCH  53  74
BRANCH  65  82
ATOM     82  C   UNL A   1      44.830  32.272  31.057  1.00  0.00     0.057 A 
ATOM     83  C   UNL A   1      45.185  33.347  30.235  1.00  0.00     0.134 A 
ATOM     84  C   UNL A   1      44.860  32.476  32.443  1.00  0.00     0.134 A 
ATOM     85  F   UNL A   1      45.188  33.210  28.900  1.00  0.00    -0.206 F 
ATOM     86  C   UNL A   1      45.565  34.578  30.771  1.00  0.00     0.040 A 
ATOM     87  C   UNL A   1      45.217  33.708  32.990  1.00  0.00     0.040 A 
ATOM     88  F   UNL A   1      44.523  31.487  33.285  1.00  0.00    -0.206 F 
ATOM     89  C   UNL A   1      45.574  34.763  32.153  1.00  0.00     0.006 A 
ENDBRANCH  65  82
ENDBRANCH  39  40
ENDBRANCH  31  34
ENDBRANCH  29  30
ENDBRANCH  28  29
ENDBRANCH  27  28
ENDBRANCH  26  27
ENDBRANCH   1  26
TORSDOF 18
ENDMDL
MODEL 2
REMARK VINA RESULT:     -11.0      1.987      6.085
REMARK SMILES C[NH+](C)Cc1noc(C[C@@](C)(C(=O)NCCCCCCNC(=O)c2ccc(-c3c4nc(c(-c5c(F)cccc5F)c5ccc([nH]5)c(-c5c(F)cccc5F)c5nc(c(-c6c(F)cccc6F)c6ccc3[nH]6)C=C5)C=C4)cc2)c2ccccc2)n1
REMARK SMILES IDX 16 1 15 2 14 3 12 4 13 5 10 7 11 8 9 9 8 10 5 11 6 12 84 13
REMARK SMILES IDX 7 14 4 15 2 16 1 17 3 18 78 20 79 21 83 22 80 23 82 24 81 25
REMARK SMILES IDX 17 26 18 27 19 28 20 29 21 30 22 31 23 33 24 34 25 35 77 36
REMARK SMILES IDX 26 37 76 38 27 39 28 40 29 41 70 42 30 43 75 44 69 45 71 46
REMARK SMILES IDX 31 47 74 48 68 49 67 50 32 52 58 53 41 54 57 55 42 56 45 57
REMARK SMILES IDX 56 58 72 59 43 60 44 61 55 63 73 64 46 65 33 66 34 67 39 68
REMARK SMILES IDX 35 69 36 70 38 71 40 72 37 73 59 74 60 75 65 76 61 77 62 78
REMARK SMILES IDX 64 79 66 80 63 81 47 82 48 83 53 84 49 85 50 86 52 87 54 88
REMARK SMILES IDX 51 89
REMARK H PARENT 14 6 2 19 21 32 71 51 45 62
REMARK Flexibility Score: inf
ROOT
ATOM      1  C   UNL A   1      33.013  19.713  25.401  1.00  0.00     0.021 C 
ENDROOT
BRANCH   1   2
ATOM      2  C   UNL A   1      32.206  20.914  24.909  1.00  0.00     0.116 C 
BRANCH   2   3
ATOM      3  N   UNL A   1      31.781  21.759  26.015  1.00  0.00    -0.355 N 
ATOM      4  C   UNL A   1      31.844  23.096  26.280  1.00  0.00     0.230 C 
ATOM      5  O   UNL A   1      31.264  23.408  27.325  1.00  0.00    -0.274 OA
ATOM      6  H   UNL A   1      31.348  21.248  26.736  1.00  0.00     0.163 HD
BRANCH   4   7
ATOM      7  C   UNL A   1      32.517  24.128  25.314  1.00  0.00     0.080 C 
ATOM      8  C   UNL A   1      32.573  25.435  26.150  1.00  0.00     0.027 C 
BRANCH   7   9
ATOM      9  C   UNL A   1      31.668  24.178  24.010  1.00  0.00     0.122 C 
BRANCH   9  10
ATOM     10  C   UNL A   1      30.987  25.468  23.733  1.00  0.00     0.228 A 
ATOM     11  C   UNL A   1      30.356  27.387  23.161  1.00  0.00     0.226 A 
ATOM     12  N   UNL A   1      29.280  26.870  23.775  1.00  0.00    -0.056 NA
ATOM     13  N   UNL A   1      31.430  26.527  23.097  1.00  0.00    -0.190 NA
ATOM     14  O   UNL A   1      29.696  25.596  24.154  1.00  0.00    -0.339 OA
BRANCH  11  15
ATOM     15  C   UNL A   1      30.409  28.732  22.492  1.00  0.00     0.344 C 
BRANCH  15  16
ATOM     16  N   UNL A   1      30.458  29.933  23.349  1.00  0.00    -0.333 N 
ATOM     17  C   UNL A   1      29.168  30.594  23.504  1.00  0.00     0.332 C 
ATOM     18  C   UNL A   1      31.111  29.703  24.631  1.00  0.00     0.332 C 
ATOM     19  H   UNL A   1      31.050  30.586  22.837  1.00  0.00     0.348 HD
ENDBRANCH  15  16
ENDBRANCH  11  15
ENDBRANCH   9  10
ENDBRANCH   7   9
BRANCH   7  20
ATOM     20  C   UNL A   1      33.981  23.784  24.867  1.00  0.00    -0.032 A 
ATOM     21  C   UNL A   1      35.046  23.919  25.790  1.00  0.00     0.005 A 
ATOM     22  C   UNL A   1      34.341  23.440  23.554  1.00  0.00     0.005 A 
ATOM     23  C   UNL A   1      36.380  23.719  25.424  1.00  0.00     0.000 A 
ATOM     24  C   UNL A   1      35.675  23.205  23.193  1.00  0.00     0.000 A 
ATOM     25  C   UNL A   1      36.695  23.351  24.125  1.00  0.00     0.000 A 
ENDBRANCH   7  20
ENDBRANCH   4   7
ENDBRANCH   2   3
ENDBRANCH   1   2
BRANCH   1  26
ATOM     26  C   UNL A   1      34.295  19.430  24.606  1.00  0.00     0.002 C 
BRANCH  26  27
ATOM     27  C   UNL A   1      35.547  20.174  25.081  1.00  0.00     0.002 C 
BRANCH  27  28
ATOM     28  C   UNL A   1      36.863  19.414  24.907  1.00  0.00     0.021 C 
BRANCH  28  29
ATOM     29  C   UNL A   1      38.098  20.154  25.404  1.00  0.00     0.116 C 
BRANCH  29  30
ATOM     30  N   UNL A   1      39.205  19.259  25.697  1.00  0.00    -0.352 N 
ATOM     31  C   UNL A   1      40.476  19.583  26.110  1.00  0.00     0.251 C 
ATOM     32  H   UNL A   1      39.022  18.298  25.584  1.00  0.00     0.163 HD
ATOM     33  O   UNL A   1      41.355  18.731  26.173  1.00  0.00    -0.269 OA
BRANCH  31  34
ATOM     34  C   UNL A   1      40.778  20.987  26.455  1.00  0.00     0.039 A 
ATOM     35  C   UNL A   1      41.742  21.259  27.429  1.00  0.00     0.014 A 
ATOM     36  C   UNL A   1      40.130  22.029  25.785  1.00  0.00     0.014 A 
ATOM     37  C   UNL A   1      42.103  22.583  27.690  1.00  0.00     0.010 A 
ATOM     38  C   UNL A   1      40.537  23.340  26.001  1.00  0.00     0.010 A 
ATOM     39  C   UNL A   1      41.526  23.630  26.956  1.00  0.00    -0.014 A 
BRANCH  39  40
ATOM     40  C   UNL A   1      41.905  25.047  27.176  1.00  0.00     0.031 A 
ATOM     41  C   UNL A   1      43.230  25.541  26.670  1.00  0.00     0.074 A 
ATOM     42  C   UNL A   1      41.116  25.854  27.912  1.00  0.00     0.049 A 
ATOM     43  N   UNL A   1      43.840  26.674  26.911  1.00  0.00    -0.248 NA
ATOM     44  C   UNL A   1      43.986  24.621  25.805  1.00  0.00     0.031 C 
ATOM     45  C   UNL A   1      39.818  25.486  28.480  1.00  0.00     0.029 A 
ATOM     46  N   UNL A   1      41.308  27.148  28.330  1.00  0.00    -0.354 N 
ATOM     47  C   UNL A   1      45.062  26.587  26.256  1.00  0.00     0.074 A 
ATOM     48  C   UNL A   1      45.123  25.279  25.640  1.00  0.00     0.031 C 
ATOM     49  C   UNL A   1      39.328  26.532  29.167  1.00  0.00     0.029 A 
ATOM     50  C   UNL A   1      40.295  27.624  29.126  1.00  0.00     0.049 A 
ATOM     51  H   UNL A   1      42.097  27.682  28.083  1.00  0.00     0.167 HD
ATOM     52  C   UNL A   1      46.039  27.519  26.163  1.00  0.00     0.037 A 
ATOM     53  C   UNL A   1      40.171  28.803  29.765  1.00  0.00     0.037 A 
ATOM     54  C   UNL A   1      45.958  28.833  26.745  1.00  0.00     0.049 A 
ATOM     55  C   UNL A   1      41.269  29.825  29.644  1.00  0.00     0.074 A 
ATOM     56  C   UNL A   1      46.873  29.868  26.666  1.00  0.00     0.029 A 
ATOM     57  N   UNL A   1      44.894  29.293  27.505  1.00  0.00    -0.354 N 
ATOM     58  N   UNL A   1      42.404  29.745  28.995  1.00  0.00    -0.248 NA
ATOM     59  C   UNL A   1      41.066  31.103  30.344  1.00  0.00     0.031 C 
ATOM     60  C   UNL A   1      46.375  30.946  27.406  1.00  0.00     0.029 A 
ATOM     61  C   UNL A   1      45.133  30.594  27.909  1.00  0.00     0.049 A 
ATOM     62  H   UNL A   1      44.088  28.771  27.724  1.00  0.00     0.167 HD
ATOM     63  C   UNL A   1      43.034  30.970  29.176  1.00  0.00     0.074 A 
ATOM     64  C   UNL A   1      42.154  31.776  29.995  1.00  0.00     0.031 C 
ATOM     65  C   UNL A   1      44.231  31.390  28.702  1.00  0.00     0.037 A 
BRANCH  52  66
ATOM     66  C   UNL A   1      47.279  27.147  25.404  1.00  0.00     0.057 A 
ATOM     67  C   UNL A   1      47.459  27.504  24.062  1.00  0.00     0.134 A 
ATOM     68  C   UNL A   1      48.313  26.441  26.031  1.00  0.00     0.134 A 
ATOM     69  F   UNL A   1      46.498  28.167  23.401  1.00  0.00    -0.206 F 
ATOM     70  C   UNL A   1      48.611  27.147  23.360  1.00  0.00     0.040 A 
ATOM     71  C   UNL A   1      49.482  26.103  25.347  1.00  0.00     0.040 A 
ATOM     72  F   UNL A   1      48.208  26.072  27.316  1.00  0.00    -0.206 F 
ATOM     73  C   UNL A   1      49.631  26.449  24.006  1.00  0.00     0.006 A 
ENDBRANCH  52  66
BRANCH  53  74
ATOM     74  C   UNL A   1      38.955  29.091  30.566  1.00  0.00     0.057 A 
ATOM     75  C   UNL A   1      38.862  28.687  31.902  1.00  0.00     0.134 A 
ATOM     76  C   UNL A   1      37.859  29.767  30.018  1.00  0.00     0.134 A 
ATOM     77  F   UNL A   1      39.874  28.018  32.476  1.00  0.00    -0.206 F 
ATOM     78  C   UNL A   1      37.717  28.927  32.662  1.00  0.00     0.040 A 
ATOM     79  C   UNL A   1      36.716  30.036  30.773  1.00  0.00     0.040 A 
ATOM     80  F   UNL A   1      37.888  30.189  28.745  1.00  0.00    -0.206 F 
ATOM     81  C   UNL A   1      36.640  29.608  32.097  1.00  0.00     0.006 A 
ENDBRANCH  53  74
BRANCH  65  82
ATOM     82  C   UNL A   1      44.637  32.802  29.003  1.00  0.00     0.057 A 
ATOM     83  C   UNL A   1      45.365  33.136  30.151  1.00  0.00     0.134 A 
ATOM     84  C   UNL A   1      44.345  33.830  28.097  1.00  0.00     0.134 A 
ATOM     85  F   UNL A   1      45.665  32.198  31.062  1.00  0.00    -0.206 F 
ATOM     86  C   UNL A   1      45.780  34.446  30.392  1.00  0.00     0.040 A 
ATOM     87  C   UNL A   1      44.773  35.138  28.316  1.00  0.00     0.040 A 
ATOM     88  F   UNL A   1      43.656  33.572  26.974  1.00  0.00    -0.206 F 
ATOM     89  C   UNL A   1      45.491  35.450  29.469  1.00  0.00     0.006 A 
ENDBRANCH  65  82
ENDBRANCH  39  40
ENDBRANCH  31  34
ENDBRANCH  29  30
ENDBRANCH  28  29
ENDBRANCH  27  28
ENDBRANCH  26  27
ENDBRANCH   1  26
TORSDOF 18
ENDMDL
MODEL 3
REMARK VINA RESULT:     -10.9      1.413      6.533
REMARK SMILES C[NH+](C)Cc1noc(C[C@@](C)(C(=O)NCCCCCCNC(=O)c2ccc(-c3c4nc(c(-c5c(F)cccc5F)c5ccc([nH]5)c(-c5c(F)cccc5F)c5nc(c(-c6c(F)cccc6F)c6ccc3[nH]6)C=C5)C=C4)cc2)c2ccccc2)n1
REMARK SMILES IDX 16 1 15 2 14 3 12 4 13 5 10 7 11 8 9 9 8 10 5 11 6 12 84 13
REMARK SMILES IDX 7 14 4 15 2 16 1 17 3 18 78 20 79 21 83 22 80 23 82 24 81 25
REMARK SMILES IDX 17 26 18 27 19 28 20 29 21 30 22 31 23 33 24 34 25 35 77 36
REMARK SMILES IDX 26 37 76 38 27 39 28 40 29 41 70 42 30 43 75 44 69 45 71 46
REMARK SMILES IDX 31 47 74 48 68 49 67 50 32 52 58 53 41 54 57 55 42 56 45 57
REMARK SMILES IDX 56 58 72 59 43 60 44 61 55 63 73 64 46 65 33 66 34 67 39 68
REMARK SMILES IDX 35 69 36 70 38 71 40 72 37 73 59 74 60 75 65 76 61 77 62 78
REMARK SMILES IDX 64 79 66 80 63 81 47 82 48 83 53 84 49 85 50 86 52 87 54 88
REMARK SMILES IDX 51 89
REMARK H PARENT 14 6 2 19 21 32 71 51 45 62
REMARK Flexibility Score: inf
ROOT
ATOM      1  C   UNL A   1      36.946  23.134  25.223  1.00  0.00     0.021 C 
ENDROOT
BRANCH   1   2
ATOM      2  C   UNL A   1      35.661  23.939  25.419  1.00  0.00     0.116 C 
BRANCH   2   3
ATOM      3  N   UNL A   1      35.069  24.316  24.146  1.00  0.00    -0.355 N 
ATOM      4  C   UNL A   1      33.818  24.228  23.606  1.00  0.00     0.230 C 
ATOM      5  O   UNL A   1      33.732  24.768  22.499  1.00  0.00    -0.274 OA
ATOM      6  H   UNL A   1      35.719  24.730  23.534  1.00  0.00     0.163 HD
BRANCH   4   7
ATOM      7  C   UNL A   1      32.608  23.577  24.357  1.00  0.00     0.080 C 
ATOM      8  C   UNL A   1      31.376  24.010  23.516  1.00  0.00     0.027 C 
BRANCH   7   9
ATOM      9  C   UNL A   1      32.646  24.071  25.832  1.00  0.00     0.122 C 
BRANCH   9  10
ATOM     10  C   UNL A   1      32.310  25.501  26.042  1.00  0.00     0.228 A 
ATOM     11  C   UNL A   1      32.121  27.592  26.084  1.00  0.00     0.226 A 
ATOM     12  N   UNL A   1      31.143  27.169  26.902  1.00  0.00    -0.056 NA
ATOM     13  N   UNL A   1      32.852  26.573  25.513  1.00  0.00    -0.190 NA
ATOM     14  O   UNL A   1      31.267  25.782  26.874  1.00  0.00    -0.339 OA
BRANCH  11  15
ATOM     15  C   UNL A   1      32.374  29.024  25.705  1.00  0.00     0.344 C 
BRANCH  15  16
ATOM     16  N   UNL A   1      32.105  29.433  24.312  1.00  0.00    -0.333 N 
ATOM     17  C   UNL A   1      33.189  29.119  23.389  1.00  0.00     0.332 C 
ATOM     18  C   UNL A   1      30.814  28.973  23.813  1.00  0.00     0.332 C 
ATOM     19  H   UNL A   1      32.052  30.450  24.352  1.00  0.00     0.348 HD
ENDBRANCH  15  16
ENDBRANCH  11  15
ENDBRANCH   9  10
ENDBRANCH   7   9
BRANCH   7  20
ATOM     20  C   UNL A   1      32.613  22.009  24.421  1.00  0.00    -0.032 A 
ATOM     21  C   UNL A   1      33.016  21.357  25.612  1.00  0.00     0.005 A 
ATOM     22  C   UNL A   1      32.338  21.177  23.324  1.00  0.00     0.005 A 
ATOM     23  C   UNL A   1      33.131  19.967  25.700  1.00  0.00     0.000 A 
ATOM     24  C   UNL A   1      32.420  19.781  23.419  1.00  0.00     0.000 A 
ATOM     25  C   UNL A   1      32.823  19.176  24.604  1.00  0.00     0.000 A 
ENDBRANCH   7  20
ENDBRANCH   4   7
ENDBRANCH   2   3
ENDBRANCH   1   2
BRANCH   1  26
ATOM     26  C   UNL A   1      36.820  21.945  24.262  1.00  0.00     0.002 C 
BRANCH  26  27
ATOM     27  C   UNL A   1      36.704  20.569  24.922  1.00  0.00     0.002 C 
BRANCH  27  28
ATOM     28  C   UNL A   1      37.965  19.704  24.857  1.00  0.00     0.021 C 
BRANCH  28  29
ATOM     29  C   UNL A   1      39.121  20.195  25.718  1.00  0.00     0.116 C 
BRANCH  29  30
ATOM     30  N   UNL A   1      40.196  19.220  25.817  1.00  0.00    -0.352 N 
ATOM     31  C   UNL A   1      41.512  19.436  26.151  1.00  0.00     0.251 C 
ATOM     32  H   UNL A   1      39.950  18.288  25.620  1.00  0.00     0.163 HD
ATOM     33  O   UNL A   1      42.343  18.541  26.048  1.00  0.00    -0.269 OA
BRANCH  31  34
ATOM     34  C   UNL A   1      41.920  20.778  26.615  1.00  0.00     0.039 A 
ATOM     35  C   UNL A   1      42.453  21.685  25.696  1.00  0.00     0.014 A 
ATOM     36  C   UNL A   1      41.738  21.143  27.952  1.00  0.00     0.014 A 
ATOM     37  C   UNL A   1      42.749  22.987  26.107  1.00  0.00     0.010 A 
ATOM     38  C   UNL A   1      41.973  22.456  28.342  1.00  0.00     0.010 A 
ATOM     39  C   UNL A   1      42.483  23.390  27.424  1.00  0.00    -0.014 A 
BRANCH  39  40
ATOM     40  C   UNL A   1      42.749  24.772  27.894  1.00  0.00     0.031 A 
ATOM     41  C   UNL A   1      44.138  25.147  28.328  1.00  0.00     0.074 A 
ATOM     42  C   UNL A   1      41.736  25.650  28.028  1.00  0.00     0.049 A 
ATOM     43  N   UNL A   1      44.552  26.225  28.942  1.00  0.00    -0.248 NA
ATOM     44  C   UNL A   1      45.195  24.157  28.066  1.00  0.00     0.031 C 
ATOM     45  C   UNL A   1      40.341  25.399  27.665  1.00  0.00     0.029 A 
ATOM     46  N   UNL A   1      41.725  26.926  28.533  1.00  0.00    -0.354 N 
ATOM     47  C   UNL A   1      45.908  26.029  29.168  1.00  0.00     0.074 A 
ATOM     48  C   UNL A   1      46.238  24.715  28.661  1.00  0.00     0.031 C 
ATOM     49  C   UNL A   1      39.610  26.489  27.954  1.00  0.00     0.029 A 
ATOM     50  C   UNL A   1      40.475  27.494  28.562  1.00  0.00     0.049 A 
ATOM     51  H   UNL A   1      42.536  27.389  28.845  1.00  0.00     0.167 HD
ATOM     52  C   UNL A   1      46.801  26.875  29.735  1.00  0.00     0.037 A 
ATOM     53  C   UNL A   1      40.071  28.685  29.044  1.00  0.00     0.037 A 
ATOM     54  C   UNL A   1      46.476  28.195  30.203  1.00  0.00     0.049 A 
ATOM     55  C   UNL A   1      41.082  29.610  29.666  1.00  0.00     0.074 A 
ATOM     56  C   UNL A   1      47.319  29.148  30.748  1.00  0.00     0.029 A 
ATOM     57  N   UNL A   1      45.207  28.752  30.173  1.00  0.00    -0.354 N 
ATOM     58  N   UNL A   1      42.367  29.427  29.846  1.00  0.00    -0.248 NA
ATOM     59  C   UNL A   1      40.587  30.906  30.152  1.00  0.00     0.031 C 
ATOM     60  C   UNL A   1      46.552  30.272  31.076  1.00  0.00     0.029 A 
ATOM     61  C   UNL A   1      45.241  30.031  30.696  1.00  0.00     0.049 A 
ATOM     62  H   UNL A   1      44.400  28.302  29.829  1.00  0.00     0.167 HD
ATOM     63  C   UNL A   1      42.841  30.596  30.428  1.00  0.00     0.074 A 
ATOM     64  C   UNL A   1      41.704  31.482  30.572  1.00  0.00     0.031 C 
ATOM     65  C   UNL A   1      44.103  30.908  30.806  1.00  0.00     0.037 A 
BRANCH  52  66
ATOM     66  C   UNL A   1      48.214  26.391  29.878  1.00  0.00     0.057 A 
ATOM     67  C   UNL A   1      49.170  26.594  28.875  1.00  0.00     0.134 A 
ATOM     68  C   UNL A   1      48.629  25.733  31.043  1.00  0.00     0.134 A 
ATOM     69  F   UNL A   1      48.832  27.204  27.728  1.00  0.00    -0.206 F 
ATOM     70  C   UNL A   1      50.481  26.135  29.012  1.00  0.00     0.040 A 
ATOM     71  C   UNL A   1      49.943  25.294  31.203  1.00  0.00     0.040 A 
ATOM     72  F   UNL A   1      47.765  25.511  32.045  1.00  0.00    -0.206 F 
ATOM     73  C   UNL A   1      50.872  25.487  30.182  1.00  0.00     0.006 A 
ENDBRANCH  52  66
BRANCH  53  74
ATOM     74  C   UNL A   1      38.644  29.083  28.945  1.00  0.00     0.057 A 
ATOM     75  C   UNL A   1      37.782  28.945  30.038  1.00  0.00     0.134 A 
ATOM     76  C   UNL A   1      38.107  29.602  27.761  1.00  0.00     0.134 A 
ATOM     77  F   UNL A   1      38.235  28.436  31.193  1.00  0.00    -0.206 F 
ATOM     78  C   UNL A   1      36.433  29.291  29.955  1.00  0.00     0.040 A 
ATOM     79  C   UNL A   1      36.765  29.974  27.669  1.00  0.00     0.040 A 
ATOM     80  F   UNL A   1      38.884  29.767  26.679  1.00  0.00    -0.206 F 
ATOM     81  C   UNL A   1      35.922  29.811  28.767  1.00  0.00     0.006 A 
ENDBRANCH  53  74
BRANCH  65  82
ATOM     82  C   UNL A   1      44.340  32.283  31.355  1.00  0.00     0.057 A 
ATOM     83  C   UNL A   1      44.336  32.544  32.730  1.00  0.00     0.134 A 
ATOM     84  C   UNL A   1      44.637  33.347  30.493  1.00  0.00     0.134 A 
ATOM     85  F   UNL A   1      44.047  31.569  33.606  1.00  0.00    -0.206 F 
ATOM     86  C   UNL A   1      44.609  33.818  33.229  1.00  0.00     0.040 A 
ATOM     87  C   UNL A   1      44.933  34.619  30.981  1.00  0.00     0.040 A 
ATOM     88  F   UNL A   1      44.663  33.160  29.164  1.00  0.00    -0.206 F 
ATOM     89  C   UNL A   1      44.916  34.858  32.353  1.00  0.00     0.006 A 
ENDBRANCH  65  82
ENDBRANCH  39  40
ENDBRANCH  31  34
ENDBRANCH  29  30
ENDBRANCH  28  29
ENDBRANCH  27  28
ENDBRANCH  26  27
ENDBRANCH   1  26
TORSDOF 18
ENDMDL
