MODEL 1
REMARK VINA RESULT:     -11.4      0.000      0.000
REMARK SMILES CC1(C)O[C@](C)(C(C)(C)O)CC[C@H]1C(=O)NCCCCCCNC(=O)c1ccc(-c2c3nc(c(-c4c(F)cccc4F)c4ccc([nH]4)c(-c4c(F)cccc4F)c4nc(c(-c5c(F)cccc5F)c5ccc2[nH]5)C=C4)C=C3)cc1
REMARK SMILES IDX 19 1 18 2 17 3 16 4 14 5 15 6 13 8 1 9 2 10 3 11 4 12 5 13
REMARK SMILES IDX 12 14 6 15 11 16 7 17 8 18 9 19 10 20 20 22 21 23 22 24
REMARK SMILES IDX 23 25 24 26 25 28 26 29 27 30 79 31 28 32 78 33 29 34 30 35
REMARK SMILES IDX 31 36 72 37 32 38 77 39 71 40 73 41 33 42 76 43 70 44 69 45
REMARK SMILES IDX 34 47 60 48 43 49 59 50 44 51 47 52 58 53 74 54 45 55 46 56
REMARK SMILES IDX 57 58 75 59 48 60 35 61 36 62 41 63 37 64 38 65 40 66 42 67
REMARK SMILES IDX 39 68 61 69 62 70 67 71 63 72 64 73 66 74 68 75 65 76 49 77
REMARK SMILES IDX 50 78 55 79 51 80 52 81 54 82 56 83 53 84
REMARK H PARENT 16 7 10 21 23 27 73 46 47 57
REMARK Flexibility Score: inf
ROOT
ATOM      1  C   UNL A   1      34.648  20.590  24.727  1.00  0.00     0.002 C 
ENDROOT
BRANCH   1   2
ATOM      2  C   UNL A   1      33.689  21.753  24.485  1.00  0.00     0.021 C 
BRANCH   2   3
ATOM      3  C   UNL A   1      32.224  21.438  24.784  1.00  0.00     0.116 C 
BRANCH   3   4
ATOM      4  N   UNL A   1      31.781  22.111  25.988  1.00  0.00    -0.356 N 
ATOM      5  C   UNL A   1      31.792  23.414  26.365  1.00  0.00     0.226 C 
ATOM      6  O   UNL A   1      31.445  23.649  27.527  1.00  0.00    -0.275 OA
ATOM      7  H   UNL A   1      31.401  21.505  26.664  1.00  0.00     0.163 HD
BRANCH   5   8
ATOM      8  C   UNL A   1      32.191  24.573  25.448  1.00  0.00     0.110 C 
ATOM      9  C   UNL A   1      29.812  25.719  25.607  1.00  0.00     0.043 C 
ATOM     10  C   UNL A   1      31.023  25.331  24.758  1.00  0.00     0.075 C 
ATOM     11  C   UNL A   1      30.448  24.419  23.643  1.00  0.00     0.043 C 
ATOM     12  O   UNL A   1      31.461  26.505  24.051  1.00  0.00    -0.366 OA
ATOM     13  C   UNL A   1      32.433  27.389  24.636  1.00  0.00     0.094 C 
ATOM     14  C   UNL A   1      33.334  25.433  25.998  1.00  0.00     0.019 C 
ATOM     15  C   UNL A   1      31.876  28.133  25.872  1.00  0.00     0.045 C 
ATOM     16  C   UNL A   1      33.676  26.568  25.038  1.00  0.00     0.039 C 
BRANCH  13  17
ATOM     17  C   UNL A   1      32.782  28.461  23.521  1.00  0.00     0.088 C 
ATOM     18  C   UNL A   1      33.803  27.941  22.492  1.00  0.00     0.045 C 
ATOM     19  C   UNL A   1      31.523  28.907  22.752  1.00  0.00     0.045 C 
BRANCH  17  20
ATOM     20  O   UNL A   1      33.352  29.627  24.134  1.00  0.00    -0.387 OA
ATOM     21  H   UNL A   1      33.662  30.237  23.446  1.00  0.00     0.211 HD
ENDBRANCH  17  20
ENDBRANCH  13  17
ENDBRANCH   5   8
ENDBRANCH   3   4
ENDBRANCH   2   3
ENDBRANCH   1   2
BRANCH   1  22
ATOM     22  C   UNL A   1      35.985  20.977  25.365  1.00  0.00     0.002 C 
BRANCH  22  23
ATOM     23  C   UNL A   1      37.179  20.104  24.968  1.00  0.00     0.021 C 
BRANCH  23  24
ATOM     24  C   UNL A   1      38.544  20.666  25.356  1.00  0.00     0.116 C 
BRANCH  24  25
ATOM     25  N   UNL A   1      39.527  19.615  25.558  1.00  0.00    -0.352 N 
ATOM     26  C   UNL A   1      40.823  19.710  25.995  1.00  0.00     0.251 C 
ATOM     27  H   UNL A   1      39.217  18.702  25.353  1.00  0.00     0.163 HD
ATOM     28  O   UNL A   1      41.584  18.754  25.902  1.00  0.00    -0.269 OA
BRANCH  26  29
ATOM     29  C   UNL A   1      41.304  20.982  26.573  1.00  0.00     0.039 A 
ATOM     30  C   UNL A   1      41.884  21.933  25.731  1.00  0.00     0.014 A 
ATOM     31  C   UNL A   1      41.195  21.223  27.945  1.00  0.00     0.014 A 
ATOM     32  C   UNL A   1      42.309  23.154  26.259  1.00  0.00     0.010 A 
ATOM     33  C   UNL A   1      41.555  22.465  28.458  1.00  0.00     0.010 A 
ATOM     34  C   UNL A   1      42.124  23.438  27.622  1.00  0.00    -0.014 A 
BRANCH  34  35
ATOM     35  C   UNL A   1      42.534  24.741  28.199  1.00  0.00     0.031 A 
ATOM     36  C   UNL A   1      41.514  25.825  28.406  1.00  0.00     0.074 A 
ATOM     37  C   UNL A   1      43.831  24.971  28.474  1.00  0.00     0.049 A 
ATOM     38  N   UNL A   1      41.684  27.054  28.823  1.00  0.00    -0.248 NA
ATOM     39  C   UNL A   1      40.120  25.491  28.072  1.00  0.00     0.031 C 
ATOM     40  C   UNL A   1      44.920  24.012  28.280  1.00  0.00     0.029 A 
ATOM     41  N   UNL A   1      44.456  26.089  28.965  1.00  0.00    -0.354 N 
ATOM     42  C   UNL A   1      40.426  27.641  28.786  1.00  0.00     0.074 A 
ATOM     43  C   UNL A   1      39.513  26.654  28.254  1.00  0.00     0.031 C 
ATOM     44  C   UNL A   1      46.075  24.575  28.670  1.00  0.00     0.029 A 
ATOM     45  C   UNL A   1      45.814  25.943  29.105  1.00  0.00     0.049 A 
ATOM     46  H   UNL A   1      43.976  26.917  29.195  1.00  0.00     0.167 HD
ATOM     47  C   UNL A   1      40.061  28.884  29.182  1.00  0.00     0.037 A 
ATOM     48  C   UNL A   1      46.744  26.819  29.532  1.00  0.00     0.037 A 
ATOM     49  C   UNL A   1      40.969  29.857  29.729  1.00  0.00     0.049 A 
ATOM     50  C   UNL A   1      46.318  28.198  29.951  1.00  0.00     0.074 A 
ATOM     51  C   UNL A   1      40.691  31.124  30.212  1.00  0.00     0.029 A 
ATOM     52  N   UNL A   1      42.337  29.669  29.864  1.00  0.00    -0.354 N 
ATOM     53  N   UNL A   1      45.116  28.721  29.969  1.00  0.00    -0.248 NA
ATOM     54  C   UNL A   1      47.377  29.106  30.413  1.00  0.00     0.031 C 
ATOM     55  C   UNL A   1      41.897  31.718  30.598  1.00  0.00     0.029 A 
ATOM     56  C   UNL A   1      42.920  30.805  30.401  1.00  0.00     0.049 A 
ATOM     57  H   UNL A   1      42.821  28.849  29.615  1.00  0.00     0.167 HD
ATOM     58  C   UNL A   1      45.269  30.008  30.470  1.00  0.00     0.074 A 
ATOM     59  C   UNL A   1      46.680  30.181  30.753  1.00  0.00     0.031 C 
ATOM     60  C   UNL A   1      44.326  30.958  30.681  1.00  0.00     0.037 A 
BRANCH  47  61
ATOM     61  C   UNL A   1      38.613  29.254  29.032  1.00  0.00     0.057 A 
ATOM     62  C   UNL A   1      37.726  29.227  30.117  1.00  0.00     0.134 A 
ATOM     63  C   UNL A   1      38.100  29.652  27.790  1.00  0.00     0.134 A 
ATOM     64  F   UNL A   1      38.148  28.844  31.331  1.00  0.00    -0.206 F 
ATOM     65  C   UNL A   1      36.375  29.545  29.965  1.00  0.00     0.040 A 
ATOM     66  C   UNL A   1      36.758  30.001  27.633  1.00  0.00     0.040 A 
ATOM     67  F   UNL A   1      38.894  29.708  26.711  1.00  0.00    -0.206 F 
ATOM     68  C   UNL A   1      35.888  29.939  28.721  1.00  0.00     0.006 A 
ENDBRANCH  47  61
BRANCH  48  69
ATOM     69  C   UNL A   1      48.166  26.402  29.615  1.00  0.00     0.057 A 
ATOM     70  C   UNL A   1      49.034  26.595  28.535  1.00  0.00     0.134 A 
ATOM     71  C   UNL A   1      48.694  25.814  30.770  1.00  0.00     0.134 A 
ATOM     72  F   UNL A   1      48.582  27.138  27.395  1.00  0.00    -0.206 F 
ATOM     73  C   UNL A   1      50.373  26.207  28.594  1.00  0.00     0.040 A 
ATOM     74  C   UNL A   1      50.037  25.442  30.853  1.00  0.00     0.040 A 
ATOM     75  F   UNL A   1      47.915  25.610  31.844  1.00  0.00    -0.206 F 
ATOM     76  C   UNL A   1      50.880  25.634  29.760  1.00  0.00     0.006 A 
ENDBRANCH  48  69
BRANCH  60  77
ATOM     77  C   UNL A   1      44.781  32.257  31.278  1.00  0.00     0.057 A 
ATOM     78  C   UNL A   1      44.856  32.449  32.663  1.00  0.00     0.134 A 
ATOM     79  C   UNL A   1      45.190  33.313  30.455  1.00  0.00     0.134 A 
ATOM     80  F   UNL A   1      44.465  31.481  33.506  1.00  0.00    -0.206 F 
ATOM     81  C   UNL A   1      45.304  33.654  33.208  1.00  0.00     0.040 A 
ATOM     82  C   UNL A   1      45.665  34.513  30.987  1.00  0.00     0.040 A 
ATOM     83  F   UNL A   1      45.151  33.190  29.119  1.00  0.00    -0.206 F 
ATOM     84  C   UNL A   1      45.717  34.686  32.369  1.00  0.00     0.006 A 
ENDBRANCH  60  77
ENDBRANCH  34  35
ENDBRANCH  26  29
ENDBRANCH  24  25
ENDBRANCH  23  24
ENDBRANCH  22  23
ENDBRANCH   1  22
TORSDOF 15
ENDMDL
MODEL 2
REMARK VINA RESULT:     -11.4      0.360      6.324
REMARK SMILES CC1(C)O[C@](C)(C(C)(C)O)CC[C@H]1C(=O)NCCCCCCNC(=O)c1ccc(-c2c3nc(c(-c4c(F)cccc4F)c4ccc([nH]4)c(-c4c(F)cccc4F)c4nc(c(-c5c(F)cccc5F)c5ccc2[nH]5)C=C4)C=C3)cc1
REMARK SMILES IDX 19 1 18 2 17 3 16 4 14 5 15 6 13 8 1 9 2 10 3 11 4 12 5 13
REMARK SMILES IDX 12 14 6 15 11 16 7 17 8 18 9 19 10 20 20 22 21 23 22 24
REMARK SMILES IDX 23 25 24 26 25 28 26 29 27 30 79 31 28 32 78 33 29 34 30 35
REMARK SMILES IDX 31 36 72 37 32 38 77 39 71 40 73 41 33 42 76 43 70 44 69 45
REMARK SMILES IDX 34 47 60 48 43 49 59 50 44 51 47 52 58 53 74 54 45 55 46 56
REMARK SMILES IDX 57 58 75 59 48 60 35 61 36 62 41 63 37 64 38 65 40 66 42 67
REMARK SMILES IDX 39 68 61 69 62 70 67 71 63 72 64 73 66 74 68 75 65 76 49 77
REMARK SMILES IDX 50 78 55 79 51 80 52 81 54 82 56 83 53 84
REMARK H PARENT 16 7 10 21 23 27 73 46 47 57
REMARK Flexibility Score: inf
ROOT
ATOM      1  C   UNL A   1      34.874  19.743  24.737  1.00  0.00     0.002 C 
ENDROOT
BRANCH   1   2
ATOM      2  C   UNL A   1      33.695  20.214  25.587  1.00  0.00     0.021 C 
BRANCH   2   3
ATOM      3  C   UNL A   1      33.048  21.513  25.108  1.00  0.00     0.116 C 
BRANCH   3   4
ATOM      4  N   UNL A   1      32.295  22.143  26.171  1.00  0.00    -0.356 N 
ATOM      5  C   UNL A   1      32.001  23.440  26.441  1.00  0.00     0.226 C 
ATOM      6  O   UNL A   1      31.428  23.658  27.514  1.00  0.00    -0.275 OA
ATOM      7  H   UNL A   1      31.926  21.508  26.827  1.00  0.00     0.163 HD
BRANCH   5   8
ATOM      8  C   UNL A   1      32.325  24.610  25.508  1.00  0.00     0.110 C 
ATOM      9  C   UNL A   1      29.868  25.581  25.621  1.00  0.00     0.043 C 
ATOM     10  C   UNL A   1      31.114  25.268  24.792  1.00  0.00     0.075 C 
ATOM     11  C   UNL A   1      30.621  24.299  23.688  1.00  0.00     0.043 C 
ATOM     12  O   UNL A   1      31.474  26.459  24.070  1.00  0.00    -0.366 OA
ATOM     13  C   UNL A   1      32.373  27.421  24.650  1.00  0.00     0.094 C 
ATOM     14  C   UNL A   1      33.396  25.559  26.056  1.00  0.00     0.019 C 
ATOM     15  C   UNL A   1      31.747  28.144  25.866  1.00  0.00     0.045 C 
ATOM     16  C   UNL A   1      33.666  26.700  25.080  1.00  0.00     0.039 C 
BRANCH  13  17
ATOM     17  C   UNL A   1      32.656  28.497  23.519  1.00  0.00     0.088 C 
ATOM     18  C   UNL A   1      33.643  27.993  22.451  1.00  0.00     0.045 C 
ATOM     19  C   UNL A   1      31.359  28.918  22.801  1.00  0.00     0.045 C 
BRANCH  17  20
ATOM     20  O   UNL A   1      33.229  29.675  24.108  1.00  0.00    -0.387 OA
ATOM     21  H   UNL A   1      34.174  29.529  24.270  1.00  0.00     0.211 HD
ENDBRANCH  17  20
ENDBRANCH  13  17
ENDBRANCH   5   8
ENDBRANCH   3   4
ENDBRANCH   2   3
ENDBRANCH   1   2
BRANCH   1  22
ATOM     22  C   UNL A   1      36.181  20.506  24.968  1.00  0.00     0.002 C 
BRANCH  22  23
ATOM     23  C   UNL A   1      37.452  19.653  24.943  1.00  0.00     0.021 C 
BRANCH  23  24
ATOM     24  C   UNL A   1      38.662  20.279  25.630  1.00  0.00     0.116 C 
BRANCH  24  25
ATOM     25  N   UNL A   1      39.758  19.335  25.769  1.00  0.00    -0.352 N 
ATOM     26  C   UNL A   1      41.070  19.569  26.094  1.00  0.00     0.251 C 
ATOM     27  H   UNL A   1      39.526  18.392  25.606  1.00  0.00     0.163 HD
ATOM     28  O   UNL A   1      41.912  18.690  25.954  1.00  0.00    -0.269 OA
BRANCH  26  29
ATOM     29  C   UNL A   1      41.467  20.896  26.608  1.00  0.00     0.039 A 
ATOM     30  C   UNL A   1      41.992  21.837  25.719  1.00  0.00     0.014 A 
ATOM     31  C   UNL A   1      41.333  21.201  27.965  1.00  0.00     0.014 A 
ATOM     32  C   UNL A   1      42.336  23.107  26.185  1.00  0.00     0.010 A 
ATOM     33  C   UNL A   1      41.612  22.487  28.414  1.00  0.00     0.010 A 
ATOM     34  C   UNL A   1      42.124  23.450  27.531  1.00  0.00    -0.014 A 
BRANCH  34  35
ATOM     35  C   UNL A   1      42.449  24.804  28.041  1.00  0.00     0.031 A 
ATOM     36  C   UNL A   1      43.861  25.139  28.434  1.00  0.00     0.074 A 
ATOM     37  C   UNL A   1      41.466  25.706  28.213  1.00  0.00     0.049 A 
ATOM     38  N   UNL A   1      44.332  26.235  28.973  1.00  0.00    -0.248 NA
ATOM     39  C   UNL A   1      44.871  24.091  28.221  1.00  0.00     0.031 C 
ATOM     40  C   UNL A   1      40.052  25.486  27.904  1.00  0.00     0.029 A 
ATOM     41  N   UNL A   1      41.505  26.987  28.700  1.00  0.00    -0.354 N 
ATOM     42  C   UNL A   1      45.686  26.003  29.174  1.00  0.00     0.074 A 
ATOM     43  C   UNL A   1      45.950  24.643  28.755  1.00  0.00     0.031 C 
ATOM     44  C   UNL A   1      39.362  26.603  28.187  1.00  0.00     0.029 A 
ATOM     45  C   UNL A   1      40.277  27.601  28.731  1.00  0.00     0.049 A 
ATOM     46  H   UNL A   1      42.334  27.426  28.998  1.00  0.00     0.167 HD
ATOM     47  C   UNL A   1      46.630  26.853  29.646  1.00  0.00     0.037 A 
ATOM     48  C   UNL A   1      39.929  28.831  29.156  1.00  0.00     0.037 A 
ATOM     49  C   UNL A   1      46.367  28.210  30.044  1.00  0.00     0.049 A 
ATOM     50  C   UNL A   1      40.989  29.752  29.691  1.00  0.00     0.074 A 
ATOM     51  C   UNL A   1      47.261  29.171  30.483  1.00  0.00     0.029 A 
ATOM     52  N   UNL A   1      45.110  28.799  30.053  1.00  0.00    -0.354 N 
ATOM     53  N   UNL A   1      42.277  29.541  29.820  1.00  0.00    -0.248 NA
ATOM     54  C   UNL A   1      40.549  31.082  30.134  1.00  0.00     0.031 C 
ATOM     55  C   UNL A   1      46.540  30.327  30.799  1.00  0.00     0.029 A 
ATOM     56  C   UNL A   1      45.202  30.103  30.511  1.00  0.00     0.049 A 
ATOM     57  H   UNL A   1      44.277  28.355  29.775  1.00  0.00     0.167 HD
ATOM     58  C   UNL A   1      42.806  30.720  30.331  1.00  0.00     0.074 A 
ATOM     59  C   UNL A   1      41.699  31.644  30.479  1.00  0.00     0.031 C 
ATOM     60  C   UNL A   1      44.091  31.011  30.646  1.00  0.00     0.037 A 
BRANCH  47  61
ATOM     61  C   UNL A   1      48.033  26.328  29.755  1.00  0.00     0.057 A 
ATOM     62  C   UNL A   1      48.945  26.428  28.695  1.00  0.00     0.134 A 
ATOM     63  C   UNL A   1      48.482  25.725  30.937  1.00  0.00     0.134 A 
ATOM     64  F   UNL A   1      48.576  26.983  27.531  1.00  0.00    -0.206 F 
ATOM     65  C   UNL A   1      50.239  25.914  28.793  1.00  0.00     0.040 A 
ATOM     66  C   UNL A   1      49.783  25.234  31.057  1.00  0.00     0.040 A 
ATOM     67  F   UNL A   1      47.665  25.603  31.993  1.00  0.00    -0.206 F 
ATOM     68  C   UNL A   1      50.663  25.318  29.979  1.00  0.00     0.006 A 
ENDBRANCH  47  61
BRANCH  48  69
ATOM     69  C   UNL A   1      38.514  29.272  29.061  1.00  0.00     0.057 A 
ATOM     70  C   UNL A   1      37.673  29.227  30.178  1.00  0.00     0.134 A 
ATOM     71  C   UNL A   1      37.974  29.754  27.864  1.00  0.00     0.134 A 
ATOM     72  F   UNL A   1      38.130  28.758  31.348  1.00  0.00    -0.206 F 
ATOM     73  C   UNL A   1      36.340  29.634  30.106  1.00  0.00     0.040 A 
ATOM     74  C   UNL A   1      36.649  30.187  27.782  1.00  0.00     0.040 A 
ATOM     75  F   UNL A   1      38.732  29.829  26.759  1.00  0.00    -0.206 F 
ATOM     76  C   UNL A   1      35.826  30.122  28.906  1.00  0.00     0.006 A 
ENDBRANCH  48  69
BRANCH  60  77
ATOM     77  C   UNL A   1      44.379  32.396  31.147  1.00  0.00     0.057 A 
ATOM     78  C   UNL A   1      44.381  32.703  32.514  1.00  0.00     0.134 A 
ATOM     79  C   UNL A   1      44.699  33.424  30.252  1.00  0.00     0.134 A 
ATOM     80  F   UNL A   1      44.068  31.766  33.421  1.00  0.00    -0.206 F 
ATOM     81  C   UNL A   1      44.673  33.989  32.971  1.00  0.00     0.040 A 
ATOM     82  C   UNL A   1      45.019  34.707  30.698  1.00  0.00     0.040 A 
ATOM     83  F   UNL A   1      44.722  33.194  28.930  1.00  0.00    -0.206 F 
ATOM     84  C   UNL A   1      45.001  34.993  32.061  1.00  0.00     0.006 A 
ENDBRANCH  60  77
ENDBRANCH  34  35
ENDBRANCH  26  29
ENDBRANCH  24  25
ENDBRANCH  23  24
ENDBRANCH  22  23
ENDBRANCH   1  22
TORSDOF 15
ENDMDL
MODEL 3
REMARK VINA RESULT:     -11.3      2.934      7.331
REMARK SMILES CC1(C)O[C@](C)(C(C)(C)O)CC[C@H]1C(=O)NCCCCCCNC(=O)c1ccc(-c2c3nc(c(-c4c(F)cccc4F)c4ccc([nH]4)c(-c4c(F)cccc4F)c4nc(c(-c5c(F)cccc5F)c5ccc2[nH]5)C=C4)C=C3)cc1
REMARK SMILES IDX 19 1 18 2 17 3 16 4 14 5 15 6 13 8 1 9 2 10 3 11 4 12 5 13
REMARK SMILES IDX 12 14 6 15 11 16 7 17 8 18 9 19 10 20 20 22 21 23 22 24
REMARK SMILES IDX 23 25 24 26 25 28 26 29 27 30 79 31 28 32 78 33 29 34 30 35
REMARK SMILES IDX 31 36 72 37 32 38 77 39 71 40 73 41 33 42 76 43 70 44 69 45
REMARK SMILES IDX 34 47 60 48 43 49 59 50 44 51 47 52 58 53 74 54 45 55 46 56
REMARK SMILES IDX 57 58 75 59 48 60 35 61 36 62 41 63 37 64 38 65 40 66 42 67
REMARK SMILES IDX 39 68 61 69 62 70 67 71 63 72 64 73 66 74 68 75 65 76 49 77
REMARK SMILES IDX 50 78 55 79 51 80 52 81 54 82 56 83 53 84
REMARK H PARENT 16 7 10 21 23 27 73 46 47 57
REMARK Flexibility Score: inf
ROOT
ATOM      1  C   UNL A   1      31.416  28.960  24.660  1.00  0.00     0.002 C 
ENDROOT
BRANCH   1   2
ATOM      2  C   UNL A   1      30.570  28.663  23.423  1.00  0.00     0.021 C 
BRANCH   2   3
ATOM      3  C   UNL A   1      30.563  27.194  23.000  1.00  0.00     0.116 C 
BRANCH   3   4
ATOM      4  N   UNL A   1      31.702  26.889  22.160  1.00  0.00    -0.356 N 
ATOM      5  C   UNL A   1      32.785  26.090  22.340  1.00  0.00     0.226 C 
ATOM      6  O   UNL A   1      33.653  26.142  21.462  1.00  0.00    -0.275 OA
ATOM      7  H   UNL A   1      31.690  27.351  21.291  1.00  0.00     0.163 HD
BRANCH   5   8
ATOM      8  C   UNL A   1      32.974  25.151  23.534  1.00  0.00     0.110 C 
ATOM      9  C   UNL A   1      33.002  22.983  22.019  1.00  0.00     0.043 C 
ATOM     10  C   UNL A   1      32.558  23.671  23.310  1.00  0.00     0.075 C 
ATOM     11  C   UNL A   1      31.010  23.604  23.283  1.00  0.00     0.043 C 
ATOM     12  O   UNL A   1      32.920  22.818  24.412  1.00  0.00    -0.366 OA
ATOM     13  C   UNL A   1      34.205  22.950  25.044  1.00  0.00     0.094 C 
ATOM     14  C   UNL A   1      34.276  25.387  24.306  1.00  0.00     0.019 C 
ATOM     15  C   UNL A   1      35.361  22.520  24.111  1.00  0.00     0.045 C 
ATOM     16  C   UNL A   1      34.401  24.417  25.477  1.00  0.00     0.039 C 
BRANCH  13  17
ATOM     17  C   UNL A   1      34.182  21.974  26.294  1.00  0.00     0.088 C 
ATOM     18  C   UNL A   1      33.490  22.594  27.522  1.00  0.00     0.045 C 
ATOM     19  C   UNL A   1      33.464  20.650  25.966  1.00  0.00     0.045 C 
BRANCH  17  20
ATOM     20  O   UNL A   1      35.528  21.653  26.681  1.00  0.00    -0.387 OA
ATOM     21  H   UNL A   1      36.095  22.431  26.555  1.00  0.00     0.211 HD
ENDBRANCH  17  20
ENDBRANCH  13  17
ENDBRANCH   5   8
ENDBRANCH   3   4
ENDBRANCH   2   3
ENDBRANCH   1   2
BRANCH   1  22
ATOM     22  C   UNL A   1      31.604  27.778  25.614  1.00  0.00     0.002 C 
BRANCH  22  23
ATOM     23  C   UNL A   1      32.638  27.989  26.724  1.00  0.00     0.021 C 
BRANCH  23  24
ATOM     24  C   UNL A   1      33.897  28.737  26.298  1.00  0.00     0.116 C 
BRANCH  24  25
ATOM     25  N   UNL A   1      33.848  30.141  26.669  1.00  0.00    -0.352 N 
ATOM     26  C   UNL A   1      34.638  30.835  27.549  1.00  0.00     0.251 C 
ATOM     27  H   UNL A   1      33.147  30.671  26.224  1.00  0.00     0.163 HD
ATOM     28  O   UNL A   1      34.325  31.963  27.911  1.00  0.00    -0.269 OA
BRANCH  26  29
ATOM     29  C   UNL A   1      35.871  30.209  28.069  1.00  0.00     0.039 A 
ATOM     30  C   UNL A   1      37.039  30.276  27.306  1.00  0.00     0.014 A 
ATOM     31  C   UNL A   1      35.866  29.548  29.300  1.00  0.00     0.014 A 
ATOM     32  C   UNL A   1      38.220  29.721  27.803  1.00  0.00     0.010 A 
ATOM     33  C   UNL A   1      37.057  29.057  29.824  1.00  0.00     0.010 A 
ATOM     34  C   UNL A   1      38.243  29.131  29.078  1.00  0.00    -0.014 A 
BRANCH  34  35
ATOM     35  C   UNL A   1      39.493  28.567  29.643  1.00  0.00     0.031 A 
ATOM     36  C   UNL A   1      40.124  29.200  30.851  1.00  0.00     0.074 A 
ATOM     37  C   UNL A   1      40.094  27.530  29.031  1.00  0.00     0.049 A 
ATOM     38  N   UNL A   1      41.251  28.907  31.446  1.00  0.00    -0.248 NA
ATOM     39  C   UNL A   1      39.404  30.334  31.451  1.00  0.00     0.031 C 
ATOM     40  C   UNL A   1      39.600  26.854  27.829  1.00  0.00     0.029 A 
ATOM     41  N   UNL A   1      41.257  26.869  29.329  1.00  0.00    -0.354 N 
ATOM     42  C   UNL A   1      41.382  29.826  32.479  1.00  0.00     0.074 A 
ATOM     43  C   UNL A   1      40.249  30.723  32.394  1.00  0.00     0.031 C 
ATOM     44  C   UNL A   1      40.443  25.859  27.508  1.00  0.00     0.029 A 
ATOM     45  C   UNL A   1      41.553  25.852  28.455  1.00  0.00     0.049 A 
ATOM     46  H   UNL A   1      41.827  27.101  30.098  1.00  0.00     0.167 HD
ATOM     47  C   UNL A   1      42.347  29.904  33.426  1.00  0.00     0.037 A 
ATOM     48  C   UNL A   1      42.604  25.011  28.420  1.00  0.00     0.037 A 
ATOM     49  C   UNL A   1      43.462  28.999  33.518  1.00  0.00     0.049 A 
ATOM     50  C   UNL A   1      43.672  25.125  29.472  1.00  0.00     0.074 A 
ATOM     51  C   UNL A   1      44.464  28.956  34.472  1.00  0.00     0.029 A 
ATOM     52  N   UNL A   1      43.722  27.974  32.618  1.00  0.00    -0.354 N 
ATOM     53  N   UNL A   1      43.753  25.961  30.479  1.00  0.00    -0.248 NA
ATOM     54  C   UNL A   1      44.791  24.178  29.385  1.00  0.00     0.031 C 
ATOM     55  C   UNL A   1      45.354  27.935  34.124  1.00  0.00     0.029 A 
ATOM     56  C   UNL A   1      44.881  27.309  32.981  1.00  0.00     0.049 A 
ATOM     57  H   UNL A   1      43.165  27.754  31.837  1.00  0.00     0.167 HD
ATOM     58  C   UNL A   1      44.914  25.622  31.162  1.00  0.00     0.074 A 
ATOM     59  C   UNL A   1      45.499  24.498  30.458  1.00  0.00     0.031 C 
ATOM     60  C   UNL A   1      45.446  26.188  32.272  1.00  0.00     0.037 A 
BRANCH  47  61
ATOM     61  C   UNL A   1      42.232  31.011  34.434  1.00  0.00     0.057 A 
ATOM     62  C   UNL A   1      41.513  30.853  35.627  1.00  0.00     0.134 A 
ATOM     63  C   UNL A   1      42.855  32.246  34.216  1.00  0.00     0.134 A 
ATOM     64  F   UNL A   1      40.881  29.700  35.893  1.00  0.00    -0.206 F 
ATOM     65  C   UNL A   1      41.386  31.895  36.548  1.00  0.00     0.040 A 
ATOM     66  C   UNL A   1      42.761  33.285  35.143  1.00  0.00     0.040 A 
ATOM     67  F   UNL A   1      43.566  32.464  33.100  1.00  0.00    -0.206 F 
ATOM     68  C   UNL A   1      42.016  33.115  36.309  1.00  0.00     0.006 A 
ENDBRANCH  47  61
BRANCH  48  69
ATOM     69  C   UNL A   1      42.679  23.966  27.369  1.00  0.00     0.057 A 
ATOM     70  C   UNL A   1      43.264  24.239  26.127  1.00  0.00     0.134 A 
ATOM     71  C   UNL A   1      42.181  22.676  27.579  1.00  0.00     0.134 A 
ATOM     72  F   UNL A   1      43.742  25.463  25.861  1.00  0.00    -0.206 F 
ATOM     73  C   UNL A   1      43.339  23.270  25.126  1.00  0.00     0.040 A 
ATOM     74  C   UNL A   1      42.271  21.689  26.596  1.00  0.00     0.040 A 
ATOM     75  F   UNL A   1      41.616  22.349  28.752  1.00  0.00    -0.206 F 
ATOM     76  C   UNL A   1      42.847  21.987  25.362  1.00  0.00     0.006 A 
ENDBRANCH  48  69
BRANCH  60  77
ATOM     77  C   UNL A   1      46.704  25.579  32.819  1.00  0.00     0.057 A 
ATOM     78  C   UNL A   1      47.972  25.990  32.389  1.00  0.00     0.134 A 
ATOM     79  C   UNL A   1      46.645  24.600  33.818  1.00  0.00     0.134 A 
ATOM     80  F   UNL A   1      48.096  26.914  31.424  1.00  0.00    -0.206 F 
ATOM     81  C   UNL A   1      49.137  25.434  32.921  1.00  0.00     0.040 A 
ATOM     82  C   UNL A   1      47.802  24.055  34.376  1.00  0.00     0.040 A 
ATOM     83  F   UNL A   1      45.461  24.168  34.279  1.00  0.00    -0.206 F 
ATOM     84  C   UNL A   1      49.053  24.470  33.923  1.00  0.00     0.006 A 
ENDBRANCH  60  77
ENDBRANCH  34  35
ENDBRANCH  26  29
ENDBRANCH  24  25
ENDBRANCH  23  24
ENDBRANCH  22  23
ENDBRANCH   1  22
TORSDOF 15
ENDMDL
