MODEL 1
REMARK VINA RESULT:     -11.3      0.000      0.000
REMARK SMILES NC(=O)C[NH+]1CCC([NH2+]Cc2cc(C(=O)NCCCCCCNC(=O)c3ccc(-c4c5nc(c(-c6c(F)cccc6F)c6ccc([nH]6)c(-c6c(F)cccc6F)c6nc(c(-c7c(F)cccc7F)c7ccc4[nH]7)C=C6)C=C5)cc3)cs2)CC1
REMARK SMILES IDX 18 1 17 2 16 3 14 4 15 5 13 7 11 8 12 9 81 10 80 11 10 12
REMARK SMILES IDX 9 13 8 16 5 17 6 18 83 19 7 21 82 22 4 23 2 24 1 25 3 28
REMARK SMILES IDX 19 29 20 30 21 31 22 32 23 33 24 34 25 36 26 37 27 38 79 39
REMARK SMILES IDX 28 40 78 41 29 42 30 43 31 44 72 45 32 46 77 47 71 48 73 49
REMARK SMILES IDX 33 50 76 51 70 52 69 53 34 55 60 56 43 57 59 58 44 59 47 60
REMARK SMILES IDX 58 61 74 62 45 63 46 64 57 66 75 67 48 68 35 69 36 70 41 71
REMARK SMILES IDX 37 72 38 73 40 74 42 75 39 76 61 77 62 78 67 79 63 80 64 81
REMARK SMILES IDX 66 82 68 83 65 84 49 85 50 86 55 87 51 88 52 89 54 90 56 91
REMARK SMILES IDX 53 92
REMARK H PARENT 16 6 9 14 9 15 5 20 1 26 1 27 23 35 73 54 47 65
REMARK Flexibility Score: inf
ROOT
ATOM      1  C   UNL A   1      36.267  22.568  24.140  1.00  0.00     0.021 C 
ENDROOT
BRANCH   1   2
ATOM      2  C   UNL A   1      35.905  23.656  25.147  1.00  0.00     0.116 C 
BRANCH   2   3
ATOM      3  N   UNL A   1      35.412  23.050  26.369  1.00  0.00    -0.352 N 
ATOM      4  C   UNL A   1      34.139  22.982  26.872  1.00  0.00     0.252 C 
ATOM      5  O   UNL A   1      33.945  22.346  27.903  1.00  0.00    -0.269 OA
ATOM      6  H   UNL A   1      36.101  22.619  26.924  1.00  0.00     0.163 HD
BRANCH   4   7
ATOM      7  C   UNL A   1      33.053  23.589  26.114  1.00  0.00     0.051 A 
ATOM      8  C   UNL A   1      31.681  25.212  25.106  1.00  0.00     0.059 A 
ATOM      9  C   UNL A   1      32.700  24.974  26.008  1.00  0.00     0.035 A 
ATOM     10  S   UNL A   1      31.153  23.749  24.382  1.00  0.00    -0.142 S 
ATOM     11  C   UNL A   1      32.158  22.815  25.399  1.00  0.00     0.079 A 
BRANCH   8  12
ATOM     12  C   UNL A   1      31.049  26.535  24.768  1.00  0.00     0.308 C 
BRANCH  12  13
ATOM     13  N   UNL A   1      31.530  27.125  23.519  1.00  0.00    -0.339 N 
ATOM     14  H   UNL A   1      32.273  27.783  23.754  1.00  0.00     0.346 HD
ATOM     15  H   UNL A   1      31.825  26.335  22.945  1.00  0.00     0.346 HD
BRANCH  13  16
ATOM     16  C   UNL A   1      30.536  27.847  22.700  1.00  0.00     0.194 C 
ATOM     17  N   UNL A   1      28.738  30.184  22.676  1.00  0.00    -0.327 N 
ATOM     18  C   UNL A   1      28.179  28.838  22.915  1.00  0.00     0.268 C 
ATOM     19  C   UNL A   1      29.813  30.068  21.688  1.00  0.00     0.268 C 
ATOM     20  H   UNL A   1      29.140  30.578  23.527  1.00  0.00     0.348 HD
ATOM     21  C   UNL A   1      29.222  27.883  23.502  1.00  0.00     0.126 C 
ATOM     22  C   UNL A   1      30.947  29.266  22.304  1.00  0.00     0.126 C 
BRANCH  17  23
ATOM     23  C   UNL A   1      27.654  31.108  22.259  1.00  0.00     0.363 C 
BRANCH  23  24
ATOM     24  C   UNL A   1      28.119  32.557  22.086  1.00  0.00     0.272 C 
ATOM     25  N   UNL A   1      29.089  32.986  22.944  1.00  0.00    -0.365 N 
ATOM     26  H   UNL A   1      29.428  33.908  22.882  1.00  0.00     0.159 HD
ATOM     27  H   UNL A   1      29.450  32.374  23.625  1.00  0.00     0.159 HD
ATOM     28  O   UNL A   1      27.665  33.306  21.225  1.00  0.00    -0.269 OA
ENDBRANCH  23  24
ENDBRANCH  17  23
ENDBRANCH  13  16
ENDBRANCH  12  13
ENDBRANCH   8  12
ENDBRANCH   4   7
ENDBRANCH   2   3
ENDBRANCH   1   2
BRANCH   1  29
ATOM     29  C   UNL A   1      37.390  21.657  24.645  1.00  0.00     0.002 C 
BRANCH  29  30
ATOM     30  C   UNL A   1      36.985  20.186  24.798  1.00  0.00     0.002 C 
BRANCH  30  31
ATOM     31  C   UNL A   1      38.158  19.222  24.993  1.00  0.00     0.021 C 
BRANCH  31  32
ATOM     32  C   UNL A   1      39.331  19.832  25.751  1.00  0.00     0.116 C 
BRANCH  32  33
ATOM     33  N   UNL A   1      40.403  18.866  25.930  1.00  0.00    -0.352 N 
ATOM     34  C   UNL A   1      41.747  19.089  26.089  1.00  0.00     0.251 C 
ATOM     35  H   UNL A   1      40.126  17.922  25.940  1.00  0.00     0.163 HD
ATOM     36  O   UNL A   1      42.549  18.169  25.970  1.00  0.00    -0.269 OA
BRANCH  34  37
ATOM     37  C   UNL A   1      42.219  20.452  26.397  1.00  0.00     0.039 A 
ATOM     38  C   UNL A   1      42.630  21.282  25.353  1.00  0.00     0.014 A 
ATOM     39  C   UNL A   1      42.252  20.904  27.720  1.00  0.00     0.014 A 
ATOM     40  C   UNL A   1      43.028  22.589  25.632  1.00  0.00     0.010 A 
ATOM     41  C   UNL A   1      42.571  22.229  27.986  1.00  0.00     0.010 A 
ATOM     42  C   UNL A   1      42.972  23.082  26.947  1.00  0.00    -0.014 A 
BRANCH  42  43
ATOM     43  C   UNL A   1      43.333  24.486  27.260  1.00  0.00     0.031 A 
ATOM     44  C   UNL A   1      44.771  24.921  27.210  1.00  0.00     0.074 A 
ATOM     45  C   UNL A   1      42.376  25.347  27.655  1.00  0.00     0.049 A 
ATOM     46  N   UNL A   1      45.297  26.075  27.528  1.00  0.00    -0.248 NA
ATOM     47  C   UNL A   1      45.752  23.914  26.771  1.00  0.00     0.031 C 
ATOM     48  C   UNL A   1      40.952  25.032  27.781  1.00  0.00     0.029 A 
ATOM     49  N   UNL A   1      42.459  26.663  28.034  1.00  0.00    -0.354 N 
ATOM     50  C   UNL A   1      46.666  25.931  27.341  1.00  0.00     0.074 A 
ATOM     51  C   UNL A   1      46.896  24.560  26.938  1.00  0.00     0.031 C 
ATOM     52  C   UNL A   1      40.293  26.128  28.187  1.00  0.00     0.029 A 
ATOM     53  C   UNL A   1      41.251  27.210  28.393  1.00  0.00     0.049 A 
ATOM     54  H   UNL A   1      43.304  27.168  28.048  1.00  0.00     0.167 HD
ATOM     55  C   UNL A   1      47.640  26.863  27.469  1.00  0.00     0.037 A 
ATOM     56  C   UNL A   1      40.952  28.441  28.850  1.00  0.00     0.037 A 
ATOM     57  C   UNL A   1      47.401  28.228  27.854  1.00  0.00     0.049 A 
ATOM     58  C   UNL A   1      42.056  29.451  29.007  1.00  0.00     0.074 A 
ATOM     59  C   UNL A   1      48.313  29.264  27.965  1.00  0.00     0.029 A 
ATOM     60  N   UNL A   1      46.162  28.747  28.198  1.00  0.00    -0.354 N 
ATOM     61  N   UNL A   1      43.338  29.320  28.765  1.00  0.00    -0.248 NA
ATOM     62  C   UNL A   1      41.670  30.782  29.496  1.00  0.00     0.031 C 
ATOM     63  C   UNL A   1      47.635  30.395  28.429  1.00  0.00     0.029 A 
ATOM     64  C   UNL A   1      46.289  30.082  28.546  1.00  0.00     0.049 A 
ATOM     65  H   UNL A   1      45.317  28.242  28.196  1.00  0.00     0.167 HD
ATOM     66  C   UNL A   1      43.906  30.559  29.037  1.00  0.00     0.074 A 
ATOM     67  C   UNL A   1      42.825  31.429  29.453  1.00  0.00     0.031 C 
ATOM     68  C   UNL A   1      45.202  30.940  28.946  1.00  0.00     0.037 A 
BRANCH  55  69
ATOM     69  C   UNL A   1      49.053  26.433  27.193  1.00  0.00     0.057 A 
ATOM     70  C   UNL A   1      49.621  26.530  25.917  1.00  0.00     0.134 A 
ATOM     71  C   UNL A   1      49.866  25.948  28.226  1.00  0.00     0.134 A 
ATOM     72  F   UNL A   1      48.895  26.976  24.880  1.00  0.00    -0.206 F 
ATOM     73  C   UNL A   1      50.938  26.134  25.670  1.00  0.00     0.040 A 
ATOM     74  C   UNL A   1      51.193  25.578  27.998  1.00  0.00     0.040 A 
ATOM     75  F   UNL A   1      49.390  25.834  29.475  1.00  0.00    -0.206 F 
ATOM     76  C   UNL A   1      51.730  25.663  26.715  1.00  0.00     0.006 A 
ENDBRANCH  55  69
BRANCH  56  77
ATOM     77  C   UNL A   1      39.546  28.794  29.174  1.00  0.00     0.057 A 
ATOM     78  C   UNL A   1      39.029  28.596  30.459  1.00  0.00     0.134 A 
ATOM     79  C   UNL A   1      38.683  29.325  28.208  1.00  0.00     0.134 A 
ATOM     80  F   UNL A   1      39.800  28.075  31.424  1.00  0.00    -0.206 F 
ATOM     81  C   UNL A   1      37.699  28.890  30.767  1.00  0.00     0.040 A 
ATOM     82  C   UNL A   1      37.360  29.650  28.508  1.00  0.00     0.040 A 
ATOM     83  F   UNL A   1      39.119  29.548  26.959  1.00  0.00    -0.206 F 
ATOM     84  C   UNL A   1      36.862  29.425  29.790  1.00  0.00     0.006 A 
ENDBRANCH  56  77
BRANCH  68  85
ATOM     85  C   UNL A   1      45.523  32.375  29.253  1.00  0.00     0.057 A 
ATOM     86  C   UNL A   1      45.925  32.792  30.528  1.00  0.00     0.134 A 
ATOM     87  C   UNL A   1      45.473  33.344  28.242  1.00  0.00     0.134 A 
ATOM     88  F   UNL A   1      45.982  31.918  31.544  1.00  0.00    -0.206 F 
ATOM     89  C   UNL A   1      46.242  34.126  30.791  1.00  0.00     0.040 A 
ATOM     90  C   UNL A   1      45.816  34.673  28.485  1.00  0.00     0.040 A 
ATOM     91  F   UNL A   1      45.104  33.010  26.996  1.00  0.00    -0.206 F 
ATOM     92  C   UNL A   1      46.197  35.069  29.766  1.00  0.00     0.006 A 
ENDBRANCH  68  85
ENDBRANCH  42  43
ENDBRANCH  34  37
ENDBRANCH  32  33
ENDBRANCH  31  32
ENDBRANCH  30  31
ENDBRANCH  29  30
ENDBRANCH   1  29
TORSDOF 18
ENDMDL
MODEL 2
REMARK VINA RESULT:     -11.2      5.372     10.612
REMARK SMILES NC(=O)C[NH+]1CCC([NH2+]Cc2cc(C(=O)NCCCCCCNC(=O)c3ccc(-c4c5nc(c(-c6c(F)cccc6F)c6ccc([nH]6)c(-c6c(F)cccc6F)c6nc(c(-c7c(F)cccc7F)c7ccc4[nH]7)C=C6)C=C5)cc3)cs2)CC1
REMARK SMILES IDX 18 1 17 2 16 3 14 4 15 5 13 7 11 8 12 9 81 10 80 11 10 12
REMARK SMILES IDX 9 13 8 16 5 17 6 18 83 19 7 21 82 22 4 23 2 24 1 25 3 28
REMARK SMILES IDX 19 29 20 30 21 31 22 32 23 33 24 34 25 36 26 37 27 38 79 39
REMARK SMILES IDX 28 40 78 41 29 42 30 43 31 44 72 45 32 46 77 47 71 48 73 49
REMARK SMILES IDX 33 50 76 51 70 52 69 53 34 55 60 56 43 57 59 58 44 59 47 60
REMARK SMILES IDX 58 61 74 62 45 63 46 64 57 66 75 67 48 68 35 69 36 70 41 71
REMARK SMILES IDX 37 72 38 73 40 74 42 75 39 76 61 77 62 78 67 79 63 80 64 81
REMARK SMILES IDX 66 82 68 83 65 84 49 85 50 86 55 87 51 88 52 89 54 90 56 91
REMARK SMILES IDX 53 92
REMARK H PARENT 16 6 9 14 9 15 5 20 1 26 1 27 23 35 73 54 47 65
REMARK Flexibility Score: inf
ROOT
ATOM      1  C   UNL A   1      33.677  29.600  27.022  1.00  0.00     0.021 C 
ENDROOT
BRANCH   1   2
ATOM      2  C   UNL A   1      34.124  28.437  26.141  1.00  0.00     0.116 C 
BRANCH   2   3
ATOM      3  N   UNL A   1      34.073  28.830  24.746  1.00  0.00    -0.352 N 
ATOM      4  C   UNL A   1      33.690  28.119  23.639  1.00  0.00     0.252 C 
ATOM      5  O   UNL A   1      33.659  28.688  22.553  1.00  0.00    -0.269 OA
ATOM      6  H   UNL A   1      34.359  29.755  24.566  1.00  0.00     0.163 HD
BRANCH   4   7
ATOM      7  C   UNL A   1      33.247  26.742  23.812  1.00  0.00     0.051 A 
ATOM      8  C   UNL A   1      33.299  24.415  24.152  1.00  0.00     0.059 A 
ATOM      9  C   UNL A   1      34.035  25.546  23.857  1.00  0.00     0.035 A 
ATOM     10  S   UNL A   1      31.644  24.807  24.379  1.00  0.00    -0.142 S 
ATOM     11  C   UNL A   1      31.903  26.429  23.913  1.00  0.00     0.079 A 
BRANCH   8  12
ATOM     12  C   UNL A   1      33.797  22.999  24.253  1.00  0.00     0.308 C 
BRANCH  12  13
ATOM     13  N   UNL A   1      33.068  22.048  23.414  1.00  0.00    -0.339 N 
ATOM     14  H   UNL A   1      32.303  22.553  22.967  1.00  0.00     0.346 HD
ATOM     15  H   UNL A   1      33.764  21.672  22.769  1.00  0.00     0.346 HD
BRANCH  13  16
ATOM     16  C   UNL A   1      32.492  20.871  24.092  1.00  0.00     0.194 C 
ATOM     17  N   UNL A   1      33.043  18.080  24.869  1.00  0.00    -0.327 N 
ATOM     18  C   UNL A   1      32.177  18.353  23.704  1.00  0.00     0.268 C 
ATOM     19  C   UNL A   1      32.774  19.093  25.892  1.00  0.00     0.268 C 
ATOM     20  H   UNL A   1      34.031  18.143  24.623  1.00  0.00     0.348 HD
ATOM     21  C   UNL A   1      32.482  19.716  23.074  1.00  0.00     0.126 C 
ATOM     22  C   UNL A   1      33.227  20.443  25.363  1.00  0.00     0.126 C 
BRANCH  17  23
ATOM     23  C   UNL A   1      32.818  16.692  25.343  1.00  0.00     0.363 C 
BRANCH  23  24
ATOM     24  C   UNL A   1      34.087  15.835  25.350  1.00  0.00     0.272 C 
ATOM     25  N   UNL A   1      35.273  16.512  25.340  1.00  0.00    -0.365 N 
ATOM     26  H   UNL A   1      36.123  16.016  25.344  1.00  0.00     0.159 HD
ATOM     27  H   UNL A   1      35.278  17.496  25.330  1.00  0.00     0.159 HD
ATOM     28  O   UNL A   1      34.065  14.607  25.372  1.00  0.00    -0.269 OA
ENDBRANCH  23  24
ENDBRANCH  17  23
ENDBRANCH  13  16
ENDBRANCH  12  13
ENDBRANCH   8  12
ENDBRANCH   4   7
ENDBRANCH   2   3
ENDBRANCH   1   2
BRANCH   1  29
ATOM     29  C   UNL A   1      32.154  29.765  27.043  1.00  0.00     0.002 C 
BRANCH  29  30
ATOM     30  C   UNL A   1      31.626  30.841  26.085  1.00  0.00     0.002 C 
BRANCH  30  31
ATOM     31  C   UNL A   1      31.382  32.204  26.736  1.00  0.00     0.021 C 
BRANCH  31  32
ATOM     32  C   UNL A   1      32.651  32.873  27.248  1.00  0.00     0.116 C 
BRANCH  32  33
ATOM     33  N   UNL A   1      32.416  34.270  27.580  1.00  0.00    -0.352 N 
ATOM     34  C   UNL A   1      32.962  35.020  28.589  1.00  0.00     0.251 C 
ATOM     35  H   UNL A   1      31.775  34.741  27.000  1.00  0.00     0.163 HD
ATOM     36  O   UNL A   1      32.473  36.102  28.896  1.00  0.00    -0.269 OA
BRANCH  34  37
ATOM     37  C   UNL A   1      34.144  34.509  29.307  1.00  0.00     0.039 A 
ATOM     38  C   UNL A   1      33.980  33.947  30.574  1.00  0.00     0.014 A 
ATOM     39  C   UNL A   1      35.412  34.586  28.724  1.00  0.00     0.014 A 
ATOM     40  C   UNL A   1      35.085  33.414  31.238  1.00  0.00     0.010 A 
ATOM     41  C   UNL A   1      36.496  33.984  29.350  1.00  0.00     0.010 A 
ATOM     42  C   UNL A   1      36.345  33.400  30.617  1.00  0.00    -0.014 A 
BRANCH  42  43
ATOM     43  C   UNL A   1      37.523  32.786  31.276  1.00  0.00     0.031 A 
ATOM     44  C   UNL A   1      38.189  31.587  30.661  1.00  0.00     0.074 A 
ATOM     45  C   UNL A   1      37.948  33.267  32.460  1.00  0.00     0.049 A 
ATOM     46  N   UNL A   1      39.173  30.860  31.123  1.00  0.00    -0.248 NA
ATOM     47  C   UNL A   1      37.657  31.127  29.367  1.00  0.00     0.031 C 
ATOM     48  C   UNL A   1      37.359  34.400  33.176  1.00  0.00     0.029 A 
ATOM     49  N   UNL A   1      38.970  32.854  33.277  1.00  0.00    -0.354 N 
ATOM     50  C   UNL A   1      39.370  29.853  30.187  1.00  0.00     0.074 A 
ATOM     51  C   UNL A   1      38.365  30.027  29.160  1.00  0.00     0.031 C 
ATOM     52  C   UNL A   1      38.041  34.605  34.313  1.00  0.00     0.029 A 
ATOM     53  C   UNL A   1      39.087  33.592  34.430  1.00  0.00     0.049 A 
ATOM     54  H   UNL A   1      39.565  32.100  33.059  1.00  0.00     0.167 HD
ATOM     55  C   UNL A   1      40.318  28.886  30.172  1.00  0.00     0.037 A 
ATOM     56  C   UNL A   1      39.932  33.459  35.470  1.00  0.00     0.037 A 
ATOM     57  C   UNL A   1      41.323  28.729  31.189  1.00  0.00     0.049 A 
ATOM     58  C   UNL A   1      40.960  32.361  35.440  1.00  0.00     0.074 A 
ATOM     59  C   UNL A   1      42.360  27.814  31.242  1.00  0.00     0.029 A 
ATOM     60  N   UNL A   1      41.416  29.505  32.335  1.00  0.00    -0.354 N 
ATOM     61  N   UNL A   1      41.176  31.455  34.518  1.00  0.00    -0.248 NA
ATOM     62  C   UNL A   1      41.864  32.271  36.595  1.00  0.00     0.031 C 
ATOM     63  C   UNL A   1      43.045  27.998  32.446  1.00  0.00     0.029 A 
ATOM     64  C   UNL A   1      42.476  29.071  33.114  1.00  0.00     0.049 A 
ATOM     65  H   UNL A   1      40.817  30.252  32.562  1.00  0.00     0.167 HD
ATOM     66  C   UNL A   1      42.263  30.711  34.963  1.00  0.00     0.074 A 
ATOM     67  C   UNL A   1      42.665  31.279  36.232  1.00  0.00     0.031 C 
ATOM     68  C   UNL A   1      42.873  29.656  34.371  1.00  0.00     0.037 A 
BRANCH  55  69
ATOM     69  C   UNL A   1      40.307  27.921  29.021  1.00  0.00     0.057 A 
ATOM     70  C   UNL A   1      41.071  28.134  27.867  1.00  0.00     0.134 A 
ATOM     71  C   UNL A   1      39.548  26.744  29.083  1.00  0.00     0.134 A 
ATOM     72  F   UNL A   1      41.812  29.246  27.737  1.00  0.00    -0.206 F 
ATOM     73  C   UNL A   1      41.061  27.229  26.804  1.00  0.00     0.040 A 
ATOM     74  C   UNL A   1      39.553  25.816  28.039  1.00  0.00     0.040 A 
ATOM     75  F   UNL A   1      38.797  26.472  30.160  1.00  0.00    -0.206 F 
ATOM     76  C   UNL A   1      40.305  26.062  26.892  1.00  0.00     0.006 A 
ENDBRANCH  55  69
BRANCH  56  77
ATOM     77  C   UNL A   1      39.855  34.399  36.617  1.00  0.00     0.057 A 
ATOM     78  C   UNL A   1      40.507  35.637  36.582  1.00  0.00     0.134 A 
ATOM     79  C   UNL A   1      39.140  34.081  37.778  1.00  0.00     0.134 A 
ATOM     80  F   UNL A   1      41.222  35.993  35.505  1.00  0.00    -0.206 F 
ATOM     81  C   UNL A   1      40.472  36.514  37.668  1.00  0.00     0.040 A 
ATOM     82  C   UNL A   1      39.072  34.960  38.860  1.00  0.00     0.040 A 
ATOM     83  F   UNL A   1      38.484  32.915  37.871  1.00  0.00    -0.206 F 
ATOM     84  C   UNL A   1      39.748  36.177  38.810  1.00  0.00     0.006 A 
ENDBRANCH  56  77
BRANCH  68  85
ATOM     85  C   UNL A   1      44.073  29.076  35.061  1.00  0.00     0.057 A 
ATOM     86  C   UNL A   1      45.373  29.527  34.802  1.00  0.00     0.134 A 
ATOM     87  C   UNL A   1      43.917  28.081  36.037  1.00  0.00     0.134 A 
ATOM     88  F   UNL A   1      45.594  30.467  33.871  1.00  0.00    -0.206 F 
ATOM     89  C   UNL A   1      46.477  28.992  35.470  1.00  0.00     0.040 A 
ATOM     90  C   UNL A   1      45.009  27.562  36.732  1.00  0.00     0.040 A 
ATOM     91  F   UNL A   1      42.698  27.611  36.341  1.00  0.00    -0.206 F 
ATOM     92  C   UNL A   1      46.295  28.013  36.444  1.00  0.00     0.006 A 
ENDBRANCH  68  85
ENDBRANCH  42  43
ENDBRANCH  34  37
ENDBRANCH  32  33
ENDBRANCH  31  32
ENDBRANCH  30  31
ENDBRANCH  29  30
ENDBRANCH   1  29
TORSDOF 18
ENDMDL
MODEL 3
REMARK VINA RESULT:     -11.2      5.106     10.125
REMARK SMILES NC(=O)C[NH+]1CCC([NH2+]Cc2cc(C(=O)NCCCCCCNC(=O)c3ccc(-c4c5nc(c(-c6c(F)cccc6F)c6ccc([nH]6)c(-c6c(F)cccc6F)c6nc(c(-c7c(F)cccc7F)c7ccc4[nH]7)C=C6)C=C5)cc3)cs2)CC1
REMARK SMILES IDX 18 1 17 2 16 3 14 4 15 5 13 7 11 8 12 9 81 10 80 11 10 12
REMARK SMILES IDX 9 13 8 16 5 17 6 18 83 19 7 21 82 22 4 23 2 24 1 25 3 28
REMARK SMILES IDX 19 29 20 30 21 31 22 32 23 33 24 34 25 36 26 37 27 38 79 39
REMARK SMILES IDX 28 40 78 41 29 42 30 43 31 44 72 45 32 46 77 47 71 48 73 49
REMARK SMILES IDX 33 50 76 51 70 52 69 53 34 55 60 56 43 57 59 58 44 59 47 60
REMARK SMILES IDX 58 61 74 62 45 63 46 64 57 66 75 67 48 68 35 69 36 70 41 71
REMARK SMILES IDX 37 72 38 73 40 74 42 75 39 76 61 77 62 78 67 79 63 80 64 81
REMARK SMILES IDX 66 82 68 83 65 84 49 85 50 86 55 87 51 88 52 89 54 90 56 91
REMARK SMILES IDX 53 92
REMARK H PARENT 16 6 9 14 9 15 5 20 1 26 1 27 23 35 73 54 47 65
REMARK Flexibility Score: inf
ROOT
ATOM      1  C   UNL A   1      33.389  29.235  27.200  1.00  0.00     0.021 C 
ENDROOT
BRANCH   1   2
ATOM      2  C   UNL A   1      33.814  28.113  26.257  1.00  0.00     0.116 C 
BRANCH   2   3
ATOM      3  N   UNL A   1      34.116  28.660  24.948  1.00  0.00    -0.352 N 
ATOM      4  C   UNL A   1      33.517  28.437  23.736  1.00  0.00     0.252 C 
ATOM      5  O   UNL A   1      33.900  29.075  22.761  1.00  0.00    -0.269 OA
ATOM      6  H   UNL A   1      34.871  29.291  24.928  1.00  0.00     0.163 HD
BRANCH   4   7
ATOM      7  C   UNL A   1      32.386  27.520  23.672  1.00  0.00     0.051 A 
ATOM      8  C   UNL A   1      31.138  25.527  23.662  1.00  0.00     0.059 A 
ATOM      9  C   UNL A   1      32.397  26.090  23.585  1.00  0.00     0.035 A 
ATOM     10  S   UNL A   1      29.938  26.740  23.843  1.00  0.00    -0.142 S 
ATOM     11  C   UNL A   1      31.085  27.988  23.643  1.00  0.00     0.079 A 
BRANCH   8  12
ATOM     12  C   UNL A   1      30.782  24.067  23.580  1.00  0.00     0.308 C 
BRANCH  12  13
ATOM     13  N   UNL A   1      30.529  23.440  24.877  1.00  0.00    -0.339 N 
ATOM     14  H   UNL A   1      30.307  24.182  25.541  1.00  0.00     0.346 HD
ATOM     15  H   UNL A   1      29.773  22.776  24.711  1.00  0.00     0.346 HD
BRANCH  13  16
ATOM     16  C   UNL A   1      31.628  22.639  25.453  1.00  0.00     0.194 C 
ATOM     17  N   UNL A   1      34.563  22.448  25.655  1.00  0.00    -0.327 N 
ATOM     18  C   UNL A   1      33.838  21.553  24.730  1.00  0.00     0.268 C 
ATOM     19  C   UNL A   1      33.749  22.625  26.859  1.00  0.00     0.268 C 
ATOM     20  H   UNL A   1      34.712  23.369  25.243  1.00  0.00     0.348 HD
ATOM     21  C   UNL A   1      32.504  22.157  24.282  1.00  0.00     0.126 C 
ATOM     22  C   UNL A   1      32.486  23.379  26.479  1.00  0.00     0.126 C 
BRANCH  17  23
ATOM     23  C   UNL A   1      35.910  21.892  25.933  1.00  0.00     0.363 C 
BRANCH  23  24
ATOM     24  C   UNL A   1      37.043  22.661  25.247  1.00  0.00     0.272 C 
ATOM     25  N   UNL A   1      38.246  22.020  25.168  1.00  0.00    -0.365 N 
ATOM     26  H   UNL A   1      39.012  22.464  24.738  1.00  0.00     0.159 HD
ATOM     27  H   UNL A   1      38.347  21.115  25.541  1.00  0.00     0.159 HD
ATOM     28  O   UNL A   1      36.898  23.786  24.777  1.00  0.00    -0.269 OA
ENDBRANCH  23  24
ENDBRANCH  17  23
ENDBRANCH  13  16
ENDBRANCH  12  13
ENDBRANCH   8  12
ENDBRANCH   4   7
ENDBRANCH   2   3
ENDBRANCH   1   2
BRANCH   1  29
ATOM     29  C   UNL A   1      31.908  29.594  27.051  1.00  0.00     0.002 C 
BRANCH  29  30
ATOM     30  C   UNL A   1      31.639  30.769  26.103  1.00  0.00     0.002 C 
BRANCH  30  31
ATOM     31  C   UNL A   1      31.407  32.109  26.804  1.00  0.00     0.021 C 
BRANCH  31  32
ATOM     32  C   UNL A   1      32.693  32.813  27.219  1.00  0.00     0.116 C 
BRANCH  32  33
ATOM     33  N   UNL A   1      32.449  34.208  27.554  1.00  0.00    -0.352 N 
ATOM     34  C   UNL A   1      32.986  34.957  28.568  1.00  0.00     0.251 C 
ATOM     35  H   UNL A   1      31.809  34.677  26.972  1.00  0.00     0.163 HD
ATOM     36  O   UNL A   1      32.489  36.036  28.876  1.00  0.00    -0.269 OA
BRANCH  34  37
ATOM     37  C   UNL A   1      34.167  34.450  29.291  1.00  0.00     0.039 A 
ATOM     38  C   UNL A   1      33.991  33.819  30.524  1.00  0.00     0.014 A 
ATOM     39  C   UNL A   1      35.446  34.599  28.746  1.00  0.00     0.014 A 
ATOM     40  C   UNL A   1      35.097  33.290  31.188  1.00  0.00     0.010 A 
ATOM     41  C   UNL A   1      36.534  34.003  29.369  1.00  0.00     0.010 A 
ATOM     42  C   UNL A   1      36.372  33.350  30.601  1.00  0.00    -0.014 A 
BRANCH  42  43
ATOM     43  C   UNL A   1      37.554  32.743  31.260  1.00  0.00     0.031 A 
ATOM     44  C   UNL A   1      38.221  31.543  30.649  1.00  0.00     0.074 A 
ATOM     45  C   UNL A   1      37.981  33.231  32.440  1.00  0.00     0.049 A 
ATOM     46  N   UNL A   1      39.209  30.821  31.111  1.00  0.00    -0.248 NA
ATOM     47  C   UNL A   1      37.687  31.074  29.359  1.00  0.00     0.031 C 
ATOM     48  C   UNL A   1      37.391  34.366  33.152  1.00  0.00     0.029 A 
ATOM     49  N   UNL A   1      39.007  32.826  33.256  1.00  0.00    -0.354 N 
ATOM     50  C   UNL A   1      39.406  29.810  30.180  1.00  0.00     0.074 A 
ATOM     51  C   UNL A   1      38.398  29.976  29.155  1.00  0.00     0.031 C 
ATOM     52  C   UNL A   1      38.077  34.579  34.286  1.00  0.00     0.029 A 
ATOM     53  C   UNL A   1      39.125  33.570  34.405  1.00  0.00     0.049 A 
ATOM     54  H   UNL A   1      39.603  32.072  33.039  1.00  0.00     0.167 HD
ATOM     55  C   UNL A   1      40.356  28.846  30.167  1.00  0.00     0.037 A 
ATOM     56  C   UNL A   1      39.974  33.445  35.442  1.00  0.00     0.037 A 
ATOM     57  C   UNL A   1      41.366  28.697  31.181  1.00  0.00     0.049 A 
ATOM     58  C   UNL A   1      41.005  32.350  35.415  1.00  0.00     0.074 A 
ATOM     59  C   UNL A   1      42.405  27.785  31.235  1.00  0.00     0.029 A 
ATOM     60  N   UNL A   1      41.460  29.479  32.323  1.00  0.00    -0.354 N 
ATOM     61  N   UNL A   1      41.222  31.440  34.497  1.00  0.00    -0.248 NA
ATOM     62  C   UNL A   1      41.914  32.268  36.567  1.00  0.00     0.031 C 
ATOM     63  C   UNL A   1      43.094  27.978  32.437  1.00  0.00     0.029 A 
ATOM     64  C   UNL A   1      42.524  29.053  33.101  1.00  0.00     0.049 A 
ATOM     65  H   UNL A   1      40.859  30.225  32.548  1.00  0.00     0.167 HD
ATOM     66  C   UNL A   1      42.311  30.701  34.942  1.00  0.00     0.074 A 
ATOM     67  C   UNL A   1      42.716  31.277  36.207  1.00  0.00     0.031 C 
ATOM     68  C   UNL A   1      42.923  29.645  34.353  1.00  0.00     0.037 A 
BRANCH  55  69
ATOM     69  C   UNL A   1      40.345  27.874  29.021  1.00  0.00     0.057 A 
ATOM     70  C   UNL A   1      39.575  26.705  29.049  1.00  0.00     0.134 A 
ATOM     71  C   UNL A   1      41.088  28.129  27.861  1.00  0.00     0.134 A 
ATOM     72  F   UNL A   1      38.848  26.394  30.133  1.00  0.00    -0.206 F 
ATOM     73  C   UNL A   1      39.564  25.809  27.977  1.00  0.00     0.040 A 
ATOM     74  C   UNL A   1      41.062  27.257  26.771  1.00  0.00     0.040 A 
ATOM     75  F   UNL A   1      41.844  29.233  27.762  1.00  0.00    -0.206 F 
ATOM     76  C   UNL A   1      40.305  26.089  26.830  1.00  0.00     0.006 A 
ENDBRANCH  55  69
BRANCH  56  77
ATOM     77  C   UNL A   1      39.898  34.391  36.585  1.00  0.00     0.057 A 
ATOM     78  C   UNL A   1      40.571  35.618  36.554  1.00  0.00     0.134 A 
ATOM     79  C   UNL A   1      39.163  34.089  37.737  1.00  0.00     0.134 A 
ATOM     80  F   UNL A   1      41.306  35.958  35.485  1.00  0.00    -0.206 F 
ATOM     81  C   UNL A   1      40.537  36.499  37.636  1.00  0.00     0.040 A 
ATOM     82  C   UNL A   1      39.096  34.973  38.815  1.00  0.00     0.040 A 
ATOM     83  F   UNL A   1      38.486  32.934  37.827  1.00  0.00    -0.206 F 
ATOM     84  C   UNL A   1      39.793  36.179  38.770  1.00  0.00     0.006 A 
ENDBRANCH  56  77
BRANCH  68  85
ATOM     85  C   UNL A   1      44.127  29.072  35.043  1.00  0.00     0.057 A 
ATOM     86  C   UNL A   1      44.028  28.035  35.978  1.00  0.00     0.134 A 
ATOM     87  C   UNL A   1      45.412  29.537  34.728  1.00  0.00     0.134 A 
ATOM     88  F   UNL A   1      42.828  27.552  36.334  1.00  0.00    -0.206 F 
ATOM     89  C   UNL A   1      45.160  27.497  36.593  1.00  0.00     0.040 A 
ATOM     90  C   UNL A   1      46.552  28.988  35.313  1.00  0.00     0.040 A 
ATOM     91  F   UNL A   1      45.579  30.523  33.833  1.00  0.00    -0.206 F 
ATOM     92  C   UNL A   1      46.428  27.968  36.255  1.00  0.00     0.006 A 
ENDBRANCH  68  85
ENDBRANCH  42  43
ENDBRANCH  34  37
ENDBRANCH  32  33
ENDBRANCH  31  32
ENDBRANCH  30  31
ENDBRANCH  29  30
ENDBRANCH   1  29
TORSDOF 18
ENDMDL
