MODEL 1
REMARK VINA RESULT:      -9.0      0.000      0.000
REMARK SMILES Cc1sc(C(=O)NCCCCCCNC(=O)c2ccc(-c3c4nc(c(-c5c(F)cccc5F)c5ccc([nH]5)c(-c5c(F)cccc5F)c5nc(c(-c6c(F)cccc6F)c6ccc3[nH]6)C=C5)C=C4)cc2)cc1Br
REMARK SMILES IDX 11 1 10 2 9 3 8 4 7 5 5 6 6 7 4 9 1 10 2 11 3 12 72 13 71 14
REMARK SMILES IDX 73 15 12 16 13 17 14 18 15 19 16 21 17 22 18 23 70 24 19 25
REMARK SMILES IDX 69 26 20 27 21 28 22 29 63 30 23 31 68 32 62 33 64 34 24 35
REMARK SMILES IDX 67 36 61 37 60 38 25 40 51 41 34 42 50 43 35 44 38 45 49 46
REMARK SMILES IDX 65 47 36 48 37 49 48 51 66 52 39 53 26 54 27 55 32 56 28 57
REMARK SMILES IDX 29 58 31 59 33 60 30 61 52 62 53 63 58 64 54 65 55 66 57 67
REMARK SMILES IDX 59 68 56 69 40 70 41 71 46 72 42 73 43 74 45 75 47 76 44 77
REMARK H PARENT 7 8 14 20 64 39 38 50
REMARK Flexibility Score: inf
ROOT
ATOM      1  C   UNL A   1      44.871  20.554  24.031  1.00  0.00     0.002 C 
ENDROOT
BRANCH   1   2
ATOM      2  C   UNL A   1      46.086  21.213  24.700  1.00  0.00     0.002 C 
BRANCH   2   3
ATOM      3  C   UNL A   1      45.757  22.329  25.705  1.00  0.00     0.021 C 
BRANCH   3   4
ATOM      4  C   UNL A   1      45.406  23.663  25.045  1.00  0.00     0.116 C 
BRANCH   4   5
ATOM      5  N   UNL A   1      46.575  24.513  24.958  1.00  0.00    -0.351 N 
ATOM      6  C   UNL A   1      46.774  25.857  25.150  1.00  0.00     0.261 C 
ATOM      7  O   UNL A   1      47.946  26.224  25.017  1.00  0.00    -0.268 OA
ATOM      8  H   UNL A   1      47.395  24.026  24.711  1.00  0.00     0.163 HD
BRANCH   6   9
ATOM      9  C   UNL A   1      45.689  26.766  25.503  1.00  0.00     0.093 A 
ATOM     10  C   UNL A   1      44.206  29.989  27.244  1.00  0.00     0.057 C 
ATOM     11  C   UNL A   1      44.496  28.720  26.517  1.00  0.00     0.016 A 
ATOM     12  S   UNL A   1      46.107  28.148  26.455  1.00  0.00    -0.134 S 
ATOM     13  C   UNL A   1      43.662  27.879  25.822  1.00  0.00     0.032 A 
ATOM     14  C   UNL A   1      44.339  26.792  25.202  1.00  0.00     0.041 A 
ATOM     15  Br  UNL A   1      41.792  28.080  25.628  1.00  0.00    -0.050 Br
ENDBRANCH   6   9
ENDBRANCH   4   5
ENDBRANCH   3   4
ENDBRANCH   2   3
ENDBRANCH   1   2
BRANCH   1  16
ATOM     16  C   UNL A   1      44.598  19.108  24.453  1.00  0.00     0.021 C 
BRANCH  16  17
ATOM     17  C   UNL A   1      43.827  18.961  25.761  1.00  0.00     0.116 C 
BRANCH  17  18
ATOM     18  N   UNL A   1      42.397  18.814  25.536  1.00  0.00    -0.352 N 
ATOM     19  C   UNL A   1      41.361  19.605  25.964  1.00  0.00     0.251 C 
ATOM     20  H   UNL A   1      42.135  18.033  24.997  1.00  0.00     0.163 HD
ATOM     21  O   UNL A   1      40.203  19.219  25.850  1.00  0.00    -0.269 OA
BRANCH  19  22
ATOM     22  C   UNL A   1      41.639  20.922  26.579  1.00  0.00     0.039 A 
ATOM     23  C   UNL A   1      41.637  21.029  27.973  1.00  0.00     0.014 A 
ATOM     24  C   UNL A   1      41.871  22.051  25.788  1.00  0.00     0.014 A 
ATOM     25  C   UNL A   1      41.923  22.257  28.575  1.00  0.00     0.010 A 
ATOM     26  C   UNL A   1      42.219  23.259  26.389  1.00  0.00     0.010 A 
ATOM     27  C   UNL A   1      42.244  23.375  27.788  1.00  0.00    -0.014 A 
BRANCH  27  28
ATOM     28  C   UNL A   1      42.605  24.674  28.408  1.00  0.00     0.031 A 
ATOM     29  C   UNL A   1      41.560  25.741  28.590  1.00  0.00     0.074 A 
ATOM     30  C   UNL A   1      43.885  24.917  28.748  1.00  0.00     0.049 A 
ATOM     31  N   UNL A   1      41.696  26.962  29.041  1.00  0.00    -0.248 NA
ATOM     32  C   UNL A   1      40.187  25.398  28.188  1.00  0.00     0.031 C 
ATOM     33  C   UNL A   1      44.998  23.980  28.583  1.00  0.00     0.029 A 
ATOM     34  N   UNL A   1      44.468  26.034  29.294  1.00  0.00    -0.354 N 
ATOM     35  C   UNL A   1      40.434  27.537  28.960  1.00  0.00     0.074 A 
ATOM     36  C   UNL A   1      39.555  26.548  28.376  1.00  0.00     0.031 C 
ATOM     37  C   UNL A   1      46.125  24.553  29.035  1.00  0.00     0.029 A 
ATOM     38  C   UNL A   1      45.822  25.907  29.489  1.00  0.00     0.049 A 
ATOM     39  H   UNL A   1      43.965  26.847  29.523  1.00  0.00     0.167 HD
ATOM     40  C   UNL A   1      40.041  28.772  29.354  1.00  0.00     0.037 A 
ATOM     41  C   UNL A   1      46.719  26.787  29.973  1.00  0.00     0.037 A 
ATOM     42  C   UNL A   1      40.909  29.743  29.966  1.00  0.00     0.049 A 
ATOM     43  C   UNL A   1      46.255  28.149  30.405  1.00  0.00     0.074 A 
ATOM     44  C   UNL A   1      40.589  30.995  30.461  1.00  0.00     0.029 A 
ATOM     45  N   UNL A   1      42.270  29.570  30.165  1.00  0.00    -0.354 N 
ATOM     46  N   UNL A   1      45.046  28.656  30.383  1.00  0.00    -0.248 NA
ATOM     47  C   UNL A   1      47.279  29.060  30.935  1.00  0.00     0.031 C 
ATOM     48  C   UNL A   1      41.764  31.596  30.925  1.00  0.00     0.029 A 
ATOM     49  C   UNL A   1      42.808  30.700  30.758  1.00  0.00     0.049 A 
ATOM     50  H   UNL A   1      42.779  28.763  29.921  1.00  0.00     0.167 HD
ATOM     51  C   UNL A   1      45.159  29.931  30.921  1.00  0.00     0.074 A 
ATOM     52  C   UNL A   1      46.551  30.117  31.271  1.00  0.00     0.031 C 
ATOM     53  C   UNL A   1      44.195  30.865  31.109  1.00  0.00     0.037 A 
BRANCH  40  54
ATOM     54  C   UNL A   1      38.602  29.142  29.141  1.00  0.00     0.057 A 
ATOM     55  C   UNL A   1      37.665  29.091  30.182  1.00  0.00     0.134 A 
ATOM     56  C   UNL A   1      38.157  29.594  27.893  1.00  0.00     0.134 A 
ATOM     57  F   UNL A   1      38.024  28.656  31.398  1.00  0.00    -0.206 F 
ATOM     58  C   UNL A   1      36.332  29.454  29.982  1.00  0.00     0.040 A 
ATOM     59  C   UNL A   1      36.833  29.983  27.687  1.00  0.00     0.040 A 
ATOM     60  F   UNL A   1      39.004  29.672  26.855  1.00  0.00    -0.206 F 
ATOM     61  C   UNL A   1      35.914  29.909  28.733  1.00  0.00     0.006 A 
ENDBRANCH  40  54
BRANCH  41  62
ATOM     62  C   UNL A   1      48.147  26.400  30.099  1.00  0.00     0.057 A 
ATOM     63  C   UNL A   1      48.631  25.810  31.272  1.00  0.00     0.134 A 
ATOM     64  C   UNL A   1      49.060  26.623  29.063  1.00  0.00     0.134 A 
ATOM     65  F   UNL A   1      47.807  25.590  32.306  1.00  0.00    -0.206 F 
ATOM     66  C   UNL A   1      49.977  25.471  31.418  1.00  0.00     0.040 A 
ATOM     67  C   UNL A   1      50.405  26.267  29.187  1.00  0.00     0.040 A 
ATOM     68  F   UNL A   1      48.657  27.178  27.911  1.00  0.00    -0.206 F 
ATOM     69  C   UNL A   1      50.868  25.697  30.370  1.00  0.00     0.006 A 
ENDBRANCH  41  62
BRANCH  53  70
ATOM     70  C   UNL A   1      44.606  32.155  31.754  1.00  0.00     0.057 A 
ATOM     71  C   UNL A   1      45.013  33.261  30.999  1.00  0.00     0.134 A 
ATOM     72  C   UNL A   1      44.559  32.302  33.146  1.00  0.00     0.134 A 
ATOM     73  F   UNL A   1      45.094  33.179  29.661  1.00  0.00    -0.206 F 
ATOM     74  C   UNL A   1      45.377  34.463  31.606  1.00  0.00     0.040 A 
ATOM     75  C   UNL A   1      44.897  33.505  33.764  1.00  0.00     0.040 A 
ATOM     76  F   UNL A   1      44.170  31.282  33.926  1.00  0.00    -0.206 F 
ATOM     77  C   UNL A   1      45.313  34.590  32.993  1.00  0.00     0.006 A 
ENDBRANCH  53  70
ENDBRANCH  27  28
ENDBRANCH  19  22
ENDBRANCH  17  18
ENDBRANCH  16  17
ENDBRANCH   1  16
TORSDOF 13
ENDMDL
MODEL 2
REMARK VINA RESULT:      -8.7      0.582      6.676
REMARK SMILES Cc1sc(C(=O)NCCCCCCNC(=O)c2ccc(-c3c4nc(c(-c5c(F)cccc5F)c5ccc([nH]5)c(-c5c(F)cccc5F)c5nc(c(-c6c(F)cccc6F)c6ccc3[nH]6)C=C5)C=C4)cc2)cc1Br
REMARK SMILES IDX 11 1 10 2 9 3 8 4 7 5 5 6 6 7 4 9 1 10 2 11 3 12 72 13 71 14
REMARK SMILES IDX 73 15 12 16 13 17 14 18 15 19 16 21 17 22 18 23 70 24 19 25
REMARK SMILES IDX 69 26 20 27 21 28 22 29 63 30 23 31 68 32 62 33 64 34 24 35
REMARK SMILES IDX 67 36 61 37 60 38 25 40 51 41 34 42 50 43 35 44 38 45 49 46
REMARK SMILES IDX 65 47 36 48 37 49 48 51 66 52 39 53 26 54 27 55 32 56 28 57
REMARK SMILES IDX 29 58 31 59 33 60 30 61 52 62 53 63 58 64 54 65 55 66 57 67
REMARK SMILES IDX 59 68 56 69 40 70 41 71 46 72 42 73 43 74 45 75 47 76 44 77
REMARK H PARENT 7 8 14 20 64 39 38 50
REMARK Flexibility Score: inf
ROOT
ATOM      1  C   UNL A   1      44.876  20.983  23.942  1.00  0.00     0.002 C 
ENDROOT
BRANCH   1   2
ATOM      2  C   UNL A   1      45.444  21.823  25.094  1.00  0.00     0.002 C 
BRANCH   2   3
ATOM      3  C   UNL A   1      46.261  23.054  24.670  1.00  0.00     0.021 C 
BRANCH   3   4
ATOM      4  C   UNL A   1      46.665  23.954  25.838  1.00  0.00     0.116 C 
BRANCH   4   5
ATOM      5  N   UNL A   1      47.557  25.003  25.390  1.00  0.00    -0.351 N 
ATOM      6  C   UNL A   1      47.418  26.363  25.267  1.00  0.00     0.261 C 
ATOM      7  O   UNL A   1      48.433  26.946  24.873  1.00  0.00    -0.268 OA
ATOM      8  H   UNL A   1      48.444  24.672  25.118  1.00  0.00     0.163 HD
BRANCH   6   9
ATOM      9  C   UNL A   1      46.178  27.056  25.597  1.00  0.00     0.093 A 
ATOM     10  C   UNL A   1      44.056  29.772  27.530  1.00  0.00     0.057 C 
ATOM     11  C   UNL A   1      44.606  28.668  26.693  1.00  0.00     0.016 A 
ATOM     12  S   UNL A   1      46.283  28.337  26.753  1.00  0.00    -0.134 S 
ATOM     13  C   UNL A   1      43.983  27.823  25.807  1.00  0.00     0.032 A 
ATOM     14  C   UNL A   1      44.876  26.937  25.144  1.00  0.00     0.041 A 
ATOM     15  Br  UNL A   1      42.132  27.790  25.419  1.00  0.00    -0.050 Br
ENDBRANCH   6   9
ENDBRANCH   4   5
ENDBRANCH   3   4
ENDBRANCH   2   3
ENDBRANCH   1   2
BRANCH   1  16
ATOM     16  C   UNL A   1      44.770  19.481  24.219  1.00  0.00     0.021 C 
BRANCH  16  17
ATOM     17  C   UNL A   1      44.103  19.124  25.544  1.00  0.00     0.116 C 
BRANCH  17  18
ATOM     18  N   UNL A   1      42.664  18.967  25.403  1.00  0.00    -0.352 N 
ATOM     19  C   UNL A   1      41.648  19.740  25.908  1.00  0.00     0.251 C 
ATOM     20  H   UNL A   1      42.376  18.192  24.868  1.00  0.00     0.163 HD
ATOM     21  O   UNL A   1      40.489  19.344  25.857  1.00  0.00    -0.269 OA
BRANCH  19  22
ATOM     22  C   UNL A   1      41.952  21.049  26.527  1.00  0.00     0.039 A 
ATOM     23  C   UNL A   1      42.084  22.170  25.703  1.00  0.00     0.014 A 
ATOM     24  C   UNL A   1      42.132  21.167  27.909  1.00  0.00     0.014 A 
ATOM     25  C   UNL A   1      42.344  23.420  26.269  1.00  0.00     0.010 A 
ATOM     26  C   UNL A   1      42.328  22.424  28.477  1.00  0.00     0.010 A 
ATOM     27  C   UNL A   1      42.439  23.562  27.663  1.00  0.00    -0.014 A 
BRANCH  27  28
ATOM     28  C   UNL A   1      42.660  24.890  28.288  1.00  0.00     0.031 A 
ATOM     29  C   UNL A   1      44.005  25.241  28.863  1.00  0.00     0.074 A 
ATOM     30  C   UNL A   1      41.633  25.754  28.395  1.00  0.00     0.049 A 
ATOM     31  N   UNL A   1      44.371  26.317  29.512  1.00  0.00    -0.248 NA
ATOM     32  C   UNL A   1      45.072  24.240  28.710  1.00  0.00     0.031 C 
ATOM     33  C   UNL A   1      40.271  25.515  27.915  1.00  0.00     0.029 A 
ATOM     34  N   UNL A   1      41.574  27.007  28.954  1.00  0.00    -0.354 N 
ATOM     35  C   UNL A   1      45.700  26.114  29.861  1.00  0.00     0.074 A 
ATOM     36  C   UNL A   1      46.065  24.796  29.390  1.00  0.00     0.031 C 
ATOM     37  C   UNL A   1      39.516  26.592  28.182  1.00  0.00     0.029 A 
ATOM     38  C   UNL A   1      40.329  27.582  28.882  1.00  0.00     0.049 A 
ATOM     39  H   UNL A   1      42.349  27.450  29.367  1.00  0.00     0.167 HD
ATOM     40  C   UNL A   1      46.545  26.959  30.498  1.00  0.00     0.037 A 
ATOM     41  C   UNL A   1      39.891  28.772  29.337  1.00  0.00     0.037 A 
ATOM     42  C   UNL A   1      46.191  28.283  30.937  1.00  0.00     0.049 A 
ATOM     43  C   UNL A   1      40.850  29.690  30.038  1.00  0.00     0.074 A 
ATOM     44  C   UNL A   1      46.997  29.239  31.531  1.00  0.00     0.029 A 
ATOM     45  N   UNL A   1      44.925  28.838  30.828  1.00  0.00    -0.354 N 
ATOM     46  N   UNL A   1      42.122  29.512  30.303  1.00  0.00    -0.248 NA
ATOM     47  C   UNL A   1      40.315  30.979  30.501  1.00  0.00     0.031 C 
ATOM     48  C   UNL A   1      46.208  30.359  31.817  1.00  0.00     0.029 A 
ATOM     49  C   UNL A   1      44.922  30.116  31.362  1.00  0.00     0.049 A 
ATOM     50  H   UNL A   1      44.144  28.390  30.430  1.00  0.00     0.167 HD
ATOM     51  C   UNL A   1      42.545  30.674  30.935  1.00  0.00     0.074 A 
ATOM     52  C   UNL A   1      41.398  31.555  31.005  1.00  0.00     0.031 C 
ATOM     53  C   UNL A   1      43.774  30.984  31.414  1.00  0.00     0.037 A 
BRANCH  40  54
ATOM     54  C   UNL A   1      47.943  26.477  30.757  1.00  0.00     0.057 A 
ATOM     55  C   UNL A   1      48.971  26.660  29.822  1.00  0.00     0.134 A 
ATOM     56  C   UNL A   1      48.274  25.860  31.969  1.00  0.00     0.134 A 
ATOM     57  F   UNL A   1      48.717  27.234  28.637  1.00  0.00    -0.206 F 
ATOM     58  C   UNL A   1      50.273  26.226  30.076  1.00  0.00     0.040 A 
ATOM     59  C   UNL A   1      49.578  25.444  32.245  1.00  0.00     0.040 A 
ATOM     60  F   UNL A   1      47.339  25.659  32.910  1.00  0.00    -0.206 F 
ATOM     61  C   UNL A   1      50.581  25.623  31.293  1.00  0.00     0.006 A 
ENDBRANCH  40  54
BRANCH  41  62
ATOM     62  C   UNL A   1      38.478  29.176  29.121  1.00  0.00     0.057 A 
ATOM     63  C   UNL A   1      38.049  29.652  27.876  1.00  0.00     0.134 A 
ATOM     64  C   UNL A   1      37.532  29.112  30.149  1.00  0.00     0.134 A 
ATOM     65  F   UNL A   1      38.915  29.754  26.858  1.00  0.00    -0.206 F 
ATOM     66  C   UNL A   1      36.733  30.067  27.667  1.00  0.00     0.040 A 
ATOM     67  C   UNL A   1      36.207  29.502  29.947  1.00  0.00     0.040 A 
ATOM     68  F   UNL A   1      37.879  28.658  31.363  1.00  0.00    -0.206 F 
ATOM     69  C   UNL A   1      35.806  29.989  28.705  1.00  0.00     0.006 A 
ENDBRANCH  41  62
BRANCH  53  70
ATOM     70  C   UNL A   1      43.951  32.343  32.023  1.00  0.00     0.057 A 
ATOM     71  C   UNL A   1      43.767  32.570  33.391  1.00  0.00     0.134 A 
ATOM     72  C   UNL A   1      44.344  33.430  31.232  1.00  0.00     0.134 A 
ATOM     73  F   UNL A   1      43.376  31.572  34.200  1.00  0.00    -0.206 F 
ATOM     74  C   UNL A   1      43.950  33.834  33.951  1.00  0.00     0.040 A 
ATOM     75  C   UNL A   1      44.554  34.694  31.783  1.00  0.00     0.040 A 
ATOM     76  F   UNL A   1      44.544  33.279  29.914  1.00  0.00    -0.206 F 
ATOM     77  C   UNL A   1      44.352  34.900  33.148  1.00  0.00     0.006 A 
ENDBRANCH  53  70
ENDBRANCH  27  28
ENDBRANCH  19  22
ENDBRANCH  17  18
ENDBRANCH  16  17
ENDBRANCH   1  16
TORSDOF 13
ENDMDL
MODEL 3
REMARK VINA RESULT:      -8.6      2.589      7.478
REMARK SMILES Cc1sc(C(=O)NCCCCCCNC(=O)c2ccc(-c3c4nc(c(-c5c(F)cccc5F)c5ccc([nH]5)c(-c5c(F)cccc5F)c5nc(c(-c6c(F)cccc6F)c6ccc3[nH]6)C=C5)C=C4)cc2)cc1Br
REMARK SMILES IDX 11 1 10 2 9 3 8 4 7 5 5 6 6 7 4 9 1 10 2 11 3 12 72 13 71 14
REMARK SMILES IDX 73 15 12 16 13 17 14 18 15 19 16 21 17 22 18 23 70 24 19 25
REMARK SMILES IDX 69 26 20 27 21 28 22 29 63 30 23 31 68 32 62 33 64 34 24 35
REMARK SMILES IDX 67 36 61 37 60 38 25 40 51 41 34 42 50 43 35 44 38 45 49 46
REMARK SMILES IDX 65 47 36 48 37 49 48 51 66 52 39 53 26 54 27 55 32 56 28 57
REMARK SMILES IDX 29 58 31 59 33 60 30 61 52 62 53 63 58 64 54 65 55 66 57 67
REMARK SMILES IDX 59 68 56 69 40 70 41 71 46 72 42 73 43 74 45 75 47 76 44 77
REMARK H PARENT 7 8 14 20 64 39 38 50
REMARK Flexibility Score: inf
ROOT
ATOM      1  C   UNL A   1      41.995  19.621  26.132  1.00  0.00     0.002 C 
ENDROOT
BRANCH   1   2
ATOM      2  C   UNL A   1      43.192  18.665  26.236  1.00  0.00     0.002 C 
BRANCH   2   3
ATOM      3  C   UNL A   1      44.034  18.526  24.958  1.00  0.00     0.021 C 
BRANCH   3   4
ATOM      4  C   UNL A   1      45.206  19.505  24.887  1.00  0.00     0.116 C 
BRANCH   4   5
ATOM      5  N   UNL A   1      44.906  20.596  23.983  1.00  0.00    -0.351 N 
ATOM      6  C   UNL A   1      44.744  21.947  24.165  1.00  0.00     0.261 C 
ATOM      7  O   UNL A   1      44.525  22.579  23.126  1.00  0.00    -0.268 OA
ATOM      8  H   UNL A   1      44.795  20.310  23.048  1.00  0.00     0.163 HD
BRANCH   6   9
ATOM      9  C   UNL A   1      44.847  22.578  25.476  1.00  0.00     0.093 A 
ATOM     10  C   UNL A   1      46.646  24.826  28.183  1.00  0.00     0.057 C 
ATOM     11  C   UNL A   1      45.776  23.933  27.366  1.00  0.00     0.016 A 
ATOM     12  S   UNL A   1      46.247  23.551  25.766  1.00  0.00    -0.134 S 
ATOM     13  C   UNL A   1      44.577  23.336  27.667  1.00  0.00     0.032 A 
ATOM     14  C   UNL A   1      44.018  22.605  26.583  1.00  0.00     0.041 A 
ATOM     15  Br  UNL A   1      43.666  23.446  29.321  1.00  0.00    -0.050 Br
ENDBRANCH   6   9
ENDBRANCH   4   5
ENDBRANCH   3   4
ENDBRANCH   2   3
ENDBRANCH   1   2
BRANCH   1  16
ATOM     16  C   UNL A   1      41.379  20.044  27.469  1.00  0.00     0.021 C 
BRANCH  16  17
ATOM     17  C   UNL A   1      40.778  21.446  27.478  1.00  0.00     0.116 C 
BRANCH  17  18
ATOM     18  N   UNL A   1      39.662  21.565  26.553  1.00  0.00    -0.352 N 
ATOM     19  C   UNL A   1      38.890  22.659  26.253  1.00  0.00     0.251 C 
ATOM     20  H   UNL A   1      39.425  20.739  26.071  1.00  0.00     0.163 HD
ATOM     21  O   UNL A   1      37.862  22.527  25.598  1.00  0.00    -0.269 OA
BRANCH  19  22
ATOM     22  C   UNL A   1      39.289  24.001  26.731  1.00  0.00     0.039 A 
ATOM     23  C   UNL A   1      38.924  24.392  28.024  1.00  0.00     0.014 A 
ATOM     24  C   UNL A   1      39.994  24.880  25.904  1.00  0.00     0.014 A 
ATOM     25  C   UNL A   1      39.313  25.644  28.505  1.00  0.00     0.010 A 
ATOM     26  C   UNL A   1      40.436  26.102  26.408  1.00  0.00     0.010 A 
ATOM     27  C   UNL A   1      40.096  26.497  27.711  1.00  0.00    -0.014 A 
BRANCH  27  28
ATOM     28  C   UNL A   1      40.567  27.808  28.223  1.00  0.00     0.031 A 
ATOM     29  C   UNL A   1      42.038  28.071  28.393  1.00  0.00     0.074 A 
ATOM     30  C   UNL A   1      39.668  28.738  28.597  1.00  0.00     0.049 A 
ATOM     31  N   UNL A   1      42.638  29.121  28.893  1.00  0.00    -0.248 NA
ATOM     32  C   UNL A   1      42.954  27.002  27.966  1.00  0.00     0.031 C 
ATOM     33  C   UNL A   1      38.213  28.588  28.523  1.00  0.00     0.029 A 
ATOM     34  N   UNL A   1      39.846  29.992  29.127  1.00  0.00    -0.354 N 
ATOM     35  C   UNL A   1      43.996  28.831  28.859  1.00  0.00     0.074 A 
ATOM     36  C   UNL A   1      44.131  27.492  28.331  1.00  0.00     0.031 C 
ATOM     37  C   UNL A   1      37.632  29.713  28.970  1.00  0.00     0.029 A 
ATOM     38  C   UNL A   1      38.669  30.648  29.396  1.00  0.00     0.049 A 
ATOM     39  H   UNL A   1      40.732  30.384  29.298  1.00  0.00     0.167 HD
ATOM     40  C   UNL A   1      45.038  29.619  29.219  1.00  0.00     0.037 A 
ATOM     41  C   UNL A   1      38.452  31.864  29.932  1.00  0.00     0.037 A 
ATOM     42  C   UNL A   1      44.905  30.964  29.714  1.00  0.00     0.049 A 
ATOM     43  C   UNL A   1      39.625  32.718  30.319  1.00  0.00     0.074 A 
ATOM     44  C   UNL A   1      45.903  31.865  30.040  1.00  0.00     0.029 A 
ATOM     45  N   UNL A   1      43.697  31.600  29.953  1.00  0.00    -0.354 N 
ATOM     46  N   UNL A   1      40.906  32.457  30.221  1.00  0.00    -0.248 NA
ATOM     47  C   UNL A   1      39.324  34.039  30.889  1.00  0.00     0.031 C 
ATOM     48  C   UNL A   1      45.299  33.034  30.514  1.00  0.00     0.029 A 
ATOM     49  C   UNL A   1      43.924  32.876  30.442  1.00  0.00     0.049 A 
ATOM     50  H   UNL A   1      42.809  31.205  29.798  1.00  0.00     0.167 HD
ATOM     51  C   UNL A   1      41.563  33.589  30.687  1.00  0.00     0.074 A 
ATOM     52  C   UNL A   1      40.539  34.544  31.058  1.00  0.00     0.031 C 
ATOM     53  C   UNL A   1      42.893  33.818  30.797  1.00  0.00     0.037 A 
BRANCH  40  54
ATOM     54  C   UNL A   1      46.419  29.047  29.085  1.00  0.00     0.057 A 
ATOM     55  C   UNL A   1      47.159  29.174  27.901  1.00  0.00     0.134 A 
ATOM     56  C   UNL A   1      47.032  28.397  30.163  1.00  0.00     0.134 A 
ATOM     57  F   UNL A   1      46.625  29.776  26.828  1.00  0.00    -0.206 F 
ATOM     58  C   UNL A   1      48.449  28.656  27.789  1.00  0.00     0.040 A 
ATOM     59  C   UNL A   1      48.331  27.896  30.071  1.00  0.00     0.040 A 
ATOM     60  F   UNL A   1      46.381  28.246  31.326  1.00  0.00    -0.206 F 
ATOM     61  C   UNL A   1      49.042  28.021  28.878  1.00  0.00     0.006 A 
ENDBRANCH  40  54
BRANCH  41  62
ATOM     62  C   UNL A   1      37.064  32.360  30.112  1.00  0.00     0.057 A 
ATOM     63  C   UNL A   1      36.340  32.062  31.272  1.00  0.00     0.134 A 
ATOM     64  C   UNL A   1      36.427  33.127  29.132  1.00  0.00     0.134 A 
ATOM     65  F   UNL A   1      36.892  31.315  32.239  1.00  0.00    -0.206 F 
ATOM     66  C   UNL A   1      35.023  32.493  31.443  1.00  0.00     0.040 A 
ATOM     67  C   UNL A   1      35.118  33.585  29.299  1.00  0.00     0.040 A 
ATOM     68  F   UNL A   1      37.070  33.453  28.001  1.00  0.00    -0.206 F 
ATOM     69  C   UNL A   1      34.410  33.261  30.454  1.00  0.00     0.006 A 
ENDBRANCH  41  62
BRANCH  53  70
ATOM     70  C   UNL A   1      43.319  35.163  31.306  1.00  0.00     0.057 A 
ATOM     71  C   UNL A   1      43.597  36.226  30.439  1.00  0.00     0.134 A 
ATOM     72  C   UNL A   1      43.417  35.405  32.682  1.00  0.00     0.134 A 
ATOM     73  F   UNL A   1      43.534  36.054  29.109  1.00  0.00    -0.206 F 
ATOM     74  C   UNL A   1      43.975  37.479  30.922  1.00  0.00     0.040 A 
ATOM     75  C   UNL A   1      43.772  36.659  33.178  1.00  0.00     0.040 A 
ATOM     76  F   UNL A   1      43.157  34.430  33.566  1.00  0.00    -0.206 F 
ATOM     77  C   UNL A   1      44.057  37.701  32.295  1.00  0.00     0.006 A 
ENDBRANCH  53  70
ENDBRANCH  27  28
ENDBRANCH  19  22
ENDBRANCH  17  18
ENDBRANCH  16  17
ENDBRANCH   1  16
TORSDOF 13
ENDMDL
