MODEL 1
REMARK VINA RESULT:     -10.0      0.000      0.000
REMARK SMILES CCCCCCNC(=O)Oc1cccc(-c2ccc([C@@H](C)C(=O)NCCCCCCNC(=O)c3ccc(-c4c5nc(c(-c6c(F)cccc6F)c6ccc([nH]6)c(-c6c(F)cccc6F)c6nc(c(-c7c(F)cccc7F)c7ccc4[nH]7)C=C6)C=C5)cc3)cc2)c1
REMARK SMILES IDX 22 1 23 2 24 3 20 5 21 6 19 7 16 8 17 9 89 10 18 11 88 12
REMARK SMILES IDX 15 13 11 14 12 15 90 16 13 17 14 18 10 19 8 20 7 21 9 23
REMARK SMILES IDX 6 24 5 25 4 26 3 27 2 28 1 29 25 30 26 31 27 32 28 33 29 34
REMARK SMILES IDX 30 35 31 36 32 37 33 39 34 40 35 41 87 42 36 43 86 44 37 45
REMARK SMILES IDX 38 46 39 47 80 48 40 49 85 50 79 51 81 52 41 53 84 54 78 55
REMARK SMILES IDX 77 56 42 58 68 59 51 60 67 61 52 62 55 63 66 64 82 65 53 66
REMARK SMILES IDX 54 67 65 69 83 70 56 71 43 72 44 73 49 74 45 75 46 76 48 77
REMARK SMILES IDX 50 78 47 79 69 80 70 81 75 82 71 83 72 84 74 85 76 86 73 87
REMARK SMILES IDX 57 88 58 89 63 90 59 91 60 92 62 93 64 94 61 95
REMARK H PARENT 24 4 7 22 31 38 81 57 55 68
REMARK Flexibility Score: inf
ROOT
ATOM      1  C   UNL A   1      37.439  32.173  29.108  1.00  0.00     0.227 C 
ATOM      2  O   UNL A   1      37.534  33.373  28.820  1.00  0.00    -0.274 OA
ATOM      3  N   UNL A   1      38.544  31.411  28.887  1.00  0.00    -0.356 N 
ATOM      4  H   UNL A   1      39.331  31.919  28.587  1.00  0.00     0.163 HD
ENDROOT
BRANCH   1   5
ATOM      5  C   UNL A   1      36.132  31.633  29.706  1.00  0.00     0.105 C 
ATOM      6  C   UNL A   1      36.328  30.808  30.979  1.00  0.00     0.023 C 
BRANCH   5   7
ATOM      7  C   UNL A   1      35.180  31.041  28.678  1.00  0.00    -0.036 A 
ATOM      8  C   UNL A   1      33.379  29.826  26.815  1.00  0.00    -0.018 A 
ATOM      9  C   UNL A   1      33.204  31.144  27.262  1.00  0.00     0.009 A 
ATOM     10  C   UNL A   1      34.493  29.133  27.314  1.00  0.00     0.009 A 
ATOM     11  C   UNL A   1      34.104  31.750  28.143  1.00  0.00     0.005 A 
ATOM     12  C   UNL A   1      35.366  29.720  28.243  1.00  0.00     0.005 A 
BRANCH   8  13
ATOM     13  C   UNL A   1      32.425  29.216  25.859  1.00  0.00    -0.015 A 
ATOM     14  C   UNL A   1      31.443  27.284  24.757  1.00  0.00     0.133 A 
ATOM     15  C   UNL A   1      30.567  28.090  24.037  1.00  0.00     0.047 A 
ATOM     16  C   UNL A   1      32.364  27.827  25.655  1.00  0.00     0.056 A 
ATOM     17  C   UNL A   1      30.608  29.465  24.222  1.00  0.00     0.004 A 
ATOM     18  C   UNL A   1      31.534  30.017  25.112  1.00  0.00     0.009 A 
BRANCH  14  19
ATOM     19  O   UNL A   1      31.451  25.920  24.428  1.00  0.00    -0.410 OA
BRANCH  19  20
ATOM     20  C   UNL A   1      30.830  25.022  25.280  1.00  0.00     0.412 C 
ATOM     21  N   UNL A   1      30.596  23.811  24.687  1.00  0.00    -0.321 N 
ATOM     22  H   UNL A   1      30.141  23.131  25.234  1.00  0.00     0.167 HD
ATOM     23  O   UNL A   1      30.494  25.237  26.437  1.00  0.00    -0.224 OA
BRANCH  21  24
ATOM     24  C   UNL A   1      30.953  23.430  23.335  1.00  0.00     0.119 C 
BRANCH  24  25
ATOM     25  C   UNL A   1      32.140  22.470  23.307  1.00  0.00     0.021 C 
BRANCH  25  26
ATOM     26  C   UNL A   1      33.343  22.963  22.493  1.00  0.00     0.002 C 
BRANCH  26  27
ATOM     27  C   UNL A   1      34.292  23.914  23.231  1.00  0.00    -0.000 C 
BRANCH  27  28
ATOM     28  C   UNL A   1      34.484  23.624  24.722  1.00  0.00    -0.003 C 
ATOM     29  C   UNL A   1      34.583  24.883  25.571  1.00  0.00     0.004 C 
ENDBRANCH  27  28
ENDBRANCH  26  27
ENDBRANCH  25  26
ENDBRANCH  24  25
ENDBRANCH  21  24
ENDBRANCH  19  20
ENDBRANCH  14  19
ENDBRANCH   8  13
ENDBRANCH   5   7
ENDBRANCH   1   5
BRANCH   3  30
ATOM     30  C   UNL A   1      38.770  29.987  29.013  1.00  0.00     0.116 C 
BRANCH  30  31
ATOM     31  C   UNL A   1      38.981  29.324  27.651  1.00  0.00     0.021 C 
BRANCH  31  32
ATOM     32  C   UNL A   1      40.327  28.604  27.517  1.00  0.00     0.002 C 
BRANCH  32  33
ATOM     33  C   UNL A   1      40.610  27.545  28.591  1.00  0.00     0.002 C 
BRANCH  33  34
ATOM     34  C   UNL A   1      39.795  26.252  28.470  1.00  0.00     0.021 C 
BRANCH  34  35
ATOM     35  C   UNL A   1      39.663  25.714  27.048  1.00  0.00     0.116 C 
BRANCH  35  36
ATOM     36  N   UNL A   1      40.211  24.372  26.925  1.00  0.00    -0.352 N 
ATOM     37  C   UNL A   1      41.485  23.973  26.608  1.00  0.00     0.251 C 
ATOM     38  H   UNL A   1      39.572  23.643  27.094  1.00  0.00     0.163 HD
ATOM     39  O   UNL A   1      41.711  22.801  26.321  1.00  0.00    -0.269 OA
BRANCH  37  40
ATOM     40  C   UNL A   1      42.589  24.955  26.605  1.00  0.00     0.039 A 
ATOM     41  C   UNL A   1      42.925  25.594  25.408  1.00  0.00     0.014 A 
ATOM     42  C   UNL A   1      43.313  25.220  27.771  1.00  0.00     0.014 A 
ATOM     43  C   UNL A   1      43.954  26.539  25.392  1.00  0.00     0.010 A 
ATOM     44  C   UNL A   1      44.294  26.208  27.768  1.00  0.00     0.010 A 
ATOM     45  C   UNL A   1      44.628  26.872  26.578  1.00  0.00    -0.014 A 
BRANCH  45  46
ATOM     46  C   UNL A   1      45.701  27.899  26.595  1.00  0.00     0.031 A 
ATOM     47  C   UNL A   1      45.343  29.356  26.701  1.00  0.00     0.074 A 
ATOM     48  C   UNL A   1      46.987  27.527  26.456  1.00  0.00     0.049 A 
ATOM     49  N   UNL A   1      46.120  30.407  26.630  1.00  0.00    -0.248 NA
ATOM     50  C   UNL A   1      43.918  29.675  26.888  1.00  0.00     0.031 C 
ATOM     51  C   UNL A   1      47.461  26.148  26.317  1.00  0.00     0.029 A 
ATOM     52  N   UNL A   1      48.134  28.279  26.394  1.00  0.00    -0.354 N 
ATOM     53  C   UNL A   1      45.280  31.507  26.754  1.00  0.00     0.074 A 
ATOM     54  C   UNL A   1      43.929  30.999  26.852  1.00  0.00     0.031 C 
ATOM     55  C   UNL A   1      48.800  26.152  26.204  1.00  0.00     0.029 A 
ATOM     56  C   UNL A   1      49.275  27.532  26.223  1.00  0.00     0.049 A 
ATOM     57  H   UNL A   1      48.138  29.261  26.467  1.00  0.00     0.167 HD
ATOM     58  C   UNL A   1      45.607  32.820  26.807  1.00  0.00     0.037 A 
ATOM     59  C   UNL A   1      50.557  27.920  26.084  1.00  0.00     0.037 A 
ATOM     60  C   UNL A   1      46.953  33.322  26.732  1.00  0.00     0.049 A 
ATOM     61  C   UNL A   1      50.889  29.387  26.120  1.00  0.00     0.074 A 
ATOM     62  C   UNL A   1      47.390  34.633  26.803  1.00  0.00     0.029 A 
ATOM     63  N   UNL A   1      48.082  32.532  26.576  1.00  0.00    -0.354 N 
ATOM     64  N   UNL A   1      50.088  30.413  26.277  1.00  0.00    -0.248 NA
ATOM     65  C   UNL A   1      52.304  29.750  25.963  1.00  0.00     0.031 C 
ATOM     66  C   UNL A   1      48.780  34.640  26.659  1.00  0.00     0.029 A 
ATOM     67  C   UNL A   1      49.213  33.329  26.541  1.00  0.00     0.049 A 
ATOM     68  H   UNL A   1      48.078  31.551  26.503  1.00  0.00     0.167 HD
ATOM     69  C   UNL A   1      50.905  31.536  26.277  1.00  0.00     0.074 A 
ATOM     70  C   UNL A   1      52.264  31.066  26.112  1.00  0.00     0.031 C 
ATOM     71  C   UNL A   1      50.561  32.841  26.402  1.00  0.00     0.037 A 
BRANCH  58  72
ATOM     72  C   UNL A   1      44.489  33.807  26.970  1.00  0.00     0.057 A 
ATOM     73  C   UNL A   1      43.846  34.375  25.862  1.00  0.00     0.134 A 
ATOM     74  C   UNL A   1      44.018  34.159  28.241  1.00  0.00     0.134 A 
ATOM     75  F   UNL A   1      44.256  34.087  24.617  1.00  0.00    -0.206 F 
ATOM     76  C   UNL A   1      42.788  35.271  26.012  1.00  0.00     0.040 A 
ATOM     77  C   UNL A   1      42.943  35.035  28.403  1.00  0.00     0.040 A 
ATOM     78  F   UNL A   1      44.585  33.648  29.344  1.00  0.00    -0.206 F 
ATOM     79  C   UNL A   1      42.328  35.598  27.286  1.00  0.00     0.006 A 
ENDBRANCH  58  72
BRANCH  59  80
ATOM     80  C   UNL A   1      51.633  26.911  25.913  1.00  0.00     0.057 A 
ATOM     81  C   UNL A   1      52.333  26.411  27.018  1.00  0.00     0.134 A 
ATOM     82  C   UNL A   1      52.013  26.451  24.647  1.00  0.00     0.134 A 
ATOM     83  F   UNL A   1      52.027  26.829  28.255  1.00  0.00    -0.206 F 
ATOM     84  C   UNL A   1      53.391  25.512  26.869  1.00  0.00     0.040 A 
ATOM     85  C   UNL A   1      53.052  25.532  24.486  1.00  0.00     0.040 A 
ATOM     86  F   UNL A   1      51.379  26.886  23.548  1.00  0.00    -0.206 F 
ATOM     87  C   UNL A   1      53.751  25.069  25.599  1.00  0.00     0.006 A 
ENDBRANCH  59  80
BRANCH  71  88
ATOM     88  C   UNL A   1      51.673  33.846  26.423  1.00  0.00     0.057 A 
ATOM     89  C   UNL A   1      52.298  34.235  27.614  1.00  0.00     0.134 A 
ATOM     90  C   UNL A   1      52.151  34.402  25.229  1.00  0.00     0.134 A 
ATOM     91  F   UNL A   1      51.878  33.750  28.792  1.00  0.00    -0.206 F 
ATOM     92  C   UNL A   1      53.347  35.156  27.619  1.00  0.00     0.040 A 
ATOM     93  C   UNL A   1      53.215  35.303  25.218  1.00  0.00     0.040 A 
ATOM     94  F   UNL A   1      51.600  34.064  24.053  1.00  0.00    -0.206 F 
ATOM     95  C   UNL A   1      53.812  35.687  26.417  1.00  0.00     0.006 A 
ENDBRANCH  71  88
ENDBRANCH  45  46
ENDBRANCH  37  40
ENDBRANCH  35  36
ENDBRANCH  34  35
ENDBRANCH  33  34
ENDBRANCH  32  33
ENDBRANCH  31  32
ENDBRANCH  30  31
ENDBRANCH   3  30
TORSDOF 22
ENDMDL
MODEL 2
REMARK VINA RESULT:     -10.0      0.626      5.854
REMARK SMILES CCCCCCNC(=O)Oc1cccc(-c2ccc([C@@H](C)C(=O)NCCCCCCNC(=O)c3ccc(-c4c5nc(c(-c6c(F)cccc6F)c6ccc([nH]6)c(-c6c(F)cccc6F)c6nc(c(-c7c(F)cccc7F)c7ccc4[nH]7)C=C6)C=C5)cc3)cc2)c1
REMARK SMILES IDX 22 1 23 2 24 3 20 5 21 6 19 7 16 8 17 9 89 10 18 11 88 12
REMARK SMILES IDX 15 13 11 14 12 15 90 16 13 17 14 18 10 19 8 20 7 21 9 23
REMARK SMILES IDX 6 24 5 25 4 26 3 27 2 28 1 29 25 30 26 31 27 32 28 33 29 34
REMARK SMILES IDX 30 35 31 36 32 37 33 39 34 40 35 41 87 42 36 43 86 44 37 45
REMARK SMILES IDX 38 46 39 47 80 48 40 49 85 50 79 51 81 52 41 53 84 54 78 55
REMARK SMILES IDX 77 56 42 58 68 59 51 60 67 61 52 62 55 63 66 64 82 65 53 66
REMARK SMILES IDX 54 67 65 69 83 70 56 71 43 72 44 73 49 74 45 75 46 76 48 77
REMARK SMILES IDX 50 78 47 79 69 80 70 81 75 82 71 83 72 84 74 85 76 86 73 87
REMARK SMILES IDX 57 88 58 89 63 90 59 91 60 92 62 93 64 94 61 95
REMARK H PARENT 24 4 7 22 31 38 81 57 55 68
REMARK Flexibility Score: inf
ROOT
ATOM      1  C   UNL A   1      37.400  31.929  28.948  1.00  0.00     0.227 C 
ATOM      2  O   UNL A   1      37.426  33.126  28.638  1.00  0.00    -0.274 OA
ATOM      3  N   UNL A   1      38.541  31.222  28.721  1.00  0.00    -0.356 N 
ATOM      4  H   UNL A   1      39.295  31.767  28.400  1.00  0.00     0.163 HD
ENDROOT
BRANCH   1   5
ATOM      5  C   UNL A   1      36.134  31.329  29.577  1.00  0.00     0.105 C 
ATOM      6  C   UNL A   1      36.402  30.482  30.823  1.00  0.00     0.023 C 
BRANCH   5   7
ATOM      7  C   UNL A   1      35.167  30.729  28.568  1.00  0.00    -0.036 A 
ATOM      8  C   UNL A   1      33.348  29.494  26.736  1.00  0.00    -0.018 A 
ATOM      9  C   UNL A   1      33.117  30.775  27.259  1.00  0.00     0.009 A 
ATOM     10  C   UNL A   1      34.527  28.850  27.143  1.00  0.00     0.009 A 
ATOM     11  C   UNL A   1      34.023  31.394  28.125  1.00  0.00     0.005 A 
ATOM     12  C   UNL A   1      35.410  29.446  28.057  1.00  0.00     0.005 A 
BRANCH   8  13
ATOM     13  C   UNL A   1      32.384  28.872  25.798  1.00  0.00    -0.015 A 
ATOM     14  C   UNL A   1      31.125  26.958  24.983  1.00  0.00     0.133 A 
ATOM     15  C   UNL A   1      30.515  27.728  23.998  1.00  0.00     0.047 A 
ATOM     16  C   UNL A   1      32.049  27.510  25.874  1.00  0.00     0.056 A 
ATOM     17  C   UNL A   1      30.829  29.077  23.905  1.00  0.00     0.004 A 
ATOM     18  C   UNL A   1      31.760  29.635  24.787  1.00  0.00     0.009 A 
BRANCH  14  19
ATOM     19  O   UNL A   1      30.875  25.578  24.942  1.00  0.00    -0.410 OA
BRANCH  19  20
ATOM     20  C   UNL A   1      30.401  24.949  26.081  1.00  0.00     0.412 C 
ATOM     21  N   UNL A   1      31.137  23.847  26.418  1.00  0.00    -0.321 N 
ATOM     22  H   UNL A   1      30.843  23.343  27.211  1.00  0.00     0.167 HD
ATOM     23  O   UNL A   1      29.430  25.291  26.744  1.00  0.00    -0.224 OA
BRANCH  21  24
ATOM     24  C   UNL A   1      32.308  23.347  25.724  1.00  0.00     0.119 C 
BRANCH  24  25
ATOM     25  C   UNL A   1      33.602  23.900  26.317  1.00  0.00     0.021 C 
BRANCH  25  26
ATOM     26  C   UNL A   1      34.267  25.003  25.485  1.00  0.00     0.002 C 
BRANCH  26  27
ATOM     27  C   UNL A   1      34.558  24.640  24.024  1.00  0.00    -0.000 C 
BRANCH  27  28
ATOM     28  C   UNL A   1      33.881  25.531  22.979  1.00  0.00    -0.003 C 
ATOM     29  C   UNL A   1      32.736  24.841  22.252  1.00  0.00     0.004 C 
ENDBRANCH  27  28
ENDBRANCH  26  27
ENDBRANCH  25  26
ENDBRANCH  24  25
ENDBRANCH  21  24
ENDBRANCH  19  20
ENDBRANCH  14  19
ENDBRANCH   8  13
ENDBRANCH   5   7
ENDBRANCH   1   5
BRANCH   3  30
ATOM     30  C   UNL A   1      38.846  29.816  28.868  1.00  0.00     0.116 C 
BRANCH  30  31
ATOM     31  C   UNL A   1      39.009  29.126  27.513  1.00  0.00     0.021 C 
BRANCH  31  32
ATOM     32  C   UNL A   1      40.226  28.199  27.434  1.00  0.00     0.002 C 
BRANCH  32  33
ATOM     33  C   UNL A   1      40.297  27.123  28.525  1.00  0.00     0.002 C 
BRANCH  33  34
ATOM     34  C   UNL A   1      39.518  25.836  28.232  1.00  0.00     0.021 C 
BRANCH  34  35
ATOM     35  C   UNL A   1      39.750  25.254  26.840  1.00  0.00     0.116 C 
BRANCH  35  36
ATOM     36  N   UNL A   1      40.411  23.960  26.899  1.00  0.00    -0.352 N 
ATOM     37  C   UNL A   1      41.730  23.641  26.695  1.00  0.00     0.251 C 
ATOM     38  H   UNL A   1      39.825  23.201  27.118  1.00  0.00     0.163 HD
ATOM     39  O   UNL A   1      42.068  22.469  26.556  1.00  0.00    -0.269 OA
BRANCH  37  40
ATOM     40  C   UNL A   1      42.750  24.710  26.637  1.00  0.00     0.039 A 
ATOM     41  C   UNL A   1      43.101  25.244  25.394  1.00  0.00     0.014 A 
ATOM     42  C   UNL A   1      43.382  25.158  27.800  1.00  0.00     0.014 A 
ATOM     43  C   UNL A   1      44.049  26.267  25.324  1.00  0.00     0.010 A 
ATOM     44  C   UNL A   1      44.278  26.222  27.735  1.00  0.00     0.010 A 
ATOM     45  C   UNL A   1      44.625  26.782  26.496  1.00  0.00    -0.014 A 
BRANCH  45  46
ATOM     46  C   UNL A   1      45.608  27.894  26.452  1.00  0.00     0.031 A 
ATOM     47  C   UNL A   1      47.077  27.594  26.334  1.00  0.00     0.074 A 
ATOM     48  C   UNL A   1      45.186  29.167  26.577  1.00  0.00     0.049 A 
ATOM     49  N   UNL A   1      48.097  28.413  26.382  1.00  0.00    -0.248 NA
ATOM     50  C   UNL A   1      47.451  26.180  26.164  1.00  0.00     0.031 C 
ATOM     51  C   UNL A   1      43.791  29.588  26.725  1.00  0.00     0.029 A 
ATOM     52  N   UNL A   1      45.892  30.344  26.614  1.00  0.00    -0.354 N 
ATOM     53  C   UNL A   1      49.228  27.616  26.257  1.00  0.00     0.074 A 
ATOM     54  C   UNL A   1      48.774  26.244  26.185  1.00  0.00     0.031 C 
ATOM     55  C   UNL A   1      43.743  30.926  26.819  1.00  0.00     0.029 A 
ATOM     56  C   UNL A   1      45.102  31.456  26.777  1.00  0.00     0.049 A 
ATOM     57  H   UNL A   1      46.872  30.386  26.530  1.00  0.00     0.167 HD
ATOM     58  C   UNL A   1      50.526  27.994  26.184  1.00  0.00     0.037 A 
ATOM     59  C   UNL A   1      45.440  32.754  26.893  1.00  0.00     0.037 A 
ATOM     60  C   UNL A   1      50.974  29.360  26.234  1.00  0.00     0.049 A 
ATOM     61  C   UNL A   1      46.892  33.144  26.836  1.00  0.00     0.074 A 
ATOM     62  C   UNL A   1      52.267  29.848  26.142  1.00  0.00     0.029 A 
ATOM     63  N   UNL A   1      50.141  30.459  26.383  1.00  0.00    -0.354 N 
ATOM     64  N   UNL A   1      47.948  32.383  26.678  1.00  0.00    -0.248 NA
ATOM     65  C   UNL A   1      47.199  34.575  26.968  1.00  0.00     0.031 C 
ATOM     66  C   UNL A   1      52.219  31.240  26.267  1.00  0.00     0.029 A 
ATOM     67  C   UNL A   1      50.893  31.622  26.393  1.00  0.00     0.049 A 
ATOM     68  H   UNL A   1      49.162  30.417  26.468  1.00  0.00     0.167 HD
ATOM     69  C   UNL A   1      49.037  33.244  26.653  1.00  0.00     0.074 A 
ATOM     70  C   UNL A   1      48.514  34.586  26.804  1.00  0.00     0.031 C 
ATOM     71  C   UNL A   1      50.352  32.951  26.518  1.00  0.00     0.037 A 
BRANCH  58  72
ATOM     72  C   UNL A   1      51.556  26.914  26.027  1.00  0.00     0.057 A 
ATOM     73  C   UNL A   1      51.983  26.488  24.763  1.00  0.00     0.134 A 
ATOM     74  C   UNL A   1      52.161  26.328  27.146  1.00  0.00     0.134 A 
ATOM     75  F   UNL A   1      51.435  27.003  23.651  1.00  0.00    -0.206 F 
ATOM     76  C   UNL A   1      52.961  25.504  24.616  1.00  0.00     0.040 A 
ATOM     77  C   UNL A   1      53.158  25.361  27.012  1.00  0.00     0.040 A 
ATOM     78  F   UNL A   1      51.801  26.694  28.385  1.00  0.00    -0.206 F 
ATOM     79  C   UNL A   1      53.558  24.943  25.743  1.00  0.00     0.006 A 
ENDBRANCH  58  72
BRANCH  59  80
ATOM     80  C   UNL A   1      44.390  33.792  27.061  1.00  0.00     0.057 A 
ATOM     81  C   UNL A   1      43.934  34.155  28.334  1.00  0.00     0.134 A 
ATOM     82  C   UNL A   1      43.794  34.416  25.959  1.00  0.00     0.134 A 
ATOM     83  F   UNL A   1      44.454  33.577  29.426  1.00  0.00    -0.206 F 
ATOM     84  C   UNL A   1      42.903  35.080  28.505  1.00  0.00     0.040 A 
ATOM     85  C   UNL A   1      42.779  35.363  26.118  1.00  0.00     0.040 A 
ATOM     86  F   UNL A   1      44.189  34.118  24.713  1.00  0.00    -0.206 F 
ATOM     87  C   UNL A   1      42.324  35.688  27.394  1.00  0.00     0.006 A 
ENDBRANCH  59  80
BRANCH  71  88
ATOM     88  C   UNL A   1      51.312  34.102  26.470  1.00  0.00     0.057 A 
ATOM     89  C   UNL A   1      51.886  34.637  27.629  1.00  0.00     0.134 A 
ATOM     90  C   UNL A   1      51.698  34.653  25.240  1.00  0.00     0.134 A 
ATOM     91  F   UNL A   1      51.548  34.163  28.837  1.00  0.00    -0.206 F 
ATOM     92  C   UNL A   1      52.795  35.695  27.569  1.00  0.00     0.040 A 
ATOM     93  C   UNL A   1      52.625  35.692  25.166  1.00  0.00     0.040 A 
ATOM     94  F   UNL A   1      51.190  34.179  24.093  1.00  0.00    -0.206 F 
ATOM     95  C   UNL A   1      53.172  36.220  26.334  1.00  0.00     0.006 A 
ENDBRANCH  71  88
ENDBRANCH  45  46
ENDBRANCH  37  40
ENDBRANCH  35  36
ENDBRANCH  34  35
ENDBRANCH  33  34
ENDBRANCH  32  33
ENDBRANCH  31  32
ENDBRANCH  30  31
ENDBRANCH   3  30
TORSDOF 22
ENDMDL
MODEL 3
REMARK VINA RESULT:      -9.9      1.029      1.941
REMARK SMILES CCCCCCNC(=O)Oc1cccc(-c2ccc([C@@H](C)C(=O)NCCCCCCNC(=O)c3ccc(-c4c5nc(c(-c6c(F)cccc6F)c6ccc([nH]6)c(-c6c(F)cccc6F)c6nc(c(-c7c(F)cccc7F)c7ccc4[nH]7)C=C6)C=C5)cc3)cc2)c1
REMARK SMILES IDX 22 1 23 2 24 3 20 5 21 6 19 7 16 8 17 9 89 10 18 11 88 12
REMARK SMILES IDX 15 13 11 14 12 15 90 16 13 17 14 18 10 19 8 20 7 21 9 23
REMARK SMILES IDX 6 24 5 25 4 26 3 27 2 28 1 29 25 30 26 31 27 32 28 33 29 34
REMARK SMILES IDX 30 35 31 36 32 37 33 39 34 40 35 41 87 42 36 43 86 44 37 45
REMARK SMILES IDX 38 46 39 47 80 48 40 49 85 50 79 51 81 52 41 53 84 54 78 55
REMARK SMILES IDX 77 56 42 58 68 59 51 60 67 61 52 62 55 63 66 64 82 65 53 66
REMARK SMILES IDX 54 67 65 69 83 70 56 71 43 72 44 73 49 74 45 75 46 76 48 77
REMARK SMILES IDX 50 78 47 79 69 80 70 81 75 82 71 83 72 84 74 85 76 86 73 87
REMARK SMILES IDX 57 88 58 89 63 90 59 91 60 92 62 93 64 94 61 95
REMARK H PARENT 24 4 7 22 31 38 81 57 55 68
REMARK Flexibility Score: inf
ROOT
ATOM      1  C   UNL A   1      38.879  31.654  30.976  1.00  0.00     0.227 C 
ATOM      2  O   UNL A   1      38.260  32.049  31.972  1.00  0.00    -0.274 OA
ATOM      3  N   UNL A   1      39.845  30.721  31.198  1.00  0.00    -0.356 N 
ATOM      4  H   UNL A   1      39.894  30.405  32.128  1.00  0.00     0.163 HD
ENDROOT
BRANCH   1   5
ATOM      5  C   UNL A   1      38.519  32.198  29.587  1.00  0.00     0.105 C 
ATOM      6  C   UNL A   1      38.529  33.725  29.497  1.00  0.00     0.023 C 
BRANCH   5   7
ATOM      7  C   UNL A   1      37.325  31.508  28.944  1.00  0.00    -0.036 A 
ATOM      8  C   UNL A   1      35.077  30.301  27.647  1.00  0.00    -0.018 A 
ATOM      9  C   UNL A   1      36.211  29.558  28.007  1.00  0.00     0.009 A 
ATOM     10  C   UNL A   1      35.090  31.667  27.969  1.00  0.00     0.009 A 
ATOM     11  C   UNL A   1      37.294  30.139  28.674  1.00  0.00     0.005 A 
ATOM     12  C   UNL A   1      36.200  32.265  28.585  1.00  0.00     0.005 A 
BRANCH   8  13
ATOM     13  C   UNL A   1      33.932  29.654  26.966  1.00  0.00    -0.015 A 
ATOM     14  C   UNL A   1      32.882  27.734  25.904  1.00  0.00     0.133 A 
ATOM     15  C   UNL A   1      31.708  28.446  25.686  1.00  0.00     0.047 A 
ATOM     16  C   UNL A   1      33.985  28.319  26.531  1.00  0.00     0.056 A 
ATOM     17  C   UNL A   1      31.630  29.766  26.109  1.00  0.00     0.004 A 
ATOM     18  C   UNL A   1      32.733  30.362  26.728  1.00  0.00     0.009 A 
BRANCH  14  19
ATOM     19  O   UNL A   1      32.952  26.453  25.335  1.00  0.00    -0.410 OA
BRANCH  19  20
ATOM     20  C   UNL A   1      32.606  25.357  26.109  1.00  0.00     0.412 C 
ATOM     21  N   UNL A   1      33.575  24.392  26.116  1.00  0.00    -0.321 N 
ATOM     22  H   UNL A   1      33.386  23.578  26.635  1.00  0.00     0.167 HD
ATOM     23  O   UNL A   1      31.560  25.211  26.728  1.00  0.00    -0.224 OA
BRANCH  21  24
ATOM     24  C   UNL A   1      34.855  24.450  25.437  1.00  0.00     0.119 C 
BRANCH  24  25
ATOM     25  C   UNL A   1      35.512  23.074  25.340  1.00  0.00     0.021 C 
BRANCH  25  26
ATOM     26  C   UNL A   1      34.976  22.189  24.208  1.00  0.00     0.002 C 
BRANCH  26  27
ATOM     27  C   UNL A   1      33.993  21.093  24.637  1.00  0.00    -0.000 C 
BRANCH  27  28
ATOM     28  C   UNL A   1      32.525  21.356  24.291  1.00  0.00    -0.003 C 
ATOM     29  C   UNL A   1      32.238  21.287  22.799  1.00  0.00     0.004 C 
ENDBRANCH  27  28
ENDBRANCH  26  27
ENDBRANCH  25  26
ENDBRANCH  24  25
ENDBRANCH  21  24
ENDBRANCH  19  20
ENDBRANCH  14  19
ENDBRANCH   8  13
ENDBRANCH   5   7
ENDBRANCH   1   5
BRANCH   3  30
ATOM     30  C   UNL A   1      40.812  30.109  30.312  1.00  0.00     0.116 C 
BRANCH  30  31
ATOM     31  C   UNL A   1      40.413  28.680  29.938  1.00  0.00     0.021 C 
BRANCH  31  32
ATOM     32  C   UNL A   1      41.236  28.091  28.788  1.00  0.00     0.002 C 
BRANCH  32  33
ATOM     33  C   UNL A   1      40.418  27.593  27.590  1.00  0.00     0.002 C 
BRANCH  33  34
ATOM     34  C   UNL A   1      39.850  26.175  27.725  1.00  0.00     0.021 C 
BRANCH  34  35
ATOM     35  C   UNL A   1      39.810  25.379  26.423  1.00  0.00     0.116 C 
BRANCH  35  36
ATOM     36  N   UNL A   1      40.469  24.090  26.558  1.00  0.00    -0.352 N 
ATOM     37  C   UNL A   1      41.803  23.777  26.478  1.00  0.00     0.251 C 
ATOM     38  H   UNL A   1      39.870  23.329  26.732  1.00  0.00     0.163 HD
ATOM     39  O   UNL A   1      42.159  22.606  26.384  1.00  0.00    -0.269 OA
BRANCH  37  40
ATOM     40  C   UNL A   1      42.818  24.852  26.498  1.00  0.00     0.039 A 
ATOM     41  C   UNL A   1      43.409  25.203  27.715  1.00  0.00     0.014 A 
ATOM     42  C   UNL A   1      43.158  25.536  25.328  1.00  0.00     0.014 A 
ATOM     43  C   UNL A   1      44.383  26.204  27.749  1.00  0.00     0.010 A 
ATOM     44  C   UNL A   1      44.174  26.487  25.352  1.00  0.00     0.010 A 
ATOM     45  C   UNL A   1      44.792  26.836  26.563  1.00  0.00    -0.014 A 
BRANCH  45  46
ATOM     46  C   UNL A   1      45.850  27.877  26.566  1.00  0.00     0.031 A 
ATOM     47  C   UNL A   1      45.474  29.329  26.673  1.00  0.00     0.074 A 
ATOM     48  C   UNL A   1      47.140  27.522  26.413  1.00  0.00     0.049 A 
ATOM     49  N   UNL A   1      46.236  30.390  26.592  1.00  0.00    -0.248 NA
ATOM     50  C   UNL A   1      44.047  29.629  26.876  1.00  0.00     0.031 C 
ATOM     51  C   UNL A   1      47.631  26.149  26.271  1.00  0.00     0.029 A 
ATOM     52  N   UNL A   1      48.276  28.289  26.336  1.00  0.00    -0.354 N 
ATOM     53  C   UNL A   1      45.383  31.479  26.723  1.00  0.00     0.074 A 
ATOM     54  C   UNL A   1      44.040  30.953  26.837  1.00  0.00     0.031 C 
ATOM     55  C   UNL A   1      48.968  26.171  26.143  1.00  0.00     0.029 A 
ATOM     56  C   UNL A   1      49.424  27.557  26.154  1.00  0.00     0.049 A 
ATOM     57  H   UNL A   1      48.268  29.271  26.407  1.00  0.00     0.167 HD
ATOM     58  C   UNL A   1      45.692  32.796  26.770  1.00  0.00     0.037 A 
ATOM     59  C   UNL A   1      50.699  27.962  26.000  1.00  0.00     0.037 A 
ATOM     60  C   UNL A   1      47.031  33.316  26.678  1.00  0.00     0.049 A 
ATOM     61  C   UNL A   1      51.012  29.433  26.029  1.00  0.00     0.074 A 
ATOM     62  C   UNL A   1      47.451  34.634  26.742  1.00  0.00     0.029 A 
ATOM     63  N   UNL A   1      48.168  32.541  26.511  1.00  0.00    -0.354 N 
ATOM     64  N   UNL A   1      50.199  30.449  26.194  1.00  0.00    -0.248 NA
ATOM     65  C   UNL A   1      52.421  29.815  25.855  1.00  0.00     0.031 C 
ATOM     66  C   UNL A   1      48.839  34.659  26.582  1.00  0.00     0.029 A 
ATOM     67  C   UNL A   1      49.288  33.353  26.461  1.00  0.00     0.049 A 
ATOM     68  H   UNL A   1      48.177  31.560  26.439  1.00  0.00     0.167 HD
ATOM     69  C   UNL A   1      51.001  31.583  26.182  1.00  0.00     0.074 A 
ATOM     70  C   UNL A   1      52.365  31.131  26.002  1.00  0.00     0.031 C 
ATOM     71  C   UNL A   1      50.641  32.883  26.308  1.00  0.00     0.037 A 
BRANCH  58  72
ATOM     72  C   UNL A   1      44.563  33.769  26.943  1.00  0.00     0.057 A 
ATOM     73  C   UNL A   1      43.892  34.317  25.842  1.00  0.00     0.134 A 
ATOM     74  C   UNL A   1      44.109  34.126  28.219  1.00  0.00     0.134 A 
ATOM     75  F   UNL A   1      44.286  34.024  24.592  1.00  0.00    -0.206 F 
ATOM     76  C   UNL A   1      42.824  35.199  26.003  1.00  0.00     0.040 A 
ATOM     77  C   UNL A   1      43.025  34.987  28.392  1.00  0.00     0.040 A 
ATOM     78  F   UNL A   1      44.704  33.633  29.316  1.00  0.00    -0.206 F 
ATOM     79  C   UNL A   1      42.382  35.531  27.281  1.00  0.00     0.006 A 
ENDBRANCH  58  72
BRANCH  59  80
ATOM     80  C   UNL A   1      51.787  26.967  25.818  1.00  0.00     0.057 A 
ATOM     81  C   UNL A   1      52.147  26.519  24.541  1.00  0.00     0.134 A 
ATOM     82  C   UNL A   1      52.465  26.414  26.910  1.00  0.00     0.134 A 
ATOM     83  F   UNL A   1      51.520  26.998  23.457  1.00  0.00    -0.206 F 
ATOM     84  C   UNL A   1      53.122  25.537  24.358  1.00  0.00     0.040 A 
ATOM     85  C   UNL A   1      53.460  25.450  26.740  1.00  0.00     0.040 A 
ATOM     86  F   UNL A   1      52.172  26.804  28.159  1.00  0.00    -0.206 F 
ATOM     87  C   UNL A   1      53.783  25.001  25.461  1.00  0.00     0.006 A 
ENDBRANCH  59  80
BRANCH  71  88
ATOM     88  C   UNL A   1      51.740  33.903  26.315  1.00  0.00     0.057 A 
ATOM     89  C   UNL A   1      52.364  34.313  27.499  1.00  0.00     0.134 A 
ATOM     90  C   UNL A   1      52.205  34.453  25.113  1.00  0.00     0.134 A 
ATOM     91  F   UNL A   1      51.955  33.834  28.684  1.00  0.00    -0.206 F 
ATOM     92  C   UNL A   1      53.400  35.248  27.491  1.00  0.00     0.040 A 
ATOM     93  C   UNL A   1      53.257  35.368  25.089  1.00  0.00     0.040 A 
ATOM     94  F   UNL A   1      51.654  34.095  23.942  1.00  0.00    -0.206 F 
ATOM     95  C   UNL A   1      53.854  35.772  26.281  1.00  0.00     0.006 A 
ENDBRANCH  71  88
ENDBRANCH  45  46
ENDBRANCH  37  40
ENDBRANCH  35  36
ENDBRANCH  34  35
ENDBRANCH  33  34
ENDBRANCH  32  33
ENDBRANCH  31  32
ENDBRANCH  30  31
ENDBRANCH   3  30
TORSDOF 22
ENDMDL
