MODEL 1
REMARK VINA RESULT:     -11.0      0.000      0.000
REMARK SMILES CC(C)(C)OC(=O)N1C[C@H](Oc2ccncc2)C[C@H]1C(=O)NCCCCCCNC(=O)c1ccc(-c2c3nc(c(-c4c(F)cccc4F)c4ccc([nH]4)c(-c4c(F)cccc4F)c4nc(c(-c5c(F)cccc5F)c5ccc2[nH]5)C=C4)C=C3)cc1
REMARK SMILES IDX 25 1 24 2 23 3 22 4 20 5 21 6 19 8 8 9 9 10 10 11 18 12 6 13
REMARK SMILES IDX 7 14 5 15 2 16 1 17 3 18 4 19 11 20 12 21 13 22 17 23 14 24
REMARK SMILES IDX 16 25 15 26 26 27 27 28 28 29 29 30 30 31 31 33 32 34 33 35
REMARK SMILES IDX 85 36 34 37 84 38 35 39 36 40 37 41 78 42 38 43 83 44 77 45
REMARK SMILES IDX 79 46 39 47 82 48 76 49 75 50 40 52 66 53 49 54 65 55 50 56
REMARK SMILES IDX 53 57 64 58 80 59 51 60 52 61 63 63 81 64 54 65 41 66 42 67
REMARK SMILES IDX 47 68 43 69 44 70 46 71 48 72 45 73 67 74 68 75 73 76 69 77
REMARK SMILES IDX 70 78 72 79 74 80 71 81 55 82 56 83 61 84 57 85 58 86 60 87
REMARK SMILES IDX 62 88 59 89
REMARK H PARENT 22 7 29 32 79 51 53 62
REMARK Flexibility Score: inf
ROOT
ATOM      1  C   UNL A   1      38.187  22.284  25.750  1.00  0.00     0.002 C 
ENDROOT
BRANCH   1   2
ATOM      2  C   UNL A   1      37.492  23.651  25.736  1.00  0.00     0.021 C 
BRANCH   2   3
ATOM      3  C   UNL A   1      35.968  23.641  25.731  1.00  0.00     0.116 C 
BRANCH   3   4
ATOM      4  N   UNL A   1      35.361  22.839  26.778  1.00  0.00    -0.354 N 
ATOM      5  C   UNL A   1      34.060  22.409  26.865  1.00  0.00     0.243 C 
ATOM      6  O   UNL A   1      33.811  21.478  27.635  1.00  0.00    -0.273 OA
ATOM      7  H   UNL A   1      35.955  22.569  27.514  1.00  0.00     0.163 HD
BRANCH   5   8
ATOM      8  C   UNL A   1      32.959  23.069  26.002  1.00  0.00     0.181 C 
ATOM      9  N   UNL A   1      31.912  22.151  25.544  1.00  0.00    -0.292 N 
ATOM     10  C   UNL A   1      30.585  22.561  25.969  1.00  0.00     0.169 C 
ATOM     11  C   UNL A   1      30.737  24.004  26.436  1.00  0.00     0.195 C 
ATOM     12  C   UNL A   1      32.211  24.136  26.830  1.00  0.00     0.082 C 
BRANCH   9  13
ATOM     13  C   UNL A   1      32.188  21.195  24.606  1.00  0.00     0.411 C 
ATOM     14  O   UNL A   1      32.483  21.457  23.451  1.00  0.00    -0.224 OA
BRANCH  13  15
ATOM     15  O   UNL A   1      31.972  19.934  25.061  1.00  0.00    -0.444 OA
BRANCH  15  16
ATOM     16  C   UNL A   1      32.900  18.886  24.668  1.00  0.00     0.106 C 
ATOM     17  C   UNL A   1      32.711  17.777  25.712  1.00  0.00     0.056 C 
ATOM     18  C   UNL A   1      34.345  19.390  24.726  1.00  0.00     0.056 C 
ATOM     19  C   UNL A   1      32.564  18.289  23.287  1.00  0.00     0.056 C 
ENDBRANCH  15  16
ENDBRANCH  13  15
ENDBRANCH   9  13
BRANCH  11  20
ATOM     20  O   UNL A   1      30.228  24.999  25.531  1.00  0.00    -0.488 OA
BRANCH  20  21
ATOM     21  C   UNL A   1      31.042  25.423  24.526  1.00  0.00     0.122 A 
ATOM     22  C   UNL A   1      31.052  24.785  23.294  1.00  0.00     0.066 A 
ATOM     23  C   UNL A   1      31.738  26.613  24.693  1.00  0.00     0.066 A 
ATOM     24  C   UNL A   1      31.836  25.328  22.292  1.00  0.00     0.115 A 
ATOM     25  C   UNL A   1      32.491  27.078  23.631  1.00  0.00     0.115 A 
ATOM     26  N   UNL A   1      32.572  26.450  22.437  1.00  0.00    -0.264 NA
ENDBRANCH  20  21
ENDBRANCH  11  20
ENDBRANCH   5   8
ENDBRANCH   3   4
ENDBRANCH   2   3
ENDBRANCH   1   2
BRANCH   1  27
ATOM     27  C   UNL A   1      37.726  21.236  24.732  1.00  0.00     0.002 C 
BRANCH  27  28
ATOM     28  C   UNL A   1      38.312  19.827  24.850  1.00  0.00     0.021 C 
BRANCH  28  29
ATOM     29  C   UNL A   1      39.135  19.528  26.097  1.00  0.00     0.116 C 
BRANCH  29  30
ATOM     30  N   UNL A   1      40.427  18.932  25.814  1.00  0.00    -0.352 N 
ATOM     31  C   UNL A   1      41.687  19.473  25.913  1.00  0.00     0.251 C 
ATOM     32  H   UNL A   1      40.396  17.998  25.502  1.00  0.00     0.163 HD
ATOM     33  O   UNL A   1      42.660  18.817  25.550  1.00  0.00    -0.269 OA
BRANCH  31  34
ATOM     34  C   UNL A   1      41.889  20.852  26.420  1.00  0.00     0.039 A 
ATOM     35  C   UNL A   1      41.852  21.061  27.804  1.00  0.00     0.014 A 
ATOM     36  C   UNL A   1      42.080  21.938  25.561  1.00  0.00     0.014 A 
ATOM     37  C   UNL A   1      42.070  22.340  28.327  1.00  0.00     0.010 A 
ATOM     38  C   UNL A   1      42.346  23.205  26.084  1.00  0.00     0.010 A 
ATOM     39  C   UNL A   1      42.347  23.416  27.471  1.00  0.00    -0.014 A 
BRANCH  39  40
ATOM     40  C   UNL A   1      42.646  24.767  28.011  1.00  0.00     0.031 A 
ATOM     41  C   UNL A   1      44.040  25.123  28.441  1.00  0.00     0.074 A 
ATOM     42  C   UNL A   1      41.647  25.656  28.170  1.00  0.00     0.049 A 
ATOM     43  N   UNL A   1      44.474  26.220  29.010  1.00  0.00    -0.248 NA
ATOM     44  C   UNL A   1      45.078  24.104  28.224  1.00  0.00     0.031 C 
ATOM     45  C   UNL A   1      40.244  25.425  27.826  1.00  0.00     0.029 A 
ATOM     46  N   UNL A   1      41.661  26.933  28.675  1.00  0.00    -0.354 N 
ATOM     47  C   UNL A   1      45.828  26.016  29.239  1.00  0.00     0.074 A 
ATOM     48  C   UNL A   1      46.139  24.682  28.771  1.00  0.00     0.031 C 
ATOM     49  C   UNL A   1      39.533  26.526  28.119  1.00  0.00     0.029 A 
ATOM     50  C   UNL A   1      40.424  27.529  28.696  1.00  0.00     0.049 A 
ATOM     51  H   UNL A   1      42.479  27.377  28.994  1.00  0.00     0.167 HD
ATOM     52  C   UNL A   1      46.734  26.866  29.780  1.00  0.00     0.037 A 
ATOM     53  C   UNL A   1      40.049  28.746  29.133  1.00  0.00     0.037 A 
ATOM     54  C   UNL A   1      46.439  28.206  30.213  1.00  0.00     0.049 A 
ATOM     55  C   UNL A   1      41.076  29.680  29.703  1.00  0.00     0.074 A 
ATOM     56  C   UNL A   1      47.306  29.160  30.718  1.00  0.00     0.029 A 
ATOM     57  N   UNL A   1      45.180  28.784  30.186  1.00  0.00    -0.354 N 
ATOM     58  N   UNL A   1      42.360  29.488  29.875  1.00  0.00    -0.248 NA
ATOM     59  C   UNL A   1      40.601  31.002  30.138  1.00  0.00     0.031 C 
ATOM     60  C   UNL A   1      46.566  30.311  31.016  1.00  0.00     0.029 A 
ATOM     61  C   UNL A   1      45.245  30.079  30.674  1.00  0.00     0.049 A 
ATOM     62  H   UNL A   1      44.361  28.340  29.866  1.00  0.00     0.167 HD
ATOM     63  C   UNL A   1      42.852  30.667  30.419  1.00  0.00     0.074 A 
ATOM     64  C   UNL A   1      41.729  31.573  30.541  1.00  0.00     0.031 C 
ATOM     65  C   UNL A   1      44.120  30.970  30.784  1.00  0.00     0.037 A 
BRANCH  52  66
ATOM     66  C   UNL A   1      48.137  26.366  29.932  1.00  0.00     0.057 A 
ATOM     67  C   UNL A   1      49.093  26.544  28.922  1.00  0.00     0.134 A 
ATOM     68  C   UNL A   1      48.545  25.726  31.108  1.00  0.00     0.134 A 
ATOM     69  F   UNL A   1      48.758  27.138  27.767  1.00  0.00    -0.206 F 
ATOM     70  C   UNL A   1      50.401  26.084  29.072  1.00  0.00     0.040 A 
ATOM     71  C   UNL A   1      49.856  25.278  31.276  1.00  0.00     0.040 A 
ATOM     72  F   UNL A   1      47.677  25.529  32.112  1.00  0.00    -0.206 F 
ATOM     73  C   UNL A   1      50.787  25.453  30.254  1.00  0.00     0.006 A 
ENDBRANCH  52  66
BRANCH  53  74
ATOM     74  C   UNL A   1      38.631  29.160  29.026  1.00  0.00     0.057 A 
ATOM     75  C   UNL A   1      37.781  29.100  30.137  1.00  0.00     0.134 A 
ATOM     76  C   UNL A   1      38.094  29.623  27.821  1.00  0.00     0.134 A 
ATOM     77  F   UNL A   1      38.239  28.645  31.312  1.00  0.00    -0.206 F 
ATOM     78  C   UNL A   1      36.441  29.478  30.049  1.00  0.00     0.040 A 
ATOM     79  C   UNL A   1      36.759  30.019  27.723  1.00  0.00     0.040 A 
ATOM     80  F   UNL A   1      38.861  29.705  26.724  1.00  0.00    -0.206 F 
ATOM     81  C   UNL A   1      35.927  29.943  28.840  1.00  0.00     0.006 A 
ENDBRANCH  53  74
BRANCH  65  82
ATOM     82  C   UNL A   1      44.362  32.344  31.327  1.00  0.00     0.057 A 
ATOM     83  C   UNL A   1      44.659  33.421  30.485  1.00  0.00     0.134 A 
ATOM     84  C   UNL A   1      44.265  32.596  32.701  1.00  0.00     0.134 A 
ATOM     85  F   UNL A   1      44.779  33.237  29.161  1.00  0.00    -0.206 F 
ATOM     86  C   UNL A   1      44.864  34.705  30.994  1.00  0.00     0.040 A 
ATOM     87  C   UNL A   1      44.454  33.877  33.219  1.00  0.00     0.040 A 
ATOM     88  F   UNL A   1      43.981  31.604  33.557  1.00  0.00    -0.206 F 
ATOM     89  C   UNL A   1      44.757  34.935  32.365  1.00  0.00     0.006 A 
ENDBRANCH  65  82
ENDBRANCH  39  40
ENDBRANCH  31  34
ENDBRANCH  29  30
ENDBRANCH  28  29
ENDBRANCH  27  28
ENDBRANCH   1  27
TORSDOF 18
ENDMDL
MODEL 2
REMARK VINA RESULT:     -10.9      1.089      3.673
REMARK SMILES CC(C)(C)OC(=O)N1C[C@H](Oc2ccncc2)C[C@H]1C(=O)NCCCCCCNC(=O)c1ccc(-c2c3nc(c(-c4c(F)cccc4F)c4ccc([nH]4)c(-c4c(F)cccc4F)c4nc(c(-c5c(F)cccc5F)c5ccc2[nH]5)C=C4)C=C3)cc1
REMARK SMILES IDX 25 1 24 2 23 3 22 4 20 5 21 6 19 8 8 9 9 10 10 11 18 12 6 13
REMARK SMILES IDX 7 14 5 15 2 16 1 17 3 18 4 19 11 20 12 21 13 22 17 23 14 24
REMARK SMILES IDX 16 25 15 26 26 27 27 28 28 29 29 30 30 31 31 33 32 34 33 35
REMARK SMILES IDX 85 36 34 37 84 38 35 39 36 40 37 41 78 42 38 43 83 44 77 45
REMARK SMILES IDX 79 46 39 47 82 48 76 49 75 50 40 52 66 53 49 54 65 55 50 56
REMARK SMILES IDX 53 57 64 58 80 59 51 60 52 61 63 63 81 64 54 65 41 66 42 67
REMARK SMILES IDX 47 68 43 69 44 70 46 71 48 72 45 73 67 74 68 75 73 76 69 77
REMARK SMILES IDX 70 78 72 79 74 80 71 81 55 82 56 83 61 84 57 85 58 86 60 87
REMARK SMILES IDX 62 88 59 89
REMARK H PARENT 22 7 29 32 79 51 53 62
REMARK Flexibility Score: inf
ROOT
ATOM      1  C   UNL A   1      38.598  22.352  26.009  1.00  0.00     0.002 C 
ENDROOT
BRANCH   1   2
ATOM      2  C   UNL A   1      37.992  23.759  26.057  1.00  0.00     0.021 C 
BRANCH   2   3
ATOM      3  C   UNL A   1      36.487  23.862  25.840  1.00  0.00     0.116 C 
BRANCH   3   4
ATOM      4  N   UNL A   1      36.076  23.949  24.450  1.00  0.00    -0.354 N 
ATOM      5  C   UNL A   1      34.887  23.548  23.894  1.00  0.00     0.243 C 
ATOM      6  O   UNL A   1      34.590  23.996  22.783  1.00  0.00    -0.273 OA
ATOM      7  H   UNL A   1      36.731  24.345  23.831  1.00  0.00     0.163 HD
BRANCH   5   8
ATOM      8  C   UNL A   1      33.952  22.582  24.659  1.00  0.00     0.181 C 
ATOM      9  N   UNL A   1      32.547  22.994  24.693  1.00  0.00    -0.292 N 
ATOM     10  C   UNL A   1      31.658  21.994  24.128  1.00  0.00     0.169 C 
ATOM     11  C   UNL A   1      32.489  20.719  24.035  1.00  0.00     0.195 C 
ATOM     12  C   UNL A   1      33.941  21.203  23.965  1.00  0.00     0.082 C 
BRANCH   9  13
ATOM     13  C   UNL A   1      32.159  24.080  25.428  1.00  0.00     0.411 C 
ATOM     14  O   UNL A   1      32.610  24.337  26.532  1.00  0.00    -0.224 OA
BRANCH  13  15
ATOM     15  O   UNL A   1      31.132  24.761  24.858  1.00  0.00    -0.444 OA
BRANCH  15  16
ATOM     16  C   UNL A   1      31.433  25.967  24.103  1.00  0.00     0.106 C 
ATOM     17  C   UNL A   1      31.439  25.525  22.633  1.00  0.00     0.056 C 
ATOM     18  C   UNL A   1      32.819  26.506  24.472  1.00  0.00     0.056 C 
ATOM     19  C   UNL A   1      30.345  27.048  24.262  1.00  0.00     0.056 C 
ENDBRANCH  15  16
ENDBRANCH  13  15
ENDBRANCH   9  13
BRANCH  11  20
ATOM     20  O   UNL A   1      32.197  19.721  25.027  1.00  0.00    -0.488 OA
BRANCH  20  21
ATOM     21  C   UNL A   1      32.586  18.441  24.777  1.00  0.00     0.122 A 
ATOM     22  C   UNL A   1      33.020  18.057  23.517  1.00  0.00     0.066 A 
ATOM     23  C   UNL A   1      32.707  17.563  25.846  1.00  0.00     0.066 A 
ATOM     24  C   UNL A   1      33.487  16.764  23.361  1.00  0.00     0.115 A 
ATOM     25  C   UNL A   1      33.189  16.293  25.590  1.00  0.00     0.115 A 
ATOM     26  N   UNL A   1      33.564  15.866  24.365  1.00  0.00    -0.264 NA
ENDBRANCH  20  21
ENDBRANCH  11  20
ENDBRANCH   5   8
ENDBRANCH   3   4
ENDBRANCH   2   3
ENDBRANCH   1   2
BRANCH   1  27
ATOM     27  C   UNL A   1      37.902  21.303  25.136  1.00  0.00     0.002 C 
BRANCH  27  28
ATOM     28  C   UNL A   1      38.562  19.927  25.019  1.00  0.00     0.021 C 
BRANCH  28  29
ATOM     29  C   UNL A   1      39.407  19.468  26.202  1.00  0.00     0.116 C 
BRANCH  29  30
ATOM     30  N   UNL A   1      40.701  18.935  25.821  1.00  0.00    -0.352 N 
ATOM     31  C   UNL A   1      41.941  19.529  25.848  1.00  0.00     0.251 C 
ATOM     32  H   UNL A   1      40.690  18.007  25.493  1.00  0.00     0.163 HD
ATOM     33  O   UNL A   1      42.914  18.923  25.408  1.00  0.00    -0.269 OA
BRANCH  31  34
ATOM     34  C   UNL A   1      42.118  20.906  26.369  1.00  0.00     0.039 A 
ATOM     35  C   UNL A   1      42.039  21.106  27.753  1.00  0.00     0.014 A 
ATOM     36  C   UNL A   1      42.326  21.999  25.524  1.00  0.00     0.014 A 
ATOM     37  C   UNL A   1      42.231  22.382  28.291  1.00  0.00     0.010 A 
ATOM     38  C   UNL A   1      42.567  23.264  26.063  1.00  0.00     0.010 A 
ATOM     39  C   UNL A   1      42.526  23.466  27.451  1.00  0.00    -0.014 A 
BRANCH  39  40
ATOM     40  C   UNL A   1      42.797  24.815  28.008  1.00  0.00     0.031 A 
ATOM     41  C   UNL A   1      44.184  25.192  28.446  1.00  0.00     0.074 A 
ATOM     42  C   UNL A   1      41.782  25.684  28.176  1.00  0.00     0.049 A 
ATOM     43  N   UNL A   1      44.597  26.289  29.029  1.00  0.00    -0.248 NA
ATOM     44  C   UNL A   1      45.241  24.196  28.218  1.00  0.00     0.031 C 
ATOM     45  C   UNL A   1      40.384  25.431  27.826  1.00  0.00     0.029 A 
ATOM     46  N   UNL A   1      41.771  26.954  28.697  1.00  0.00    -0.354 N 
ATOM     47  C   UNL A   1      45.954  26.108  29.258  1.00  0.00     0.074 A 
ATOM     48  C   UNL A   1      46.291  24.786  28.774  1.00  0.00     0.031 C 
ATOM     49  C   UNL A   1      39.652  26.515  28.132  1.00  0.00     0.029 A 
ATOM     50  C   UNL A   1      40.524  27.527  28.722  1.00  0.00     0.049 A 
ATOM     51  H   UNL A   1      42.580  27.410  29.023  1.00  0.00     0.167 HD
ATOM     52  C   UNL A   1      46.842  26.968  29.811  1.00  0.00     0.037 A 
ATOM     53  C   UNL A   1      40.126  28.731  29.174  1.00  0.00     0.037 A 
ATOM     54  C   UNL A   1      46.522  28.297  30.260  1.00  0.00     0.049 A 
ATOM     55  C   UNL A   1      41.134  29.677  29.757  1.00  0.00     0.074 A 
ATOM     56  C   UNL A   1      47.370  29.260  30.779  1.00  0.00     0.029 A 
ATOM     57  N   UNL A   1      45.253  28.852  30.237  1.00  0.00    -0.354 N 
ATOM     58  N   UNL A   1      42.421  29.507  29.930  1.00  0.00    -0.248 NA
ATOM     59  C   UNL A   1      40.633  30.985  30.207  1.00  0.00     0.031 C 
ATOM     60  C   UNL A   1      46.608  30.394  31.089  1.00  0.00     0.029 A 
ATOM     61  C   UNL A   1      45.292  30.141  30.742  1.00  0.00     0.049 A 
ATOM     62  H   UNL A   1      44.443  28.397  29.911  1.00  0.00     0.167 HD
ATOM     63  C   UNL A   1      42.889  30.688  30.489  1.00  0.00     0.074 A 
ATOM     64  C   UNL A   1      41.749  31.571  30.620  1.00  0.00     0.031 C 
ATOM     65  C   UNL A   1      44.151  31.010  30.861  1.00  0.00     0.037 A 
BRANCH  52  66
ATOM     66  C   UNL A   1      48.255  26.493  29.960  1.00  0.00     0.057 A 
ATOM     67  C   UNL A   1      48.676  25.785  31.093  1.00  0.00     0.134 A 
ATOM     68  C   UNL A   1      49.196  26.723  28.949  1.00  0.00     0.134 A 
ATOM     69  F   UNL A   1      47.823  25.546  32.100  1.00  0.00    -0.206 F 
ATOM     70  C   UNL A   1      49.991  25.338  31.222  1.00  0.00     0.040 A 
ATOM     71  C   UNL A   1      50.509  26.264  29.060  1.00  0.00     0.040 A 
ATOM     72  F   UNL A   1      48.853  27.392  27.839  1.00  0.00    -0.206 F 
ATOM     73  C   UNL A   1      50.911  25.573  30.202  1.00  0.00     0.006 A 
ENDBRANCH  52  66
BRANCH  53  74
ATOM     74  C   UNL A   1      38.699  29.120  29.069  1.00  0.00     0.057 A 
ATOM     75  C   UNL A   1      38.170  29.586  27.861  1.00  0.00     0.134 A 
ATOM     76  C   UNL A   1      37.837  29.036  30.167  1.00  0.00     0.134 A 
ATOM     77  F   UNL A   1      38.957  29.705  26.781  1.00  0.00    -0.206 F 
ATOM     78  C   UNL A   1      36.832  29.964  27.750  1.00  0.00     0.040 A 
ATOM     79  C   UNL A   1      36.493  29.397  30.066  1.00  0.00     0.040 A 
ATOM     80  F   UNL A   1      38.288  28.595  31.351  1.00  0.00    -0.206 F 
ATOM     81  C   UNL A   1      35.988  29.866  28.854  1.00  0.00     0.006 A 
ENDBRANCH  53  74
BRANCH  65  82
ATOM     82  C   UNL A   1      44.367  32.381  31.421  1.00  0.00     0.057 A 
ATOM     83  C   UNL A   1      44.277  32.633  32.794  1.00  0.00     0.134 A 
ATOM     84  C   UNL A   1      44.700  33.451  30.582  1.00  0.00     0.134 A 
ATOM     85  F   UNL A   1      43.947  31.650  33.646  1.00  0.00    -0.206 F 
ATOM     86  C   UNL A   1      44.500  33.909  33.314  1.00  0.00     0.040 A 
ATOM     87  C   UNL A   1      44.939  34.727  31.091  1.00  0.00     0.040 A 
ATOM     88  F   UNL A   1      44.803  33.270  29.257  1.00  0.00    -0.206 F 
ATOM     89  C   UNL A   1      44.837  34.959  32.461  1.00  0.00     0.006 A 
ENDBRANCH  65  82
ENDBRANCH  39  40
ENDBRANCH  31  34
ENDBRANCH  29  30
ENDBRANCH  28  29
ENDBRANCH  27  28
ENDBRANCH   1  27
TORSDOF 18
ENDMDL
MODEL 3
REMARK VINA RESULT:     -10.8      2.044      7.627
REMARK SMILES CC(C)(C)OC(=O)N1C[C@H](Oc2ccncc2)C[C@H]1C(=O)NCCCCCCNC(=O)c1ccc(-c2c3nc(c(-c4c(F)cccc4F)c4ccc([nH]4)c(-c4c(F)cccc4F)c4nc(c(-c5c(F)cccc5F)c5ccc2[nH]5)C=C4)C=C3)cc1
REMARK SMILES IDX 25 1 24 2 23 3 22 4 20 5 21 6 19 8 8 9 9 10 10 11 18 12 6 13
REMARK SMILES IDX 7 14 5 15 2 16 1 17 3 18 4 19 11 20 12 21 13 22 17 23 14 24
REMARK SMILES IDX 16 25 15 26 26 27 27 28 28 29 29 30 30 31 31 33 32 34 33 35
REMARK SMILES IDX 85 36 34 37 84 38 35 39 36 40 37 41 78 42 38 43 83 44 77 45
REMARK SMILES IDX 79 46 39 47 82 48 76 49 75 50 40 52 66 53 49 54 65 55 50 56
REMARK SMILES IDX 53 57 64 58 80 59 51 60 52 61 63 63 81 64 54 65 41 66 42 67
REMARK SMILES IDX 47 68 43 69 44 70 46 71 48 72 45 73 67 74 68 75 73 76 69 77
REMARK SMILES IDX 70 78 72 79 74 80 71 81 55 82 56 83 61 84 57 85 58 86 60 87
REMARK SMILES IDX 62 88 59 89
REMARK H PARENT 22 7 29 32 79 51 53 62
REMARK Flexibility Score: inf
ROOT
ATOM      1  C   UNL A   1      32.556  27.342  23.461  1.00  0.00     0.002 C 
ENDROOT
BRANCH   1   2
ATOM      2  C   UNL A   1      33.620  26.364  22.949  1.00  0.00     0.021 C 
BRANCH   2   3
ATOM      3  C   UNL A   1      33.208  24.900  22.847  1.00  0.00     0.116 C 
BRANCH   3   4
ATOM      4  N   UNL A   1      32.043  24.539  23.634  1.00  0.00    -0.354 N 
ATOM      5  C   UNL A   1      31.897  23.473  24.486  1.00  0.00     0.243 C 
ATOM      6  O   UNL A   1      30.975  23.512  25.306  1.00  0.00    -0.273 OA
ATOM      7  H   UNL A   1      31.262  25.132  23.546  1.00  0.00     0.163 HD
BRANCH   5   8
ATOM      8  C   UNL A   1      32.877  22.278  24.421  1.00  0.00     0.181 C 
ATOM      9  N   UNL A   1      33.486  21.919  25.704  1.00  0.00    -0.292 N 
ATOM     10  C   UNL A   1      33.224  20.541  26.079  1.00  0.00     0.169 C 
ATOM     11  C   UNL A   1      32.709  19.866  24.813  1.00  0.00     0.195 C 
ATOM     12  C   UNL A   1      32.127  21.007  23.971  1.00  0.00     0.082 C 
BRANCH   9  13
ATOM     13  C   UNL A   1      34.403  22.745  26.294  1.00  0.00     0.411 C 
ATOM     14  O   UNL A   1      34.448  22.943  27.497  1.00  0.00    -0.224 OA
BRANCH  13  15
ATOM     15  O   UNL A   1      35.163  23.416  25.391  1.00  0.00    -0.444 OA
BRANCH  15  16
ATOM     16  C   UNL A   1      36.444  22.846  25.003  1.00  0.00     0.106 C 
ATOM     17  C   UNL A   1      37.494  23.703  25.725  1.00  0.00     0.056 C 
ATOM     18  C   UNL A   1      36.655  22.963  23.491  1.00  0.00     0.056 C 
ATOM     19  C   UNL A   1      36.613  21.393  25.487  1.00  0.00     0.056 C 
ENDBRANCH  15  16
ENDBRANCH  13  15
ENDBRANCH   9  13
BRANCH  11  20
ATOM     20  O   UNL A   1      33.649  19.002  24.152  1.00  0.00    -0.488 OA
BRANCH  20  21
ATOM     21  C   UNL A   1      33.783  17.730  24.619  1.00  0.00     0.122 A 
ATOM     22  C   UNL A   1      32.671  16.959  24.925  1.00  0.00     0.066 A 
ATOM     23  C   UNL A   1      35.045  17.153  24.621  1.00  0.00     0.066 A 
ATOM     24  C   UNL A   1      32.882  15.646  25.306  1.00  0.00     0.115 A 
ATOM     25  C   UNL A   1      35.154  15.832  25.013  1.00  0.00     0.115 A 
ATOM     26  N   UNL A   1      34.100  15.069  25.376  1.00  0.00    -0.264 NA
ENDBRANCH  20  21
ENDBRANCH  11  20
ENDBRANCH   5   8
ENDBRANCH   3   4
ENDBRANCH   2   3
ENDBRANCH   1   2
BRANCH   1  27
ATOM     27  C   UNL A   1      32.992  28.409  24.470  1.00  0.00     0.002 C 
BRANCH  27  28
ATOM     28  C   UNL A   1      34.161  28.071  25.399  1.00  0.00     0.021 C 
BRANCH  28  29
ATOM     29  C   UNL A   1      33.892  28.153  26.898  1.00  0.00     0.116 C 
BRANCH  29  30
ATOM     30  N   UNL A   1      33.634  29.501  27.370  1.00  0.00    -0.352 N 
ATOM     31  C   UNL A   1      34.475  30.391  27.996  1.00  0.00     0.251 C 
ATOM     32  H   UNL A   1      32.717  29.828  27.219  1.00  0.00     0.163 HD
ATOM     33  O   UNL A   1      34.035  31.469  28.386  1.00  0.00    -0.269 OA
BRANCH  31  34
ATOM     34  C   UNL A   1      35.899  30.055  28.240  1.00  0.00     0.039 A 
ATOM     35  C   UNL A   1      36.264  29.602  29.514  1.00  0.00     0.014 A 
ATOM     36  C   UNL A   1      36.877  30.210  27.254  1.00  0.00     0.014 A 
ATOM     37  C   UNL A   1      37.589  29.245  29.779  1.00  0.00     0.010 A 
ATOM     38  C   UNL A   1      38.190  29.806  27.503  1.00  0.00     0.010 A 
ATOM     39  C   UNL A   1      38.557  29.317  28.766  1.00  0.00    -0.014 A 
BRANCH  39  40
ATOM     40  C   UNL A   1      39.955  28.880  29.010  1.00  0.00     0.031 A 
ATOM     41  C   UNL A   1      40.945  29.815  29.644  1.00  0.00     0.074 A 
ATOM     42  C   UNL A   1      40.352  27.659  28.604  1.00  0.00     0.049 A 
ATOM     43  N   UNL A   1      42.224  29.642  29.861  1.00  0.00    -0.248 NA
ATOM     44  C   UNL A   1      40.433  31.126  30.072  1.00  0.00     0.031 C 
ATOM     45  C   UNL A   1      39.502  26.668  27.943  1.00  0.00     0.029 A 
ATOM     46  N   UNL A   1      41.580  27.049  28.679  1.00  0.00    -0.354 N 
ATOM     47  C   UNL A   1      42.675  30.826  30.428  1.00  0.00     0.074 A 
ATOM     48  C   UNL A   1      41.539  31.720  30.500  1.00  0.00     0.031 C 
ATOM     49  C   UNL A   1      40.230  25.569  27.683  1.00  0.00     0.029 A 
ATOM     50  C   UNL A   1      41.601  25.789  28.133  1.00  0.00     0.049 A 
ATOM     51  H   UNL A   1      42.369  27.475  29.083  1.00  0.00     0.167 HD
ATOM     52  C   UNL A   1      43.921  31.138  30.861  1.00  0.00     0.037 A 
ATOM     53  C   UNL A   1      42.614  24.910  28.007  1.00  0.00     0.037 A 
ATOM     54  C   UNL A   1      45.046  30.241  30.827  1.00  0.00     0.049 A 
ATOM     55  C   UNL A   1      43.978  25.269  28.519  1.00  0.00     0.074 A 
ATOM     56  C   UNL A   1      46.331  30.451  31.298  1.00  0.00     0.029 A 
ATOM     57  N   UNL A   1      45.018  28.961  30.297  1.00  0.00    -0.354 N 
ATOM     58  N   UNL A   1      44.379  26.377  29.090  1.00  0.00    -0.248 NA
ATOM     59  C   UNL A   1      45.030  24.252  28.370  1.00  0.00     0.031 C 
ATOM     60  C   UNL A   1      47.087  29.302  31.034  1.00  0.00     0.029 A 
ATOM     61  C   UNL A   1      46.266  28.372  30.420  1.00  0.00     0.049 A 
ATOM     62  H   UNL A   1      44.228  28.534  29.892  1.00  0.00     0.167 HD
ATOM     63  C   UNL A   1      45.722  26.187  29.386  1.00  0.00     0.074 A 
ATOM     64  C   UNL A   1      46.067  24.853  28.940  1.00  0.00     0.031 C 
ATOM     65  C   UNL A   1      46.591  27.043  29.976  1.00  0.00     0.037 A 
BRANCH  52  66
ATOM     66  C   UNL A   1      44.130  32.514  31.413  1.00  0.00     0.057 A 
ATOM     67  C   UNL A   1      44.567  33.571  30.604  1.00  0.00     0.134 A 
ATOM     68  C   UNL A   1      43.868  32.791  32.760  1.00  0.00     0.134 A 
ATOM     69  F   UNL A   1      44.847  33.364  29.308  1.00  0.00    -0.206 F 
ATOM     70  C   UNL A   1      44.752  34.853  31.121  1.00  0.00     0.040 A 
ATOM     71  C   UNL A   1      44.032  34.074  33.284  1.00  0.00     0.040 A 
ATOM     72  F   UNL A   1      43.444  31.822  33.584  1.00  0.00    -0.206 F 
ATOM     73  C   UNL A   1      44.480  35.108  32.464  1.00  0.00     0.006 A 
ENDBRANCH  52  66
BRANCH  53  74
ATOM     74  C   UNL A   1      42.366  23.589  27.384  1.00  0.00     0.057 A 
ATOM     75  C   UNL A   1      42.483  23.416  26.000  1.00  0.00     0.134 A 
ATOM     76  C   UNL A   1      42.010  22.475  28.151  1.00  0.00     0.134 A 
ATOM     77  F   UNL A   1      42.802  24.455  25.215  1.00  0.00    -0.206 F 
ATOM     78  C   UNL A   1      42.243  22.180  25.398  1.00  0.00     0.040 A 
ATOM     79  C   UNL A   1      41.783  21.230  27.563  1.00  0.00     0.040 A 
ATOM     80  F   UNL A   1      41.886  22.580  29.482  1.00  0.00    -0.206 F 
ATOM     81  C   UNL A   1      41.896  21.081  26.181  1.00  0.00     0.006 A 
ENDBRANCH  53  74
BRANCH  65  82
ATOM     82  C   UNL A   1      47.988  26.552  30.192  1.00  0.00     0.057 A 
ATOM     83  C   UNL A   1      48.991  26.757  29.239  1.00  0.00     0.134 A 
ATOM     84  C   UNL A   1      48.341  25.899  31.380  1.00  0.00     0.134 A 
ATOM     85  F   UNL A   1      48.711  27.364  28.075  1.00  0.00    -0.206 F 
ATOM     86  C   UNL A   1      50.299  26.316  29.454  1.00  0.00     0.040 A 
ATOM     87  C   UNL A   1      49.646  25.467  31.612  1.00  0.00     0.040 A 
ATOM     88  F   UNL A   1      47.422  25.677  32.332  1.00  0.00    -0.206 F 
ATOM     89  C   UNL A   1      50.629  25.673  30.646  1.00  0.00     0.006 A 
ENDBRANCH  65  82
ENDBRANCH  39  40
ENDBRANCH  31  34
ENDBRANCH  29  30
ENDBRANCH  28  29
ENDBRANCH  27  28
ENDBRANCH   1  27
TORSDOF 18
ENDMDL
