MODEL 1
REMARK VINA RESULT:     -11.2      0.000      0.000
REMARK SMILES O=C(NCCCCCCNC(=O)c1cc(F)ccc1N1CCCc2ccccc21)c1ccc(-c2c3nc(c(-c4c(F)cccc4F)c4ccc([nH]4)c(-c4c(F)cccc4F)c4nc(c(-c5c(F)cccc5F)c5ccc2[nH]5)C=C4)C=C3)cc1
REMARK SMILES IDX 6 1 5 2 4 3 3 4 1 5 2 6 30 8 31 9 83 10 32 11 82 12 33 13
REMARK SMILES IDX 34 14 35 15 76 16 36 17 81 18 75 19 77 20 37 21 80 22 74 23
REMARK SMILES IDX 73 24 38 26 64 27 47 28 63 29 48 30 51 31 62 32 78 33 49 34
REMARK SMILES IDX 50 35 61 37 79 38 52 39 39 40 40 41 45 42 41 43 42 44 44 45
REMARK SMILES IDX 46 46 43 47 65 48 66 49 71 50 67 51 68 52 70 53 72 54 69 55
REMARK SMILES IDX 53 56 54 57 59 58 55 59 56 60 58 61 60 62 57 63 7 64 8 65
REMARK SMILES IDX 9 66 10 67 11 68 12 70 13 71 14 72 19 73 15 74 18 75 16 76
REMARK SMILES IDX 17 77 20 78 21 79 29 80 22 81 24 82 28 83 23 84 25 85 27 86
REMARK SMILES IDX 26 87
REMARK H PARENT 3 7 77 25 51 36 10 69
REMARK Flexibility Score: inf
ROOT
ATOM      1  C   UNL A   1      33.453  26.790  24.900  1.00  0.00     0.002 C 
ENDROOT
BRANCH   1   2
ATOM      2  C   UNL A   1      33.954  28.130  25.436  1.00  0.00     0.021 C 
BRANCH   2   3
ATOM      3  C   UNL A   1      33.901  28.270  26.949  1.00  0.00     0.116 C 
BRANCH   3   4
ATOM      4  N   UNL A   1      33.669  29.640  27.377  1.00  0.00    -0.352 N 
ATOM      5  O   UNL A   1      34.093  31.557  28.496  1.00  0.00    -0.269 OA
ATOM      6  C   UNL A   1      34.505  30.482  28.067  1.00  0.00     0.251 C 
ATOM      7  H   UNL A   1      32.790  30.015  27.140  1.00  0.00     0.163 HD
BRANCH   6   8
ATOM      8  C   UNL A   1      35.905  30.076  28.310  1.00  0.00     0.039 A 
ATOM      9  C   UNL A   1      36.877  30.266  27.327  1.00  0.00     0.014 A 
ATOM     10  C   UNL A   1      36.246  29.492  29.534  1.00  0.00     0.014 A 
ATOM     11  C   UNL A   1      38.151  29.744  27.506  1.00  0.00     0.010 A 
ATOM     12  C   UNL A   1      37.555  29.055  29.751  1.00  0.00     0.010 A 
ATOM     13  C   UNL A   1      38.512  29.156  28.729  1.00  0.00    -0.014 A 
BRANCH  13  14
ATOM     14  C   UNL A   1      39.920  28.738  28.942  1.00  0.00     0.031 A 
ATOM     15  C   UNL A   1      40.409  27.382  28.519  1.00  0.00     0.074 A 
ATOM     16  C   UNL A   1      40.769  29.619  29.506  1.00  0.00     0.049 A 
ATOM     17  N   UNL A   1      41.609  26.871  28.632  1.00  0.00    -0.248 NA
ATOM     18  C   UNL A   1      39.430  26.480  27.893  1.00  0.00     0.031 C 
ATOM     19  C   UNL A   1      40.402  30.964  29.960  1.00  0.00     0.029 A 
ATOM     20  N   UNL A   1      42.109  29.532  29.779  1.00  0.00    -0.354 N 
ATOM     21  C   UNL A   1      41.530  25.589  28.104  1.00  0.00     0.074 A 
ATOM     22  C   UNL A   1      40.156  25.385  27.697  1.00  0.00     0.031 C 
ATOM     23  C   UNL A   1      41.499  31.593  30.404  1.00  0.00     0.029 A 
ATOM     24  C   UNL A   1      42.628  30.673  30.340  1.00  0.00     0.049 A 
ATOM     25  H   UNL A   1      42.647  28.730  29.592  1.00  0.00     0.167 HD
ATOM     26  C   UNL A   1      42.519  24.674  27.967  1.00  0.00     0.037 A 
ATOM     27  C   UNL A   1      43.871  30.949  30.777  1.00  0.00     0.037 A 
ATOM     28  C   UNL A   1      43.886  24.892  28.369  1.00  0.00     0.049 A 
ATOM     29  C   UNL A   1      44.933  29.898  30.657  1.00  0.00     0.074 A 
ATOM     30  C   UNL A   1      44.965  24.033  28.244  1.00  0.00     0.029 A 
ATOM     31  N   UNL A   1      44.362  26.044  28.978  1.00  0.00    -0.354 N 
ATOM     32  N   UNL A   1      44.849  28.699  30.135  1.00  0.00    -0.248 NA
ATOM     33  C   UNL A   1      46.260  30.232  31.192  1.00  0.00     0.031 C 
ATOM     34  C   UNL A   1      46.079  24.641  28.828  1.00  0.00     0.029 A 
ATOM     35  C   UNL A   1      45.712  25.906  29.259  1.00  0.00     0.049 A 
ATOM     36  H   UNL A   1      43.821  26.841  29.180  1.00  0.00     0.167 HD
ATOM     37  C   UNL A   1      46.112  28.139  30.261  1.00  0.00     0.074 A 
ATOM     38  C   UNL A   1      46.950  29.139  30.893  1.00  0.00     0.031 C 
ATOM     39  C   UNL A   1      46.536  26.909  29.888  1.00  0.00     0.037 A 
BRANCH  26  40
ATOM     40  C   UNL A   1      42.172  23.342  27.364  1.00  0.00     0.057 A 
ATOM     41  C   UNL A   1      41.742  22.282  28.172  1.00  0.00     0.134 A 
ATOM     42  C   UNL A   1      42.352  23.079  26.000  1.00  0.00     0.134 A 
ATOM     43  F   UNL A   1      41.558  22.461  29.489  1.00  0.00    -0.206 F 
ATOM     44  C   UNL A   1      41.522  21.005  27.651  1.00  0.00     0.040 A 
ATOM     45  C   UNL A   1      42.111  21.813  25.461  1.00  0.00     0.040 A 
ATOM     46  F   UNL A   1      42.754  24.052  25.167  1.00  0.00    -0.206 F 
ATOM     47  C   UNL A   1      41.705  20.769  26.290  1.00  0.00     0.006 A 
ENDBRANCH  26  40
BRANCH  27  48
ATOM     48  C   UNL A   1      44.159  32.281  31.364  1.00  0.00     0.057 A 
ATOM     49  C   UNL A   1      44.538  33.366  30.562  1.00  0.00     0.134 A 
ATOM     50  C   UNL A   1      44.107  32.489  32.745  1.00  0.00     0.134 A 
ATOM     51  F   UNL A   1      44.618  33.227  29.229  1.00  0.00    -0.206 F 
ATOM     52  C   UNL A   1      44.884  34.599  31.113  1.00  0.00     0.040 A 
ATOM     53  C   UNL A   1      44.422  33.726  33.310  1.00  0.00     0.040 A 
ATOM     54  F   UNL A   1      43.737  31.494  33.565  1.00  0.00    -0.206 F 
ATOM     55  C   UNL A   1      44.822  34.783  32.492  1.00  0.00     0.006 A 
ENDBRANCH  27  48
BRANCH  39  56
ATOM     56  C   UNL A   1      47.979  26.570  30.130  1.00  0.00     0.057 A 
ATOM     57  C   UNL A   1      48.944  26.820  29.146  1.00  0.00     0.134 A 
ATOM     58  C   UNL A   1      48.399  25.930  31.302  1.00  0.00     0.134 A 
ATOM     59  F   UNL A   1      48.604  27.423  27.996  1.00  0.00    -0.206 F 
ATOM     60  C   UNL A   1      50.272  26.430  29.311  1.00  0.00     0.040 A 
ATOM     61  C   UNL A   1      49.731  25.560  31.492  1.00  0.00     0.040 A 
ATOM     62  F   UNL A   1      47.526  25.673  32.288  1.00  0.00    -0.206 F 
ATOM     63  C   UNL A   1      50.670  25.800  30.489  1.00  0.00     0.006 A 
ENDBRANCH  39  56
ENDBRANCH  13  14
ENDBRANCH   6   8
ENDBRANCH   3   4
ENDBRANCH   2   3
ENDBRANCH   1   2
BRANCH   1  64
ATOM     64  C   UNL A   1      32.833  26.838  23.499  1.00  0.00     0.002 C 
BRANCH  64  65
ATOM     65  C   UNL A   1      33.564  26.028  22.425  1.00  0.00     0.021 C 
BRANCH  65  66
ATOM     66  C   UNL A   1      34.260  24.769  22.931  1.00  0.00     0.116 C 
BRANCH  66  67
ATOM     67  N   UNL A   1      33.596  23.558  22.481  1.00  0.00    -0.352 N 
ATOM     68  C   UNL A   1      32.694  22.763  23.145  1.00  0.00     0.253 C 
ATOM     69  H   UNL A   1      33.825  23.265  21.570  1.00  0.00     0.163 HD
ATOM     70  O   UNL A   1      32.290  21.731  22.615  1.00  0.00    -0.269 OA
BRANCH  68  71
ATOM     71  C   UNL A   1      32.206  23.187  24.473  1.00  0.00     0.066 A 
ATOM     72  C   UNL A   1      31.070  24.015  24.502  1.00  0.00     0.055 A 
ATOM     73  C   UNL A   1      32.793  22.736  25.670  1.00  0.00     0.054 A 
ATOM     74  C   UNL A   1      30.577  24.471  25.715  1.00  0.00     0.124 A 
ATOM     75  C   UNL A   1      32.260  23.223  26.883  1.00  0.00     0.030 A 
ATOM     76  F   UNL A   1      29.519  25.290  25.731  1.00  0.00    -0.207 F 
ATOM     77  C   UNL A   1      31.172  24.097  26.908  1.00  0.00     0.041 A 
BRANCH  73  78
ATOM     78  N   UNL A   1      33.839  21.800  25.747  1.00  0.00    -0.341 N 
ATOM     79  C   UNL A   1      33.504  20.376  25.843  1.00  0.00     0.123 C 
ATOM     80  C   UNL A   1      35.219  22.106  25.694  1.00  0.00     0.044 A 
ATOM     81  C   UNL A   1      34.227  19.616  24.736  1.00  0.00     0.027 C 
ATOM     82  C   UNL A   1      36.160  21.159  25.253  1.00  0.00    -0.024 A 
ATOM     83  C   UNL A   1      35.682  23.380  26.072  1.00  0.00     0.026 A 
ATOM     84  C   UNL A   1      35.738  19.758  24.890  1.00  0.00     0.039 C 
ATOM     85  C   UNL A   1      37.521  21.503  25.181  1.00  0.00     0.006 A 
ATOM     86  C   UNL A   1      37.034  23.713  26.005  1.00  0.00     0.002 A 
ATOM     87  C   UNL A   1      37.954  22.776  25.550  1.00  0.00     0.000 A 
ENDBRANCH  73  78
ENDBRANCH  68  71
ENDBRANCH  66  67
ENDBRANCH  65  66
ENDBRANCH  64  65
ENDBRANCH   1  64
TORSDOF 14
ENDMDL
MODEL 2
REMARK VINA RESULT:     -11.2      2.225      7.373
REMARK SMILES O=C(NCCCCCCNC(=O)c1cc(F)ccc1N1CCCc2ccccc21)c1ccc(-c2c3nc(c(-c4c(F)cccc4F)c4ccc([nH]4)c(-c4c(F)cccc4F)c4nc(c(-c5c(F)cccc5F)c5ccc2[nH]5)C=C4)C=C3)cc1
REMARK SMILES IDX 6 1 5 2 4 3 3 4 1 5 2 6 30 8 31 9 83 10 32 11 82 12 33 13
REMARK SMILES IDX 34 14 35 15 76 16 36 17 81 18 75 19 77 20 37 21 80 22 74 23
REMARK SMILES IDX 73 24 38 26 64 27 47 28 63 29 48 30 51 31 62 32 78 33 49 34
REMARK SMILES IDX 50 35 61 37 79 38 52 39 39 40 40 41 45 42 41 43 42 44 44 45
REMARK SMILES IDX 46 46 43 47 65 48 66 49 71 50 67 51 68 52 70 53 72 54 69 55
REMARK SMILES IDX 53 56 54 57 59 58 55 59 56 60 58 61 60 62 57 63 7 64 8 65
REMARK SMILES IDX 9 66 10 67 11 68 12 70 13 71 14 72 19 73 15 74 18 75 16 76
REMARK SMILES IDX 17 77 20 78 21 79 29 80 22 81 24 82 28 83 23 84 25 85 27 86
REMARK SMILES IDX 26 87
REMARK H PARENT 3 7 77 25 51 36 10 69
REMARK Flexibility Score: inf
ROOT
ATOM      1  C   UNL A   1      36.412  20.519  24.988  1.00  0.00     0.002 C 
ENDROOT
BRANCH   1   2
ATOM      2  C   UNL A   1      37.666  19.649  24.925  1.00  0.00     0.021 C 
BRANCH   2   3
ATOM      3  C   UNL A   1      38.878  20.227  25.637  1.00  0.00     0.116 C 
BRANCH   3   4
ATOM      4  N   UNL A   1      39.983  19.286  25.715  1.00  0.00    -0.352 N 
ATOM      5  O   UNL A   1      42.139  18.639  25.919  1.00  0.00    -0.269 OA
ATOM      6  C   UNL A   1      41.291  19.516  26.064  1.00  0.00     0.251 C 
ATOM      7  H   UNL A   1      39.763  18.354  25.486  1.00  0.00     0.163 HD
BRANCH   6   8
ATOM      8  C   UNL A   1      41.678  20.839  26.595  1.00  0.00     0.039 A 
ATOM      9  C   UNL A   1      41.594  21.102  27.963  1.00  0.00     0.014 A 
ATOM     10  C   UNL A   1      42.123  21.829  25.714  1.00  0.00     0.014 A 
ATOM     11  C   UNL A   1      41.813  22.390  28.433  1.00  0.00     0.010 A 
ATOM     12  C   UNL A   1      42.439  23.099  26.202  1.00  0.00     0.010 A 
ATOM     13  C   UNL A   1      42.263  23.397  27.562  1.00  0.00    -0.014 A 
BRANCH  13  14
ATOM     14  C   UNL A   1      42.626  24.724  28.118  1.00  0.00     0.031 A 
ATOM     15  C   UNL A   1      44.045  25.068  28.468  1.00  0.00     0.074 A 
ATOM     16  C   UNL A   1      41.647  25.635  28.282  1.00  0.00     0.049 A 
ATOM     17  N   UNL A   1      44.522  26.184  28.958  1.00  0.00    -0.248 NA
ATOM     18  C   UNL A   1      45.063  24.029  28.245  1.00  0.00     0.031 C 
ATOM     19  C   UNL A   1      40.231  25.409  27.980  1.00  0.00     0.029 A 
ATOM     20  N   UNL A   1      41.688  26.932  28.723  1.00  0.00    -0.354 N 
ATOM     21  C   UNL A   1      45.887  25.982  29.113  1.00  0.00     0.074 A 
ATOM     22  C   UNL A   1      46.162  24.625  28.693  1.00  0.00     0.031 C 
ATOM     23  C   UNL A   1      39.549  26.543  28.192  1.00  0.00     0.029 A 
ATOM     24  C   UNL A   1      40.462  27.551  28.718  1.00  0.00     0.049 A 
ATOM     25  H   UNL A   1      42.516  27.378  29.014  1.00  0.00     0.167 HD
ATOM     26  C   UNL A   1      46.822  26.857  29.556  1.00  0.00     0.037 A 
ATOM     27  C   UNL A   1      40.099  28.785  29.112  1.00  0.00     0.037 A 
ATOM     28  C   UNL A   1      46.537  28.210  29.964  1.00  0.00     0.049 A 
ATOM     29  C   UNL A   1      41.149  29.715  29.646  1.00  0.00     0.074 A 
ATOM     30  C   UNL A   1      47.423  29.179  30.401  1.00  0.00     0.029 A 
ATOM     31  N   UNL A   1      45.273  28.783  29.990  1.00  0.00    -0.354 N 
ATOM     32  N   UNL A   1      42.439  29.517  29.764  1.00  0.00    -0.248 NA
ATOM     33  C   UNL A   1      40.695  31.033  30.107  1.00  0.00     0.031 C 
ATOM     34  C   UNL A   1      46.691  30.319  30.746  1.00  0.00     0.029 A 
ATOM     35  C   UNL A   1      45.355  30.083  30.463  1.00  0.00     0.049 A 
ATOM     36  H   UNL A   1      44.443  28.333  29.714  1.00  0.00     0.167 HD
ATOM     37  C   UNL A   1      42.956  30.689  30.296  1.00  0.00     0.074 A 
ATOM     38  C   UNL A   1      41.841  31.600  30.461  1.00  0.00     0.031 C 
ATOM     39  C   UNL A   1      44.238  30.981  30.621  1.00  0.00     0.037 A 
BRANCH  26  40
ATOM     40  C   UNL A   1      48.247  26.388  29.637  1.00  0.00     0.057 A 
ATOM     41  C   UNL A   1      48.737  25.790  30.805  1.00  0.00     0.134 A 
ATOM     42  C   UNL A   1      49.159  26.613  28.598  1.00  0.00     0.134 A 
ATOM     43  F   UNL A   1      47.921  25.555  31.844  1.00  0.00    -0.206 F 
ATOM     44  C   UNL A   1      50.084  25.450  30.944  1.00  0.00     0.040 A 
ATOM     45  C   UNL A   1      50.503  26.253  28.715  1.00  0.00     0.040 A 
ATOM     46  F   UNL A   1      48.755  27.174  27.448  1.00  0.00    -0.206 F 
ATOM     47  C   UNL A   1      50.971  25.679  29.895  1.00  0.00     0.006 A 
ENDBRANCH  26  40
BRANCH  27  48
ATOM     48  C   UNL A   1      38.678  29.197  29.010  1.00  0.00     0.057 A 
ATOM     49  C   UNL A   1      37.822  29.151  30.118  1.00  0.00     0.134 A 
ATOM     50  C   UNL A   1      38.128  29.600  27.789  1.00  0.00     0.134 A 
ATOM     51  F   UNL A   1      38.286  28.762  31.316  1.00  0.00    -0.206 F 
ATOM     52  C   UNL A   1      36.468  29.464  30.012  1.00  0.00     0.040 A 
ATOM     53  C   UNL A   1      36.781  29.944  27.672  1.00  0.00     0.040 A 
ATOM     54  F   UNL A   1      38.899  29.677  26.694  1.00  0.00    -0.206 F 
ATOM     55  C   UNL A   1      35.944  29.866  28.785  1.00  0.00     0.006 A 
ENDBRANCH  27  48
BRANCH  39  56
ATOM     56  C   UNL A   1      44.519  32.350  31.168  1.00  0.00     0.057 A 
ATOM     57  C   UNL A   1      44.815  33.415  30.306  1.00  0.00     0.134 A 
ATOM     58  C   UNL A   1      44.573  32.598  32.545  1.00  0.00     0.134 A 
ATOM     59  F   UNL A   1      44.790  33.242  28.976  1.00  0.00    -0.206 F 
ATOM     60  C   UNL A   1      45.170  34.672  30.795  1.00  0.00     0.040 A 
ATOM     61  C   UNL A   1      44.899  33.859  33.046  1.00  0.00     0.040 A 
ATOM     62  F   UNL A   1      44.288  31.624  33.423  1.00  0.00    -0.206 F 
ATOM     63  C   UNL A   1      45.210  34.898  32.170  1.00  0.00     0.006 A 
ENDBRANCH  39  56
ENDBRANCH  13  14
ENDBRANCH   6   8
ENDBRANCH   3   4
ENDBRANCH   2   3
ENDBRANCH   1   2
BRANCH   1  64
ATOM     64  C   UNL A   1      36.627  21.936  25.530  1.00  0.00     0.002 C 
BRANCH  64  65
ATOM     65  C   UNL A   1      36.504  23.062  24.500  1.00  0.00     0.021 C 
BRANCH  65  66
ATOM     66  C   UNL A   1      35.525  24.171  24.873  1.00  0.00     0.116 C 
BRANCH  66  67
ATOM     67  N   UNL A   1      34.794  24.667  23.721  1.00  0.00    -0.352 N 
ATOM     68  C   UNL A   1      33.467  24.515  23.401  1.00  0.00     0.253 C 
ATOM     69  H   UNL A   1      35.326  25.187  23.076  1.00  0.00     0.163 HD
ATOM     70  O   UNL A   1      33.045  24.958  22.336  1.00  0.00    -0.269 OA
BRANCH  68  71
ATOM     71  C   UNL A   1      32.570  23.846  24.366  1.00  0.00     0.066 A 
ATOM     72  C   UNL A   1      32.577  22.440  24.377  1.00  0.00     0.055 A 
ATOM     73  C   UNL A   1      31.788  24.564  25.289  1.00  0.00     0.054 A 
ATOM     74  C   UNL A   1      31.739  21.751  25.239  1.00  0.00     0.124 A 
ATOM     75  C   UNL A   1      30.949  23.823  26.150  1.00  0.00     0.030 A 
ATOM     76  F   UNL A   1      31.725  20.413  25.216  1.00  0.00    -0.207 F 
ATOM     77  C   UNL A   1      30.909  22.429  26.116  1.00  0.00     0.041 A 
BRANCH  73  78
ATOM     78  N   UNL A   1      31.817  25.960  25.450  1.00  0.00    -0.341 N 
ATOM     79  C   UNL A   1      32.758  26.539  26.413  1.00  0.00     0.123 C 
ATOM     80  C   UNL A   1      31.037  26.886  24.719  1.00  0.00     0.044 A 
ATOM     81  C   UNL A   1      33.610  27.591  25.712  1.00  0.00     0.027 C 
ATOM     82  C   UNL A   1      31.462  28.215  24.536  1.00  0.00    -0.024 A 
ATOM     83  C   UNL A   1      29.815  26.492  24.144  1.00  0.00     0.026 A 
ATOM     84  C   UNL A   1      32.731  28.717  25.175  1.00  0.00     0.039 C 
ATOM     85  C   UNL A   1      30.681  29.103  23.778  1.00  0.00     0.006 A 
ATOM     86  C   UNL A   1      29.041  27.381  23.399  1.00  0.00     0.002 A 
ATOM     87  C   UNL A   1      29.479  28.685  23.207  1.00  0.00     0.000 A 
ENDBRANCH  73  78
ENDBRANCH  68  71
ENDBRANCH  66  67
ENDBRANCH  65  66
ENDBRANCH  64  65
ENDBRANCH   1  64
TORSDOF 14
ENDMDL
MODEL 3
REMARK VINA RESULT:     -11.2      3.541      7.750
REMARK SMILES O=C(NCCCCCCNC(=O)c1cc(F)ccc1N1CCCc2ccccc21)c1ccc(-c2c3nc(c(-c4c(F)cccc4F)c4ccc([nH]4)c(-c4c(F)cccc4F)c4nc(c(-c5c(F)cccc5F)c5ccc2[nH]5)C=C4)C=C3)cc1
REMARK SMILES IDX 6 1 5 2 4 3 3 4 1 5 2 6 30 8 31 9 83 10 32 11 82 12 33 13
REMARK SMILES IDX 34 14 35 15 76 16 36 17 81 18 75 19 77 20 37 21 80 22 74 23
REMARK SMILES IDX 73 24 38 26 64 27 47 28 63 29 48 30 51 31 62 32 78 33 49 34
REMARK SMILES IDX 50 35 61 37 79 38 52 39 39 40 40 41 45 42 41 43 42 44 44 45
REMARK SMILES IDX 46 46 43 47 65 48 66 49 71 50 67 51 68 52 70 53 72 54 69 55
REMARK SMILES IDX 53 56 54 57 59 58 55 59 56 60 58 61 60 62 57 63 7 64 8 65
REMARK SMILES IDX 9 66 10 67 11 68 12 70 13 71 14 72 19 73 15 74 18 75 16 76
REMARK SMILES IDX 17 77 20 78 21 79 29 80 22 81 24 82 28 83 23 84 25 85 27 86
REMARK SMILES IDX 26 87
REMARK H PARENT 3 7 77 25 51 36 10 69
REMARK Flexibility Score: inf
ROOT
ATOM      1  C   UNL A   1      31.396  30.830  26.010  1.00  0.00     0.002 C 
ENDROOT
BRANCH   1   2
ATOM      2  C   UNL A   1      31.258  32.272  26.497  1.00  0.00     0.021 C 
BRANCH   2   3
ATOM      3  C   UNL A   1      32.506  32.846  27.149  1.00  0.00     0.116 C 
BRANCH   3   4
ATOM      4  N   UNL A   1      32.312  34.203  27.631  1.00  0.00    -0.352 N 
ATOM      5  O   UNL A   1      32.583  35.963  29.023  1.00  0.00    -0.269 OA
ATOM      6  C   UNL A   1      32.982  34.871  28.625  1.00  0.00     0.251 C 
ATOM      7  H   UNL A   1      31.600  34.715  27.182  1.00  0.00     0.163 HD
BRANCH   6   8
ATOM      8  C   UNL A   1      34.180  34.255  29.233  1.00  0.00     0.039 A 
ATOM      9  C   UNL A   1      35.450  34.529  28.725  1.00  0.00     0.014 A 
ATOM     10  C   UNL A   1      34.028  33.388  30.319  1.00  0.00     0.014 A 
ATOM     11  C   UNL A   1      36.550  33.830  29.202  1.00  0.00     0.010 A 
ATOM     12  C   UNL A   1      35.150  32.759  30.864  1.00  0.00     0.010 A 
ATOM     13  C   UNL A   1      36.417  32.957  30.294  1.00  0.00    -0.014 A 
BRANCH  13  14
ATOM     14  C   UNL A   1      37.633  32.334  30.874  1.00  0.00     0.031 A 
ATOM     15  C   UNL A   1      38.258  32.856  32.136  1.00  0.00     0.074 A 
ATOM     16  C   UNL A   1      38.159  31.262  30.250  1.00  0.00     0.049 A 
ATOM     17  N   UNL A   1      39.317  32.418  32.769  1.00  0.00    -0.248 NA
ATOM     18  C   UNL A   1      37.618  34.019  32.771  1.00  0.00     0.031 C 
ATOM     19  C   UNL A   1      37.638  30.671  29.015  1.00  0.00     0.029 A 
ATOM     20  N   UNL A   1      39.229  30.468  30.571  1.00  0.00    -0.354 N 
ATOM     21  C   UNL A   1      39.479  33.254  33.866  1.00  0.00     0.074 A 
ATOM     22  C   UNL A   1      38.427  34.246  33.800  1.00  0.00     0.031 C 
ATOM     23  C   UNL A   1      38.354  29.580  28.712  1.00  0.00     0.029 A 
ATOM     24  C   UNL A   1      39.430  29.437  29.685  1.00  0.00     0.049 A 
ATOM     25  H   UNL A   1      39.798  30.620  31.359  1.00  0.00     0.167 HD
ATOM     26  C   UNL A   1      40.417  33.189  34.842  1.00  0.00     0.037 A 
ATOM     27  C   UNL A   1      40.386  28.491  29.642  1.00  0.00     0.037 A 
ATOM     28  C   UNL A   1      41.456  32.191  34.901  1.00  0.00     0.049 A 
ATOM     29  C   UNL A   1      41.441  28.475  30.708  1.00  0.00     0.074 A 
ATOM     30  C   UNL A   1      42.435  32.027  35.867  1.00  0.00     0.029 A 
ATOM     31  N   UNL A   1      41.655  31.193  33.958  1.00  0.00    -0.354 N 
ATOM     32  N   UNL A   1      41.567  29.257  31.752  1.00  0.00    -0.248 NA
ATOM     33  C   UNL A   1      42.488  27.452  30.589  1.00  0.00     0.031 C 
ATOM     34  C   UNL A   1      43.260  30.968  35.480  1.00  0.00     0.029 A 
ATOM     35  C   UNL A   1      42.758  30.429  34.306  1.00  0.00     0.049 A 
ATOM     36  H   UNL A   1      41.096  31.049  33.161  1.00  0.00     0.167 HD
ATOM     37  C   UNL A   1      42.696  28.813  32.425  1.00  0.00     0.074 A 
ATOM     38  C   UNL A   1      43.208  27.680  31.680  1.00  0.00     0.031 C 
ATOM     39  C   UNL A   1      43.257  29.302  33.556  1.00  0.00     0.037 A 
BRANCH  26  40
ATOM     40  C   UNL A   1      40.381  34.225  35.929  1.00  0.00     0.057 A 
ATOM     41  C   UNL A   1      39.597  34.032  37.074  1.00  0.00     0.134 A 
ATOM     42  C   UNL A   1      41.044  35.452  35.802  1.00  0.00     0.134 A 
ATOM     43  F   UNL A   1      38.927  32.884  37.255  1.00  0.00    -0.206 F 
ATOM     44  C   UNL A   1      39.459  35.028  38.044  1.00  0.00     0.040 A 
ATOM     45  C   UNL A   1      40.935  36.446  36.778  1.00  0.00     0.040 A 
ATOM     46  F   UNL A   1      41.818  35.700  34.735  1.00  0.00    -0.206 F 
ATOM     47  C   UNL A   1      40.132  36.238  37.898  1.00  0.00     0.006 A 
ENDBRANCH  26  40
BRANCH  27  48
ATOM     48  C   UNL A   1      40.374  27.491  28.546  1.00  0.00     0.057 A 
ATOM     49  C   UNL A   1      39.653  26.295  28.657  1.00  0.00     0.134 A 
ATOM     50  C   UNL A   1      41.122  27.686  27.381  1.00  0.00     0.134 A 
ATOM     51  F   UNL A   1      38.924  26.043  29.755  1.00  0.00    -0.206 F 
ATOM     52  C   UNL A   1      39.698  25.318  27.663  1.00  0.00     0.040 A 
ATOM     53  C   UNL A   1      41.154  26.730  26.365  1.00  0.00     0.040 A 
ATOM     54  F   UNL A   1      41.823  28.817  27.210  1.00  0.00    -0.206 F 
ATOM     55  C   UNL A   1      40.448  25.537  26.510  1.00  0.00     0.006 A 
ENDBRANCH  27  48
BRANCH  39  56
ATOM     56  C   UNL A   1      44.480  28.607  34.080  1.00  0.00     0.057 A 
ATOM     57  C   UNL A   1      45.756  28.975  33.633  1.00  0.00     0.134 A 
ATOM     58  C   UNL A   1      44.391  27.527  34.967  1.00  0.00     0.134 A 
ATOM     59  F   UNL A   1      45.909  29.996  32.776  1.00  0.00    -0.206 F 
ATOM     60  C   UNL A   1      46.898  28.283  34.035  1.00  0.00     0.040 A 
ATOM     61  C   UNL A   1      45.529  26.844  35.399  1.00  0.00     0.040 A 
ATOM     62  F   UNL A   1      43.200  27.133  35.442  1.00  0.00    -0.206 F 
ATOM     63  C   UNL A   1      46.786  27.215  34.924  1.00  0.00     0.006 A 
ENDBRANCH  39  56
ENDBRANCH  13  14
ENDBRANCH   6   8
ENDBRANCH   3   4
ENDBRANCH   2   3
ENDBRANCH   1   2
BRANCH   1  64
ATOM     64  C   UNL A   1      32.347  29.953  26.830  1.00  0.00     0.002 C 
BRANCH  64  65
ATOM     65  C   UNL A   1      31.765  28.621  27.313  1.00  0.00     0.021 C 
BRANCH  65  66
ATOM     66  C   UNL A   1      32.530  27.382  26.858  1.00  0.00     0.116 C 
BRANCH  66  67
ATOM     67  N   UNL A   1      31.724  26.177  26.948  1.00  0.00    -0.352 N 
ATOM     68  C   UNL A   1      31.036  25.516  25.961  1.00  0.00     0.253 C 
ATOM     69  H   UNL A   1      31.663  25.777  27.845  1.00  0.00     0.163 HD
ATOM     70  O   UNL A   1      30.351  24.538  26.249  1.00  0.00    -0.269 OA
BRANCH  68  71
ATOM     71  C   UNL A   1      31.164  25.980  24.564  1.00  0.00     0.066 A 
ATOM     72  C   UNL A   1      30.270  26.977  24.137  1.00  0.00     0.055 A 
ATOM     73  C   UNL A   1      32.174  25.509  23.704  1.00  0.00     0.054 A 
ATOM     74  C   UNL A   1      30.319  27.437  22.831  1.00  0.00     0.124 A 
ATOM     75  C   UNL A   1      32.189  26.005  22.382  1.00  0.00     0.030 A 
ATOM     76  F   UNL A   1      29.439  28.359  22.422  1.00  0.00    -0.207 F 
ATOM     77  C   UNL A   1      31.260  26.947  21.941  1.00  0.00     0.041 A 
BRANCH  73  78
ATOM     78  N   UNL A   1      33.197  24.621  24.079  1.00  0.00    -0.341 N 
ATOM     79  C   UNL A   1      34.436  25.169  24.638  1.00  0.00     0.123 C 
ATOM     80  C   UNL A   1      33.123  23.210  24.009  1.00  0.00     0.044 A 
ATOM     81  C   UNL A   1      34.717  24.504  25.981  1.00  0.00     0.027 C 
ATOM     82  C   UNL A   1      33.905  22.396  24.849  1.00  0.00    -0.024 A 
ATOM     83  C   UNL A   1      32.251  22.586  23.099  1.00  0.00     0.026 A 
ATOM     84  C   UNL A   1      34.903  23.000  25.803  1.00  0.00     0.039 C 
ATOM     85  C   UNL A   1      33.787  20.997  24.778  1.00  0.00     0.006 A 
ATOM     86  C   UNL A   1      32.144  21.197  23.029  1.00  0.00     0.002 A 
ATOM     87  C   UNL A   1      32.906  20.402  23.877  1.00  0.00     0.000 A 
ENDBRANCH  73  78
ENDBRANCH  68  71
ENDBRANCH  66  67
ENDBRANCH  65  66
ENDBRANCH  64  65
ENDBRANCH   1  64
TORSDOF 14
ENDMDL
