MODEL 1
REMARK VINA RESULT:     -11.6      0.000      0.000
REMARK SMILES Cc1cc(Cl)c(C)c2c1O[C@H](C(F)(F)F)C(C(=O)NCCCCCCNC(=O)c1ccc(-c3c4nc(c(-c5c(F)cccc5F)c5ccc([nH]5)c(-c5c(F)cccc5F)c5nc(c(-c6c(F)cccc6F)c6ccc3[nH]6)C=C5)C=C4)cc1)=C2
REMARK SMILES IDX 23 1 22 2 21 3 20 4 19 5 17 6 18 7 16 9 1 10 2 11 3 12 9 13
REMARK SMILES IDX 4 14 8 15 10 16 5 17 6 18 83 19 11 20 7 21 12 22 13 23 14 24
REMARK SMILES IDX 15 25 24 26 25 27 26 28 27 29 28 31 29 32 30 33 82 34 31 35
REMARK SMILES IDX 81 36 32 37 33 38 34 39 75 40 35 41 80 42 74 43 76 44 36 45
REMARK SMILES IDX 79 46 73 47 72 48 37 50 63 51 46 52 62 53 47 54 50 55 61 56
REMARK SMILES IDX 77 57 48 58 49 59 60 61 78 62 51 63 38 64 39 65 44 66 40 67
REMARK SMILES IDX 41 68 43 69 45 70 42 71 64 72 65 73 70 74 66 75 67 76 69 77
REMARK SMILES IDX 71 78 68 79 52 80 53 81 58 82 54 83 55 84 57 85 59 86 56 87
REMARK H PARENT 19 8 26 30 76 49 50 60
REMARK Flexibility Score: inf
ROOT
ATOM      1  C   UNL A   1      33.871  28.984  24.808  1.00  0.00     0.002 C 
ENDROOT
BRANCH   1   2
ATOM      2  C   UNL A   1      33.669  28.345  23.426  1.00  0.00     0.002 C 
BRANCH   2   3
ATOM      3  C   UNL A   1      33.428  26.833  23.438  1.00  0.00     0.021 C 
BRANCH   3   4
ATOM      4  C   UNL A   1      31.956  26.446  23.534  1.00  0.00     0.116 C 
BRANCH   4   5
ATOM      5  N   UNL A   1      31.575  26.110  24.894  1.00  0.00    -0.352 N 
ATOM      6  C   UNL A   1      31.783  25.093  25.761  1.00  0.00     0.251 C 
ATOM      7  O   UNL A   1      31.269  25.241  26.875  1.00  0.00    -0.270 OA
ATOM      8  H   UNL A   1      31.014  26.814  25.294  1.00  0.00     0.163 HD
BRANCH   6   9
ATOM      9  C   UNL A   1      32.560  23.850  25.467  1.00  0.00     0.067 C 
ATOM     10  C   UNL A   1      34.131  19.074  24.556  1.00  0.00     0.048 C 
ATOM     11  C   UNL A   1      34.825  20.353  24.922  1.00  0.00    -0.007 A 
ATOM     12  C   UNL A   1      36.213  20.395  25.060  1.00  0.00     0.028 A 
ATOM     13  C   UNL A   1      34.096  21.527  25.144  1.00  0.00     0.131 A 
ATOM     14  C   UNL A   1      36.860  21.585  25.415  1.00  0.00     0.045 A 
ATOM     15  C   UNL A   1      34.724  22.727  25.511  1.00  0.00     0.022 A 
ATOM     16  O   UNL A   1      32.739  21.411  25.032  1.00  0.00    -0.475 OA
ATOM     17  Cl  UNL A   1      38.582  21.505  25.564  1.00  0.00    -0.084 Cl
ATOM     18  C   UNL A   1      36.133  22.770  25.647  1.00  0.00    -0.021 A 
ATOM     19  C   UNL A   1      33.867  23.888  25.785  1.00  0.00     0.026 C 
ATOM     20  C   UNL A   1      31.981  22.626  24.831  1.00  0.00     0.314 C 
ATOM     21  C   UNL A   1      36.818  24.055  26.039  1.00  0.00     0.047 C 
BRANCH  20  22
ATOM     22  C   UNL A   1      31.691  22.807  23.330  1.00  0.00     0.429 C 
ATOM     23  F   UNL A   1      31.614  21.600  22.714  1.00  0.00    -0.167 F 
ATOM     24  F   UNL A   1      30.509  23.425  23.101  1.00  0.00    -0.167 F 
ATOM     25  F   UNL A   1      32.643  23.527  22.698  1.00  0.00    -0.167 F 
ENDBRANCH  20  22
ENDBRANCH   6   9
ENDBRANCH   4   5
ENDBRANCH   3   4
ENDBRANCH   2   3
ENDBRANCH   1   2
BRANCH   1  26
ATOM     26  C   UNL A   1      34.293  28.021  25.922  1.00  0.00     0.021 C 
BRANCH  26  27
ATOM     27  C   UNL A   1      33.725  28.355  27.298  1.00  0.00     0.116 C 
BRANCH  27  28
ATOM     28  N   UNL A   1      33.672  29.791  27.520  1.00  0.00    -0.352 N 
ATOM     29  C   UNL A   1      34.595  30.611  28.106  1.00  0.00     0.251 C 
ATOM     30  H   UNL A   1      32.853  30.235  27.204  1.00  0.00     0.163 HD
ATOM     31  O   UNL A   1      34.288  31.762  28.418  1.00  0.00    -0.269 OA
BRANCH  29  32
ATOM     32  C   UNL A   1      35.964  30.123  28.365  1.00  0.00     0.039 A 
ATOM     33  C   UNL A   1      36.265  29.583  29.618  1.00  0.00     0.014 A 
ATOM     34  C   UNL A   1      36.959  30.247  27.390  1.00  0.00     0.014 A 
ATOM     35  C   UNL A   1      37.559  29.137  29.886  1.00  0.00     0.010 A 
ATOM     36  C   UNL A   1      38.234  29.747  27.637  1.00  0.00     0.010 A 
ATOM     37  C   UNL A   1      38.549  29.206  28.893  1.00  0.00    -0.014 A 
BRANCH  37  38
ATOM     38  C   UNL A   1      39.940  28.772  29.157  1.00  0.00     0.031 A 
ATOM     39  C   UNL A   1      40.890  29.713  29.844  1.00  0.00     0.074 A 
ATOM     40  C   UNL A   1      40.363  27.566  28.737  1.00  0.00     0.049 A 
ATOM     41  N   UNL A   1      42.174  29.587  30.056  1.00  0.00    -0.248 NA
ATOM     42  C   UNL A   1      40.320  30.978  30.338  1.00  0.00     0.031 C 
ATOM     43  C   UNL A   1      39.535  26.569  28.057  1.00  0.00     0.029 A 
ATOM     44  N   UNL A   1      41.600  26.979  28.813  1.00  0.00    -0.354 N 
ATOM     45  C   UNL A   1      42.568  30.754  30.695  1.00  0.00     0.074 A 
ATOM     46  C   UNL A   1      41.397  31.600  30.793  1.00  0.00     0.031 C 
ATOM     47  C   UNL A   1      40.284  25.487  27.791  1.00  0.00     0.029 A 
ATOM     48  C   UNL A   1      41.651  25.731  28.242  1.00  0.00     0.049 A 
ATOM     49  H   UNL A   1      42.377  27.412  29.235  1.00  0.00     0.167 HD
ATOM     50  C   UNL A   1      43.788  31.084  31.176  1.00  0.00     0.037 A 
ATOM     51  C   UNL A   1      42.689  24.888  28.090  1.00  0.00     0.037 A 
ATOM     52  C   UNL A   1      44.945  30.232  31.093  1.00  0.00     0.049 A 
ATOM     53  C   UNL A   1      44.045  25.292  28.598  1.00  0.00     0.074 A 
ATOM     54  C   UNL A   1      46.224  30.463  31.569  1.00  0.00     0.029 A 
ATOM     55  N   UNL A   1      44.960  28.979  30.497  1.00  0.00    -0.354 N 
ATOM     56  N   UNL A   1      44.403  26.396  29.209  1.00  0.00    -0.248 NA
ATOM     57  C   UNL A   1      45.140  24.335  28.393  1.00  0.00     0.031 C 
ATOM     58  C   UNL A   1      47.021  29.365  31.230  1.00  0.00     0.029 A 
ATOM     59  C   UNL A   1      46.230  28.431  30.581  1.00  0.00     0.049 A 
ATOM     60  H   UNL A   1      44.184  28.543  30.076  1.00  0.00     0.167 HD
ATOM     61  C   UNL A   1      45.759  26.260  29.476  1.00  0.00     0.074 A 
ATOM     62  C   UNL A   1      46.153  24.957  28.979  1.00  0.00     0.031 C 
ATOM     63  C   UNL A   1      46.604  27.135  30.074  1.00  0.00     0.037 A 
BRANCH  50  64
ATOM     64  C   UNL A   1      43.933  32.421  31.842  1.00  0.00     0.057 A 
ATOM     65  C   UNL A   1      43.748  32.580  33.221  1.00  0.00     0.134 A 
ATOM     66  C   UNL A   1      44.302  33.553  31.105  1.00  0.00     0.134 A 
ATOM     67  F   UNL A   1      43.378  31.538  33.981  1.00  0.00    -0.206 F 
ATOM     68  C   UNL A   1      43.903  33.820  33.841  1.00  0.00     0.040 A 
ATOM     69  C   UNL A   1      44.486  34.795  31.718  1.00  0.00     0.040 A 
ATOM     70  F   UNL A   1      44.498  33.471  29.780  1.00  0.00    -0.206 F 
ATOM     71  C   UNL A   1      44.282  34.931  33.089  1.00  0.00     0.006 A 
ENDBRANCH  50  64
BRANCH  51  72
ATOM     72  C   UNL A   1      42.481  23.568  27.443  1.00  0.00     0.057 A 
ATOM     73  C   UNL A   1      42.157  22.439  28.206  1.00  0.00     0.134 A 
ATOM     74  C   UNL A   1      42.593  23.401  26.058  1.00  0.00     0.134 A 
ATOM     75  F   UNL A   1      42.056  22.533  29.540  1.00  0.00    -0.206 F 
ATOM     76  C   UNL A   1      41.961  21.190  27.615  1.00  0.00     0.040 A 
ATOM     77  C   UNL A   1      42.377  22.163  25.452  1.00  0.00     0.040 A 
ATOM     78  F   UNL A   1      42.896  24.445  25.273  1.00  0.00    -0.206 F 
ATOM     79  C   UNL A   1      42.065  21.052  26.232  1.00  0.00     0.006 A 
ENDBRANCH  51  72
BRANCH  63  80
ATOM     80  C   UNL A   1      48.032  26.706  30.235  1.00  0.00     0.057 A 
ATOM     81  C   UNL A   1      48.452  25.945  31.333  1.00  0.00     0.134 A 
ATOM     82  C   UNL A   1      48.990  27.026  29.264  1.00  0.00     0.134 A 
ATOM     83  F   UNL A   1      47.586  25.615  32.304  1.00  0.00    -0.206 F 
ATOM     84  C   UNL A   1      49.780  25.536  31.473  1.00  0.00     0.040 A 
ATOM     85  C   UNL A   1      50.314  26.600  29.379  1.00  0.00     0.040 A 
ATOM     86  F   UNL A   1      48.652  27.744  28.183  1.00  0.00    -0.206 F 
ATOM     87  C   UNL A   1      50.714  25.859  30.489  1.00  0.00     0.006 A 
ENDBRANCH  63  80
ENDBRANCH  37  38
ENDBRANCH  29  32
ENDBRANCH  27  28
ENDBRANCH  26  27
ENDBRANCH   1  26
TORSDOF 14
ENDMDL
MODEL 2
REMARK VINA RESULT:     -11.6      1.161      1.739
REMARK SMILES Cc1cc(Cl)c(C)c2c1O[C@H](C(F)(F)F)C(C(=O)NCCCCCCNC(=O)c1ccc(-c3c4nc(c(-c5c(F)cccc5F)c5ccc([nH]5)c(-c5c(F)cccc5F)c5nc(c(-c6c(F)cccc6F)c6ccc3[nH]6)C=C5)C=C4)cc1)=C2
REMARK SMILES IDX 23 1 22 2 21 3 20 4 19 5 17 6 18 7 16 9 1 10 2 11 3 12 9 13
REMARK SMILES IDX 4 14 8 15 10 16 5 17 6 18 83 19 11 20 7 21 12 22 13 23 14 24
REMARK SMILES IDX 15 25 24 26 25 27 26 28 27 29 28 31 29 32 30 33 82 34 31 35
REMARK SMILES IDX 81 36 32 37 33 38 34 39 75 40 35 41 80 42 74 43 76 44 36 45
REMARK SMILES IDX 79 46 73 47 72 48 37 50 63 51 46 52 62 53 47 54 50 55 61 56
REMARK SMILES IDX 77 57 48 58 49 59 60 61 78 62 51 63 38 64 39 65 44 66 40 67
REMARK SMILES IDX 41 68 43 69 45 70 42 71 64 72 65 73 70 74 66 75 67 76 69 77
REMARK SMILES IDX 71 78 68 79 52 80 53 81 58 82 54 83 55 84 57 85 59 86 56 87
REMARK H PARENT 19 8 26 30 76 49 50 60
REMARK Flexibility Score: inf
ROOT
ATOM      1  C   UNL A   1      33.903  28.625  24.727  1.00  0.00     0.002 C 
ENDROOT
BRANCH   1   2
ATOM      2  C   UNL A   1      33.035  28.897  23.490  1.00  0.00     0.002 C 
BRANCH   2   3
ATOM      3  C   UNL A   1      31.526  28.766  23.713  1.00  0.00     0.021 C 
BRANCH   3   4
ATOM      4  C   UNL A   1      30.890  27.611  22.947  1.00  0.00     0.116 C 
BRANCH   4   5
ATOM      5  N   UNL A   1      31.816  27.019  21.999  1.00  0.00    -0.352 N 
ATOM      6  C   UNL A   1      32.692  25.988  21.977  1.00  0.00     0.251 C 
ATOM      7  O   UNL A   1      33.277  25.821  20.902  1.00  0.00    -0.270 OA
ATOM      8  H   UNL A   1      31.803  27.497  21.137  1.00  0.00     0.163 HD
BRANCH   6   9
ATOM      9  C   UNL A   1      32.987  25.078  23.126  1.00  0.00     0.067 C 
ATOM     10  C   UNL A   1      33.131  22.615  27.601  1.00  0.00     0.048 C 
ATOM     11  C   UNL A   1      34.048  22.688  26.415  1.00  0.00    -0.007 A 
ATOM     12  C   UNL A   1      35.234  21.954  26.387  1.00  0.00     0.028 A 
ATOM     13  C   UNL A   1      33.740  23.501  25.319  1.00  0.00     0.131 A 
ATOM     14  C   UNL A   1      36.097  22.032  25.287  1.00  0.00     0.045 A 
ATOM     15  C   UNL A   1      34.596  23.602  24.211  1.00  0.00     0.022 A 
ATOM     16  O   UNL A   1      32.586  24.224  25.424  1.00  0.00    -0.475 OA
ATOM     17  Cl  UNL A   1      37.540  21.081  25.376  1.00  0.00    -0.084 Cl
ATOM     18  C   UNL A   1      35.798  22.853  24.181  1.00  0.00    -0.021 A 
ATOM     19  C   UNL A   1      34.216  24.532  23.139  1.00  0.00     0.026 C 
ATOM     20  C   UNL A   1      32.005  24.735  24.201  1.00  0.00     0.314 C 
ATOM     21  C   UNL A   1      36.723  22.953  22.995  1.00  0.00     0.047 C 
BRANCH  20  22
ATOM     22  C   UNL A   1      30.896  23.782  23.723  1.00  0.00     0.429 C 
ATOM     23  F   UNL A   1      30.359  23.113  24.776  1.00  0.00    -0.167 F 
ATOM     24  F   UNL A   1      29.871  24.435  23.127  1.00  0.00    -0.167 F 
ATOM     25  F   UNL A   1      31.344  22.861  22.842  1.00  0.00    -0.167 F 
ENDBRANCH  20  22
ENDBRANCH   6   9
ENDBRANCH   4   5
ENDBRANCH   3   4
ENDBRANCH   2   3
ENDBRANCH   1   2
BRANCH   1  26
ATOM     26  C   UNL A   1      33.216  27.852  25.856  1.00  0.00     0.021 C 
BRANCH  26  27
ATOM     27  C   UNL A   1      33.683  28.227  27.258  1.00  0.00     0.116 C 
BRANCH  27  28
ATOM     28  N   UNL A   1      33.624  29.663  27.476  1.00  0.00    -0.352 N 
ATOM     29  C   UNL A   1      34.555  30.493  28.036  1.00  0.00     0.251 C 
ATOM     30  H   UNL A   1      32.795  30.099  27.177  1.00  0.00     0.163 HD
ATOM     31  O   UNL A   1      34.248  31.643  28.350  1.00  0.00    -0.269 OA
BRANCH  29  32
ATOM     32  C   UNL A   1      35.933  30.016  28.264  1.00  0.00     0.039 A 
ATOM     33  C   UNL A   1      36.279  29.524  29.525  1.00  0.00     0.014 A 
ATOM     34  C   UNL A   1      36.893  30.103  27.251  1.00  0.00     0.014 A 
ATOM     35  C   UNL A   1      37.583  29.089  29.764  1.00  0.00     0.010 A 
ATOM     36  C   UNL A   1      38.177  29.614  27.471  1.00  0.00     0.010 A 
ATOM     37  C   UNL A   1      38.537  29.120  28.734  1.00  0.00    -0.014 A 
BRANCH  37  38
ATOM     38  C   UNL A   1      39.937  28.698  28.965  1.00  0.00     0.031 A 
ATOM     39  C   UNL A   1      40.909  29.664  29.584  1.00  0.00     0.074 A 
ATOM     40  C   UNL A   1      40.348  27.478  28.574  1.00  0.00     0.049 A 
ATOM     41  N   UNL A   1      42.200  29.546  29.756  1.00  0.00    -0.248 NA
ATOM     42  C   UNL A   1      40.354  30.945  30.052  1.00  0.00     0.031 C 
ATOM     43  C   UNL A   1      39.499  26.456  27.960  1.00  0.00     0.029 A 
ATOM     44  N   UNL A   1      41.588  26.895  28.627  1.00  0.00    -0.354 N 
ATOM     45  C   UNL A   1      42.613  30.737  30.339  1.00  0.00     0.074 A 
ATOM     46  C   UNL A   1      41.445  31.584  30.447  1.00  0.00     0.031 C 
ATOM     47  C   UNL A   1      40.241  25.366  27.706  1.00  0.00     0.029 A 
ATOM     48  C   UNL A   1      41.623  25.627  28.101  1.00  0.00     0.049 A 
ATOM     49  H   UNL A   1      42.379  27.344  29.006  1.00  0.00     0.167 HD
ATOM     50  C   UNL A   1      43.849  31.085  30.765  1.00  0.00     0.037 A 
ATOM     51  C   UNL A   1      42.656  24.780  27.943  1.00  0.00     0.037 A 
ATOM     52  C   UNL A   1      45.004  30.231  30.672  1.00  0.00     0.049 A 
ATOM     53  C   UNL A   1      44.028  25.204  28.388  1.00  0.00     0.074 A 
ATOM     54  C   UNL A   1      46.298  30.481  31.094  1.00  0.00     0.029 A 
ATOM     55  N   UNL A   1      45.001  28.958  30.121  1.00  0.00    -0.354 N 
ATOM     56  N   UNL A   1      44.405  26.329  28.946  1.00  0.00    -0.248 NA
ATOM     57  C   UNL A   1      45.118  24.241  28.179  1.00  0.00     0.031 C 
ATOM     58  C   UNL A   1      47.085  29.372  30.766  1.00  0.00     0.029 A 
ATOM     59  C   UNL A   1      46.274  28.414  30.180  1.00  0.00     0.049 A 
ATOM     60  H   UNL A   1      44.212  28.507  29.743  1.00  0.00     0.167 HD
ATOM     61  C   UNL A   1      45.770  26.205  29.170  1.00  0.00     0.074 A 
ATOM     62  C   UNL A   1      46.149  24.885  28.707  1.00  0.00     0.031 C 
ATOM     63  C   UNL A   1      46.634  27.102  29.707  1.00  0.00     0.037 A 
BRANCH  50  64
ATOM     64  C   UNL A   1      44.014  32.444  31.376  1.00  0.00     0.057 A 
ATOM     65  C   UNL A   1      43.890  32.650  32.756  1.00  0.00     0.134 A 
ATOM     66  C   UNL A   1      44.340  33.553  30.584  1.00  0.00     0.134 A 
ATOM     67  F   UNL A   1      43.563  31.634  33.568  1.00  0.00    -0.206 F 
ATOM     68  C   UNL A   1      44.064  33.912  33.325  1.00  0.00     0.040 A 
ATOM     69  C   UNL A   1      44.542  34.816  31.145  1.00  0.00     0.040 A 
ATOM     70  F   UNL A   1      44.476  33.426  29.256  1.00  0.00    -0.206 F 
ATOM     71  C   UNL A   1      44.400  34.999  32.519  1.00  0.00     0.006 A 
ENDBRANCH  50  64
BRANCH  51  72
ATOM     72  C   UNL A   1      42.429  23.438  27.352  1.00  0.00     0.057 A 
ATOM     73  C   UNL A   1      42.117  22.341  28.164  1.00  0.00     0.134 A 
ATOM     74  C   UNL A   1      42.509  23.218  25.972  1.00  0.00     0.134 A 
ATOM     75  F   UNL A   1      42.047  22.486  29.495  1.00  0.00    -0.206 F 
ATOM     76  C   UNL A   1      41.903  21.071  27.625  1.00  0.00     0.040 A 
ATOM     77  C   UNL A   1      42.275  21.959  25.418  1.00  0.00     0.040 A 
ATOM     78  F   UNL A   1      42.799  24.230  25.141  1.00  0.00    -0.206 F 
ATOM     79  C   UNL A   1      41.976  20.879  26.247  1.00  0.00     0.006 A 
ENDBRANCH  51  72
BRANCH  63  80
ATOM     80  C   UNL A   1      48.067  26.680  29.833  1.00  0.00     0.057 A 
ATOM     81  C   UNL A   1      49.021  27.014  28.864  1.00  0.00     0.134 A 
ATOM     82  C   UNL A   1      48.507  25.965  30.955  1.00  0.00     0.134 A 
ATOM     83  F   UNL A   1      48.661  27.688  27.759  1.00  0.00    -0.206 F 
ATOM     84  C   UNL A   1      50.357  26.631  28.991  1.00  0.00     0.040 A 
ATOM     85  C   UNL A   1      49.846  25.601  31.108  1.00  0.00     0.040 A 
ATOM     86  F   UNL A   1      47.647  25.623  31.926  1.00  0.00    -0.206 F 
ATOM     87  C   UNL A   1      50.773  25.928  30.121  1.00  0.00     0.006 A 
ENDBRANCH  63  80
ENDBRANCH  37  38
ENDBRANCH  29  32
ENDBRANCH  27  28
ENDBRANCH  26  27
ENDBRANCH   1  26
TORSDOF 14
ENDMDL
MODEL 3
REMARK VINA RESULT:     -11.4      3.043      7.373
REMARK SMILES Cc1cc(Cl)c(C)c2c1O[C@H](C(F)(F)F)C(C(=O)NCCCCCCNC(=O)c1ccc(-c3c4nc(c(-c5c(F)cccc5F)c5ccc([nH]5)c(-c5c(F)cccc5F)c5nc(c(-c6c(F)cccc6F)c6ccc3[nH]6)C=C5)C=C4)cc1)=C2
REMARK SMILES IDX 23 1 22 2 21 3 20 4 19 5 17 6 18 7 16 9 1 10 2 11 3 12 9 13
REMARK SMILES IDX 4 14 8 15 10 16 5 17 6 18 83 19 11 20 7 21 12 22 13 23 14 24
REMARK SMILES IDX 15 25 24 26 25 27 26 28 27 29 28 31 29 32 30 33 82 34 31 35
REMARK SMILES IDX 81 36 32 37 33 38 34 39 75 40 35 41 80 42 74 43 76 44 36 45
REMARK SMILES IDX 79 46 73 47 72 48 37 50 63 51 46 52 62 53 47 54 50 55 61 56
REMARK SMILES IDX 77 57 48 58 49 59 60 61 78 62 51 63 38 64 39 65 44 66 40 67
REMARK SMILES IDX 41 68 43 69 45 70 42 71 64 72 65 73 70 74 66 75 67 76 69 77
REMARK SMILES IDX 71 78 68 79 52 80 53 81 58 82 54 83 55 84 57 85 59 86 56 87
REMARK H PARENT 19 8 26 30 76 49 50 60
REMARK Flexibility Score: inf
ROOT
ATOM      1  C   UNL A   1      31.449  30.399  25.574  1.00  0.00     0.002 C 
ENDROOT
BRANCH   1   2
ATOM      2  C   UNL A   1      32.820  29.707  25.557  1.00  0.00     0.002 C 
BRANCH   2   3
ATOM      3  C   UNL A   1      33.218  29.086  24.215  1.00  0.00     0.021 C 
BRANCH   3   4
ATOM      4  C   UNL A   1      32.067  28.394  23.493  1.00  0.00     0.116 C 
BRANCH   4   5
ATOM      5  N   UNL A   1      32.536  27.579  22.388  1.00  0.00    -0.352 N 
ATOM      6  C   UNL A   1      32.996  26.319  22.207  1.00  0.00     0.251 C 
ATOM      7  O   UNL A   1      33.269  26.024  21.039  1.00  0.00    -0.270 OA
ATOM      8  H   UNL A   1      32.513  28.078  21.539  1.00  0.00     0.163 HD
BRANCH   6   9
ATOM      9  C   UNL A   1      33.191  25.306  23.288  1.00  0.00     0.067 C 
ATOM     10  C   UNL A   1      33.057  22.529  27.576  1.00  0.00     0.048 C 
ATOM     11  C   UNL A   1      33.987  22.595  26.398  1.00  0.00    -0.007 A 
ATOM     12  C   UNL A   1      35.094  21.750  26.319  1.00  0.00     0.028 A 
ATOM     13  C   UNL A   1      33.768  23.510  25.363  1.00  0.00     0.131 A 
ATOM     14  C   UNL A   1      35.969  21.821  25.228  1.00  0.00     0.045 A 
ATOM     15  C   UNL A   1      34.639  23.604  24.266  1.00  0.00     0.022 A 
ATOM     16  O   UNL A   1      32.690  24.335  25.520  1.00  0.00    -0.475 OA
ATOM     17  Cl  UNL A   1      37.311  20.728  25.250  1.00  0.00    -0.084 Cl
ATOM     18  C   UNL A   1      35.761  22.744  24.184  1.00  0.00    -0.021 A 
ATOM     19  C   UNL A   1      34.360  24.641  23.263  1.00  0.00     0.026 C 
ATOM     20  C   UNL A   1      32.172  24.986  24.336  1.00  0.00     0.314 C 
ATOM     21  C   UNL A   1      36.701  22.836  23.008  1.00  0.00     0.047 C 
BRANCH  20  22
ATOM     22  C   UNL A   1      30.978  24.184  23.790  1.00  0.00     0.429 C 
ATOM     23  F   UNL A   1      29.970  25.020  23.432  1.00  0.00    -0.167 F 
ATOM     24  F   UNL A   1      31.292  23.473  22.682  1.00  0.00    -0.167 F 
ATOM     25  F   UNL A   1      30.480  23.311  24.693  1.00  0.00    -0.167 F 
ENDBRANCH  20  22
ENDBRANCH   6   9
ENDBRANCH   4   5
ENDBRANCH   3   4
ENDBRANCH   2   3
ENDBRANCH   1   2
BRANCH   1  26
ATOM     26  C   UNL A   1      31.300  31.538  26.587  1.00  0.00     0.021 C 
BRANCH  26  27
ATOM     27  C   UNL A   1      32.609  32.219  26.974  1.00  0.00     0.116 C 
BRANCH  27  28
ATOM     28  N   UNL A   1      32.395  33.595  27.389  1.00  0.00    -0.352 N 
ATOM     29  C   UNL A   1      33.048  34.323  28.345  1.00  0.00     0.251 C 
ATOM     30  H   UNL A   1      31.677  34.071  26.914  1.00  0.00     0.163 HD
ATOM     31  O   UNL A   1      32.586  35.399  28.724  1.00  0.00    -0.269 OA
BRANCH  29  32
ATOM     32  C   UNL A   1      34.310  33.824  28.925  1.00  0.00     0.039 A 
ATOM     33  C   UNL A   1      35.522  34.286  28.406  1.00  0.00     0.014 A 
ATOM     34  C   UNL A   1      34.295  32.864  29.941  1.00  0.00     0.014 A 
ATOM     35  C   UNL A   1      36.725  33.808  28.928  1.00  0.00     0.010 A 
ATOM     36  C   UNL A   1      35.494  32.433  30.502  1.00  0.00     0.010 A 
ATOM     37  C   UNL A   1      36.718  32.887  29.988  1.00  0.00    -0.014 A 
BRANCH  37  38
ATOM     38  C   UNL A   1      37.976  32.335  30.540  1.00  0.00     0.031 A 
ATOM     39  C   UNL A   1      38.569  31.094  29.934  1.00  0.00     0.074 A 
ATOM     40  C   UNL A   1      38.553  32.911  31.611  1.00  0.00     0.049 A 
ATOM     41  N   UNL A   1      39.584  30.377  30.340  1.00  0.00    -0.248 NA
ATOM     42  C   UNL A   1      37.915  30.580  28.719  1.00  0.00     0.031 C 
ATOM     43  C   UNL A   1      38.068  34.115  32.288  1.00  0.00     0.029 A 
ATOM     44  N   UNL A   1      39.668  32.552  32.324  1.00  0.00    -0.354 N 
ATOM     45  C   UNL A   1      39.684  29.324  29.440  1.00  0.00     0.074 A 
ATOM     46  C   UNL A   1      38.597  29.467  28.496  1.00  0.00     0.031 C 
ATOM     47  C   UNL A   1      38.891  34.403  33.309  1.00  0.00     0.029 A 
ATOM     48  C   UNL A   1      39.934  33.384  33.384  1.00  0.00     0.049 A 
ATOM     49  H   UNL A   1      40.224  31.772  32.097  1.00  0.00     0.167 HD
ATOM     50  C   UNL A   1      40.610  28.338  29.393  1.00  0.00     0.037 A 
ATOM     51  C   UNL A   1      40.901  33.319  34.317  1.00  0.00     0.037 A 
ATOM     52  C   UNL A   1      41.700  28.211  30.324  1.00  0.00     0.049 A 
ATOM     53  C   UNL A   1      41.895  32.193  34.267  1.00  0.00     0.074 A 
ATOM     54  C   UNL A   1      42.706  27.261  30.350  1.00  0.00     0.029 A 
ATOM     55  N   UNL A   1      41.929  29.066  31.392  1.00  0.00    -0.354 N 
ATOM     56  N   UNL A   1      41.986  31.207  33.407  1.00  0.00    -0.248 NA
ATOM     57  C   UNL A   1      42.921  32.168  35.319  1.00  0.00     0.031 C 
ATOM     58  C   UNL A   1      43.523  27.521  31.456  1.00  0.00     0.029 A 
ATOM     59  C   UNL A   1      43.053  28.658  32.093  1.00  0.00     0.049 A 
ATOM     60  H   UNL A   1      41.375  29.848  31.620  1.00  0.00     0.167 HD
ATOM     61  C   UNL A   1      43.084  30.456  33.802  1.00  0.00     0.074 A 
ATOM     62  C   UNL A   1      43.641  31.113  34.967  1.00  0.00     0.031 C 
ATOM     63  C   UNL A   1      43.587  29.321  33.255  1.00  0.00     0.037 A 
BRANCH  50  64
ATOM     64  C   UNL A   1      40.488  27.324  28.295  1.00  0.00     0.057 A 
ATOM     65  C   UNL A   1      41.139  27.490  27.066  1.00  0.00     0.134 A 
ATOM     66  C   UNL A   1      39.745  26.151  28.480  1.00  0.00     0.134 A 
ATOM     67  F   UNL A   1      41.852  28.598  26.818  1.00  0.00    -0.206 F 
ATOM     68  C   UNL A   1      41.040  26.535  26.052  1.00  0.00     0.040 A 
ATOM     69  C   UNL A   1      39.660  25.177  27.483  1.00  0.00     0.040 A 
ATOM     70  F   UNL A   1      39.098  25.929  29.634  1.00  0.00    -0.206 F 
ATOM     71  C   UNL A   1      40.305  25.370  26.264  1.00  0.00     0.006 A 
ENDBRANCH  50  64
BRANCH  51  72
ATOM     72  C   UNL A   1      40.986  34.363  35.368  1.00  0.00     0.057 A 
ATOM     73  C   UNL A   1      40.359  34.186  36.607  1.00  0.00     0.134 A 
ATOM     74  C   UNL A   1      41.696  35.553  35.168  1.00  0.00     0.134 A 
ATOM     75  F   UNL A   1      39.647  33.076  36.849  1.00  0.00    -0.206 F 
ATOM     76  C   UNL A   1      40.426  35.159  37.605  1.00  0.00     0.040 A 
ATOM     77  C   UNL A   1      41.791  36.524  36.166  1.00  0.00     0.040 A 
ATOM     78  F   UNL A   1      42.323  35.780  34.004  1.00  0.00    -0.206 F 
ATOM     79  C   UNL A   1      41.150  36.329  37.388  1.00  0.00     0.006 A 
ENDBRANCH  51  72
BRANCH  63  80
ATOM     80  C   UNL A   1      44.804  28.730  33.901  1.00  0.00     0.057 A 
ATOM     81  C   UNL A   1      46.096  29.124  33.534  1.00  0.00     0.134 A 
ATOM     82  C   UNL A   1      44.682  27.784  34.927  1.00  0.00     0.134 A 
ATOM     83  F   UNL A   1      46.282  30.017  32.550  1.00  0.00    -0.206 F 
ATOM     84  C   UNL A   1      47.227  28.580  34.147  1.00  0.00     0.040 A 
ATOM     85  C   UNL A   1      45.803  27.254  35.567  1.00  0.00     0.040 A 
ATOM     86  F   UNL A   1      43.472  27.372  35.334  1.00  0.00    -0.206 F 
ATOM     87  C   UNL A   1      47.080  27.647  35.173  1.00  0.00     0.006 A 
ENDBRANCH  63  80
ENDBRANCH  37  38
ENDBRANCH  29  32
ENDBRANCH  27  28
ENDBRANCH  26  27
ENDBRANCH   1  26
TORSDOF 14
ENDMDL
