MODEL 1
REMARK VINA RESULT:     -12.6      0.000      0.000
REMARK SMILES Cc1ccc(C(=O)N2C[C@H](C(=O)NCCCCCCNC(=O)c3ccc(-c4c5nc(c(-c6c(F)cccc6F)c6ccc([nH]6)c(-c6c(F)cccc6F)c6nc(c(-c7c(F)cccc7F)c7ccc4[nH]7)C=C6)C=C5)cc3)Oc3ccccc32)o1
REMARK SMILES IDX 16 1 15 2 14 3 13 4 11 5 12 6 10 8 8 9 9 10 83 11 78 12
REMARK SMILES IDX 82 13 77 14 79 15 81 16 80 17 6 18 7 19 5 20 1 21 2 22 3 23
REMARK SMILES IDX 84 24 4 25 17 26 18 27 19 28 20 29 21 30 22 32 23 33 24 34
REMARK SMILES IDX 76 35 25 36 75 37 26 38 27 39 28 40 69 41 29 42 74 43 68 44
REMARK SMILES IDX 70 45 30 46 73 47 67 48 66 49 31 51 57 52 40 53 56 54 41 55
REMARK SMILES IDX 44 56 55 57 71 58 42 59 43 60 54 62 72 63 45 64 32 65 33 66
REMARK SMILES IDX 38 67 34 68 35 69 37 70 39 71 36 72 58 73 59 74 64 75 60 76
REMARK SMILES IDX 61 77 63 78 65 79 62 80 46 81 47 82 52 83 48 84 49 85 51 86
REMARK SMILES IDX 53 87 50 88
REMARK H PARENT 13 7 20 31 70 50 44 61
REMARK Flexibility Score: inf
ROOT
ATOM      1  C   UNL A   1      34.440  20.897  24.620  1.00  0.00     0.002 C 
ENDROOT
BRANCH   1   2
ATOM      2  C   UNL A   1      33.411  21.407  25.637  1.00  0.00     0.021 C 
BRANCH   2   3
ATOM      3  C   UNL A   1      32.349  22.342  25.059  1.00  0.00     0.116 C 
BRANCH   3   4
ATOM      4  N   UNL A   1      31.286  22.595  26.016  1.00  0.00    -0.353 N 
ATOM      5  C   UNL A   1      30.717  23.773  26.412  1.00  0.00     0.262 C 
ATOM      6  O   UNL A   1      29.823  23.716  27.261  1.00  0.00    -0.271 OA
ATOM      7  H   UNL A   1      30.918  21.791  26.449  1.00  0.00     0.163 HD
BRANCH   5   8
ATOM      8  C   UNL A   1      31.206  25.122  25.877  1.00  0.00     0.281 C 
ATOM      9  N   UNL A   1      30.627  26.974  24.347  1.00  0.00    -0.298 N 
ATOM     10  C   UNL A   1      30.205  25.668  24.865  1.00  0.00     0.181 C 
ATOM     11  C   UNL A   1      31.316  27.811  25.282  1.00  0.00     0.087 A 
ATOM     12  C   UNL A   1      31.650  27.313  26.555  1.00  0.00     0.144 A 
ATOM     13  C   UNL A   1      31.590  29.159  25.010  1.00  0.00     0.030 A 
ATOM     14  O   UNL A   1      31.430  26.022  26.962  1.00  0.00    -0.477 OA
ATOM     15  C   UNL A   1      32.214  28.145  27.526  1.00  0.00     0.049 A 
ATOM     16  C   UNL A   1      32.166  29.987  25.979  1.00  0.00     0.002 A 
ATOM     17  C   UNL A   1      32.473  29.482  27.240  1.00  0.00     0.004 A 
BRANCH   9  18
ATOM     18  C   UNL A   1      30.397  27.345  23.019  1.00  0.00     0.294 C 
ATOM     19  O   UNL A   1      31.167  26.984  22.107  1.00  0.00    -0.265 OA
BRANCH  18  20
ATOM     20  C   UNL A   1      29.261  28.209  22.740  1.00  0.00     0.192 A 
ATOM     21  C   UNL A   1      28.317  31.187  20.985  1.00  0.00     0.087 C 
ATOM     22  C   UNL A   1      28.300  29.982  21.838  1.00  0.00     0.101 A 
ATOM     23  C   UNL A   1      27.360  29.424  22.673  1.00  0.00     0.046 A 
ATOM     24  O   UNL A   1      29.443  29.248  21.864  1.00  0.00    -0.456 OA
ATOM     25  C   UNL A   1      27.979  28.294  23.264  1.00  0.00     0.056 A 
ENDBRANCH  18  20
ENDBRANCH   9  18
ENDBRANCH   5   8
ENDBRANCH   3   4
ENDBRANCH   2   3
ENDBRANCH   1   2
BRANCH   1  26
ATOM     26  C   UNL A   1      35.867  21.427  24.797  1.00  0.00     0.002 C 
BRANCH  26  27
ATOM     27  C   UNL A   1      36.974  20.369  24.853  1.00  0.00     0.021 C 
BRANCH  27  28
ATOM     28  C   UNL A   1      38.288  20.819  25.488  1.00  0.00     0.116 C 
BRANCH  28  29
ATOM     29  N   UNL A   1      39.291  19.769  25.510  1.00  0.00    -0.352 N 
ATOM     30  C   UNL A   1      40.600  19.831  25.920  1.00  0.00     0.251 C 
ATOM     31  H   UNL A   1      38.992  18.890  25.183  1.00  0.00     0.163 HD
ATOM     32  O   UNL A   1      41.347  18.869  25.753  1.00  0.00    -0.269 OA
BRANCH  30  33
ATOM     33  C   UNL A   1      41.127  21.066  26.541  1.00  0.00     0.039 A 
ATOM     34  C   UNL A   1      41.698  22.040  25.716  1.00  0.00     0.014 A 
ATOM     35  C   UNL A   1      41.079  21.256  27.925  1.00  0.00     0.014 A 
ATOM     36  C   UNL A   1      42.162  23.236  26.268  1.00  0.00     0.010 A 
ATOM     37  C   UNL A   1      41.513  22.463  28.473  1.00  0.00     0.010 A 
ATOM     38  C   UNL A   1      42.048  23.466  27.648  1.00  0.00    -0.014 A 
BRANCH  38  39
ATOM     39  C   UNL A   1      42.463  24.757  28.247  1.00  0.00     0.031 A 
ATOM     40  C   UNL A   1      41.455  25.843  28.485  1.00  0.00     0.074 A 
ATOM     41  C   UNL A   1      43.765  24.977  28.513  1.00  0.00     0.049 A 
ATOM     42  N   UNL A   1      41.648  27.073  28.884  1.00  0.00    -0.248 NA
ATOM     43  C   UNL A   1      40.049  25.505  28.220  1.00  0.00     0.031 C 
ATOM     44  C   UNL A   1      44.846  24.012  28.306  1.00  0.00     0.029 A 
ATOM     45  N   UNL A   1      44.399  26.092  28.997  1.00  0.00    -0.354 N 
ATOM     46  C   UNL A   1      40.395  27.667  28.896  1.00  0.00     0.074 A 
ATOM     47  C   UNL A   1      39.447  26.664  28.453  1.00  0.00     0.031 C 
ATOM     48  C   UNL A   1      46.010  24.577  28.665  1.00  0.00     0.029 A 
ATOM     49  C   UNL A   1      45.760  25.948  29.099  1.00  0.00     0.049 A 
ATOM     50  H   UNL A   1      43.923  26.917  29.247  1.00  0.00     0.167 HD
ATOM     51  C   UNL A   1      40.061  28.931  29.247  1.00  0.00     0.037 A 
ATOM     52  C   UNL A   1      46.702  26.827  29.487  1.00  0.00     0.037 A 
ATOM     53  C   UNL A   1      40.990  29.922  29.721  1.00  0.00     0.049 A 
ATOM     54  C   UNL A   1      46.306  28.217  29.888  1.00  0.00     0.074 A 
ATOM     55  C   UNL A   1      40.732  31.212  30.152  1.00  0.00     0.029 A 
ATOM     56  N   UNL A   1      42.357  29.729  29.833  1.00  0.00    -0.354 N 
ATOM     57  N   UNL A   1      45.112  28.758  29.912  1.00  0.00    -0.248 NA
ATOM     58  C   UNL A   1      47.386  29.120  30.310  1.00  0.00     0.031 C 
ATOM     59  C   UNL A   1      41.948  31.806  30.511  1.00  0.00     0.029 A 
ATOM     60  C   UNL A   1      42.958  30.879  30.317  1.00  0.00     0.049 A 
ATOM     61  H   UNL A   1      42.831  28.897  29.603  1.00  0.00     0.167 HD
ATOM     62  C   UNL A   1      45.296  30.058  30.360  1.00  0.00     0.074 A 
ATOM     63  C   UNL A   1      46.714  30.225  30.603  1.00  0.00     0.031 C 
ATOM     64  C   UNL A   1      44.370  31.027  30.553  1.00  0.00     0.037 A 
BRANCH  51  65
ATOM     65  C   UNL A   1      38.621  29.316  29.123  1.00  0.00     0.057 A 
ATOM     66  C   UNL A   1      37.770  29.332  30.234  1.00  0.00     0.134 A 
ATOM     67  C   UNL A   1      38.088  29.697  27.886  1.00  0.00     0.134 A 
ATOM     68  F   UNL A   1      38.222  28.964  31.442  1.00  0.00    -0.206 F 
ATOM     69  C   UNL A   1      36.429  29.703  30.116  1.00  0.00     0.040 A 
ATOM     70  C   UNL A   1      36.752  30.082  27.758  1.00  0.00     0.040 A 
ATOM     71  F   UNL A   1      38.855  29.698  26.785  1.00  0.00    -0.206 F 
ATOM     72  C   UNL A   1      35.919  30.083  28.875  1.00  0.00     0.006 A 
ENDBRANCH  51  65
BRANCH  52  73
ATOM     73  C   UNL A   1      48.123  26.413  29.518  1.00  0.00     0.057 A 
ATOM     74  C   UNL A   1      48.960  26.642  28.421  1.00  0.00     0.134 A 
ATOM     75  C   UNL A   1      48.675  25.787  30.641  1.00  0.00     0.134 A 
ATOM     76  F   UNL A   1      48.476  27.223  27.314  1.00  0.00    -0.206 F 
ATOM     77  C   UNL A   1      50.301  26.258  28.438  1.00  0.00     0.040 A 
ATOM     78  C   UNL A   1      50.016  25.408  30.676  1.00  0.00     0.040 A 
ATOM     79  F   UNL A   1      47.917  25.544  31.721  1.00  0.00    -0.206 F 
ATOM     80  C   UNL A   1      50.833  25.642  29.569  1.00  0.00     0.006 A 
ENDBRANCH  52  73
BRANCH  64  81
ATOM     81  C   UNL A   1      44.862  32.343  31.062  1.00  0.00     0.057 A 
ATOM     82  C   UNL A   1      44.983  32.595  32.433  1.00  0.00     0.134 A 
ATOM     83  C   UNL A   1      45.247  33.355  30.174  1.00  0.00     0.134 A 
ATOM     84  F   UNL A   1      44.617  31.667  33.330  1.00  0.00    -0.206 F 
ATOM     85  C   UNL A   1      45.463  33.817  32.907  1.00  0.00     0.040 A 
ATOM     86  C   UNL A   1      45.738  34.576  30.636  1.00  0.00     0.040 A 
ATOM     87  F   UNL A   1      45.152  33.170  28.850  1.00  0.00    -0.206 F 
ATOM     88  C   UNL A   1      45.846  34.810  32.005  1.00  0.00     0.006 A 
ENDBRANCH  64  81
ENDBRANCH  38  39
ENDBRANCH  30  33
ENDBRANCH  28  29
ENDBRANCH  27  28
ENDBRANCH  26  27
ENDBRANCH   1  26
TORSDOF 15
ENDMDL
MODEL 2
REMARK VINA RESULT:     -12.6      2.293      7.948
REMARK SMILES Cc1ccc(C(=O)N2C[C@H](C(=O)NCCCCCCNC(=O)c3ccc(-c4c5nc(c(-c6c(F)cccc6F)c6ccc([nH]6)c(-c6c(F)cccc6F)c6nc(c(-c7c(F)cccc7F)c7ccc4[nH]7)C=C6)C=C5)cc3)Oc3ccccc32)o1
REMARK SMILES IDX 16 1 15 2 14 3 13 4 11 5 12 6 10 8 8 9 9 10 83 11 78 12
REMARK SMILES IDX 82 13 77 14 79 15 81 16 80 17 6 18 7 19 5 20 1 21 2 22 3 23
REMARK SMILES IDX 84 24 4 25 17 26 18 27 19 28 20 29 21 30 22 32 23 33 24 34
REMARK SMILES IDX 76 35 25 36 75 37 26 38 27 39 28 40 69 41 29 42 74 43 68 44
REMARK SMILES IDX 70 45 30 46 73 47 67 48 66 49 31 51 57 52 40 53 56 54 41 55
REMARK SMILES IDX 44 56 55 57 71 58 42 59 43 60 54 62 72 63 45 64 32 65 33 66
REMARK SMILES IDX 38 67 34 68 35 69 37 70 39 71 36 72 58 73 59 74 64 75 60 76
REMARK SMILES IDX 61 77 63 78 65 79 62 80 46 81 47 82 52 83 48 84 49 85 51 86
REMARK SMILES IDX 53 87 50 88
REMARK H PARENT 13 7 20 31 70 50 44 61
REMARK Flexibility Score: inf
ROOT
ATOM      1  C   UNL A   1      31.507  28.539  24.373  1.00  0.00     0.002 C 
ENDROOT
BRANCH   1   2
ATOM      2  C   UNL A   1      30.592  27.739  23.438  1.00  0.00     0.021 C 
BRANCH   2   3
ATOM      3  C   UNL A   1      30.964  26.264  23.286  1.00  0.00     0.116 C 
BRANCH   3   4
ATOM      4  N   UNL A   1      31.709  26.028  22.061  1.00  0.00    -0.353 N 
ATOM      5  C   UNL A   1      32.710  25.135  21.796  1.00  0.00     0.262 C 
ATOM      6  O   UNL A   1      33.191  25.141  20.659  1.00  0.00    -0.271 OA
ATOM      7  H   UNL A   1      31.453  26.601  21.303  1.00  0.00     0.163 HD
BRANCH   5   8
ATOM      8  C   UNL A   1      33.264  24.204  22.878  1.00  0.00     0.281 C 
ATOM      9  N   UNL A   1      33.049  21.938  23.840  1.00  0.00    -0.298 N 
ATOM     10  C   UNL A   1      32.528  22.869  22.833  1.00  0.00     0.181 C 
ATOM     11  C   UNL A   1      34.453  22.039  24.101  1.00  0.00     0.087 A 
ATOM     12  C   UNL A   1      35.206  23.063  23.498  1.00  0.00     0.144 A 
ATOM     13  C   UNL A   1      35.137  21.085  24.869  1.00  0.00     0.030 A 
ATOM     14  O   UNL A   1      34.674  24.055  22.714  1.00  0.00    -0.477 OA
ATOM     15  C   UNL A   1      36.596  23.113  23.640  1.00  0.00     0.049 A 
ATOM     16  C   UNL A   1      36.526  21.143  25.020  1.00  0.00     0.002 A 
ATOM     17  C   UNL A   1      37.257  22.153  24.401  1.00  0.00     0.004 A 
BRANCH   9  18
ATOM     18  C   UNL A   1      32.212  21.046  24.517  1.00  0.00     0.294 C 
ATOM     19  O   UNL A   1      31.430  21.442  25.404  1.00  0.00    -0.265 OA
BRANCH  18  20
ATOM     20  C   UNL A   1      32.318  19.633  24.191  1.00  0.00     0.192 A 
ATOM     21  C   UNL A   1      32.706  16.394  25.675  1.00  0.00     0.087 C 
ATOM     22  C   UNL A   1      32.573  17.499  24.704  1.00  0.00     0.101 A 
ATOM     23  C   UNL A   1      32.646  17.571  23.333  1.00  0.00     0.046 A 
ATOM     24  O   UNL A   1      32.362  18.736  25.227  1.00  0.00    -0.456 OA
ATOM     25  C   UNL A   1      32.496  18.941  23.001  1.00  0.00     0.056 A 
ENDBRANCH  18  20
ENDBRANCH   9  18
ENDBRANCH   5   8
ENDBRANCH   3   4
ENDBRANCH   2   3
ENDBRANCH   1   2
BRANCH   1  26
ATOM     26  C   UNL A   1      32.461  27.707  25.239  1.00  0.00     0.002 C 
BRANCH  26  27
ATOM     27  C   UNL A   1      33.723  28.427  25.728  1.00  0.00     0.021 C 
BRANCH  27  28
ATOM     28  C   UNL A   1      33.857  28.570  27.243  1.00  0.00     0.116 C 
BRANCH  28  29
ATOM     29  N   UNL A   1      33.793  29.951  27.685  1.00  0.00    -0.352 N 
ATOM     30  C   UNL A   1      34.755  30.704  28.314  1.00  0.00     0.251 C 
ATOM     31  H   UNL A   1      32.942  30.413  27.512  1.00  0.00     0.163 HD
ATOM     32  O   UNL A   1      34.486  31.829  28.730  1.00  0.00    -0.269 OA
BRANCH  30  33
ATOM     33  C   UNL A   1      36.113  30.155  28.519  1.00  0.00     0.039 A 
ATOM     34  C   UNL A   1      37.020  30.196  27.455  1.00  0.00     0.014 A 
ATOM     35  C   UNL A   1      36.486  29.586  29.740  1.00  0.00     0.014 A 
ATOM     36  C   UNL A   1      38.324  29.727  27.633  1.00  0.00     0.010 A 
ATOM     37  C   UNL A   1      37.797  29.148  29.928  1.00  0.00     0.010 A 
ATOM     38  C   UNL A   1      38.728  29.224  28.879  1.00  0.00    -0.014 A 
BRANCH  38  39
ATOM     39  C   UNL A   1      40.126  28.792  29.115  1.00  0.00     0.031 A 
ATOM     40  C   UNL A   1      41.121  29.737  29.723  1.00  0.00     0.074 A 
ATOM     41  C   UNL A   1      40.518  27.568  28.715  1.00  0.00     0.049 A 
ATOM     42  N   UNL A   1      42.409  29.581  29.893  1.00  0.00    -0.248 NA
ATOM     43  C   UNL A   1      40.602  31.033  30.182  1.00  0.00     0.031 C 
ATOM     44  C   UNL A   1      39.655  26.564  28.090  1.00  0.00     0.029 A 
ATOM     45  N   UNL A   1      41.751  26.969  28.758  1.00  0.00    -0.354 N 
ATOM     46  C   UNL A   1      42.861  30.765  30.455  1.00  0.00     0.074 A 
ATOM     47  C   UNL A   1      41.711  31.637  30.588  1.00  0.00     0.031 C 
ATOM     48  C   UNL A   1      40.385  25.472  27.813  1.00  0.00     0.029 A 
ATOM     49  C   UNL A   1      41.769  25.709  28.213  1.00  0.00     0.049 A 
ATOM     50  H   UNL A   1      42.547  27.401  29.144  1.00  0.00     0.167 HD
ATOM     51  C   UNL A   1      44.119  31.097  30.830  1.00  0.00     0.037 A 
ATOM     52  C   UNL A   1      42.788  24.848  28.043  1.00  0.00     0.037 A 
ATOM     53  C   UNL A   1      45.259  30.225  30.734  1.00  0.00     0.049 A 
ATOM     54  C   UNL A   1      44.170  25.232  28.483  1.00  0.00     0.074 A 
ATOM     55  C   UNL A   1      46.562  30.459  31.141  1.00  0.00     0.029 A 
ATOM     56  N   UNL A   1      45.230  28.949  30.198  1.00  0.00    -0.354 N 
ATOM     57  N   UNL A   1      44.579  26.350  29.031  1.00  0.00    -0.248 NA
ATOM     58  C   UNL A   1      45.233  24.237  28.275  1.00  0.00     0.031 C 
ATOM     59  C   UNL A   1      47.326  29.326  30.836  1.00  0.00     0.029 A 
ATOM     60  C   UNL A   1      46.494  28.384  30.254  1.00  0.00     0.049 A 
ATOM     61  H   UNL A   1      44.430  28.507  29.831  1.00  0.00     0.167 HD
ATOM     62  C   UNL A   1      45.940  26.190  29.243  1.00  0.00     0.074 A 
ATOM     63  C   UNL A   1      46.290  24.867  28.771  1.00  0.00     0.031 C 
ATOM     64  C   UNL A   1      46.822  27.066  29.781  1.00  0.00     0.037 A 
BRANCH  51  65
ATOM     65  C   UNL A   1      44.327  32.473  31.376  1.00  0.00     0.057 A 
ATOM     66  C   UNL A   1      44.244  32.737  32.748  1.00  0.00     0.134 A 
ATOM     67  C   UNL A   1      44.637  33.541  30.525  1.00  0.00     0.134 A 
ATOM     68  F   UNL A   1      43.936  31.756  33.610  1.00  0.00    -0.206 F 
ATOM     69  C   UNL A   1      44.450  34.021  33.255  1.00  0.00     0.040 A 
ATOM     70  C   UNL A   1      44.858  34.826  31.021  1.00  0.00     0.040 A 
ATOM     71  F   UNL A   1      44.728  33.349  29.200  1.00  0.00    -0.206 F 
ATOM     72  C   UNL A   1      44.762  35.069  32.390  1.00  0.00     0.006 A 
ENDBRANCH  51  65
BRANCH  52  73
ATOM     73  C   UNL A   1      42.536  23.526  27.427  1.00  0.00     0.057 A 
ATOM     74  C   UNL A   1      42.192  22.423  28.215  1.00  0.00     0.134 A 
ATOM     75  C   UNL A   1      42.627  23.337  26.044  1.00  0.00     0.134 A 
ATOM     76  F   UNL A   1      42.108  22.546  29.548  1.00  0.00    -0.206 F 
ATOM     77  C   UNL A   1      41.951  21.171  27.648  1.00  0.00     0.040 A 
ATOM     78  C   UNL A   1      42.378  22.095  25.462  1.00  0.00     0.040 A 
ATOM     79  F   UNL A   1      42.952  24.362  25.241  1.00  0.00    -0.206 F 
ATOM     80  C   UNL A   1      42.041  21.006  26.267  1.00  0.00     0.006 A 
ENDBRANCH  52  73
BRANCH  64  81
ATOM     81  C   UNL A   1      48.242  26.612  29.899  1.00  0.00     0.057 A 
ATOM     82  C   UNL A   1      49.184  26.903  28.906  1.00  0.00     0.134 A 
ATOM     83  C   UNL A   1      48.676  25.904  31.026  1.00  0.00     0.134 A 
ATOM     84  F   UNL A   1      48.822  27.567  27.799  1.00  0.00    -0.206 F 
ATOM     85  C   UNL A   1      50.514  26.497  29.027  1.00  0.00     0.040 A 
ATOM     86  C   UNL A   1      50.005  25.503  31.162  1.00  0.00     0.040 A 
ATOM     87  F   UNL A   1      47.817  25.596  32.008  1.00  0.00    -0.206 F 
ATOM     88  C   UNL A   1      50.928  25.798  30.160  1.00  0.00     0.006 A 
ENDBRANCH  64  81
ENDBRANCH  38  39
ENDBRANCH  30  33
ENDBRANCH  28  29
ENDBRANCH  27  28
ENDBRANCH  26  27
ENDBRANCH   1  26
TORSDOF 15
ENDMDL
MODEL 3
REMARK VINA RESULT:     -12.0      2.507      8.002
REMARK SMILES Cc1ccc(C(=O)N2C[C@H](C(=O)NCCCCCCNC(=O)c3ccc(-c4c5nc(c(-c6c(F)cccc6F)c6ccc([nH]6)c(-c6c(F)cccc6F)c6nc(c(-c7c(F)cccc7F)c7ccc4[nH]7)C=C6)C=C5)cc3)Oc3ccccc32)o1
REMARK SMILES IDX 16 1 15 2 14 3 13 4 11 5 12 6 10 8 8 9 9 10 83 11 78 12
REMARK SMILES IDX 82 13 77 14 79 15 81 16 80 17 6 18 7 19 5 20 1 21 2 22 3 23
REMARK SMILES IDX 84 24 4 25 17 26 18 27 19 28 20 29 21 30 22 32 23 33 24 34
REMARK SMILES IDX 76 35 25 36 75 37 26 38 27 39 28 40 69 41 29 42 74 43 68 44
REMARK SMILES IDX 70 45 30 46 73 47 67 48 66 49 31 51 57 52 40 53 56 54 41 55
REMARK SMILES IDX 44 56 55 57 71 58 42 59 43 60 54 62 72 63 45 64 32 65 33 66
REMARK SMILES IDX 38 67 34 68 35 69 37 70 39 71 36 72 58 73 59 74 64 75 60 76
REMARK SMILES IDX 61 77 63 78 65 79 62 80 46 81 47 82 52 83 48 84 49 85 51 86
REMARK SMILES IDX 53 87 50 88
REMARK H PARENT 13 7 20 31 70 50 44 61
REMARK Flexibility Score: inf
ROOT
ATOM      1  C   UNL A   1      33.169  27.076  23.557  1.00  0.00     0.002 C 
ENDROOT
BRANCH   1   2
ATOM      2  C   UNL A   1      33.936  26.129  22.627  1.00  0.00     0.021 C 
BRANCH   2   3
ATOM      3  C   UNL A   1      33.066  25.377  21.620  1.00  0.00     0.116 C 
BRANCH   3   4
ATOM      4  N   UNL A   1      31.748  25.096  22.161  1.00  0.00    -0.353 N 
ATOM      5  C   UNL A   1      31.314  24.050  22.926  1.00  0.00     0.262 C 
ATOM      6  O   UNL A   1      30.124  24.040  23.254  1.00  0.00    -0.271 OA
ATOM      7  H   UNL A   1      31.059  25.763  21.942  1.00  0.00     0.163 HD
BRANCH   5   8
ATOM      8  C   UNL A   1      32.244  22.897  23.315  1.00  0.00     0.281 C 
ATOM      9  N   UNL A   1      33.300  21.768  25.242  1.00  0.00    -0.298 N 
ATOM     10  C   UNL A   1      32.433  22.876  24.828  1.00  0.00     0.181 C 
ATOM     11  C   UNL A   1      33.186  20.574  24.461  1.00  0.00     0.087 A 
ATOM     12  C   UNL A   1      32.377  20.564  23.309  1.00  0.00     0.144 A 
ATOM     13  C   UNL A   1      33.780  19.367  24.856  1.00  0.00     0.030 A 
ATOM     14  O   UNL A   1      31.726  21.665  22.813  1.00  0.00    -0.477 OA
ATOM     15  C   UNL A   1      32.153  19.382  22.597  1.00  0.00     0.049 A 
ATOM     16  C   UNL A   1      33.565  18.188  24.136  1.00  0.00     0.002 A 
ATOM     17  C   UNL A   1      32.747  18.193  23.010  1.00  0.00     0.004 A 
BRANCH   9  18
ATOM     18  C   UNL A   1      34.198  21.897  26.306  1.00  0.00     0.294 C 
ATOM     19  O   UNL A   1      33.873  21.573  27.466  1.00  0.00    -0.265 OA
BRANCH  18  20
ATOM     20  C   UNL A   1      35.505  22.467  26.028  1.00  0.00     0.192 A 
ATOM     21  C   UNL A   1      38.977  21.620  25.751  1.00  0.00     0.087 C 
ATOM     22  C   UNL A   1      37.701  22.362  25.799  1.00  0.00     0.101 A 
ATOM     23  C   UNL A   1      37.377  23.698  25.751  1.00  0.00     0.046 A 
ATOM     24  O   UNL A   1      36.577  21.614  25.952  1.00  0.00    -0.456 OA
ATOM     25  C   UNL A   1      35.971  23.770  25.912  1.00  0.00     0.056 A 
ENDBRANCH  18  20
ENDBRANCH   9  18
ENDBRANCH   5   8
ENDBRANCH   3   4
ENDBRANCH   2   3
ENDBRANCH   1   2
BRANCH   1  26
ATOM     26  C   UNL A   1      33.652  27.114  25.012  1.00  0.00     0.002 C 
BRANCH  26  27
ATOM     27  C   UNL A   1      33.669  28.494  25.677  1.00  0.00     0.021 C 
BRANCH  27  28
ATOM     28  C   UNL A   1      34.114  28.518  27.139  1.00  0.00     0.116 C 
BRANCH  28  29
ATOM     29  N   UNL A   1      34.006  29.837  27.737  1.00  0.00    -0.352 N 
ATOM     30  C   UNL A   1      34.948  30.546  28.442  1.00  0.00     0.251 C 
ATOM     31  H   UNL A   1      33.138  30.285  27.623  1.00  0.00     0.163 HD
ATOM     32  O   UNL A   1      34.644  31.606  28.986  1.00  0.00    -0.269 OA
BRANCH  30  33
ATOM     33  C   UNL A   1      36.326  30.026  28.575  1.00  0.00     0.039 A 
ATOM     34  C   UNL A   1      37.192  30.138  27.482  1.00  0.00     0.014 A 
ATOM     35  C   UNL A   1      36.758  29.415  29.756  1.00  0.00     0.014 A 
ATOM     36  C   UNL A   1      38.513  29.697  27.594  1.00  0.00     0.010 A 
ATOM     37  C   UNL A   1      38.085  29.005  29.877  1.00  0.00     0.010 A 
ATOM     38  C   UNL A   1      38.975  29.152  28.801  1.00  0.00    -0.014 A 
BRANCH  38  39
ATOM     39  C   UNL A   1      40.392  28.748  28.968  1.00  0.00     0.031 A 
ATOM     40  C   UNL A   1      41.403  29.725  29.493  1.00  0.00     0.074 A 
ATOM     41  C   UNL A   1      40.782  27.520  28.578  1.00  0.00     0.049 A 
ATOM     42  N   UNL A   1      42.701  29.593  29.594  1.00  0.00    -0.248 NA
ATOM     43  C   UNL A   1      40.889  31.025  29.947  1.00  0.00     0.031 C 
ATOM     44  C   UNL A   1      39.901  26.486  28.031  1.00  0.00     0.029 A 
ATOM     45  N   UNL A   1      42.025  26.942  28.567  1.00  0.00    -0.354 N 
ATOM     46  C   UNL A   1      43.164  30.800  30.098  1.00  0.00     0.074 A 
ATOM     47  C   UNL A   1      42.009  31.656  30.274  1.00  0.00     0.031 C 
ATOM     48  C   UNL A   1      40.634  25.398  27.740  1.00  0.00     0.029 A 
ATOM     49  C   UNL A   1      42.033  25.668  28.055  1.00  0.00     0.049 A 
ATOM     50  H   UNL A   1      42.834  27.397  28.895  1.00  0.00     0.167 HD
ATOM     51  C   UNL A   1      44.435  31.161  30.392  1.00  0.00     0.037 A 
ATOM     52  C   UNL A   1      43.056  24.819  27.850  1.00  0.00     0.037 A 
ATOM     53  C   UNL A   1      45.583  30.305  30.253  1.00  0.00     0.049 A 
ATOM     54  C   UNL A   1      44.454  25.236  28.199  1.00  0.00     0.074 A 
ATOM     55  C   UNL A   1      46.902  30.570  30.579  1.00  0.00     0.029 A 
ATOM     56  N   UNL A   1      45.545  29.014  29.753  1.00  0.00    -0.354 N 
ATOM     57  N   UNL A   1      44.874  26.374  28.694  1.00  0.00    -0.248 NA
ATOM     58  C   UNL A   1      45.520  24.253  27.958  1.00  0.00     0.031 C 
ATOM     59  C   UNL A   1      47.667  29.441  30.261  1.00  0.00     0.029 A 
ATOM     60  C   UNL A   1      46.820  28.471  29.753  1.00  0.00     0.049 A 
ATOM     61  H   UNL A   1      44.734  28.550  29.445  1.00  0.00     0.167 HD
ATOM     62  C   UNL A   1      46.248  26.242  28.832  1.00  0.00     0.074 A 
ATOM     63  C   UNL A   1      46.592  24.912  28.376  1.00  0.00     0.031 C 
ATOM     64  C   UNL A   1      47.144  27.146  29.296  1.00  0.00     0.037 A 
BRANCH  51  65
ATOM     65  C   UNL A   1      44.650  32.555  30.889  1.00  0.00     0.057 A 
ATOM     66  C   UNL A   1      44.896  33.616  30.010  1.00  0.00     0.134 A 
ATOM     67  C   UNL A   1      44.587  32.843  32.257  1.00  0.00     0.134 A 
ATOM     68  F   UNL A   1      44.981  33.397  28.689  1.00  0.00    -0.206 F 
ATOM     69  C   UNL A   1      45.085  34.918  30.477  1.00  0.00     0.040 A 
ATOM     70  C   UNL A   1      44.761  34.143  32.735  1.00  0.00     0.040 A 
ATOM     71  F   UNL A   1      44.357  31.866  33.148  1.00  0.00    -0.206 F 
ATOM     72  C   UNL A   1      45.013  35.184  31.843  1.00  0.00     0.006 A 
ENDBRANCH  51  65
BRANCH  52  73
ATOM     73  C   UNL A   1      42.792  23.477  27.284  1.00  0.00     0.057 A 
ATOM     74  C   UNL A   1      42.408  22.415  28.109  1.00  0.00     0.134 A 
ATOM     75  C   UNL A   1      42.912  23.228  25.913  1.00  0.00     0.134 A 
ATOM     76  F   UNL A   1      42.295  22.596  29.433  1.00  0.00    -0.206 F 
ATOM     77  C   UNL A   1      42.155  21.145  27.589  1.00  0.00     0.040 A 
ATOM     78  C   UNL A   1      42.652  21.967  25.378  1.00  0.00     0.040 A 
ATOM     79  F   UNL A   1      43.277  24.211  25.076  1.00  0.00    -0.206 F 
ATOM     80  C   UNL A   1      42.274  20.920  26.219  1.00  0.00     0.006 A 
ENDBRANCH  52  73
BRANCH  64  81
ATOM     81  C   UNL A   1      48.575  26.717  29.345  1.00  0.00     0.057 A 
ATOM     82  C   UNL A   1      49.456  27.001  28.295  1.00  0.00     0.134 A 
ATOM     83  C   UNL A   1      49.083  26.042  30.461  1.00  0.00     0.134 A 
ATOM     84  F   UNL A   1      49.022  27.634  27.195  1.00  0.00    -0.206 F 
ATOM     85  C   UNL A   1      50.797  26.619  28.350  1.00  0.00     0.040 A 
ATOM     86  C   UNL A   1      50.424  25.666  30.532  1.00  0.00     0.040 A 
ATOM     87  F   UNL A   1      48.285  25.743  31.496  1.00  0.00    -0.206 F 
ATOM     88  C   UNL A   1      51.285  25.953  29.474  1.00  0.00     0.006 A 
ENDBRANCH  64  81
ENDBRANCH  38  39
ENDBRANCH  30  33
ENDBRANCH  28  29
ENDBRANCH  27  28
ENDBRANCH  26  27
ENDBRANCH   1  26
TORSDOF 15
ENDMDL
