MODEL 1
REMARK VINA RESULT:     -12.7      0.000      0.000
REMARK SMILES Cc1ccc(-c2cc(OCC(=O)NCCCCCCNC(=O)c3ccc(-c4c5nc(c(-c6c(F)cccc6F)c6ccc([nH]6)c(-c6c(F)cccc6F)c6nc(c(-c7c(F)cccc7F)c7ccc4[nH]7)C=C6)C=C5)cc3)nc(NCc3ccc4c(c3)OCO4)n2)cc1
REMARK SMILES IDX 15 1 14 2 13 3 11 4 12 5 10 7 9 8 8 9 6 10 7 11 90 12 78 13
REMARK SMILES IDX 77 14 5 15 1 16 2 17 3 18 92 19 4 20 91 21 79 22 80 24 81 25
REMARK SMILES IDX 82 26 86 27 83 28 85 29 84 30 87 31 89 32 88 33 16 34 17 35
REMARK SMILES IDX 18 36 19 37 20 38 21 39 22 41 23 42 24 43 76 44 25 45 75 46
REMARK SMILES IDX 26 47 27 48 28 49 69 50 29 51 74 52 68 53 70 54 30 55 73 56
REMARK SMILES IDX 67 57 66 58 31 60 57 61 40 62 56 63 41 64 44 65 55 66 71 67
REMARK SMILES IDX 42 68 43 69 54 71 72 72 45 73 32 74 33 75 38 76 34 77 35 78
REMARK SMILES IDX 37 79 39 80 36 81 58 82 59 83 64 84 60 85 61 86 63 87 65 88
REMARK SMILES IDX 62 89 46 90 47 91 52 92 48 93 49 94 51 95 53 96 50 97
REMARK H PARENT 13 6 79 23 20 40 70 59 44 70
REMARK Flexibility Score: inf
ROOT
ATOM      1  C   UNL A   1      35.532  23.008  24.455  1.00  0.00     0.021 C 
ENDROOT
BRANCH   1   2
ATOM      2  C   UNL A   1      34.093  22.544  24.676  1.00  0.00     0.116 C 
BRANCH   2   3
ATOM      3  N   UNL A   1      33.764  22.389  26.077  1.00  0.00    -0.353 N 
ATOM      4  C   UNL A   1      32.683  22.875  26.751  1.00  0.00     0.258 C 
ATOM      5  O   UNL A   1      32.542  22.580  27.940  1.00  0.00    -0.271 OA
ATOM      6  H   UNL A   1      34.403  21.865  26.613  1.00  0.00     0.163 HD
BRANCH   4   7
ATOM      7  C   UNL A   1      31.666  23.760  26.021  1.00  0.00     0.331 C 
BRANCH   7   8
ATOM      8  O   UNL A   1      31.107  24.827  26.767  1.00  0.00    -0.467 OA
BRANCH   8   9
ATOM      9  C   UNL A   1      31.315  26.099  26.314  1.00  0.00     0.219 A 
ATOM     10  C   UNL A   1      32.182  28.262  26.306  1.00  0.00     0.080 A 
ATOM     11  C   UNL A   1      32.055  27.054  26.956  1.00  0.00     0.097 A 
ATOM     12  N   UNL A   1      31.555  28.534  25.146  1.00  0.00    -0.213 NA
ATOM     13  C   UNL A   1      30.843  27.544  24.596  1.00  0.00     0.226 A 
ATOM     14  N   UNL A   1      30.717  26.325  25.135  1.00  0.00    -0.177 NA
BRANCH  10  15
ATOM     15  C   UNL A   1      33.085  29.290  26.832  1.00  0.00     0.000 A 
ATOM     16  C   UNL A   1      35.780  32.420  28.118  1.00  0.00     0.044 C 
ATOM     17  C   UNL A   1      34.835  31.336  27.693  1.00  0.00    -0.051 A 
ATOM     18  C   UNL A   1      35.271  30.007  27.622  1.00  0.00     0.004 A 
ATOM     19  C   UNL A   1      33.515  31.637  27.347  1.00  0.00     0.004 A 
ATOM     20  C   UNL A   1      34.402  28.992  27.202  1.00  0.00     0.010 A 
ATOM     21  C   UNL A   1      32.654  30.625  26.920  1.00  0.00     0.010 A 
ENDBRANCH  10  15
BRANCH  13  22
ATOM     22  N   UNL A   1      30.203  27.717  23.399  1.00  0.00    -0.350 N 
ATOM     23  H   UNL A   1      30.700  27.561  22.564  1.00  0.00     0.164 HD
BRANCH  22  24
ATOM     24  C   UNL A   1      28.823  28.120  23.327  1.00  0.00     0.152 C 
BRANCH  24  25
ATOM     25  C   UNL A   1      28.644  29.556  22.860  1.00  0.00    -0.025 A 
ATOM     26  C   UNL A   1      28.878  30.602  23.790  1.00  0.00     0.009 A 
ATOM     27  C   UNL A   1      28.277  29.891  21.543  1.00  0.00     0.056 A 
ATOM     28  C   UNL A   1      28.708  31.945  23.435  1.00  0.00     0.051 A 
ATOM     29  C   UNL A   1      28.094  31.220  21.230  1.00  0.00     0.166 A 
ATOM     30  C   UNL A   1      28.296  32.220  22.151  1.00  0.00     0.165 A 
ATOM     31  O   UNL A   1      27.684  31.701  20.025  1.00  0.00    -0.454 OA
ATOM     32  O   UNL A   1      28.029  33.453  21.641  1.00  0.00    -0.454 OA
ATOM     33  C   UNL A   1      27.505  33.095  20.346  1.00  0.00     0.468 C 
ENDBRANCH  24  25
ENDBRANCH  22  24
ENDBRANCH  13  22
ENDBRANCH   8   9
ENDBRANCH   7   8
ENDBRANCH   4   7
ENDBRANCH   2   3
ENDBRANCH   1   2
BRANCH   1  34
ATOM     34  C   UNL A   1      36.022  24.148  25.358  1.00  0.00     0.002 C 
BRANCH  34  35
ATOM     35  C   UNL A   1      37.424  24.010  25.973  1.00  0.00     0.002 C 
BRANCH  35  36
ATOM     36  C   UNL A   1      38.121  22.658  25.810  1.00  0.00     0.021 C 
BRANCH  36  37
ATOM     37  C   UNL A   1      39.461  22.538  26.517  1.00  0.00     0.116 C 
BRANCH  37  38
ATOM     38  N   UNL A   1      40.234  21.356  26.165  1.00  0.00    -0.352 N 
ATOM     39  C   UNL A   1      41.608  21.174  26.127  1.00  0.00     0.251 C 
ATOM     40  H   UNL A   1      39.699  20.566  25.918  1.00  0.00     0.163 HD
ATOM     41  O   UNL A   1      42.067  20.117  25.730  1.00  0.00    -0.269 OA
BRANCH  39  42
ATOM     42  C   UNL A   1      42.513  22.201  26.714  1.00  0.00     0.039 A 
ATOM     43  C   UNL A   1      42.755  22.134  28.093  1.00  0.00     0.014 A 
ATOM     44  C   UNL A   1      42.919  23.321  25.996  1.00  0.00     0.014 A 
ATOM     45  C   UNL A   1      43.125  23.286  28.779  1.00  0.00     0.010 A 
ATOM     46  C   UNL A   1      43.176  24.489  26.679  1.00  0.00     0.010 A 
ATOM     47  C   UNL A   1      43.196  24.484  28.076  1.00  0.00    -0.014 A 
BRANCH  47  48
ATOM     48  C   UNL A   1      43.179  25.794  28.708  1.00  0.00     0.031 A 
ATOM     49  C   UNL A   1      41.929  26.571  28.763  1.00  0.00     0.074 A 
ATOM     50  C   UNL A   1      44.290  26.220  29.347  1.00  0.00     0.049 A 
ATOM     51  N   UNL A   1      41.866  27.834  29.013  1.00  0.00    -0.248 NA
ATOM     52  C   UNL A   1      40.632  25.983  28.453  1.00  0.00     0.031 C 
ATOM     53  C   UNL A   1      44.404  27.318  30.301  1.00  0.00     0.029 A 
ATOM     54  N   UNL A   1      45.617  25.849  29.083  1.00  0.00    -0.354 N 
ATOM     55  C   UNL A   1      40.541  28.161  29.192  1.00  0.00     0.074 A 
ATOM     56  C   UNL A   1      39.821  27.016  28.696  1.00  0.00     0.031 C 
ATOM     57  C   UNL A   1      45.681  27.730  30.336  1.00  0.00     0.029 A 
ATOM     58  C   UNL A   1      46.389  27.012  29.290  1.00  0.00     0.049 A 
ATOM     59  H   UNL A   1      45.942  24.960  28.810  1.00  0.00     0.167 HD
ATOM     60  C   UNL A   1      40.240  29.302  29.877  1.00  0.00     0.037 A 
ATOM     61  C   UNL A   1      47.055  27.608  28.257  1.00  0.00     0.037 A 
ATOM     62  C   UNL A   1      41.444  30.126  30.046  1.00  0.00     0.049 A 
ATOM     63  C   UNL A   1      46.615  29.027  27.982  1.00  0.00     0.074 A 
ATOM     64  C   UNL A   1      42.298  30.348  31.115  1.00  0.00     0.029 A 
ATOM     65  N   UNL A   1      42.089  30.632  28.918  1.00  0.00    -0.354 N 
ATOM     66  N   UNL A   1      45.486  29.532  28.398  1.00  0.00    -0.248 NA
ATOM     67  C   UNL A   1      47.399  29.983  27.203  1.00  0.00     0.031 C 
ATOM     68  C   UNL A   1      43.502  30.903  30.605  1.00  0.00     0.029 A 
ATOM     69  C   UNL A   1      43.367  31.053  29.236  1.00  0.00     0.049 A 
ATOM     70  H   UNL A   1      41.689  30.683  28.020  1.00  0.00     0.167 HD
ATOM     71  C   UNL A   1      45.367  30.821  27.951  1.00  0.00     0.074 A 
ATOM     72  C   UNL A   1      46.598  31.064  27.224  1.00  0.00     0.031 C 
ATOM     73  C   UNL A   1      44.258  31.576  28.208  1.00  0.00     0.037 A 
BRANCH  60  74
ATOM     74  C   UNL A   1      38.942  29.560  30.637  1.00  0.00     0.057 A 
ATOM     75  C   UNL A   1      38.245  30.775  30.454  1.00  0.00     0.134 A 
ATOM     76  C   UNL A   1      38.376  28.740  31.634  1.00  0.00     0.134 A 
ATOM     77  F   UNL A   1      38.598  31.654  29.506  1.00  0.00    -0.206 F 
ATOM     78  C   UNL A   1      37.149  31.166  31.242  1.00  0.00     0.040 A 
ATOM     79  C   UNL A   1      37.282  29.117  32.427  1.00  0.00     0.040 A 
ATOM     80  F   UNL A   1      38.829  27.519  31.912  1.00  0.00    -0.206 F 
ATOM     81  C   UNL A   1      36.671  30.342  32.248  1.00  0.00     0.006 A 
ENDBRANCH  60  74
BRANCH  61  82
ATOM     82  C   UNL A   1      47.527  26.640  27.233  1.00  0.00     0.057 A 
ATOM     83  C   UNL A   1      46.744  26.457  26.079  1.00  0.00     0.134 A 
ATOM     84  C   UNL A   1      48.861  26.231  27.168  1.00  0.00     0.134 A 
ATOM     85  F   UNL A   1      45.453  26.825  26.077  1.00  0.00    -0.206 F 
ATOM     86  C   UNL A   1      47.294  26.009  24.875  1.00  0.00     0.040 A 
ATOM     87  C   UNL A   1      49.421  25.767  25.970  1.00  0.00     0.040 A 
ATOM     88  F   UNL A   1      49.678  26.391  28.219  1.00  0.00    -0.206 F 
ATOM     89  C   UNL A   1      48.649  25.698  24.810  1.00  0.00     0.006 A 
ENDBRANCH  61  82
BRANCH  73  90
ATOM     90  C   UNL A   1      43.947  32.909  27.577  1.00  0.00     0.057 A 
ATOM     91  C   UNL A   1      43.951  34.129  28.271  1.00  0.00     0.134 A 
ATOM     92  C   UNL A   1      43.776  33.015  26.179  1.00  0.00     0.134 A 
ATOM     93  F   UNL A   1      44.210  34.187  29.584  1.00  0.00    -0.206 F 
ATOM     94  C   UNL A   1      43.741  35.358  27.631  1.00  0.00     0.040 A 
ATOM     95  C   UNL A   1      43.619  34.239  25.523  1.00  0.00     0.040 A 
ATOM     96  F   UNL A   1      43.777  31.932  25.388  1.00  0.00    -0.206 F 
ATOM     97  C   UNL A   1      43.585  35.417  26.251  1.00  0.00     0.006 A 
ENDBRANCH  73  90
ENDBRANCH  47  48
ENDBRANCH  39  42
ENDBRANCH  37  38
ENDBRANCH  36  37
ENDBRANCH  35  36
ENDBRANCH  34  35
ENDBRANCH   1  34
TORSDOF 19
ENDMDL
MODEL 2
REMARK VINA RESULT:     -12.5      2.795      5.304
REMARK SMILES Cc1ccc(-c2cc(OCC(=O)NCCCCCCNC(=O)c3ccc(-c4c5nc(c(-c6c(F)cccc6F)c6ccc([nH]6)c(-c6c(F)cccc6F)c6nc(c(-c7c(F)cccc7F)c7ccc4[nH]7)C=C6)C=C5)cc3)nc(NCc3ccc4c(c3)OCO4)n2)cc1
REMARK SMILES IDX 15 1 14 2 13 3 11 4 12 5 10 7 9 8 8 9 6 10 7 11 90 12 78 13
REMARK SMILES IDX 77 14 5 15 1 16 2 17 3 18 92 19 4 20 91 21 79 22 80 24 81 25
REMARK SMILES IDX 82 26 86 27 83 28 85 29 84 30 87 31 89 32 88 33 16 34 17 35
REMARK SMILES IDX 18 36 19 37 20 38 21 39 22 41 23 42 24 43 76 44 25 45 75 46
REMARK SMILES IDX 26 47 27 48 28 49 69 50 29 51 74 52 68 53 70 54 30 55 73 56
REMARK SMILES IDX 67 57 66 58 31 60 57 61 40 62 56 63 41 64 44 65 55 66 71 67
REMARK SMILES IDX 42 68 43 69 54 71 72 72 45 73 32 74 33 75 38 76 34 77 35 78
REMARK SMILES IDX 37 79 39 80 36 81 58 82 59 83 64 84 60 85 61 86 63 87 65 88
REMARK SMILES IDX 62 89 46 90 47 91 52 92 48 93 49 94 51 95 53 96 50 97
REMARK H PARENT 13 6 79 23 20 40 70 59 44 70
REMARK Flexibility Score: inf
ROOT
ATOM      1  C   UNL A   1      40.583  21.367  26.929  1.00  0.00     0.021 C 
ENDROOT
BRANCH   1   2
ATOM      2  C   UNL A   1      39.480  22.207  26.288  1.00  0.00     0.116 C 
BRANCH   2   3
ATOM      3  N   UNL A   1      38.446  21.400  25.675  1.00  0.00    -0.353 N 
ATOM      4  C   UNL A   1      37.140  21.721  25.458  1.00  0.00     0.258 C 
ATOM      5  O   UNL A   1      36.421  20.919  24.857  1.00  0.00    -0.271 OA
ATOM      6  H   UNL A   1      38.722  20.503  25.377  1.00  0.00     0.163 HD
BRANCH   4   7
ATOM      7  C   UNL A   1      36.595  23.069  25.948  1.00  0.00     0.331 C 
BRANCH   7   8
ATOM      8  O   UNL A   1      36.115  23.955  24.952  1.00  0.00    -0.467 OA
BRANCH   8   9
ATOM      9  C   UNL A   1      34.833  24.411  25.070  1.00  0.00     0.219 A 
ATOM     10  C   UNL A   1      33.127  25.938  25.504  1.00  0.00     0.080 A 
ATOM     11  C   UNL A   1      34.476  25.660  25.503  1.00  0.00     0.097 A 
ATOM     12  N   UNL A   1      32.193  25.023  25.181  1.00  0.00    -0.213 NA
ATOM     13  C   UNL A   1      32.634  23.826  24.781  1.00  0.00     0.226 A 
ATOM     14  N   UNL A   1      33.928  23.494  24.697  1.00  0.00    -0.177 NA
BRANCH  10  15
ATOM     15  C   UNL A   1      32.657  27.297  25.792  1.00  0.00     0.000 A 
ATOM     16  C   UNL A   1      31.426  31.395  26.426  1.00  0.00     0.044 C 
ATOM     17  C   UNL A   1      31.831  29.967  26.215  1.00  0.00    -0.051 A 
ATOM     18  C   UNL A   1      32.756  29.361  27.076  1.00  0.00     0.004 A 
ATOM     19  C   UNL A   1      31.310  29.228  25.150  1.00  0.00     0.004 A 
ATOM     20  C   UNL A   1      33.158  28.035  26.871  1.00  0.00     0.010 A 
ATOM     21  C   UNL A   1      31.720  27.910  24.943  1.00  0.00     0.010 A 
ENDBRANCH  10  15
BRANCH  13  22
ATOM     22  N   UNL A   1      31.759  22.845  24.398  1.00  0.00    -0.350 N 
ATOM     23  H   UNL A   1      30.895  22.767  24.863  1.00  0.00     0.164 HD
BRANCH  22  24
ATOM     24  C   UNL A   1      32.067  21.926  23.334  1.00  0.00     0.152 C 
BRANCH  24  25
ATOM     25  C   UNL A   1      32.402  20.528  23.832  1.00  0.00    -0.025 A 
ATOM     26  C   UNL A   1      32.569  20.331  25.227  1.00  0.00     0.009 A 
ATOM     27  C   UNL A   1      32.532  19.422  22.971  1.00  0.00     0.056 A 
ATOM     28  C   UNL A   1      32.902  19.076  25.751  1.00  0.00     0.051 A 
ATOM     29  C   UNL A   1      32.884  18.205  23.514  1.00  0.00     0.166 A 
ATOM     30  C   UNL A   1      33.072  18.038  24.865  1.00  0.00     0.165 A 
ATOM     31  O   UNL A   1      33.107  17.060  22.813  1.00  0.00    -0.454 OA
ATOM     32  O   UNL A   1      33.444  16.767  25.181  1.00  0.00    -0.454 OA
ATOM     33  C   UNL A   1      33.603  16.204  23.862  1.00  0.00     0.468 C 
ENDBRANCH  24  25
ENDBRANCH  22  24
ENDBRANCH  13  22
ENDBRANCH   8   9
ENDBRANCH   7   8
ENDBRANCH   4   7
ENDBRANCH   2   3
ENDBRANCH   1   2
BRANCH   1  34
ATOM     34  C   UNL A   1      40.837  19.990  26.301  1.00  0.00     0.002 C 
BRANCH  34  35
ATOM     35  C   UNL A   1      41.843  19.065  27.006  1.00  0.00     0.002 C 
BRANCH  35  36
ATOM     36  C   UNL A   1      42.990  18.516  26.157  1.00  0.00     0.021 C 
BRANCH  36  37
ATOM     37  C   UNL A   1      43.415  19.406  25.000  1.00  0.00     0.116 C 
BRANCH  37  38
ATOM     38  N   UNL A   1      44.771  19.926  25.096  1.00  0.00    -0.352 N 
ATOM     39  C   UNL A   1      45.209  21.222  25.317  1.00  0.00     0.251 C 
ATOM     40  H   UNL A   1      45.484  19.255  24.987  1.00  0.00     0.163 HD
ATOM     41  O   UNL A   1      46.403  21.470  25.289  1.00  0.00    -0.269 OA
BRANCH  39  42
ATOM     42  C   UNL A   1      44.244  22.274  25.742  1.00  0.00     0.039 A 
ATOM     43  C   UNL A   1      44.156  23.427  24.949  1.00  0.00     0.014 A 
ATOM     44  C   UNL A   1      43.624  22.244  26.987  1.00  0.00     0.014 A 
ATOM     45  C   UNL A   1      43.712  24.616  25.519  1.00  0.00     0.010 A 
ATOM     46  C   UNL A   1      43.289  23.436  27.590  1.00  0.00     0.010 A 
ATOM     47  C   UNL A   1      43.414  24.631  26.877  1.00  0.00    -0.014 A 
BRANCH  47  48
ATOM     48  C   UNL A   1      43.327  25.846  27.671  1.00  0.00     0.031 A 
ATOM     49  C   UNL A   1      42.061  26.597  27.737  1.00  0.00     0.074 A 
ATOM     50  C   UNL A   1      44.382  26.196  28.439  1.00  0.00     0.049 A 
ATOM     51  N   UNL A   1      41.957  27.816  28.144  1.00  0.00    -0.248 NA
ATOM     52  C   UNL A   1      40.801  26.042  27.261  1.00  0.00     0.031 C 
ATOM     53  C   UNL A   1      44.408  27.161  29.533  1.00  0.00     0.029 A 
ATOM     54  N   UNL A   1      45.731  25.877  28.225  1.00  0.00    -0.354 N 
ATOM     55  C   UNL A   1      40.616  28.103  28.268  1.00  0.00     0.074 A 
ATOM     56  C   UNL A   1      39.955  27.026  27.577  1.00  0.00     0.031 C 
ATOM     57  C   UNL A   1      45.670  27.578  29.713  1.00  0.00     0.029 A 
ATOM     58  C   UNL A   1      46.464  27.011  28.636  1.00  0.00     0.049 A 
ATOM     59  H   UNL A   1      46.092  25.035  27.863  1.00  0.00     0.167 HD
ATOM     60  C   UNL A   1      40.245  29.141  29.073  1.00  0.00     0.037 A 
ATOM     61  C   UNL A   1      47.189  27.744  27.740  1.00  0.00     0.037 A 
ATOM     62  C   UNL A   1      41.418  29.948  29.434  1.00  0.00     0.049 A 
ATOM     63  C   UNL A   1      46.742  29.183  27.622  1.00  0.00     0.074 A 
ATOM     64  C   UNL A   1      42.190  30.036  30.581  1.00  0.00     0.029 A 
ATOM     65  N   UNL A   1      42.131  30.604  28.431  1.00  0.00    -0.354 N 
ATOM     66  N   UNL A   1      45.576  29.616  28.017  1.00  0.00    -0.248 NA
ATOM     67  C   UNL A   1      47.559  30.240  27.032  1.00  0.00     0.031 C 
ATOM     68  C   UNL A   1      43.416  30.665  30.236  1.00  0.00     0.029 A 
ATOM     69  C   UNL A   1      43.374  30.992  28.892  1.00  0.00     0.049 A 
ATOM     70  H   UNL A   1      41.794  30.768  27.521  1.00  0.00     0.167 HD
ATOM     71  C   UNL A   1      45.464  30.952  27.734  1.00  0.00     0.074 A 
ATOM     72  C   UNL A   1      46.738  31.301  27.136  1.00  0.00     0.031 C 
ATOM     73  C   UNL A   1      44.325  31.655  28.007  1.00  0.00     0.037 A 
BRANCH  60  74
ATOM     74  C   UNL A   1      38.893  29.283  29.765  1.00  0.00     0.057 A 
ATOM     75  C   UNL A   1      37.782  29.786  29.050  1.00  0.00     0.134 A 
ATOM     76  C   UNL A   1      38.621  29.066  31.131  1.00  0.00     0.134 A 
ATOM     77  F   UNL A   1      37.831  29.995  27.727  1.00  0.00    -0.206 F 
ATOM     78  C   UNL A   1      36.557  30.115  29.654  1.00  0.00     0.040 A 
ATOM     79  C   UNL A   1      37.403  29.389  31.747  1.00  0.00     0.040 A 
ATOM     80  F   UNL A   1      39.503  28.521  31.967  1.00  0.00    -0.206 F 
ATOM     81  C   UNL A   1      36.367  29.934  31.014  1.00  0.00     0.006 A 
ENDBRANCH  60  74
BRANCH  61  82
ATOM     82  C   UNL A   1      47.750  26.924  26.636  1.00  0.00     0.057 A 
ATOM     83  C   UNL A   1      47.075  26.917  25.402  1.00  0.00     0.134 A 
ATOM     84  C   UNL A   1      49.084  26.509  26.633  1.00  0.00     0.134 A 
ATOM     85  F   UNL A   1      45.790  27.301  25.336  1.00  0.00    -0.206 F 
ATOM     86  C   UNL A   1      47.731  26.636  24.201  1.00  0.00     0.040 A 
ATOM     87  C   UNL A   1      49.749  26.210  25.436  1.00  0.00     0.040 A 
ATOM     88  F   UNL A   1      49.802  26.506  27.765  1.00  0.00    -0.206 F 
ATOM     89  C   UNL A   1      49.085  26.317  24.214  1.00  0.00     0.006 A 
ENDBRANCH  61  82
BRANCH  73  90
ATOM     90  C   UNL A   1      44.033  33.056  27.535  1.00  0.00     0.057 A 
ATOM     91  C   UNL A   1      44.089  34.193  28.356  1.00  0.00     0.134 A 
ATOM     92  C   UNL A   1      43.826  33.318  26.163  1.00  0.00     0.134 A 
ATOM     93  F   UNL A   1      44.387  34.100  29.660  1.00  0.00    -0.206 F 
ATOM     94  C   UNL A   1      43.895  35.488  27.861  1.00  0.00     0.040 A 
ATOM     95  C   UNL A   1      43.683  34.610  25.648  1.00  0.00     0.040 A 
ATOM     96  F   UNL A   1      43.775  32.329  25.259  1.00  0.00    -0.206 F 
ATOM     97  C   UNL A   1      43.702  35.702  26.501  1.00  0.00     0.006 A 
ENDBRANCH  73  90
ENDBRANCH  47  48
ENDBRANCH  39  42
ENDBRANCH  37  38
ENDBRANCH  36  37
ENDBRANCH  35  36
ENDBRANCH  34  35
ENDBRANCH   1  34
TORSDOF 19
ENDMDL
MODEL 3
REMARK VINA RESULT:     -12.5      3.782     10.676
REMARK SMILES Cc1ccc(-c2cc(OCC(=O)NCCCCCCNC(=O)c3ccc(-c4c5nc(c(-c6c(F)cccc6F)c6ccc([nH]6)c(-c6c(F)cccc6F)c6nc(c(-c7c(F)cccc7F)c7ccc4[nH]7)C=C6)C=C5)cc3)nc(NCc3ccc4c(c3)OCO4)n2)cc1
REMARK SMILES IDX 15 1 14 2 13 3 11 4 12 5 10 7 9 8 8 9 6 10 7 11 90 12 78 13
REMARK SMILES IDX 77 14 5 15 1 16 2 17 3 18 92 19 4 20 91 21 79 22 80 24 81 25
REMARK SMILES IDX 82 26 86 27 83 28 85 29 84 30 87 31 89 32 88 33 16 34 17 35
REMARK SMILES IDX 18 36 19 37 20 38 21 39 22 41 23 42 24 43 76 44 25 45 75 46
REMARK SMILES IDX 26 47 27 48 28 49 69 50 29 51 74 52 68 53 70 54 30 55 73 56
REMARK SMILES IDX 67 57 66 58 31 60 57 61 40 62 56 63 41 64 44 65 55 66 71 67
REMARK SMILES IDX 42 68 43 69 54 71 72 72 45 73 32 74 33 75 38 76 34 77 35 78
REMARK SMILES IDX 37 79 39 80 36 81 58 82 59 83 64 84 60 85 61 86 63 87 65 88
REMARK SMILES IDX 62 89 46 90 47 91 52 92 48 93 49 94 51 95 53 96 50 97
REMARK H PARENT 13 6 79 23 20 40 70 59 44 70
REMARK Flexibility Score: inf
ROOT
ATOM      1  C   UNL A   1      32.013  26.672  26.153  1.00  0.00     0.021 C 
ENDROOT
BRANCH   1   2
ATOM      2  C   UNL A   1      31.707  25.753  24.971  1.00  0.00     0.116 C 
BRANCH   2   3
ATOM      3  N   UNL A   1      32.026  26.358  23.695  1.00  0.00    -0.353 N 
ATOM      4  C   UNL A   1      33.061  26.066  22.857  1.00  0.00     0.258 C 
ATOM      5  O   UNL A   1      33.131  26.650  21.773  1.00  0.00    -0.271 OA
ATOM      6  H   UNL A   1      31.418  27.071  23.393  1.00  0.00     0.163 HD
BRANCH   4   7
ATOM      7  C   UNL A   1      34.102  25.019  23.268  1.00  0.00     0.331 C 
BRANCH   7   8
ATOM      8  O   UNL A   1      33.791  23.668  22.972  1.00  0.00    -0.467 OA
BRANCH   8   9
ATOM      9  C   UNL A   1      34.190  22.713  23.862  1.00  0.00     0.219 A 
ATOM     10  C   UNL A   1      34.263  20.615  24.873  1.00  0.00     0.080 A 
ATOM     11  C   UNL A   1      33.689  21.441  23.933  1.00  0.00     0.097 A 
ATOM     12  N   UNL A   1      35.205  21.037  25.738  1.00  0.00    -0.213 NA
ATOM     13  C   UNL A   1      35.625  22.299  25.603  1.00  0.00     0.226 A 
ATOM     14  N   UNL A   1      35.161  23.149  24.679  1.00  0.00    -0.177 NA
BRANCH  10  15
ATOM     15  C   UNL A   1      33.910  19.192  24.916  1.00  0.00     0.000 A 
ATOM     16  C   UNL A   1      32.951  14.992  25.313  1.00  0.00     0.044 C 
ATOM     17  C   UNL A   1      33.267  16.450  25.159  1.00  0.00    -0.051 A 
ATOM     18  C   UNL A   1      34.411  16.856  24.460  1.00  0.00     0.004 A 
ATOM     19  C   UNL A   1      32.436  17.422  25.723  1.00  0.00     0.004 A 
ATOM     20  C   UNL A   1      34.725  18.214  24.333  1.00  0.00     0.010 A 
ATOM     21  C   UNL A   1      32.757  18.775  25.603  1.00  0.00     0.010 A 
ENDBRANCH  10  15
BRANCH  13  22
ATOM     22  N   UNL A   1      36.607  22.805  26.413  1.00  0.00    -0.350 N 
ATOM     23  H   UNL A   1      36.444  22.864  27.381  1.00  0.00     0.164 HD
BRANCH  22  24
ATOM     24  C   UNL A   1      37.869  23.254  25.887  1.00  0.00     0.152 C 
BRANCH  24  25
ATOM     25  C   UNL A   1      39.038  22.380  26.314  1.00  0.00    -0.025 A 
ATOM     26  C   UNL A   1      39.910  22.865  27.322  1.00  0.00     0.009 A 
ATOM     27  C   UNL A   1      39.278  21.106  25.767  1.00  0.00     0.056 A 
ATOM     28  C   UNL A   1      41.020  22.124  27.745  1.00  0.00     0.051 A 
ATOM     29  C   UNL A   1      40.392  20.411  26.186  1.00  0.00     0.166 A 
ATOM     30  C   UNL A   1      41.244  20.908  27.142  1.00  0.00     0.165 A 
ATOM     31  O   UNL A   1      40.794  19.200  25.712  1.00  0.00    -0.454 OA
ATOM     32  O   UNL A   1      42.293  20.075  27.383  1.00  0.00    -0.454 OA
ATOM     33  C   UNL A   1      42.071  19.073  26.369  1.00  0.00     0.468 C 
ENDBRANCH  24  25
ENDBRANCH  22  24
ENDBRANCH  13  22
ENDBRANCH   8   9
ENDBRANCH   7   8
ENDBRANCH   4   7
ENDBRANCH   2   3
ENDBRANCH   1   2
BRANCH   1  34
ATOM     34  C   UNL A   1      33.448  27.212  26.237  1.00  0.00     0.002 C 
BRANCH  34  35
ATOM     35  C   UNL A   1      33.638  28.735  26.136  1.00  0.00     0.002 C 
BRANCH  35  36
ATOM     36  C   UNL A   1      34.919  29.313  26.739  1.00  0.00     0.021 C 
BRANCH  36  37
ATOM     37  C   UNL A   1      34.752  29.946  28.111  1.00  0.00     0.116 C 
BRANCH  37  38
ATOM     38  N   UNL A   1      34.111  31.253  28.107  1.00  0.00    -0.352 N 
ATOM     39  C   UNL A   1      34.431  32.400  28.817  1.00  0.00     0.251 C 
ATOM     40  H   UNL A   1      33.333  31.334  27.509  1.00  0.00     0.163 HD
ATOM     41  O   UNL A   1      33.718  33.385  28.729  1.00  0.00    -0.269 OA
BRANCH  39  42
ATOM     42  C   UNL A   1      35.722  32.483  29.556  1.00  0.00     0.039 A 
ATOM     43  C   UNL A   1      36.780  33.156  28.930  1.00  0.00     0.014 A 
ATOM     44  C   UNL A   1      35.962  31.736  30.704  1.00  0.00     0.014 A 
ATOM     45  C   UNL A   1      38.091  32.842  29.278  1.00  0.00     0.010 A 
ATOM     46  C   UNL A   1      37.252  31.337  30.978  1.00  0.00     0.010 A 
ATOM     47  C   UNL A   1      38.307  31.831  30.207  1.00  0.00    -0.014 A 
BRANCH  47  48
ATOM     48  C   UNL A   1      39.577  31.140  30.368  1.00  0.00     0.031 A 
ATOM     49  C   UNL A   1      39.821  29.868  29.669  1.00  0.00     0.074 A 
ATOM     50  C   UNL A   1      40.562  31.750  31.064  1.00  0.00     0.049 A 
ATOM     51  N   UNL A   1      40.758  29.036  29.972  1.00  0.00    -0.248 NA
ATOM     52  C   UNL A   1      38.953  29.388  28.601  1.00  0.00     0.031 C 
ATOM     53  C   UNL A   1      41.981  31.410  31.083  1.00  0.00     0.029 A 
ATOM     54  N   UNL A   1      40.418  32.703  32.083  1.00  0.00    -0.354 N 
ATOM     55  C   UNL A   1      40.811  28.083  28.980  1.00  0.00     0.074 A 
ATOM     56  C   UNL A   1      39.588  28.269  28.242  1.00  0.00     0.031 C 
ATOM     57  C   UNL A   1      42.527  31.896  32.208  1.00  0.00     0.029 A 
ATOM     58  C   UNL A   1      41.440  32.423  33.016  1.00  0.00     0.049 A 
ATOM     59  H   UNL A   1      39.743  33.418  32.137  1.00  0.00     0.167 HD
ATOM     60  C   UNL A   1      41.960  27.362  28.831  1.00  0.00     0.037 A 
ATOM     61  C   UNL A   1      41.144  32.006  34.282  1.00  0.00     0.037 A 
ATOM     62  C   UNL A   1      42.841  27.567  29.988  1.00  0.00     0.049 A 
ATOM     63  C   UNL A   1      41.691  30.638  34.620  1.00  0.00     0.074 A 
ATOM     64  C   UNL A   1      43.980  28.330  30.189  1.00  0.00     0.029 A 
ATOM     65  N   UNL A   1      42.413  27.164  31.253  1.00  0.00    -0.354 N 
ATOM     66  N   UNL A   1      42.074  29.768  33.726  1.00  0.00    -0.248 NA
ATOM     67  C   UNL A   1      41.831  30.135  35.984  1.00  0.00     0.031 C 
ATOM     68  C   UNL A   1      44.176  28.464  31.589  1.00  0.00     0.029 A 
ATOM     69  C   UNL A   1      43.182  27.752  32.238  1.00  0.00     0.049 A 
ATOM     70  H   UNL A   1      41.667  26.544  31.419  1.00  0.00     0.167 HD
ATOM     71  C   UNL A   1      42.478  28.618  34.351  1.00  0.00     0.074 A 
ATOM     72  C   UNL A   1      42.326  28.903  35.764  1.00  0.00     0.031 C 
ATOM     73  C   UNL A   1      42.894  27.522  33.649  1.00  0.00     0.037 A 
BRANCH  60  74
ATOM     74  C   UNL A   1      42.425  26.697  27.539  1.00  0.00     0.057 A 
ATOM     75  C   UNL A   1      42.921  25.374  27.563  1.00  0.00     0.134 A 
ATOM     76  C   UNL A   1      42.528  27.305  26.272  1.00  0.00     0.134 A 
ATOM     77  F   UNL A   1      42.848  24.615  28.665  1.00  0.00    -0.206 F 
ATOM     78  C   UNL A   1      43.532  24.756  26.460  1.00  0.00     0.040 A 
ATOM     79  C   UNL A   1      43.134  26.700  25.161  1.00  0.00     0.040 A 
ATOM     80  F   UNL A   1      42.048  28.520  26.009  1.00  0.00    -0.206 F 
ATOM     81  C   UNL A   1      43.658  25.425  25.253  1.00  0.00     0.006 A 
ENDBRANCH  60  74
BRANCH  61  82
ATOM     82  C   UNL A   1      39.874  32.577  34.801  1.00  0.00     0.057 A 
ATOM     83  C   UNL A   1      39.877  33.911  35.247  1.00  0.00     0.134 A 
ATOM     84  C   UNL A   1      38.634  32.012  34.494  1.00  0.00     0.134 A 
ATOM     85  F   UNL A   1      41.035  34.513  35.562  1.00  0.00    -0.206 F 
ATOM     86  C   UNL A   1      38.716  34.688  35.262  1.00  0.00     0.040 A 
ATOM     87  C   UNL A   1      37.461  32.777  34.520  1.00  0.00     0.040 A 
ATOM     88  F   UNL A   1      38.550  30.751  34.044  1.00  0.00    -0.206 F 
ATOM     89  C   UNL A   1      37.507  34.129  34.860  1.00  0.00     0.006 A 
ENDBRANCH  61  82
BRANCH  73  90
ATOM     90  C   UNL A   1      43.142  26.155  34.234  1.00  0.00     0.057 A 
ATOM     91  C   UNL A   1      42.182  25.412  34.936  1.00  0.00     0.134 A 
ATOM     92  C   UNL A   1      44.350  25.473  33.965  1.00  0.00     0.134 A 
ATOM     93  F   UNL A   1      40.953  25.896  35.165  1.00  0.00    -0.206 F 
ATOM     94  C   UNL A   1      42.424  24.109  35.390  1.00  0.00     0.040 A 
ATOM     95  C   UNL A   1      44.583  24.155  34.366  1.00  0.00     0.040 A 
ATOM     96  F   UNL A   1      45.347  26.053  33.280  1.00  0.00    -0.206 F 
ATOM     97  C   UNL A   1      43.624  23.471  35.096  1.00  0.00     0.006 A 
ENDBRANCH  73  90
ENDBRANCH  47  48
ENDBRANCH  39  42
ENDBRANCH  37  38
ENDBRANCH  36  37
ENDBRANCH  35  36
ENDBRANCH  34  35
ENDBRANCH   1  34
TORSDOF 19
ENDMDL
