MODEL 1
REMARK VINA RESULT:     -10.4      0.000      0.000
REMARK SMILES COc1ccc(-c2nc(NCC(=O)NCCCCCCNC(=O)c3ccc(-c4c5nc(c(-c6c(F)cccc6F)c6ccc([nH]6)c(-c6c(F)cccc6F)c6nc(c(-c7c(F)cccc7F)c7ccc4[nH]7)C=C6)C=C5)cc3)sc2-c2ccc(OC)cc2)cc1
REMARK SMILES IDX 16 1 15 2 14 3 12 4 13 5 11 7 10 8 9 10 7 11 8 12 79 13
REMARK SMILES IDX 78 14 6 15 3 16 4 17 89 18 5 19 88 20 2 21 1 22 80 23 81 24
REMARK SMILES IDX 87 25 82 26 86 27 83 28 84 29 85 30 17 31 18 32 19 33 20 34
REMARK SMILES IDX 21 35 22 36 23 38 24 39 25 40 77 41 26 42 76 43 27 44 28 45
REMARK SMILES IDX 29 46 70 47 30 48 75 49 69 50 71 51 31 52 74 53 68 54 67 55
REMARK SMILES IDX 32 57 58 58 41 59 57 60 42 61 45 62 56 63 72 64 43 65 44 66
REMARK SMILES IDX 55 68 73 69 46 70 33 71 34 72 39 73 35 74 36 75 38 76 40 77
REMARK SMILES IDX 37 78 59 79 60 80 65 81 61 82 62 83 64 84 66 85 63 86 47 87
REMARK SMILES IDX 48 88 53 89 49 90 50 91 52 92 54 93 51 94
REMARK H PARENT 14 6 10 9 21 37 71 56 45 67
REMARK Flexibility Score: inf
ROOT
ATOM      1  C   UNL A   1      37.873  28.816  28.137  1.00  0.00     0.021 C 
ENDROOT
BRANCH   1   2
ATOM      2  C   UNL A   1      37.277  29.471  29.383  1.00  0.00     0.116 C 
BRANCH   2   3
ATOM      3  N   UNL A   1      37.393  30.913  29.320  1.00  0.00    -0.355 N 
ATOM      4  C   UNL A   1      36.448  31.830  28.948  1.00  0.00     0.239 C 
ATOM      5  O   UNL A   1      36.783  33.013  28.865  1.00  0.00    -0.273 OA
ATOM      6  H   UNL A   1      38.267  31.284  29.580  1.00  0.00     0.163 HD
BRANCH   4   7
ATOM      7  C   UNL A   1      34.999  31.387  28.709  1.00  0.00     0.215 C 
BRANCH   7   8
ATOM      8  N   UNL A   1      34.740  31.098  27.308  1.00  0.00    -0.352 N 
ATOM      9  H   UNL A   1      35.279  31.584  26.642  1.00  0.00     0.163 HD
BRANCH   8  10
ATOM     10  C   UNL A   1      33.825  30.221  26.842  1.00  0.00     0.184 A 
ATOM     11  C   UNL A   1      32.268  29.434  25.471  1.00  0.00     0.091 A 
ATOM     12  N   UNL A   1      33.060  30.517  25.816  1.00  0.00    -0.220 NA
ATOM     13  C   UNL A   1      32.514  28.268  26.181  1.00  0.00     0.064 A 
ATOM     14  S   UNL A   1      33.578  28.632  27.470  1.00  0.00    -0.096 S 
BRANCH  11  15
ATOM     15  C   UNL A   1      31.266  29.538  24.421  1.00  0.00     0.002 A 
ATOM     16  C   UNL A   1      29.373  29.749  22.356  1.00  0.00     0.118 A 
ATOM     17  C   UNL A   1      30.387  28.795  22.286  1.00  0.00     0.047 A 
ATOM     18  C   UNL A   1      29.289  30.583  23.473  1.00  0.00     0.047 A 
ATOM     19  C   UNL A   1      31.332  28.691  23.307  1.00  0.00     0.014 A 
ATOM     20  C   UNL A   1      30.229  30.472  24.508  1.00  0.00     0.014 A 
BRANCH  16  21
ATOM     21  O   UNL A   1      28.506  29.736  21.298  1.00  0.00    -0.497 OA
ATOM     22  C   UNL A   1      27.983  30.996  20.897  1.00  0.00     0.278 C 
ENDBRANCH  16  21
ENDBRANCH  11  15
BRANCH  13  23
ATOM     23  C   UNL A   1      32.047  26.896  25.972  1.00  0.00    -0.006 A 
ATOM     24  C   UNL A   1      32.920  25.867  25.606  1.00  0.00     0.013 A 
ATOM     25  C   UNL A   1      30.687  26.594  26.144  1.00  0.00     0.013 A 
ATOM     26  C   UNL A   1      32.440  24.564  25.433  1.00  0.00     0.047 A 
ATOM     27  C   UNL A   1      30.211  25.290  25.972  1.00  0.00     0.047 A 
ATOM     28  C   UNL A   1      31.089  24.267  25.623  1.00  0.00     0.118 A 
BRANCH  28  29
ATOM     29  O   UNL A   1      30.755  22.954  25.437  1.00  0.00    -0.497 OA
ATOM     30  C   UNL A   1      31.818  22.009  25.517  1.00  0.00     0.278 C 
ENDBRANCH  28  29
ENDBRANCH  13  23
ENDBRANCH   8  10
ENDBRANCH   7   8
ENDBRANCH   4   7
ENDBRANCH   2   3
ENDBRANCH   1   2
BRANCH   1  31
ATOM     31  C   UNL A   1      39.385  29.034  28.002  1.00  0.00     0.002 C 
BRANCH  31  32
ATOM     32  C   UNL A   1      40.166  27.829  27.463  1.00  0.00     0.002 C 
BRANCH  32  33
ATOM     33  C   UNL A   1      39.419  26.495  27.519  1.00  0.00     0.021 C 
BRANCH  33  34
ATOM     34  C   UNL A   1      40.052  25.455  28.438  1.00  0.00     0.116 C 
BRANCH  34  35
ATOM     35  N   UNL A   1      40.402  24.236  27.724  1.00  0.00    -0.352 N 
ATOM     36  C   UNL A   1      41.483  23.979  26.923  1.00  0.00     0.251 C 
ATOM     37  H   UNL A   1      39.772  23.488  27.833  1.00  0.00     0.163 HD
ATOM     38  O   UNL A   1      41.517  22.955  26.238  1.00  0.00    -0.269 OA
BRANCH  36  39
ATOM     39  C   UNL A   1      42.606  24.937  26.863  1.00  0.00     0.039 A 
ATOM     40  C   UNL A   1      42.901  25.560  25.647  1.00  0.00     0.014 A 
ATOM     41  C   UNL A   1      43.376  25.209  27.997  1.00  0.00     0.014 A 
ATOM     42  C   UNL A   1      43.932  26.499  25.582  1.00  0.00     0.010 A 
ATOM     43  C   UNL A   1      44.359  26.193  27.947  1.00  0.00     0.010 A 
ATOM     44  C   UNL A   1      44.649  26.846  26.740  1.00  0.00    -0.014 A 
BRANCH  44  45
ATOM     45  C   UNL A   1      45.711  27.884  26.705  1.00  0.00     0.031 A 
ATOM     46  C   UNL A   1      45.343  29.340  26.784  1.00  0.00     0.074 A 
ATOM     47  C   UNL A   1      46.997  27.519  26.545  1.00  0.00     0.049 A 
ATOM     48  N   UNL A   1      46.113  30.393  26.684  1.00  0.00    -0.248 NA
ATOM     49  C   UNL A   1      43.918  29.654  26.976  1.00  0.00     0.031 C 
ATOM     50  C   UNL A   1      47.479  26.141  26.422  1.00  0.00     0.029 A 
ATOM     51  N   UNL A   1      48.137  28.278  26.448  1.00  0.00    -0.354 N 
ATOM     52  C   UNL A   1      45.268  31.491  26.795  1.00  0.00     0.074 A 
ATOM     53  C   UNL A   1      43.921  30.978  26.914  1.00  0.00     0.031 C 
ATOM     54  C   UNL A   1      48.815  26.153  26.287  1.00  0.00     0.029 A 
ATOM     55  C   UNL A   1      49.281  27.536  26.275  1.00  0.00     0.049 A 
ATOM     56  H   UNL A   1      48.134  29.261  26.499  1.00  0.00     0.167 HD
ATOM     57  C   UNL A   1      45.588  32.807  26.822  1.00  0.00     0.037 A 
ATOM     58  C   UNL A   1      50.558  27.929  26.115  1.00  0.00     0.037 A 
ATOM     59  C   UNL A   1      46.931  33.316  26.729  1.00  0.00     0.049 A 
ATOM     60  C   UNL A   1      50.883  29.399  26.130  1.00  0.00     0.074 A 
ATOM     61  C   UNL A   1      47.360  34.630  26.779  1.00  0.00     0.029 A 
ATOM     62  N   UNL A   1      48.063  32.531  26.572  1.00  0.00    -0.354 N 
ATOM     63  N   UNL A   1      50.078  30.421  26.280  1.00  0.00    -0.248 NA
ATOM     64  C   UNL A   1      52.295  29.766  25.958  1.00  0.00     0.031 C 
ATOM     65  C   UNL A   1      48.749  34.645  26.617  1.00  0.00     0.029 A 
ATOM     66  C   UNL A   1      49.189  33.335  26.510  1.00  0.00     0.049 A 
ATOM     67  H   UNL A   1      48.066  31.548  26.512  1.00  0.00     0.167 HD
ATOM     68  C   UNL A   1      50.889  31.550  26.257  1.00  0.00     0.074 A 
ATOM     69  C   UNL A   1      52.249  31.084  26.088  1.00  0.00     0.031 C 
ATOM     70  C   UNL A   1      50.538  32.855  26.362  1.00  0.00     0.037 A 
BRANCH  57  71
ATOM     71  C   UNL A   1      44.467  33.791  26.975  1.00  0.00     0.057 A 
ATOM     72  C   UNL A   1      44.039  34.227  28.237  1.00  0.00     0.134 A 
ATOM     73  C   UNL A   1      43.844  34.352  25.853  1.00  0.00     0.134 A 
ATOM     74  F   UNL A   1      44.586  33.719  29.352  1.00  0.00    -0.206 F 
ATOM     75  C   UNL A   1      43.019  35.170  28.377  1.00  0.00     0.040 A 
ATOM     76  C   UNL A   1      42.842  35.316  25.981  1.00  0.00     0.040 A 
ATOM     77  F   UNL A   1      44.209  33.983  24.616  1.00  0.00    -0.206 F 
ATOM     78  C   UNL A   1      42.424  35.723  27.246  1.00  0.00     0.006 A 
ENDBRANCH  57  71
BRANCH  58  79
ATOM     79  C   UNL A   1      51.638  26.924  25.943  1.00  0.00     0.057 A 
ATOM     80  C   UNL A   1      52.370  26.459  27.042  1.00  0.00     0.134 A 
ATOM     81  C   UNL A   1      51.989  26.434  24.680  1.00  0.00     0.134 A 
ATOM     82  F   UNL A   1      52.094  26.907  28.275  1.00  0.00    -0.206 F 
ATOM     83  C   UNL A   1      53.432  25.566  26.889  1.00  0.00     0.040 A 
ATOM     84  C   UNL A   1      53.030  25.519  24.515  1.00  0.00     0.040 A 
ATOM     85  F   UNL A   1      51.323  26.836  23.587  1.00  0.00    -0.206 F 
ATOM     86  C   UNL A   1      53.763  25.091  25.621  1.00  0.00     0.006 A 
ENDBRANCH  58  79
BRANCH  70  87
ATOM     87  C   UNL A   1      51.646  33.866  26.347  1.00  0.00     0.057 A 
ATOM     88  C   UNL A   1      52.066  34.486  25.164  1.00  0.00     0.134 A 
ATOM     89  C   UNL A   1      52.272  34.252  27.539  1.00  0.00     0.134 A 
ATOM     90  F   UNL A   1      51.515  34.151  23.987  1.00  0.00    -0.206 F 
ATOM     91  C   UNL A   1      53.089  35.437  25.164  1.00  0.00     0.040 A 
ATOM     92  C   UNL A   1      53.277  35.219  27.555  1.00  0.00     0.040 A 
ATOM     93  F   UNL A   1      51.909  33.702  28.708  1.00  0.00    -0.206 F 
ATOM     94  C   UNL A   1      53.692  35.810  26.363  1.00  0.00     0.006 A 
ENDBRANCH  70  87
ENDBRANCH  44  45
ENDBRANCH  36  39
ENDBRANCH  34  35
ENDBRANCH  33  34
ENDBRANCH  32  33
ENDBRANCH  31  32
ENDBRANCH   1  31
TORSDOF 19
ENDMDL
MODEL 2
REMARK VINA RESULT:     -10.2      2.159      7.308
REMARK SMILES COc1ccc(-c2nc(NCC(=O)NCCCCCCNC(=O)c3ccc(-c4c5nc(c(-c6c(F)cccc6F)c6ccc([nH]6)c(-c6c(F)cccc6F)c6nc(c(-c7c(F)cccc7F)c7ccc4[nH]7)C=C6)C=C5)cc3)sc2-c2ccc(OC)cc2)cc1
REMARK SMILES IDX 16 1 15 2 14 3 12 4 13 5 11 7 10 8 9 10 7 11 8 12 79 13
REMARK SMILES IDX 78 14 6 15 3 16 4 17 89 18 5 19 88 20 2 21 1 22 80 23 81 24
REMARK SMILES IDX 87 25 82 26 86 27 83 28 84 29 85 30 17 31 18 32 19 33 20 34
REMARK SMILES IDX 21 35 22 36 23 38 24 39 25 40 77 41 26 42 76 43 27 44 28 45
REMARK SMILES IDX 29 46 70 47 30 48 75 49 69 50 71 51 31 52 74 53 68 54 67 55
REMARK SMILES IDX 32 57 58 58 41 59 57 60 42 61 45 62 56 63 72 64 43 65 44 66
REMARK SMILES IDX 55 68 73 69 46 70 33 71 34 72 39 73 35 74 36 75 38 76 40 77
REMARK SMILES IDX 37 78 59 79 60 80 65 81 61 82 62 83 64 84 66 85 63 86 47 87
REMARK SMILES IDX 48 88 53 89 49 90 50 91 52 92 54 93 51 94
REMARK H PARENT 14 6 10 9 21 37 71 56 45 67
REMARK Flexibility Score: inf
ROOT
ATOM      1  C   UNL A   1      37.233  23.235  24.824  1.00  0.00     0.021 C 
ENDROOT
BRANCH   1   2
ATOM      2  C   UNL A   1      35.722  23.196  24.597  1.00  0.00     0.116 C 
BRANCH   2   3
ATOM      3  N   UNL A   1      35.263  21.841  24.374  1.00  0.00    -0.355 N 
ATOM      4  C   UNL A   1      34.072  21.273  24.735  1.00  0.00     0.239 C 
ATOM      5  O   UNL A   1      33.918  20.066  24.539  1.00  0.00    -0.273 OA
ATOM      6  H   UNL A   1      35.890  21.250  23.897  1.00  0.00     0.163 HD
BRANCH   4   7
ATOM      7  C   UNL A   1      32.947  22.144  25.306  1.00  0.00     0.215 C 
BRANCH   7   8
ATOM      8  N   UNL A   1      32.208  22.836  24.262  1.00  0.00    -0.352 N 
ATOM      9  H   UNL A   1      32.025  22.336  23.434  1.00  0.00     0.163 HD
BRANCH   8  10
ATOM     10  C   UNL A   1      31.753  24.105  24.331  1.00  0.00     0.184 A 
ATOM     11  C   UNL A   1      31.798  26.262  24.852  1.00  0.00     0.091 A 
ATOM     12  N   UNL A   1      32.410  25.028  24.997  1.00  0.00    -0.220 NA
ATOM     13  C   UNL A   1      30.722  26.292  23.977  1.00  0.00     0.064 A 
ATOM     14  S   UNL A   1      30.331  24.685  23.542  1.00  0.00    -0.096 S 
BRANCH  11  15
ATOM     15  C   UNL A   1      32.283  27.432  25.569  1.00  0.00     0.002 A 
ATOM     16  C   UNL A   1      33.176  29.720  26.934  1.00  0.00     0.118 A 
ATOM     17  C   UNL A   1      31.939  29.154  27.241  1.00  0.00     0.047 A 
ATOM     18  C   UNL A   1      33.980  29.125  25.960  1.00  0.00     0.047 A 
ATOM     19  C   UNL A   1      31.490  28.022  26.561  1.00  0.00     0.014 A 
ATOM     20  C   UNL A   1      33.539  27.978  25.284  1.00  0.00     0.014 A 
BRANCH  16  21
ATOM     21  O   UNL A   1      33.501  30.817  27.682  1.00  0.00    -0.497 OA
ATOM     22  C   UNL A   1      34.870  30.953  28.039  1.00  0.00     0.278 C 
ENDBRANCH  16  21
ENDBRANCH  11  15
BRANCH  13  23
ATOM     23  C   UNL A   1      29.971  27.416  23.412  1.00  0.00    -0.006 A 
ATOM     24  C   UNL A   1      30.605  28.459  22.731  1.00  0.00     0.013 A 
ATOM     25  C   UNL A   1      28.575  27.453  23.551  1.00  0.00     0.013 A 
ATOM     26  C   UNL A   1      29.852  29.506  22.189  1.00  0.00     0.047 A 
ATOM     27  C   UNL A   1      27.824  28.501  23.006  1.00  0.00     0.047 A 
ATOM     28  C   UNL A   1      28.461  29.528  22.315  1.00  0.00     0.118 A 
BRANCH  28  29
ATOM     29  O   UNL A   1      27.846  30.599  21.727  1.00  0.00    -0.497 OA
ATOM     30  C   UNL A   1      28.382  31.884  22.024  1.00  0.00     0.278 C 
ENDBRANCH  28  29
ENDBRANCH  13  23
ENDBRANCH   8  10
ENDBRANCH   7   8
ENDBRANCH   4   7
ENDBRANCH   2   3
ENDBRANCH   1   2
BRANCH   1  31
ATOM     31  C   UNL A   1      37.621  23.355  26.303  1.00  0.00     0.002 C 
BRANCH  31  32
ATOM     32  C   UNL A   1      39.120  23.539  26.565  1.00  0.00     0.002 C 
BRANCH  32  33
ATOM     33  C   UNL A   1      39.549  24.970  26.900  1.00  0.00     0.021 C 
BRANCH  33  34
ATOM     34  C   UNL A   1      41.047  25.227  26.767  1.00  0.00     0.116 C 
BRANCH  34  35
ATOM     35  N   UNL A   1      41.827  24.013  26.955  1.00  0.00    -0.352 N 
ATOM     36  C   UNL A   1      43.183  23.832  26.880  1.00  0.00     0.251 C 
ATOM     37  H   UNL A   1      41.306  23.206  27.168  1.00  0.00     0.163 HD
ATOM     38  O   UNL A   1      43.656  22.694  26.871  1.00  0.00    -0.269 OA
BRANCH  36  39
ATOM     39  C   UNL A   1      44.083  24.999  26.791  1.00  0.00     0.039 A 
ATOM     40  C   UNL A   1      44.388  25.527  25.534  1.00  0.00     0.014 A 
ATOM     41  C   UNL A   1      44.639  25.564  27.944  1.00  0.00     0.014 A 
ATOM     42  C   UNL A   1      45.204  26.656  25.435  1.00  0.00     0.010 A 
ATOM     43  C   UNL A   1      45.396  26.727  27.849  1.00  0.00     0.010 A 
ATOM     44  C   UNL A   1      45.690  27.283  26.594  1.00  0.00    -0.014 A 
BRANCH  44  45
ATOM     45  C   UNL A   1      46.511  28.518  26.515  1.00  0.00     0.031 A 
ATOM     46  C   UNL A   1      48.004  28.422  26.365  1.00  0.00     0.074 A 
ATOM     47  C   UNL A   1      45.919  29.723  26.634  1.00  0.00     0.049 A 
ATOM     48  N   UNL A   1      48.898  29.378  26.363  1.00  0.00    -0.248 NA
ATOM     49  C   UNL A   1      48.570  27.071  26.224  1.00  0.00     0.031 C 
ATOM     50  C   UNL A   1      44.483  29.948  26.817  1.00  0.00     0.029 A 
ATOM     51  N   UNL A   1      46.455  30.986  26.629  1.00  0.00    -0.354 N 
ATOM     52  C   UNL A   1      50.128  28.745  26.227  1.00  0.00     0.074 A 
ATOM     53  C   UNL A   1      49.871  27.321  26.205  1.00  0.00     0.031 C 
ATOM     54  C   UNL A   1      44.251  31.269  26.886  1.00  0.00     0.029 A 
ATOM     55  C   UNL A   1      45.521  31.982  26.792  1.00  0.00     0.049 A 
ATOM     56  H   UNL A   1      47.417  31.163  26.519  1.00  0.00     0.167 HD
ATOM     57  C   UNL A   1      51.357  29.300  26.105  1.00  0.00     0.037 A 
ATOM     58  C   UNL A   1      45.674  33.316  26.865  1.00  0.00     0.037 A 
ATOM     59  C   UNL A   1      51.609  30.718  26.102  1.00  0.00     0.049 A 
ATOM     60  C   UNL A   1      47.054  33.906  26.745  1.00  0.00     0.074 A 
ATOM     61  C   UNL A   1      52.815  31.379  25.952  1.00  0.00     0.029 A 
ATOM     62  N   UNL A   1      50.634  31.693  26.251  1.00  0.00    -0.354 N 
ATOM     63  N   UNL A   1      48.201  33.296  26.573  1.00  0.00    -0.248 NA
ATOM     64  C   UNL A   1      47.158  35.370  26.827  1.00  0.00     0.031 C 
ATOM     65  C   UNL A   1      52.576  32.753  26.046  1.00  0.00     0.029 A 
ATOM     66  C   UNL A   1      51.215  32.949  26.210  1.00  0.00     0.049 A 
ATOM     67  H   UNL A   1      49.673  31.517  26.370  1.00  0.00     0.167 HD
ATOM     68  C   UNL A   1      49.157  34.302  26.488  1.00  0.00     0.074 A 
ATOM     69  C   UNL A   1      48.453  35.560  26.619  1.00  0.00     0.031 C 
ATOM     70  C   UNL A   1      50.497  34.192  26.321  1.00  0.00     0.037 A 
BRANCH  57  71
ATOM     71  C   UNL A   1      52.525  28.373  25.947  1.00  0.00     0.057 A 
ATOM     72  C   UNL A   1      52.969  27.960  24.684  1.00  0.00     0.134 A 
ATOM     73  C   UNL A   1      53.248  27.932  27.061  1.00  0.00     0.134 A 
ATOM     74  F   UNL A   1      52.312  28.337  23.576  1.00  0.00    -0.206 F 
ATOM     75  C   UNL A   1      54.078  27.126  24.535  1.00  0.00     0.040 A 
ATOM     76  C   UNL A   1      54.376  27.120  26.925  1.00  0.00     0.040 A 
ATOM     77  F   UNL A   1      52.881  28.295  28.300  1.00  0.00    -0.206 F 
ATOM     78  C   UNL A   1      54.790  26.710  25.659  1.00  0.00     0.006 A 
ENDBRANCH  57  71
BRANCH  58  79
ATOM     79  C   UNL A   1      44.495  34.200  27.046  1.00  0.00     0.057 A 
ATOM     80  C   UNL A   1      44.002  34.490  28.324  1.00  0.00     0.134 A 
ATOM     81  C   UNL A   1      43.811  34.744  25.952  1.00  0.00     0.134 A 
ATOM     82  F   UNL A   1      44.602  33.982  29.410  1.00  0.00    -0.206 F 
ATOM     83  C   UNL A   1      42.854  35.264  28.508  1.00  0.00     0.040 A 
ATOM     84  C   UNL A   1      42.678  35.542  26.122  1.00  0.00     0.040 A 
ATOM     85  F   UNL A   1      44.235  34.508  24.701  1.00  0.00    -0.206 F 
ATOM     86  C   UNL A   1      42.191  35.795  27.404  1.00  0.00     0.006 A 
ENDBRANCH  58  79
BRANCH  70  87
ATOM     87  C   UNL A   1      51.283  35.467  26.221  1.00  0.00     0.057 A 
ATOM     88  C   UNL A   1      51.542  36.081  24.990  1.00  0.00     0.134 A 
ATOM     89  C   UNL A   1      51.751  36.106  27.376  1.00  0.00     0.134 A 
ATOM     90  F   UNL A   1      51.132  35.513  23.846  1.00  0.00    -0.206 F 
ATOM     91  C   UNL A   1      52.261  37.275  24.910  1.00  0.00     0.040 A 
ATOM     92  C   UNL A   1      52.448  37.312  27.310  1.00  0.00     0.040 A 
ATOM     93  F   UNL A   1      51.527  35.573  28.587  1.00  0.00    -0.206 F 
ATOM     94  C   UNL A   1      52.711  37.897  26.073  1.00  0.00     0.006 A 
ENDBRANCH  70  87
ENDBRANCH  44  45
ENDBRANCH  36  39
ENDBRANCH  34  35
ENDBRANCH  33  34
ENDBRANCH  32  33
ENDBRANCH  31  32
ENDBRANCH   1  31
TORSDOF 19
ENDMDL
MODEL 3
REMARK VINA RESULT:      -9.9      5.777     13.217
REMARK SMILES COc1ccc(-c2nc(NCC(=O)NCCCCCCNC(=O)c3ccc(-c4c5nc(c(-c6c(F)cccc6F)c6ccc([nH]6)c(-c6c(F)cccc6F)c6nc(c(-c7c(F)cccc7F)c7ccc4[nH]7)C=C6)C=C5)cc3)sc2-c2ccc(OC)cc2)cc1
REMARK SMILES IDX 16 1 15 2 14 3 12 4 13 5 11 7 10 8 9 10 7 11 8 12 79 13
REMARK SMILES IDX 78 14 6 15 3 16 4 17 89 18 5 19 88 20 2 21 1 22 80 23 81 24
REMARK SMILES IDX 87 25 82 26 86 27 83 28 84 29 85 30 17 31 18 32 19 33 20 34
REMARK SMILES IDX 21 35 22 36 23 38 24 39 25 40 77 41 26 42 76 43 27 44 28 45
REMARK SMILES IDX 29 46 70 47 30 48 75 49 69 50 71 51 31 52 74 53 68 54 67 55
REMARK SMILES IDX 32 57 58 58 41 59 57 60 42 61 45 62 56 63 72 64 43 65 44 66
REMARK SMILES IDX 55 68 73 69 46 70 33 71 34 72 39 73 35 74 36 75 38 76 40 77
REMARK SMILES IDX 37 78 59 79 60 80 65 81 61 82 62 83 64 84 66 85 63 86 47 87
REMARK SMILES IDX 48 88 53 89 49 90 50 91 52 92 54 93 51 94
REMARK H PARENT 14 6 10 9 21 37 71 56 45 67
REMARK Flexibility Score: inf
ROOT
ATOM      1  C   UNL A   1      47.367  27.087  28.759  1.00  0.00     0.021 C 
ENDROOT
BRANCH   1   2
ATOM      2  C   UNL A   1      46.692  28.325  28.171  1.00  0.00     0.116 C 
BRANCH   2   3
ATOM      3  N   UNL A   1      46.748  28.313  26.725  1.00  0.00    -0.355 N 
ATOM      4  C   UNL A   1      46.613  29.360  25.856  1.00  0.00     0.239 C 
ATOM      5  O   UNL A   1      46.593  29.118  24.647  1.00  0.00    -0.273 OA
ATOM      6  H   UNL A   1      46.906  27.433  26.311  1.00  0.00     0.163 HD
BRANCH   4   7
ATOM      7  C   UNL A   1      46.558  30.798  26.388  1.00  0.00     0.215 C 
BRANCH   7   8
ATOM      8  N   UNL A   1      45.521  31.582  25.735  1.00  0.00    -0.352 N 
ATOM      9  H   UNL A   1      45.265  31.316  24.822  1.00  0.00     0.163 HD
BRANCH   8  10
ATOM     10  C   UNL A   1      44.881  32.641  26.274  1.00  0.00     0.184 A 
ATOM     11  C   UNL A   1      44.025  33.902  27.888  1.00  0.00     0.091 A 
ATOM     12  N   UNL A   1      44.601  32.686  27.557  1.00  0.00    -0.220 NA
ATOM     13  C   UNL A   1      43.967  34.831  26.859  1.00  0.00     0.064 A 
ATOM     14  S   UNL A   1      44.410  34.054  25.401  1.00  0.00    -0.096 S 
BRANCH  11  15
ATOM     15  C   UNL A   1      43.540  34.164  29.234  1.00  0.00     0.002 A 
ATOM     16  C   UNL A   1      42.640  34.634  31.854  1.00  0.00     0.118 A 
ATOM     17  C   UNL A   1      43.960  34.911  31.502  1.00  0.00     0.047 A 
ATOM     18  C   UNL A   1      41.760  34.144  30.887  1.00  0.00     0.047 A 
ATOM     19  C   UNL A   1      44.411  34.674  30.204  1.00  0.00     0.014 A 
ATOM     20  C   UNL A   1      42.206  33.917  29.576  1.00  0.00     0.014 A 
BRANCH  16  21
ATOM     21  O   UNL A   1      42.324  34.924  33.152  1.00  0.00    -0.497 OA
ATOM     22  C   UNL A   1      42.756  36.189  33.638  1.00  0.00     0.278 C 
ENDBRANCH  16  21
ENDBRANCH  11  15
BRANCH  13  23
ATOM     23  C   UNL A   1      43.635  36.257  26.867  1.00  0.00    -0.006 A 
ATOM     24  C   UNL A   1      42.311  36.706  26.887  1.00  0.00     0.013 A 
ATOM     25  C   UNL A   1      44.667  37.208  26.857  1.00  0.00     0.013 A 
ATOM     26  C   UNL A   1      42.032  38.076  26.912  1.00  0.00     0.047 A 
ATOM     27  C   UNL A   1      44.385  38.578  26.884  1.00  0.00     0.047 A 
ATOM     28  C   UNL A   1      43.065  39.018  26.921  1.00  0.00     0.118 A 
BRANCH  28  29
ATOM     29  O   UNL A   1      42.655  40.322  26.961  1.00  0.00    -0.497 OA
ATOM     30  C   UNL A   1      41.487  40.600  27.726  1.00  0.00     0.278 C 
ENDBRANCH  28  29
ENDBRANCH  13  23
ENDBRANCH   8  10
ENDBRANCH   7   8
ENDBRANCH   4   7
ENDBRANCH   2   3
ENDBRANCH   1   2
BRANCH   1  31
ATOM     31  C   UNL A   1      48.412  26.464  27.824  1.00  0.00     0.002 C 
BRANCH  31  32
ATOM     32  C   UNL A   1      48.204  24.975  27.522  1.00  0.00     0.002 C 
BRANCH  32  33
ATOM     33  C   UNL A   1      47.307  24.677  26.318  1.00  0.00     0.021 C 
BRANCH  33  34
ATOM     34  C   UNL A   1      46.174  23.695  26.603  1.00  0.00     0.116 C 
BRANCH  34  35
ATOM     35  N   UNL A   1      45.242  23.601  25.490  1.00  0.00    -0.352 N 
ATOM     36  C   UNL A   1      43.957  24.066  25.392  1.00  0.00     0.251 C 
ATOM     37  H   UNL A   1      45.584  23.138  24.692  1.00  0.00     0.163 HD
ATOM     38  O   UNL A   1      43.245  23.723  24.446  1.00  0.00    -0.269 OA
BRANCH  36  39
ATOM     39  C   UNL A   1      43.412  24.967  26.427  1.00  0.00     0.039 A 
ATOM     40  C   UNL A   1      42.431  24.484  27.298  1.00  0.00     0.014 A 
ATOM     41  C   UNL A   1      43.857  26.288  26.532  1.00  0.00     0.014 A 
ATOM     42  C   UNL A   1      41.936  25.309  28.309  1.00  0.00     0.010 A 
ATOM     43  C   UNL A   1      43.412  27.087  27.582  1.00  0.00     0.010 A 
ATOM     44  C   UNL A   1      42.445  26.608  28.478  1.00  0.00    -0.014 A 
BRANCH  44  45
ATOM     45  C   UNL A   1      41.974  27.481  29.583  1.00  0.00     0.031 A 
ATOM     46  C   UNL A   1      42.644  27.421  30.928  1.00  0.00     0.074 A 
ATOM     47  C   UNL A   1      40.910  28.284  29.393  1.00  0.00     0.049 A 
ATOM     48  N   UNL A   1      42.327  28.037  32.038  1.00  0.00    -0.248 NA
ATOM     49  C   UNL A   1      43.810  26.531  31.049  1.00  0.00     0.031 C 
ATOM     50  C   UNL A   1      40.153  28.408  28.145  1.00  0.00     0.029 A 
ATOM     51  N   UNL A   1      40.273  29.144  30.254  1.00  0.00    -0.354 N 
ATOM     52  C   UNL A   1      43.247  27.607  32.987  1.00  0.00     0.074 A 
ATOM     53  C   UNL A   1      44.100  26.636  32.338  1.00  0.00     0.031 C 
ATOM     54  C   UNL A   1      39.169  29.306  28.315  1.00  0.00     0.029 A 
ATOM     55  C   UNL A   1      39.199  29.792  29.691  1.00  0.00     0.049 A 
ATOM     56  H   UNL A   1      40.559  29.282  31.185  1.00  0.00     0.167 HD
ATOM     57  C   UNL A   1      43.385  28.005  34.274  1.00  0.00     0.037 A 
ATOM     58  C   UNL A   1      38.334  30.671  30.228  1.00  0.00     0.037 A 
ATOM     59  C   UNL A   1      42.551  28.989  34.912  1.00  0.00     0.049 A 
ATOM     60  C   UNL A   1      38.499  31.081  31.667  1.00  0.00     0.074 A 
ATOM     61  C   UNL A   1      42.632  29.482  36.202  1.00  0.00     0.029 A 
ATOM     62  N   UNL A   1      41.486  29.635  34.303  1.00  0.00    -0.354 N 
ATOM     63  N   UNL A   1      39.401  30.697  32.537  1.00  0.00    -0.248 NA
ATOM     64  C   UNL A   1      37.527  32.048  32.196  1.00  0.00     0.031 C 
ATOM     65  C   UNL A   1      41.593  30.401  36.386  1.00  0.00     0.029 A 
ATOM     66  C   UNL A   1      40.893  30.512  35.196  1.00  0.00     0.049 A 
ATOM     67  H   UNL A   1      41.193  29.490  33.374  1.00  0.00     0.167 HD
ATOM     68  C   UNL A   1      39.128  31.403  33.703  1.00  0.00     0.074 A 
ATOM     69  C   UNL A   1      37.984  32.244  33.424  1.00  0.00     0.031 C 
ATOM     70  C   UNL A   1      39.767  31.356  34.897  1.00  0.00     0.037 A 
BRANCH  57  71
ATOM     71  C   UNL A   1      44.491  27.386  35.077  1.00  0.00     0.057 A 
ATOM     72  C   UNL A   1      45.732  28.019  35.227  1.00  0.00     0.134 A 
ATOM     73  C   UNL A   1      44.298  26.174  35.751  1.00  0.00     0.134 A 
ATOM     74  F   UNL A   1      45.985  29.177  34.596  1.00  0.00    -0.206 F 
ATOM     75  C   UNL A   1      46.748  27.460  36.004  1.00  0.00     0.040 A 
ATOM     76  C   UNL A   1      45.298  25.619  36.553  1.00  0.00     0.040 A 
ATOM     77  F   UNL A   1      43.132  25.518  35.655  1.00  0.00    -0.206 F 
ATOM     78  C   UNL A   1      46.529  26.260  36.676  1.00  0.00     0.006 A 
ENDBRANCH  57  71
BRANCH  58  79
ATOM     79  C   UNL A   1      37.237  31.243  29.407  1.00  0.00     0.057 A 
ATOM     80  C   UNL A   1      36.095  30.491  29.105  1.00  0.00     0.134 A 
ATOM     81  C   UNL A   1      37.317  32.535  28.874  1.00  0.00     0.134 A 
ATOM     82  F   UNL A   1      35.970  29.239  29.571  1.00  0.00    -0.206 F 
ATOM     83  C   UNL A   1      35.086  30.990  28.279  1.00  0.00     0.040 A 
ATOM     84  C   UNL A   1      36.303  33.058  28.069  1.00  0.00     0.040 A 
ATOM     85  F   UNL A   1      38.382  33.310  29.129  1.00  0.00    -0.206 F 
ATOM     86  C   UNL A   1      35.188  32.279  27.761  1.00  0.00     0.006 A 
ENDBRANCH  58  79
BRANCH  70  87
ATOM     87  C   UNL A   1      39.272  32.274  35.976  1.00  0.00     0.057 A 
ATOM     88  C   UNL A   1      38.351  31.852  36.942  1.00  0.00     0.134 A 
ATOM     89  C   UNL A   1      39.754  33.586  36.069  1.00  0.00     0.134 A 
ATOM     90  F   UNL A   1      37.841  30.611  36.900  1.00  0.00    -0.206 F 
ATOM     91  C   UNL A   1      37.908  32.710  37.950  1.00  0.00     0.040 A 
ATOM     92  C   UNL A   1      39.338  34.445  37.087  1.00  0.00     0.040 A 
ATOM     93  F   UNL A   1      40.645  34.049  35.179  1.00  0.00    -0.206 F 
ATOM     94  C   UNL A   1      38.408  34.009  38.028  1.00  0.00     0.006 A 
ENDBRANCH  70  87
ENDBRANCH  44  45
ENDBRANCH  36  39
ENDBRANCH  34  35
ENDBRANCH  33  34
ENDBRANCH  32  33
ENDBRANCH  31  32
ENDBRANCH   1  31
TORSDOF 19
ENDMDL
